MODEL 1
REMARK VINA RESULT:      -5.7      0.000      0.000
REMARK  2 active torsions:
REMARK  status: ('A' for Active; 'I' for Inactive)
REMARK    1  A    between atoms: C3_3  and  C8_8 
REMARK    2  A    between atoms: C8_8  and  C9_9 
ROOT
HETATM    1  C1  UNL     1     -32.740   6.089   2.381  1.00 20.00     0.302 C 
HETATM    2  C2  UNL     1     -34.328   5.947   4.241  1.00 20.00     0.244 C 
HETATM    3  C3  UNL     1     -32.959   7.582   2.615  1.00 20.00     0.150 C 
HETATM    4  C4  UNL     1     -33.279   6.865   4.898  1.00 20.00     0.150 C 
HETATM    5  C5  UNL     1     -34.859   4.861   5.172  1.00 20.00     0.045 C 
HETATM    6  C6  UNL     1     -33.783   7.553   6.162  1.00 20.00     0.042 C 
HETATM    7  N10 UNL     1     -33.754   5.280   3.058  1.00 20.00     0.092 N 
HETATM    8  O11 UNL     1     -32.866   7.911   4.005  1.00 20.00    -0.377 OA
HETATM    9  H30 UNL     1     -34.509   5.056   2.390  1.00 20.00     0.316 HD
ENDROOT
BRANCH   3  10
HETATM   10  C8  UNL     1     -31.924   8.418   1.876  1.00 20.00     0.033 C 
BRANCH  10  11
HETATM   11  C9  UNL     1     -32.553   9.668   1.270  1.00 20.00    -0.002 C 
HETATM   12  C7  UNL     1     -32.945   9.440  -0.181  1.00 20.00     0.005 C 
ENDBRANCH  10  11
ENDBRANCH   3  10
TORSDOF 2
ENDMDL
MODEL 2
REMARK VINA RESULT:      -4.8      1.448      2.233
REMARK  2 active torsions:
REMARK  status: ('A' for Active; 'I' for Inactive)
REMARK    1  A    between atoms: C3_3  and  C8_8 
REMARK    2  A    between atoms: C8_8  and  C9_9 
ROOT
HETATM    1  C1  UNL     1     -33.599   8.000   4.176  1.00 20.00     0.302 C 
HETATM    2  C2  UNL     1     -33.714   5.572   4.481  1.00 20.00     0.244 C 
HETATM    3  C3  UNL     1     -32.291   7.616   3.487  1.00 20.00     0.150 C 
HETATM    4  C4  UNL     1     -33.519   5.607   2.953  1.00 20.00     0.150 C 
HETATM    5  C5  UNL     1     -34.755   4.554   4.941  1.00 20.00     0.045 C 
HETATM    6  C6  UNL     1     -33.131   4.257   2.360  1.00 20.00     0.042 C 
HETATM    7  N10 UNL     1     -34.136   6.896   4.972  1.00 20.00     0.092 N 
HETATM    8  O11 UNL     1     -32.481   6.527   2.579  1.00 20.00    -0.377 OA
HETATM    9  H30 UNL     1     -33.835   7.009   5.953  1.00 20.00     0.316 HD
ENDROOT
BRANCH   3  10
HETATM   10  C8  UNL     1     -31.719   8.782   2.693  1.00 20.00     0.033 C 
BRANCH  10  11
HETATM   11  C9  UNL     1     -32.354   8.871   1.308  1.00 20.00    -0.002 C 
HETATM   12  C7  UNL     1     -32.689  10.309   0.948  1.00 20.00     0.005 C 
ENDBRANCH  10  11
ENDBRANCH   3  10
TORSDOF 2
ENDMDL
MODEL 3
REMARK VINA RESULT:      -4.7     10.895     11.585
REMARK  2 active torsions:
REMARK  status: ('A' for Active; 'I' for Inactive)
REMARK    1  A    between atoms: C3_3  and  C8_8 
REMARK    2  A    between atoms: C8_8  and  C9_9 
ROOT
HETATM    1  C1  UNL     1     -33.254  14.620  -4.377  1.00 20.00     0.302 C 
HETATM    2  C2  UNL     1     -34.867  14.144  -6.159  1.00 20.00     0.244 C 
HETATM    3  C3  UNL     1     -34.242  15.752  -4.105  1.00 20.00     0.150 C 
HETATM    4  C4  UNL     1     -35.836  14.154  -4.962  1.00 20.00     0.150 C 
HETATM    5  C5  UNL     1     -35.131  13.014  -7.151  1.00 20.00     0.045 C 
HETATM    6  C6  UNL     1     -37.303  14.237  -5.369  1.00 20.00     0.042 C 
HETATM    7  N10 UNL     1     -33.476  14.010  -5.689  1.00 20.00     0.092 N 
HETATM    8  O11 UNL     1     -35.592  15.275  -4.098  1.00 20.00    -0.377 OA
HETATM    9  H30 UNL     1     -32.839  14.444  -6.375  1.00 20.00     0.316 HD
ENDROOT
BRANCH   3  10
HETATM   10  C8  UNL     1     -33.980  16.406  -2.756  1.00 20.00     0.033 C 
BRANCH  10  11
HETATM   11  C9  UNL     1     -35.279  16.623  -1.986  1.00 20.00    -0.002 C 
HETATM   12  C7  UNL     1     -35.025  17.345  -0.672  1.00 20.00     0.005 C 
ENDBRANCH  10  11
ENDBRANCH   3  10
TORSDOF 2
ENDMDL
MODEL 4
REMARK VINA RESULT:      -4.4     10.850     12.385
REMARK  2 active torsions:
REMARK  status: ('A' for Active; 'I' for Inactive)
REMARK    1  A    between atoms: C3_3  and  C8_8 
REMARK    2  A    between atoms: C8_8  and  C9_9 
ROOT
HETATM    1  C1  UNL     1     -34.158  14.318  -4.210  1.00 20.00     0.302 C 
HETATM    2  C2  UNL     1     -34.070  14.859  -6.598  1.00 20.00     0.244 C 
HETATM    3  C3  UNL     1     -34.320  15.833  -4.111  1.00 20.00     0.150 C 
HETATM    4  C4  UNL     1     -35.404  15.548  -6.250  1.00 20.00     0.150 C 
HETATM    5  C5  UNL     1     -34.105  14.092  -7.917  1.00 20.00     0.045 C 
HETATM    6  C6  UNL     1     -35.887  16.513  -7.327  1.00 20.00     0.042 C 
HETATM    7  N10 UNL     1     -33.696  13.907  -5.536  1.00 20.00     0.092 N 
HETATM    8  O11 UNL     1     -35.298  16.314  -5.040  1.00 20.00    -0.377 OA
HETATM    9  H30 UNL     1     -32.669  13.801  -5.518  1.00 20.00     0.316 HD
ENDROOT
BRANCH   3  10
HETATM   10  C8  UNL     1     -34.764  16.255  -2.718  1.00 20.00     0.033 C 
BRANCH  10  11
HETATM   11  C9  UNL     1     -33.681  17.068  -2.016  1.00 20.00    -0.002 C 
HETATM   12  C7  UNL     1     -34.206  17.690  -0.732  1.00 20.00     0.005 C 
ENDBRANCH  10  11
ENDBRANCH   3  10
TORSDOF 2
ENDMDL
MODEL 5
REMARK VINA RESULT:      -4.1     10.993     11.673
REMARK  2 active torsions:
REMARK  status: ('A' for Active; 'I' for Inactive)
REMARK    1  A    between atoms: C3_3  and  C8_8 
REMARK    2  A    between atoms: C8_8  and  C9_9 
ROOT
HETATM    1  C1  UNL     1     -36.263  17.239  -2.662  1.00 20.00     0.302 C 
HETATM    2  C2  UNL     1     -36.066  15.150  -3.928  1.00 20.00     0.244 C 
HETATM    3  C3  UNL     1     -35.095  16.615  -1.902  1.00 20.00     0.150 C 
HETATM    4  C4  UNL     1     -34.611  15.641  -4.057  1.00 20.00     0.150 C 
HETATM    5  C5  UNL     1     -36.634  14.573  -5.222  1.00 20.00     0.045 C 
HETATM    6  C6  UNL     1     -33.648  14.561  -4.537  1.00 20.00     0.042 C 
HETATM    7  N10 UNL     1     -36.943  16.259  -3.509  1.00 20.00     0.092 N 
HETATM    8  O11 UNL     1     -34.101  16.107  -2.798  1.00 20.00    -0.377 OA
HETATM    9  H30 UNL     1     -37.757  15.879  -3.000  1.00 20.00     0.316 HD
ENDROOT
BRANCH   3  10
HETATM   10  C8  UNL     1     -34.417  17.631  -0.993  1.00 20.00     0.033 C 
BRANCH  10  11
HETATM   11  C9  UNL     1     -32.981  17.894  -1.434  1.00 20.00    -0.002 C 
HETATM   12  C7  UNL     1     -32.190  18.594  -0.341  1.00 20.00     0.005 C 
ENDBRANCH  10  11
ENDBRANCH   3  10
TORSDOF 2
ENDMDL
MODEL 6
REMARK VINA RESULT:      -3.8     10.998     11.695
REMARK  2 active torsions:
REMARK  status: ('A' for Active; 'I' for Inactive)
REMARK    1  A    between atoms: C3_3  and  C8_8 
REMARK    2  A    between atoms: C8_8  and  C9_9 
ROOT
HETATM    1  C1  UNL     1     -36.822  15.578  -3.871  1.00 20.00     0.302 C 
HETATM    2  C2  UNL     1     -36.375  17.650  -2.643  1.00 20.00     0.244 C 
HETATM    3  C3  UNL     1     -35.301  15.606  -4.007  1.00 20.00     0.150 C 
HETATM    4  C4  UNL     1     -35.437  16.709  -1.864  1.00 20.00     0.150 C 
HETATM    5  C5  UNL     1     -37.159  18.608  -1.750  1.00 20.00     0.045 C 
HETATM    6  C6  UNL     1     -34.429  17.445  -0.988  1.00 20.00     0.042 C 
HETATM    7  N10 UNL     1     -37.350  16.868  -3.424  1.00 20.00     0.092 N 
HETATM    8  O11 UNL     1     -34.671  15.880  -2.751  1.00 20.00    -0.377 OA
HETATM    9  H30 UNL     1     -37.647  17.415  -4.247  1.00 20.00     0.316 HD
ENDROOT
BRANCH   3  10
HETATM   10  C8  UNL     1     -34.764  14.274  -4.509  1.00 20.00     0.033 C 
BRANCH  10  11
HETATM   11  C9  UNL     1     -35.829  13.507  -5.288  1.00 20.00    -0.002 C 
HETATM   12  C7  UNL     1     -35.424  13.329  -6.742  1.00 20.00     0.005 C 
ENDBRANCH  10  11
ENDBRANCH   3  10
TORSDOF 2
ENDMDL
MODEL 7
REMARK VINA RESULT:      -3.8     10.827     11.578
REMARK  2 active torsions:
REMARK  status: ('A' for Active; 'I' for Inactive)
REMARK    1  A    between atoms: C3_3  and  C8_8 
REMARK    2  A    between atoms: C8_8  and  C9_9 
ROOT
HETATM    1  C1  UNL     1     -33.755  17.497  -3.240  1.00 20.00     0.302 C 
HETATM    2  C2  UNL     1     -33.480  17.910  -0.841  1.00 20.00     0.244 C 
HETATM    3  C3  UNL     1     -34.480  16.263  -2.707  1.00 20.00     0.150 C 
HETATM    4  C4  UNL     1     -35.011  17.744  -0.876  1.00 20.00     0.150 C 
HETATM    5  C5  UNL     1     -33.010  19.059   0.046  1.00 20.00     0.045 C 
HETATM    6  C6  UNL     1     -35.632  17.541   0.502  1.00 20.00     0.042 C 
HETATM    7  N10 UNL     1     -32.961  18.151  -2.199  1.00 20.00     0.092 N 
HETATM    8  O11 UNL     1     -35.398  16.608  -1.665  1.00 20.00    -0.377 OA
HETATM    9  H30 UNL     1     -31.986  17.817  -2.258  1.00 20.00     0.316 HD
ENDROOT
BRANCH   3  10
HETATM   10  C8  UNL     1     -35.272  15.567  -3.805  1.00 20.00     0.033 C 
BRANCH  10  11
HETATM   11  C9  UNL     1     -34.578  14.287  -4.259  1.00 20.00    -0.002 C 
HETATM   12  C7  UNL     1     -34.056  14.419  -5.680  1.00 20.00     0.005 C 
ENDBRANCH  10  11
ENDBRANCH   3  10
TORSDOF 2
ENDMDL
MODEL 8
REMARK VINA RESULT:      -3.8     11.159     11.770
REMARK  2 active torsions:
REMARK  status: ('A' for Active; 'I' for Inactive)
REMARK    1  A    between atoms: C3_3  and  C8_8 
REMARK    2  A    between atoms: C8_8  and  C9_9 
ROOT
HETATM    1  C1  UNL     1     -32.844  19.263  -0.134  1.00 20.00     0.302 C 
HETATM    2  C2  UNL     1     -31.866  18.611   2.016  1.00 20.00     0.244 C 
HETATM    3  C3  UNL     1     -33.834  18.165   0.249  1.00 20.00     0.150 C 
HETATM    4  C4  UNL     1     -33.305  18.894   2.489  1.00 20.00     0.150 C 
HETATM    5  C5  UNL     1     -30.795  19.148   2.962  1.00 20.00     0.045 C 
HETATM    6  C6  UNL     1     -33.605  18.343   3.879  1.00 20.00     0.042 C 
HETATM    7  N10 UNL     1     -31.636  19.215   0.691  1.00 20.00     0.092 N 
HETATM    8  O11 UNL     1     -34.272  18.307   1.604  1.00 20.00    -0.377 OA
HETATM    9  H30 UNL     1     -30.907  18.681   0.192  1.00 20.00     0.316 HD
ENDROOT
BRANCH   3  10
HETATM   10  C8  UNL     1     -35.070  18.197  -0.638  1.00 20.00     0.033 C 
BRANCH  10  11
HETATM   11  C9  UNL     1     -35.259  16.872  -1.370  1.00 20.00    -0.002 C 
HETATM   12  C7  UNL     1     -34.165  16.653  -2.403  1.00 20.00     0.005 C 
ENDBRANCH  10  11
ENDBRANCH   3  10
TORSDOF 2
ENDMDL
MODEL 9
REMARK VINA RESULT:      -3.6     11.336     12.499
REMARK  2 active torsions:
REMARK  status: ('A' for Active; 'I' for Inactive)
REMARK    1  A    between atoms: C3_3  and  C8_8 
REMARK    2  A    between atoms: C8_8  and  C9_9 
ROOT
HETATM    1  C1  UNL     1     -36.230  16.219  -4.130  1.00 20.00     0.302 C 
HETATM    2  C2  UNL     1     -36.069  14.859  -6.161  1.00 20.00     0.244 C 
HETATM    3  C3  UNL     1     -34.832  15.644  -3.914  1.00 20.00     0.150 C 
HETATM    4  C4  UNL     1     -34.777  15.683  -6.327  1.00 20.00     0.150 C 
HETATM    5  C5  UNL     1     -36.858  14.692  -7.457  1.00 20.00     0.045 C 
HETATM    6  C6  UNL     1     -33.824  15.113  -7.373  1.00 20.00     0.042 C 
HETATM    7  N10 UNL     1     -36.958  15.497  -5.174  1.00 20.00     0.092 N 
HETATM    8  O11 UNL     1     -34.036  15.749  -5.099  1.00 20.00    -0.377 OA
HETATM    9  H30 UNL     1     -37.555  14.779  -4.735  1.00 20.00     0.316 HD
ENDROOT
BRANCH   3  10
HETATM   10  C8  UNL     1     -34.097  16.374  -2.800  1.00 20.00     0.033 C 
BRANCH  10  11
HETATM   11  C9  UNL     1     -35.049  16.771  -1.677  1.00 20.00    -0.002 C 
HETATM   12  C7  UNL     1     -34.357  17.660  -0.657  1.00 20.00     0.005 C 
ENDBRANCH  10  11
ENDBRANCH   3  10
TORSDOF 2
ENDMDL
