MODEL 1
REMARK VINA RESULT:      -4.5      0.000      0.000
REMARK  6 active torsions:
REMARK  status: ('A' for Active; 'I' for Inactive)
REMARK    1  A    between atoms: C4_4  and  C7_7 
REMARK    2  A    between atoms: C5_5  and  C9_9 
REMARK    3  A    between atoms: C6_6  and  C9_9 
REMARK    4  A    between atoms: C7_7  and  C10_10 
REMARK    5  A    between atoms: C8_8  and  C10_10 
REMARK    6  A    between atoms: C9_9  and  C10_10 
ROOT
HETATM    1  C10 UNL     1     -33.689   7.146   2.785  1.00 20.00     0.003 C 
ENDROOT
BRANCH   1   2
HETATM    2  C7  UNL     1     -32.246   7.714   2.890  1.00 20.00     0.005 C 
BRANCH   2   3
HETATM    3  C4  UNL     1     -31.740   8.426   1.630  1.00 20.00    -0.004 C 
HETATM    4  C1  UNL     1     -32.564   9.669   1.328  1.00 20.00     0.005 C 
ENDBRANCH   2   3
ENDBRANCH   1   2
BRANCH   1   5
HETATM    5  C8  UNL     1     -33.757   5.875   1.908  1.00 20.00     0.119 C 
HETATM    6 CL11 UNL     1     -32.675   4.577   2.465  1.00 20.00    -0.130 Cl
ENDBRANCH   1   5
BRANCH   1   7
HETATM    7  C9  UNL     1     -34.338   6.940   4.208  1.00 20.00    -0.010 C 
BRANCH   7   8
HETATM    8  C5  UNL     1     -35.150   5.624   4.325  1.00 20.00     0.000 C 
HETATM    9  C2  UNL     1     -34.644   4.648   5.378  1.00 20.00     0.005 C 
ENDBRANCH   7   8
BRANCH   7  10
HETATM   10  C6  UNL     1     -33.286   7.073   5.340  1.00 20.00     0.000 C 
HETATM   11  C3  UNL     1     -33.721   7.930   6.522  1.00 20.00     0.005 C 
ENDBRANCH   7  10
ENDBRANCH   1   7
TORSDOF 6
ENDMDL
MODEL 2
REMARK VINA RESULT:      -4.4      2.000      2.558
REMARK  6 active torsions:
REMARK  status: ('A' for Active; 'I' for Inactive)
REMARK    1  A    between atoms: C4_4  and  C7_7 
REMARK    2  A    between atoms: C5_5  and  C9_9 
REMARK    3  A    between atoms: C6_6  and  C9_9 
REMARK    4  A    between atoms: C7_7  and  C10_10 
REMARK    5  A    between atoms: C8_8  and  C10_10 
REMARK    6  A    between atoms: C9_9  and  C10_10 
ROOT
HETATM    1  C10 UNL     1     -32.534   7.742   2.754  1.00 20.00     0.003 C 
ENDROOT
BRANCH   1   2
HETATM    2  C7  UNL     1     -32.880   9.030   1.956  1.00 20.00     0.005 C 
BRANCH   2   3
HETATM    3  C4  UNL     1     -32.130   9.186   0.629  1.00 20.00    -0.004 C 
HETATM    4  C1  UNL     1     -33.093   9.401  -0.529  1.00 20.00     0.005 C 
ENDBRANCH   2   3
ENDBRANCH   1   2
BRANCH   1   5
HETATM    5  C8  UNL     1     -31.325   7.940   3.696  1.00 20.00     0.119 C 
HETATM    6 CL11 UNL     1     -31.380   9.473   4.598  1.00 20.00    -0.130 Cl
ENDBRANCH   1   5
BRANCH   1   7
HETATM    7  C9  UNL     1     -33.798   7.162   3.500  1.00 20.00    -0.010 C 
BRANCH   7   8
HETATM    8  C5  UNL     1     -34.209   5.752   3.003  1.00 20.00     0.000 C 
HETATM    9  C2  UNL     1     -33.050   4.846   2.610  1.00 20.00     0.005 C 
ENDBRANCH   7   8
BRANCH   7  10
HETATM   10  C6  UNL     1     -33.620   7.204   5.040  1.00 20.00     0.000 C 
HETATM   11  C3  UNL     1     -34.384   6.128   5.803  1.00 20.00     0.005 C 
ENDBRANCH   7  10
ENDBRANCH   1   7
TORSDOF 6
ENDMDL
MODEL 3
REMARK VINA RESULT:      -4.4      0.506      1.935
REMARK  6 active torsions:
REMARK  status: ('A' for Active; 'I' for Inactive)
REMARK    1  A    between atoms: C4_4  and  C7_7 
REMARK    2  A    between atoms: C5_5  and  C9_9 
REMARK    3  A    between atoms: C6_6  and  C9_9 
REMARK    4  A    between atoms: C7_7  and  C10_10 
REMARK    5  A    between atoms: C8_8  and  C10_10 
REMARK    6  A    between atoms: C9_9  and  C10_10 
ROOT
HETATM    1  C10 UNL     1     -33.355   7.168   2.849  1.00 20.00     0.003 C 
ENDROOT
BRANCH   1   2
HETATM    2  C7  UNL     1     -32.093   8.046   2.622  1.00 20.00     0.005 C 
BRANCH   2   3
HETATM    3  C4  UNL     1     -31.993   8.682   1.231  1.00 20.00    -0.004 C 
HETATM    4  C1  UNL     1     -32.649  10.055   1.201  1.00 20.00     0.005 C 
ENDBRANCH   2   3
ENDBRANCH   1   2
BRANCH   1   5
HETATM    5  C8  UNL     1     -33.485   6.042   1.798  1.00 20.00     0.119 C 
HETATM    6 CL11 UNL     1     -32.760   4.503   2.320  1.00 20.00    -0.130 Cl
ENDBRANCH   1   5
BRANCH   1   7
HETATM    7  C9  UNL     1     -33.430   6.628   4.331  1.00 20.00    -0.010 C 
BRANCH   7   8
HETATM    8  C5  UNL     1     -33.097   7.708   5.392  1.00 20.00     0.000 C 
HETATM    9  C2  UNL     1     -33.987   7.689   6.628  1.00 20.00     0.005 C 
ENDBRANCH   7   8
BRANCH   7  10
HETATM   10  C6  UNL     1     -34.787   5.933   4.617  1.00 20.00     0.000 C 
HETATM   11  C3  UNL     1     -34.678   4.523   5.183  1.00 20.00     0.005 C 
ENDBRANCH   7  10
ENDBRANCH   1   7
TORSDOF 6
ENDMDL
MODEL 4
REMARK VINA RESULT:      -4.1      1.920      2.931
REMARK  6 active torsions:
REMARK  status: ('A' for Active; 'I' for Inactive)
REMARK    1  A    between atoms: C4_4  and  C7_7 
REMARK    2  A    between atoms: C5_5  and  C9_9 
REMARK    3  A    between atoms: C6_6  and  C9_9 
REMARK    4  A    between atoms: C7_7  and  C10_10 
REMARK    5  A    between atoms: C8_8  and  C10_10 
REMARK    6  A    between atoms: C9_9  and  C10_10 
ROOT
HETATM    1  C10 UNL     1     -32.319   7.470   2.537  1.00 20.00     0.003 C 
ENDROOT
BRANCH   1   2
HETATM    2  C7  UNL     1     -33.327   8.486   1.932  1.00 20.00     0.005 C 
BRANCH   2   3
HETATM    3  C4  UNL     1     -32.692   9.613   1.110  1.00 20.00    -0.004 C 
HETATM    4  C1  UNL     1     -33.047   9.489  -0.365  1.00 20.00     0.005 C 
ENDBRANCH   2   3
ENDBRANCH   1   2
BRANCH   1   5
HETATM    5  C8  UNL     1     -31.054   8.160   3.098  1.00 20.00     0.119 C 
HETATM    6 CL11 UNL     1     -31.356   9.073   4.595  1.00 20.00    -0.130 Cl
ENDBRANCH   1   5
BRANCH   1   7
HETATM    7  C9  UNL     1     -33.011   6.519   3.589  1.00 20.00    -0.010 C 
BRANCH   7   8
HETATM    8  C5  UNL     1     -34.122   7.222   4.411  1.00 20.00     0.000 C 
HETATM    9  C2  UNL     1     -33.924   7.187   5.921  1.00 20.00     0.005 C 
ENDBRANCH   7   8
BRANCH   7  10
HETATM   10  C6  UNL     1     -33.521   5.212   2.928  1.00 20.00     0.000 C 
HETATM   11  C3  UNL     1     -34.088   4.182   3.896  1.00 20.00     0.005 C 
ENDBRANCH   7  10
ENDBRANCH   1   7
TORSDOF 6
ENDMDL
MODEL 5
REMARK VINA RESULT:      -4.1     11.208     12.178
REMARK  6 active torsions:
REMARK  status: ('A' for Active; 'I' for Inactive)
REMARK    1  A    between atoms: C4_4  and  C7_7 
REMARK    2  A    between atoms: C5_5  and  C9_9 
REMARK    3  A    between atoms: C6_6  and  C9_9 
REMARK    4  A    between atoms: C7_7  and  C10_10 
REMARK    5  A    between atoms: C8_8  and  C10_10 
REMARK    6  A    between atoms: C9_9  and  C10_10 
ROOT
HETATM    1  C10 UNL     1     -33.781  16.413  -3.308  1.00 20.00     0.003 C 
ENDROOT
BRANCH   1   2
HETATM    2  C7  UNL     1     -35.001  15.524  -3.679  1.00 20.00     0.005 C 
BRANCH   2   3
HETATM    3  C4  UNL     1     -34.645  14.122  -4.188  1.00 20.00    -0.004 C 
HETATM    4  C1  UNL     1     -35.733  13.571  -5.098  1.00 20.00     0.005 C 
ENDBRANCH   2   3
ENDBRANCH   1   2
BRANCH   1   5
HETATM    5  C8  UNL     1     -33.523  17.522  -4.353  1.00 20.00     0.119 C 
HETATM    6 CL11 UNL     1     -33.730  16.971  -6.032  1.00 20.00    -0.130 Cl
ENDBRANCH   1   5
BRANCH   1   7
HETATM    7  C9  UNL     1     -33.897  16.975  -1.838  1.00 20.00    -0.010 C 
BRANCH   7   8
HETATM    8  C5  UNL     1     -33.228  18.362  -1.659  1.00 20.00     0.000 C 
HETATM    9  C2  UNL     1     -32.117  18.411  -0.619  1.00 20.00     0.005 C 
ENDBRANCH   7   8
BRANCH   7  10
HETATM   10  C6  UNL     1     -35.366  16.972  -1.341  1.00 20.00     0.000 C 
HETATM   11  C3  UNL     1     -35.559  17.459   0.090  1.00 20.00     0.005 C 
ENDBRANCH   7  10
ENDBRANCH   1   7
TORSDOF 6
ENDMDL
MODEL 6
REMARK VINA RESULT:      -4.0     11.439     12.276
REMARK  6 active torsions:
REMARK  status: ('A' for Active; 'I' for Inactive)
REMARK    1  A    between atoms: C4_4  and  C7_7 
REMARK    2  A    between atoms: C5_5  and  C9_9 
REMARK    3  A    between atoms: C6_6  and  C9_9 
REMARK    4  A    between atoms: C7_7  and  C10_10 
REMARK    5  A    between atoms: C8_8  and  C10_10 
REMARK    6  A    between atoms: C9_9  and  C10_10 
ROOT
HETATM    1  C10 UNL     1     -35.789  14.886  -4.789  1.00 20.00     0.003 C 
ENDROOT
BRANCH   1   2
HETATM    2  C7  UNL     1     -35.868  13.410  -5.271  1.00 20.00     0.005 C 
BRANCH   2   3
HETATM    3  C4  UNL     1     -35.438  13.184  -6.725  1.00 20.00    -0.004 C 
HETATM    4  C1  UNL     1     -36.059  14.217  -7.653  1.00 20.00     0.005 C 
ENDBRANCH   2   3
ENDBRANCH   1   2
BRANCH   1   5
HETATM    5  C8  UNL     1     -37.137  15.395  -4.230  1.00 20.00     0.119 C 
HETATM    6 CL11 UNL     1     -38.549  14.609  -4.974  1.00 20.00    -0.130 Cl
ENDBRANCH   1   5
BRANCH   1   7
HETATM    7  C9  UNL     1     -34.591  15.107  -3.786  1.00 20.00    -0.010 C 
BRANCH   7   8
HETATM    8  C5  UNL     1     -33.228  15.313  -4.495  1.00 20.00     0.000 C 
HETATM    9  C2  UNL     1     -33.299  16.068  -5.816  1.00 20.00     0.005 C 
ENDBRANCH   7   8
BRANCH   7  10
HETATM   10  C6  UNL     1     -34.896  16.244  -2.775  1.00 20.00     0.000 C 
HETATM   11  C3  UNL     1     -33.668  16.952  -2.218  1.00 20.00     0.005 C 
ENDBRANCH   7  10
ENDBRANCH   1   7
TORSDOF 6
ENDMDL
MODEL 7
REMARK VINA RESULT:      -4.0     11.221     12.078
REMARK  6 active torsions:
REMARK  status: ('A' for Active; 'I' for Inactive)
REMARK    1  A    between atoms: C4_4  and  C7_7 
REMARK    2  A    between atoms: C5_5  and  C9_9 
REMARK    3  A    between atoms: C6_6  and  C9_9 
REMARK    4  A    between atoms: C7_7  and  C10_10 
REMARK    5  A    between atoms: C8_8  and  C10_10 
REMARK    6  A    between atoms: C9_9  and  C10_10 
ROOT
HETATM    1  C10 UNL     1     -34.884  16.361  -3.329  1.00 20.00     0.003 C 
ENDROOT
BRANCH   1   2
HETATM    2  C7  UNL     1     -34.459  14.929  -3.756  1.00 20.00     0.005 C 
BRANCH   2   3
HETATM    3  C4  UNL     1     -33.169  14.859  -4.582  1.00 20.00    -0.004 C 
HETATM    4  C1  UNL     1     -33.153  15.920  -5.673  1.00 20.00     0.005 C 
ENDBRANCH   2   3
ENDBRANCH   1   2
BRANCH   1   5
HETATM    5  C8  UNL     1     -36.408  16.586  -3.462  1.00 20.00     0.119 C 
HETATM    6 CL11 UNL     1     -37.262  15.205  -4.189  1.00 20.00    -0.130 Cl
ENDBRANCH   1   5
BRANCH   1   7
HETATM    7  C9  UNL     1     -34.338  16.728  -1.895  1.00 20.00    -0.010 C 
BRANCH   7   8
HETATM    8  C5  UNL     1     -33.182  17.760  -1.926  1.00 20.00     0.000 C 
HETATM    9  C2  UNL     1     -33.250  18.767  -3.067  1.00 20.00     0.005 C 
ENDBRANCH   7   8
BRANCH   7  10
HETATM   10  C6  UNL     1     -35.482  17.167  -0.944  1.00 20.00     0.000 C 
HETATM   11  C3  UNL     1     -35.022  17.851   0.338  1.00 20.00     0.005 C 
ENDBRANCH   7  10
ENDBRANCH   1   7
TORSDOF 6
ENDMDL
MODEL 8
REMARK VINA RESULT:      -3.9     11.631     12.377
REMARK  6 active torsions:
REMARK  status: ('A' for Active; 'I' for Inactive)
REMARK    1  A    between atoms: C4_4  and  C7_7 
REMARK    2  A    between atoms: C5_5  and  C9_9 
REMARK    3  A    between atoms: C6_6  and  C9_9 
REMARK    4  A    between atoms: C7_7  and  C10_10 
REMARK    5  A    between atoms: C8_8  and  C10_10 
REMARK    6  A    between atoms: C9_9  and  C10_10 
ROOT
HETATM    1  C10 UNL     1     -34.915  16.227  -2.769  1.00 20.00     0.003 C 
ENDROOT
BRANCH   1   2
HETATM    2  C7  UNL     1     -33.614  16.954  -2.326  1.00 20.00     0.005 C 
BRANCH   2   3
HETATM    3  C4  UNL     1     -33.732  17.745  -1.019  1.00 20.00    -0.004 C 
HETATM    4  C1  UNL     1     -32.439  18.479  -0.697  1.00 20.00     0.005 C 
ENDBRANCH   2   3
ENDBRANCH   1   2
BRANCH   1   5
HETATM    5  C8  UNL     1     -35.987  17.209  -3.294  1.00 20.00     0.119 C 
HETATM    6 CL11 UNL     1     -35.308  18.552  -4.242  1.00 20.00    -0.130 Cl
ENDBRANCH   1   5
BRANCH   1   7
HETATM    7  C9  UNL     1     -34.611  15.057  -3.784  1.00 20.00    -0.010 C 
BRANCH   7   8
HETATM    8  C5  UNL     1     -35.725  14.863  -4.844  1.00 20.00     0.000 C 
HETATM    9  C2  UNL     1     -35.986  13.417  -5.244  1.00 20.00     0.005 C 
ENDBRANCH   7   8
BRANCH   7  10
HETATM   10  C6  UNL     1     -33.212  15.218  -4.436  1.00 20.00     0.000 C 
HETATM   11  C3  UNL     1     -33.220  15.845  -5.824  1.00 20.00     0.005 C 
ENDBRANCH   7  10
ENDBRANCH   1   7
TORSDOF 6
ENDMDL
MODEL 9
REMARK VINA RESULT:      -3.9     11.308     12.212
REMARK  6 active torsions:
REMARK  status: ('A' for Active; 'I' for Inactive)
REMARK    1  A    between atoms: C4_4  and  C7_7 
REMARK    2  A    between atoms: C5_5  and  C9_9 
REMARK    3  A    between atoms: C6_6  and  C9_9 
REMARK    4  A    between atoms: C7_7  and  C10_10 
REMARK    5  A    between atoms: C8_8  and  C10_10 
REMARK    6  A    between atoms: C9_9  and  C10_10 
ROOT
HETATM    1  C10 UNL     1     -33.722  15.366  -4.052  1.00 20.00     0.003 C 
ENDROOT
BRANCH   1   2
HETATM    2  C7  UNL     1     -34.709  14.172  -4.166  1.00 20.00     0.005 C 
BRANCH   2   3
HETATM    3  C4  UNL     1     -35.199  13.875  -5.588  1.00 20.00    -0.004 C 
HETATM    4  C1  UNL     1     -36.712  13.992  -5.689  1.00 20.00     0.005 C 
ENDBRANCH   2   3
ENDBRANCH   1   2
BRANCH   1   5
HETATM    5  C8  UNL     1     -33.092  15.741  -5.412  1.00 20.00     0.119 C 
HETATM    6 CL11 UNL     1     -33.821  17.185  -6.153  1.00 20.00    -0.130 Cl
ENDBRANCH   1   5
BRANCH   1   7
HETATM    7  C9  UNL     1     -34.385  16.602  -3.327  1.00 20.00    -0.010 C 
BRANCH   7   8
HETATM    8  C5  UNL     1     -35.851  16.343  -2.895  1.00 20.00     0.000 C 
HETATM    9  C2  UNL     1     -36.893  17.189  -3.615  1.00 20.00     0.005 C 
ENDBRANCH   7   8
BRANCH   7  10
HETATM   10  C6  UNL     1     -33.514  17.105  -2.146  1.00 20.00     0.000 C 
HETATM   11  C3  UNL     1     -34.290  17.466  -0.886  1.00 20.00     0.005 C 
ENDBRANCH   7  10
ENDBRANCH   1   7
TORSDOF 6
ENDMDL
