MODEL 1
REMARK VINA RESULT:      -6.3      0.000      0.000
REMARK  3 active torsions:
REMARK  status: ('A' for Active; 'I' for Inactive)
REMARK    1  A    between atoms: C5_5  and  C6_6 
REMARK    2  A    between atoms: C6_6  and  C7_7 
REMARK    3  A    between atoms: C7_7  and  C8_8 
ROOT
HETATM    1  C1  UNL     1     -32.839  10.186   1.105  1.00 20.00     0.012 C 
HETATM    2  C2  UNL     1     -32.398   9.180   1.589  1.00 20.00    -0.117 C 
HETATM    3  C5  UNL     1     -31.855   7.947   2.178  1.00 20.00     0.093 C 
ENDROOT
BRANCH   3   4
HETATM    4  C6  UNL     1     -32.591   7.587   3.472  1.00 20.00     0.018 C 
BRANCH   4   5
HETATM    5  C7  UNL     1     -33.685   6.507   3.280  1.00 20.00     0.000 C 
HETATM    6  C3  UNL     1     -33.099   5.208   2.712  1.00 20.00     0.011 C 
BRANCH   5   7
HETATM    7  C8  UNL     1     -34.476   6.306   4.599  1.00 20.00     0.082 C 
HETATM    8  C4  UNL     1     -34.615   4.840   5.004  1.00 20.00     0.027 C 
HETATM    9 CL9  UNL     1     -33.763   7.219   5.965  1.00 20.00    -0.125 Cl
ENDBRANCH   5   7
ENDBRANCH   4   5
ENDBRANCH   3   4
TORSDOF 3
ENDMDL
MODEL 2
REMARK VINA RESULT:      -5.6      1.322      1.922
REMARK  3 active torsions:
REMARK  status: ('A' for Active; 'I' for Inactive)
REMARK    1  A    between atoms: C5_5  and  C6_6 
REMARK    2  A    between atoms: C6_6  and  C7_7 
REMARK    3  A    between atoms: C7_7  and  C8_8 
ROOT
HETATM    1  C1  UNL     1     -32.519  10.291   0.708  1.00 20.00     0.012 C 
HETATM    2  C2  UNL     1     -32.393   9.346   1.436  1.00 20.00    -0.117 C 
HETATM    3  C5  UNL     1     -32.234   8.185   2.327  1.00 20.00     0.093 C 
ENDROOT
BRANCH   3   4
HETATM    4  C6  UNL     1     -33.459   8.015   3.230  1.00 20.00     0.018 C 
BRANCH   4   5
HETATM    5  C7  UNL     1     -33.325   6.848   4.239  1.00 20.00     0.000 C 
HETATM    6  C3  UNL     1     -33.757   7.271   5.649  1.00 20.00     0.011 C 
BRANCH   5   7
HETATM    7  C8  UNL     1     -34.073   5.595   3.711  1.00 20.00     0.082 C 
HETATM    8  C4  UNL     1     -33.238   4.751   2.751  1.00 20.00     0.027 C 
HETATM    9 CL9  UNL     1     -34.664   4.548   5.039  1.00 20.00    -0.125 Cl
ENDBRANCH   5   7
ENDBRANCH   4   5
ENDBRANCH   3   4
TORSDOF 3
ENDMDL
MODEL 3
REMARK VINA RESULT:      -5.6      1.177      1.372
REMARK  3 active torsions:
REMARK  status: ('A' for Active; 'I' for Inactive)
REMARK    1  A    between atoms: C5_5  and  C6_6 
REMARK    2  A    between atoms: C6_6  and  C7_7 
REMARK    3  A    between atoms: C7_7  and  C8_8 
ROOT
HETATM    1  C1  UNL     1     -32.581  10.210   0.754  1.00 20.00     0.012 C 
HETATM    2  C2  UNL     1     -32.265   9.208   1.334  1.00 20.00    -0.117 C 
HETATM    3  C5  UNL     1     -31.876   7.979   2.042  1.00 20.00     0.093 C 
ENDROOT
BRANCH   3   4
HETATM    4  C6  UNL     1     -32.493   7.933   3.443  1.00 20.00     0.018 C 
BRANCH   4   5
HETATM    5  C7  UNL     1     -33.629   6.890   3.583  1.00 20.00     0.000 C 
HETATM    6  C3  UNL     1     -33.539   5.812   2.495  1.00 20.00     0.011 C 
BRANCH   5   7
HETATM    7  C8  UNL     1     -33.653   6.316   5.024  1.00 20.00     0.082 C 
HETATM    8  C4  UNL     1     -33.832   7.385   6.099  1.00 20.00     0.027 C 
HETATM    9 CL9  UNL     1     -34.920   5.065   5.235  1.00 20.00    -0.125 Cl
ENDBRANCH   5   7
ENDBRANCH   4   5
ENDBRANCH   3   4
TORSDOF 3
ENDMDL
MODEL 4
REMARK VINA RESULT:      -5.4      2.312      4.611
REMARK  3 active torsions:
REMARK  status: ('A' for Active; 'I' for Inactive)
REMARK    1  A    between atoms: C5_5  and  C6_6 
REMARK    2  A    between atoms: C6_6  and  C7_7 
REMARK    3  A    between atoms: C7_7  and  C8_8 
ROOT
HETATM    1  C1  UNL     1     -34.015   6.912   5.908  1.00 20.00     0.012 C 
HETATM    2  C2  UNL     1     -34.114   6.606   4.752  1.00 20.00    -0.117 C 
HETATM    3  C5  UNL     1     -34.238   6.230   3.335  1.00 20.00     0.093 C 
ENDROOT
BRANCH   3   4
HETATM    4  C6  UNL     1     -32.993   6.643   2.546  1.00 20.00     0.018 C 
BRANCH   4   5
HETATM    5  C7  UNL     1     -32.649   8.147   2.679  1.00 20.00     0.000 C 
HETATM    6  C3  UNL     1     -31.355   8.360   3.476  1.00 20.00     0.011 C 
BRANCH   5   7
HETATM    7  C8  UNL     1     -32.632   8.818   1.280  1.00 20.00     0.082 C 
HETATM    8  C4  UNL     1     -32.881  10.323   1.328  1.00 20.00     0.027 C 
HETATM    9 CL9  UNL     1     -31.103   8.512   0.397  1.00 20.00    -0.125 Cl
ENDBRANCH   5   7
ENDBRANCH   4   5
ENDBRANCH   3   4
TORSDOF 3
ENDMDL
MODEL 5
REMARK VINA RESULT:      -5.2      1.131      1.711
REMARK  3 active torsions:
REMARK  status: ('A' for Active; 'I' for Inactive)
REMARK    1  A    between atoms: C5_5  and  C6_6 
REMARK    2  A    between atoms: C6_6  and  C7_7 
REMARK    3  A    between atoms: C7_7  and  C8_8 
ROOT
HETATM    1  C1  UNL     1     -33.253   9.834  -0.436  1.00 20.00     0.012 C 
HETATM    2  C2  UNL     1     -32.647   9.271   0.434  1.00 20.00    -0.117 C 
HETATM    3  C5  UNL     1     -31.900   8.585   1.499  1.00 20.00     0.093 C 
ENDROOT
BRANCH   3   4
HETATM    4  C6  UNL     1     -32.694   7.395   2.046  1.00 20.00     0.018 C 
BRANCH   4   5
HETATM    5  C7  UNL     1     -32.589   7.237   3.583  1.00 20.00     0.000 C 
HETATM    6  C3  UNL     1     -31.793   8.387   4.213  1.00 20.00     0.011 C 
BRANCH   5   7
HETATM    7  C8  UNL     1     -34.000   7.048   4.200  1.00 20.00     0.082 C 
HETATM    8  C4  UNL     1     -34.690   5.763   3.752  1.00 20.00     0.027 C 
HETATM    9 CL9  UNL     1     -33.969   7.095   5.992  1.00 20.00    -0.125 Cl
ENDBRANCH   5   7
ENDBRANCH   4   5
ENDBRANCH   3   4
TORSDOF 3
ENDMDL
MODEL 6
REMARK VINA RESULT:      -4.8      1.563      4.322
REMARK  3 active torsions:
REMARK  status: ('A' for Active; 'I' for Inactive)
REMARK    1  A    between atoms: C5_5  and  C6_6 
REMARK    2  A    between atoms: C6_6  and  C7_7 
REMARK    3  A    between atoms: C7_7  and  C8_8 
ROOT
HETATM    1  C1  UNL     1     -34.721   4.471   5.634  1.00 20.00     0.012 C 
HETATM    2  C2  UNL     1     -34.380   5.621   5.634  1.00 20.00    -0.117 C 
HETATM    3  C5  UNL     1     -33.961   7.031   5.639  1.00 20.00     0.093 C 
ENDROOT
BRANCH   3   4
HETATM    4  C6  UNL     1     -33.944   7.603   4.218  1.00 20.00     0.018 C 
BRANCH   4   5
HETATM    5  C7  UNL     1     -33.067   6.788   3.236  1.00 20.00     0.000 C 
HETATM    6  C3  UNL     1     -33.922   6.051   2.197  1.00 20.00     0.011 C 
BRANCH   5   7
HETATM    7  C8  UNL     1     -31.977   7.699   2.609  1.00 20.00     0.082 C 
HETATM    8  C4  UNL     1     -32.526   8.670   1.567  1.00 20.00     0.027 C 
HETATM    9 CL9  UNL     1     -31.074   8.627   3.847  1.00 20.00    -0.125 Cl
ENDBRANCH   5   7
ENDBRANCH   4   5
ENDBRANCH   3   4
TORSDOF 3
ENDMDL
MODEL 7
REMARK VINA RESULT:      -4.8      2.270      4.609
REMARK  3 active torsions:
REMARK  status: ('A' for Active; 'I' for Inactive)
REMARK    1  A    between atoms: C5_5  and  C6_6 
REMARK    2  A    between atoms: C6_6  and  C7_7 
REMARK    3  A    between atoms: C7_7  and  C8_8 
ROOT
HETATM    1  C1  UNL     1     -35.126   5.589   4.329  1.00 20.00     0.012 C 
HETATM    2  C2  UNL     1     -34.144   5.746   3.658  1.00 20.00    -0.117 C 
HETATM    3  C5  UNL     1     -32.937   5.936   2.838  1.00 20.00     0.093 C 
ENDROOT
BRANCH   3   4
HETATM    4  C6  UNL     1     -33.119   7.097   1.856  1.00 20.00     0.018 C 
BRANCH   4   5
HETATM    5  C7  UNL     1     -32.592   8.450   2.395  1.00 20.00     0.000 C 
HETATM    6  C3  UNL     1     -31.463   8.248   3.414  1.00 20.00     0.011 C 
BRANCH   5   7
HETATM    7  C8  UNL     1     -32.204   9.382   1.217  1.00 20.00     0.082 C 
HETATM    8  C4  UNL     1     -32.894   9.018  -0.095  1.00 20.00     0.027 C 
HETATM    9 CL9  UNL     1     -32.525  11.107   1.581  1.00 20.00    -0.125 Cl
ENDBRANCH   5   7
ENDBRANCH   4   5
ENDBRANCH   3   4
TORSDOF 3
ENDMDL
MODEL 8
REMARK VINA RESULT:      -4.6      1.618      2.168
REMARK  3 active torsions:
REMARK  status: ('A' for Active; 'I' for Inactive)
REMARK    1  A    between atoms: C5_5  and  C6_6 
REMARK    2  A    between atoms: C6_6  and  C7_7 
REMARK    3  A    between atoms: C7_7  and  C8_8 
ROOT
HETATM    1  C1  UNL     1     -33.287   9.773  -0.663  1.00 20.00     0.012 C 
HETATM    2  C2  UNL     1     -32.732   9.311   0.294  1.00 20.00    -0.117 C 
HETATM    3  C5  UNL     1     -32.046   8.746   1.467  1.00 20.00     0.093 C 
ENDROOT
BRANCH   3   4
HETATM    4  C6  UNL     1     -32.922   7.701   2.164  1.00 20.00     0.018 C 
BRANCH   4   5
HETATM    5  C7  UNL     1     -32.372   7.253   3.541  1.00 20.00     0.000 C 
HETATM    6  C3  UNL     1     -31.740   8.426   4.302  1.00 20.00     0.011 C 
BRANCH   5   7
HETATM    7  C8  UNL     1     -33.475   6.515   4.344  1.00 20.00     0.082 C 
HETATM    8  C4  UNL     1     -33.863   7.230   5.636  1.00 20.00     0.027 C 
HETATM    9 CL9  UNL     1     -34.953   6.236   3.370  1.00 20.00    -0.125 Cl
ENDBRANCH   5   7
ENDBRANCH   4   5
ENDBRANCH   3   4
TORSDOF 3
ENDMDL
MODEL 9
REMARK VINA RESULT:      -4.4      1.637      3.967
REMARK  3 active torsions:
REMARK  status: ('A' for Active; 'I' for Inactive)
REMARK    1  A    between atoms: C5_5  and  C6_6 
REMARK    2  A    between atoms: C6_6  and  C7_7 
REMARK    3  A    between atoms: C7_7  and  C8_8 
ROOT
HETATM    1  C1  UNL     1     -34.681   5.036   6.072  1.00 20.00     0.012 C 
HETATM    2  C2  UNL     1     -34.224   6.122   5.845  1.00 20.00    -0.117 C 
HETATM    3  C5  UNL     1     -33.667   7.455   5.569  1.00 20.00     0.093 C 
ENDROOT
BRANCH   3   4
HETATM    4  C6  UNL     1     -32.586   7.385   4.486  1.00 20.00     0.018 C 
BRANCH   4   5
HETATM    5  C7  UNL     1     -33.115   7.698   3.065  1.00 20.00     0.000 C 
HETATM    6  C3  UNL     1     -32.045   8.382   2.204  1.00 20.00     0.011 C 
BRANCH   5   7
HETATM    7  C8  UNL     1     -33.704   6.416   2.418  1.00 20.00     0.082 C 
HETATM    8  C4  UNL     1     -32.922   5.151   2.763  1.00 20.00     0.027 C 
HETATM    9 CL9  UNL     1     -35.426   6.168   2.848  1.00 20.00    -0.125 Cl
ENDBRANCH   5   7
ENDBRANCH   4   5
ENDBRANCH   3   4
TORSDOF 3
ENDMDL
