MODEL 1
REMARK VINA RESULT:      -5.1      0.000      0.000
REMARK  3 active torsions:
REMARK  status: ('A' for Active; 'I' for Inactive)
REMARK    1  A    between atoms: C4_4  and  C10_10 
REMARK    2  A    between atoms: C8_8  and  C10_10 
REMARK    3  A    between atoms: C9_9  and  C10_10 
ROOT
HETATM    1  C1  UNL     1     -31.870   7.186   2.911  1.00 20.00     0.006 C 
HETATM    2  C2  UNL     1     -31.423   8.354   2.044  1.00 20.00     0.020 C 
HETATM    3  C3  UNL     1     -33.764   8.685   2.488  1.00 20.00     0.025 C 
HETATM    4  C4  UNL     1     -33.222   7.638   3.478  1.00 20.00    -0.009 C 
HETATM    5  C5  UNL     1     -32.724   8.764   1.372  1.00 20.00     0.082 C 
HETATM    6 CL11 UNL     1     -32.627  10.374   0.645  1.00 20.00    -0.125 Cl
ENDROOT
BRANCH   4   7
HETATM    7  C10 UNL     1     -34.178   6.474   3.697  1.00 20.00    -0.011 C 
BRANCH   7   8
HETATM    8  C8  UNL     1     -34.479   6.262   5.195  1.00 20.00     0.000 C 
HETATM    9  C6  UNL     1     -33.798   7.271   6.109  1.00 20.00     0.005 C 
ENDBRANCH   7   8
BRANCH   7  10
HETATM   10  C9  UNL     1     -33.620   5.164   3.105  1.00 20.00     0.000 C 
HETATM   11  C7  UNL     1     -33.946   3.927   3.930  1.00 20.00     0.005 C 
ENDBRANCH   7  10
ENDBRANCH   4   7
TORSDOF 3
ENDMDL
MODEL 2
REMARK VINA RESULT:      -4.9      0.969      2.018
REMARK  3 active torsions:
REMARK  status: ('A' for Active; 'I' for Inactive)
REMARK    1  A    between atoms: C4_4  and  C10_10 
REMARK    2  A    between atoms: C8_8  and  C10_10 
REMARK    3  A    between atoms: C9_9  and  C10_10 
ROOT
HETATM    1  C1  UNL     1     -31.557   8.239   3.424  1.00 20.00     0.006 C 
HETATM    2  C2  UNL     1     -31.476   9.157   2.212  1.00 20.00     0.020 C 
HETATM    3  C3  UNL     1     -33.622   8.076   2.113  1.00 20.00     0.025 C 
HETATM    4  C4  UNL     1     -33.047   7.890   3.529  1.00 20.00    -0.009 C 
HETATM    5  C5  UNL     1     -32.435   8.484   1.243  1.00 20.00     0.082 C 
HETATM    6 CL11 UNL     1     -32.902   9.550  -0.089  1.00 20.00    -0.125 Cl
ENDROOT
BRANCH   4   7
HETATM    7  C10 UNL     1     -33.278   6.494   4.087  1.00 20.00    -0.011 C 
BRANCH   7   8
HETATM    8  C8  UNL     1     -33.930   5.566   3.041  1.00 20.00     0.000 C 
HETATM    9  C6  UNL     1     -32.983   4.519   2.471  1.00 20.00     0.005 C 
ENDBRANCH   7   8
BRANCH   7  10
HETATM   10  C9  UNL     1     -34.164   6.528   5.350  1.00 20.00     0.000 C 
HETATM   11  C7  UNL     1     -34.670   5.160   5.785  1.00 20.00     0.005 C 
ENDBRANCH   7  10
ENDBRANCH   4   7
TORSDOF 3
ENDMDL
MODEL 3
REMARK VINA RESULT:      -4.4      2.436      4.454
REMARK  3 active torsions:
REMARK  status: ('A' for Active; 'I' for Inactive)
REMARK    1  A    between atoms: C4_4  and  C10_10 
REMARK    2  A    between atoms: C8_8  and  C10_10 
REMARK    3  A    between atoms: C9_9  and  C10_10 
ROOT
HETATM    1  C1  UNL     1     -32.129   8.337   4.204  1.00 20.00     0.006 C 
HETATM    2  C2  UNL     1     -33.049   7.338   4.891  1.00 20.00     0.020 C 
HETATM    3  C3  UNL     1     -33.271   6.961   2.527  1.00 20.00     0.025 C 
HETATM    4  C4  UNL     1     -32.008   7.806   2.770  1.00 20.00    -0.009 C 
HETATM    5  C5  UNL     1     -34.087   7.071   3.813  1.00 20.00     0.082 C 
HETATM    6 CL11 UNL     1     -35.040   5.617   4.141  1.00 20.00    -0.125 Cl
ENDROOT
BRANCH   4   7
HETATM    7  C10 UNL     1     -31.833   8.923   1.751  1.00 20.00    -0.011 C 
BRANCH   7   8
HETATM    8  C8  UNL     1     -32.957   9.973   1.862  1.00 20.00     0.000 C 
HETATM    9  C6  UNL     1     -32.453  11.400   2.023  1.00 20.00     0.005 C 
ENDBRANCH   7   8
BRANCH   7  10
HETATM   10  C9  UNL     1     -31.797   8.374   0.310  1.00 20.00     0.000 C 
HETATM   11  C7  UNL     1     -32.851   8.981  -0.607  1.00 20.00     0.005 C 
ENDBRANCH   7  10
ENDBRANCH   4   7
TORSDOF 3
ENDMDL
MODEL 4
REMARK VINA RESULT:      -4.3      2.632      4.570
REMARK  3 active torsions:
REMARK  status: ('A' for Active; 'I' for Inactive)
REMARK    1  A    between atoms: C4_4  and  C10_10 
REMARK    2  A    between atoms: C8_8  and  C10_10 
REMARK    3  A    between atoms: C9_9  and  C10_10 
ROOT
HETATM    1  C1  UNL     1     -32.863   5.786   2.384  1.00 20.00     0.006 C 
HETATM    2  C2  UNL     1     -33.520   4.768   3.304  1.00 20.00     0.020 C 
HETATM    3  C3  UNL     1     -34.308   6.931   4.001  1.00 20.00     0.025 C 
HETATM    4  C4  UNL     1     -33.678   7.067   2.602  1.00 20.00    -0.009 C 
HETATM    5  C5  UNL     1     -33.799   5.598   4.546  1.00 20.00     0.082 C 
HETATM    6 CL11 UNL     1     -34.960   4.819   5.631  1.00 20.00    -0.125 Cl
ENDROOT
BRANCH   4   7
HETATM    7  C10 UNL     1     -32.835   8.325   2.449  1.00 20.00    -0.011 C 
BRANCH   7   8
HETATM    8  C8  UNL     1     -32.618   8.684   0.964  1.00 20.00     0.000 C 
HETATM    9  C6  UNL     1     -32.574  10.181   0.694  1.00 20.00     0.005 C 
ENDBRANCH   7   8
BRANCH   7  10
HETATM   10  C9  UNL     1     -31.462   8.174   3.136  1.00 20.00     0.000 C 
HETATM   11  C7  UNL     1     -31.375   8.855   4.495  1.00 20.00     0.005 C 
ENDBRANCH   7  10
ENDBRANCH   4   7
TORSDOF 3
ENDMDL
MODEL 5
REMARK VINA RESULT:      -4.3     10.855     11.555
REMARK  3 active torsions:
REMARK  status: ('A' for Active; 'I' for Inactive)
REMARK    1  A    between atoms: C4_4  and  C10_10 
REMARK    2  A    between atoms: C8_8  and  C10_10 
REMARK    3  A    between atoms: C9_9  and  C10_10 
ROOT
HETATM    1  C1  UNL     1     -33.300  15.212  -4.085  1.00 20.00     0.006 C 
HETATM    2  C2  UNL     1     -34.035  14.433  -5.166  1.00 20.00     0.020 C 
HETATM    3  C3  UNL     1     -35.707  15.664  -3.952  1.00 20.00     0.025 C 
HETATM    4  C4  UNL     1     -34.324  16.252  -3.614  1.00 20.00    -0.009 C 
HETATM    5  C5  UNL     1     -35.424  14.294  -4.566  1.00 20.00     0.082 C 
HETATM    6 CL11 UNL     1     -36.634  13.825  -5.769  1.00 20.00    -0.125 Cl
ENDROOT
BRANCH   4   7
HETATM    7  C10 UNL     1     -34.168  16.595  -2.140  1.00 20.00    -0.011 C 
BRANCH   7   8
HETATM    8  C8  UNL     1     -35.523  16.947  -1.492  1.00 20.00     0.000 C 
HETATM    9  C6  UNL     1     -35.411  17.430  -0.053  1.00 20.00     0.005 C 
ENDBRANCH   7   8
BRANCH   7  10
HETATM   10  C9  UNL     1     -33.190  17.771  -1.932  1.00 20.00     0.000 C 
HETATM   11  C7  UNL     1     -33.262  18.832  -3.022  1.00 20.00     0.005 C 
ENDBRANCH   7  10
ENDBRANCH   4   7
TORSDOF 3
ENDMDL
MODEL 6
REMARK VINA RESULT:      -4.1      2.567      4.433
REMARK  3 active torsions:
REMARK  status: ('A' for Active; 'I' for Inactive)
REMARK    1  A    between atoms: C4_4  and  C10_10 
REMARK    2  A    between atoms: C8_8  and  C10_10 
REMARK    3  A    between atoms: C9_9  and  C10_10 
ROOT
HETATM    1  C1  UNL     1     -33.147   5.258   2.562  1.00 20.00     0.006 C 
HETATM    2  C2  UNL     1     -33.928   4.620   3.702  1.00 20.00     0.020 C 
HETATM    3  C3  UNL     1     -33.986   6.995   4.075  1.00 20.00     0.025 C 
HETATM    4  C4  UNL     1     -33.540   6.739   2.623  1.00 20.00    -0.009 C 
HETATM    5  C5  UNL     1     -33.794   5.664   4.798  1.00 20.00     0.082 C 
HETATM    6 CL11 UNL     1     -34.964   5.424   6.104  1.00 20.00    -0.125 Cl
ENDROOT
BRANCH   4   7
HETATM    7  C10 UNL     1     -32.413   7.658   2.175  1.00 20.00    -0.011 C 
BRANCH   7   8
HETATM    8  C8  UNL     1     -31.324   7.789   3.260  1.00 20.00     0.000 C 
HETATM    9  C6  UNL     1     -31.491   9.008   4.155  1.00 20.00     0.005 C 
ENDBRANCH   7   8
BRANCH   7  10
HETATM   10  C9  UNL     1     -32.937   9.063   1.815  1.00 20.00     0.000 C 
HETATM   11  C7  UNL     1     -32.472   9.564   0.455  1.00 20.00     0.005 C 
ENDBRANCH   7  10
ENDBRANCH   4   7
TORSDOF 3
ENDMDL
MODEL 7
REMARK VINA RESULT:      -4.1     10.982     12.030
REMARK  3 active torsions:
REMARK  status: ('A' for Active; 'I' for Inactive)
REMARK    1  A    between atoms: C4_4  and  C10_10 
REMARK    2  A    between atoms: C8_8  and  C10_10 
REMARK    3  A    between atoms: C9_9  and  C10_10 
ROOT
HETATM    1  C1  UNL     1     -35.026  14.676  -4.154  1.00 20.00     0.006 C 
HETATM    2  C2  UNL     1     -35.007  14.057  -5.545  1.00 20.00     0.020 C 
HETATM    3  C3  UNL     1     -33.160  15.594  -5.452  1.00 20.00     0.025 C 
HETATM    4  C4  UNL     1     -33.643  15.324  -4.015  1.00 20.00    -0.009 C 
HETATM    5  C5  UNL     1     -34.298  15.129  -6.357  1.00 20.00     0.082 C 
HETATM    6 CL11 UNL     1     -33.723  14.523  -7.916  1.00 20.00    -0.125 Cl
ENDROOT
BRANCH   4   7
HETATM    7  C10 UNL     1     -33.673  16.576  -3.151  1.00 20.00    -0.011 C 
BRANCH   7   8
HETATM    8  C8  UNL     1     -34.909  16.598  -2.227  1.00 20.00     0.000 C 
HETATM    9  C6  UNL     1     -34.667  17.285  -0.891  1.00 20.00     0.005 C 
ENDBRANCH   7   8
BRANCH   7  10
HETATM   10  C9  UNL     1     -33.664  17.858  -4.010  1.00 20.00     0.000 C 
HETATM   11  C7  UNL     1     -35.051  18.409  -4.310  1.00 20.00     0.005 C 
ENDBRANCH   7  10
ENDBRANCH   4   7
TORSDOF 3
ENDMDL
MODEL 8
REMARK VINA RESULT:      -4.1     10.907     11.631
REMARK  3 active torsions:
REMARK  status: ('A' for Active; 'I' for Inactive)
REMARK    1  A    between atoms: C4_4  and  C10_10 
REMARK    2  A    between atoms: C8_8  and  C10_10 
REMARK    3  A    between atoms: C9_9  and  C10_10 
ROOT
HETATM    1  C1  UNL     1     -35.590  16.667  -1.875  1.00 20.00     0.006 C 
HETATM    2  C2  UNL     1     -35.028  17.747  -0.962  1.00 20.00     0.020 C 
HETATM    3  C3  UNL     1     -33.333  17.288  -2.606  1.00 20.00     0.025 C 
HETATM    4  C4  UNL     1     -34.666  16.695  -3.099  1.00 20.00    -0.009 C 
HETATM    5  C5  UNL     1     -33.530  17.538  -1.112  1.00 20.00     0.082 C 
HETATM    6 CL11 UNL     1     -32.595  18.922  -0.526  1.00 20.00    -0.125 Cl
ENDROOT
BRANCH   4   7
HETATM    7  C10 UNL     1     -34.508  15.323  -3.739  1.00 20.00    -0.011 C 
BRANCH   7   8
HETATM    8  C8  UNL     1     -33.191  15.218  -4.535  1.00 20.00     0.000 C 
HETATM    9  C6  UNL     1     -33.251  15.860  -5.914  1.00 20.00     0.005 C 
ENDBRANCH   7   8
BRANCH   7  10
HETATM   10  C9  UNL     1     -35.690  14.995  -4.675  1.00 20.00     0.000 C 
HETATM   11  C7  UNL     1     -35.829  13.513  -4.995  1.00 20.00     0.005 C 
ENDBRANCH   7  10
ENDBRANCH   4   7
TORSDOF 3
ENDMDL
MODEL 9
REMARK VINA RESULT:      -4.1     10.959     11.856
REMARK  3 active torsions:
REMARK  status: ('A' for Active; 'I' for Inactive)
REMARK    1  A    between atoms: C4_4  and  C10_10 
REMARK    2  A    between atoms: C8_8  and  C10_10 
REMARK    3  A    between atoms: C9_9  and  C10_10 
ROOT
HETATM    1  C1  UNL     1     -33.552  17.693  -3.995  1.00 20.00     0.006 C 
HETATM    2  C2  UNL     1     -33.598  16.893  -5.289  1.00 20.00     0.020 C 
HETATM    3  C3  UNL     1     -34.476  15.463  -3.566  1.00 20.00     0.025 C 
HETATM    4  C4  UNL     1     -34.461  16.910  -3.039  1.00 20.00    -0.009 C 
HETATM    5  C5  UNL     1     -33.545  15.463  -4.776  1.00 20.00     0.082 C 
HETATM    6 CL11 UNL     1     -34.032  14.288  -6.007  1.00 20.00    -0.125 Cl
ENDROOT
BRANCH   4   7
HETATM    7  C10 UNL     1     -34.006  17.012  -1.591  1.00 20.00    -0.011 C 
BRANCH   7   8
HETATM    8  C8  UNL     1     -35.172  17.394  -0.656  1.00 20.00     0.000 C 
HETATM    9  C6  UNL     1     -36.391  17.943  -1.383  1.00 20.00     0.005 C 
ENDBRANCH   7   8
BRANCH   7  10
HETATM   10  C9  UNL     1     -32.870  18.043  -1.425  1.00 20.00     0.000 C 
HETATM   11  C7  UNL     1     -32.804  18.670  -0.040  1.00 20.00     0.005 C 
ENDBRANCH   7  10
ENDBRANCH   4   7
TORSDOF 3
ENDMDL
