MODEL 1
REMARK VINA RESULT:      -4.5      0.000      0.000
REMARK  3 active torsions:
REMARK  status: ('A' for Active; 'I' for Inactive)
REMARK    1  A    between atoms: C4_4  and  C7_7 
REMARK    2  A    between atoms: C4_4  and  C9_9 
REMARK    3  A    between atoms: C8_8  and  C9_9 
ROOT
HETATM    1  C1  UNL     1     -33.677   4.962   2.184  1.00 20.00     0.002 C 
HETATM    2  C2  UNL     1     -34.452   6.246   2.535  1.00 20.00     0.011 C 
HETATM    3  C3  UNL     1     -32.847   5.174   3.466  1.00 20.00     0.011 C 
HETATM    4  C4  UNL     1     -33.245   6.679   3.418  1.00 20.00    -0.025 C 
ENDROOT
BRANCH   4   5
HETATM    5  C7  UNL     1     -33.642   7.259   4.771  1.00 20.00     0.124 C 
HETATM    6 CL10 UNL     1     -34.389   6.006   5.779  1.00 20.00    -0.130 Cl
ENDBRANCH   4   5
BRANCH   4   7
HETATM    7  C9  UNL     1     -32.232   7.572   2.701  1.00 20.00    -0.010 C 
HETATM    8  C6  UNL     1     -31.366   8.303   3.730  1.00 20.00     0.011 C 
BRANCH   7   9
HETATM    9  C8  UNL     1     -32.906   8.595   1.771  1.00 20.00     0.000 C 
HETATM   10  C5  UNL     1     -31.971   9.168   0.715  1.00 20.00     0.005 C 
ENDBRANCH   7   9
ENDBRANCH   4   7
TORSDOF 3
ENDMDL
MODEL 2
REMARK VINA RESULT:      -4.4      1.804      3.685
REMARK  3 active torsions:
REMARK  status: ('A' for Active; 'I' for Inactive)
REMARK    1  A    between atoms: C4_4  and  C7_7 
REMARK    2  A    between atoms: C4_4  and  C9_9 
REMARK    3  A    between atoms: C8_8  and  C9_9 
ROOT
HETATM    1  C1  UNL     1     -32.518   8.796   2.262  1.00 20.00     0.002 C 
HETATM    2  C2  UNL     1     -33.204   7.494   1.808  1.00 20.00     0.011 C 
HETATM    3  C3  UNL     1     -31.793   7.976   3.347  1.00 20.00     0.011 C 
HETATM    4  C4  UNL     1     -32.916   6.904   3.220  1.00 20.00    -0.025 C 
ENDROOT
BRANCH   4   5
HETATM    5  C7  UNL     1     -32.405   5.468   3.201  1.00 20.00     0.124 C 
HETATM    6 CL10 UNL     1     -33.250   4.534   1.954  1.00 20.00    -0.130 Cl
ENDBRANCH   4   5
BRANCH   4   7
HETATM    7  C9  UNL     1     -34.063   7.077   4.217  1.00 20.00    -0.010 C 
HETATM    8  C6  UNL     1     -33.500   7.402   5.603  1.00 20.00     0.011 C 
BRANCH   7   9
HETATM    9  C8  UNL     1     -34.961   5.831   4.302  1.00 20.00     0.000 C 
HETATM   10  C5  UNL     1     -34.759   5.020   5.574  1.00 20.00     0.005 C 
ENDBRANCH   7   9
ENDBRANCH   4   7
TORSDOF 3
ENDMDL
MODEL 3
REMARK VINA RESULT:      -4.2     11.112     12.007
REMARK  3 active torsions:
REMARK  status: ('A' for Active; 'I' for Inactive)
REMARK    1  A    between atoms: C4_4  and  C7_7 
REMARK    2  A    between atoms: C4_4  and  C9_9 
REMARK    3  A    between atoms: C8_8  and  C9_9 
ROOT
HETATM    1  C1  UNL     1     -32.996  14.765  -4.469  1.00 20.00     0.002 C 
HETATM    2  C2  UNL     1     -33.366  16.223  -4.799  1.00 20.00     0.011 C 
HETATM    3  C3  UNL     1     -34.429  14.577  -3.931  1.00 20.00     0.011 C 
HETATM    4  C4  UNL     1     -34.512  16.122  -3.750  1.00 20.00    -0.025 C 
ENDROOT
BRANCH   4   5
HETATM    5  C7  UNL     1     -35.832  16.730  -4.210  1.00 20.00     0.124 C 
HETATM    6 CL10 UNL     1     -35.564  18.363  -4.847  1.00 20.00    -0.130 Cl
ENDBRANCH   4   5
BRANCH   4   7
HETATM    7  C9  UNL     1     -34.127  16.611  -2.353  1.00 20.00    -0.010 C 
HETATM    8  C6  UNL     1     -35.389  16.837  -1.517  1.00 20.00     0.011 C 
BRANCH   7   9
HETATM    9  C8  UNL     1     -33.293  17.903  -2.391  1.00 20.00     0.000 C 
HETATM   10  C5  UNL     1     -32.541  18.181  -1.098  1.00 20.00     0.005 C 
ENDBRANCH   7   9
ENDBRANCH   4   7
TORSDOF 3
ENDMDL
MODEL 4
REMARK VINA RESULT:      -4.1      1.048      3.530
REMARK  3 active torsions:
REMARK  status: ('A' for Active; 'I' for Inactive)
REMARK    1  A    between atoms: C4_4  and  C7_7 
REMARK    2  A    between atoms: C4_4  and  C9_9 
REMARK    3  A    between atoms: C8_8  and  C9_9 
ROOT
HETATM    1  C1  UNL     1     -31.825   8.023   1.954  1.00 20.00     0.002 C 
HETATM    2  C2  UNL     1     -31.852   7.437   3.379  1.00 20.00     0.011 C 
HETATM    3  C3  UNL     1     -33.255   8.545   2.197  1.00 20.00     0.011 C 
HETATM    4  C4  UNL     1     -33.407   7.469   3.313  1.00 20.00    -0.025 C 
ENDROOT
BRANCH   4   5
HETATM    5  C7  UNL     1     -34.072   7.984   4.585  1.00 20.00     0.124 C 
HETATM    6 CL10 UNL     1     -33.437   7.123   5.999  1.00 20.00    -0.130 Cl
ENDBRANCH   4   5
BRANCH   4   7
HETATM    7  C9  UNL     1     -34.041   6.161   2.840  1.00 20.00    -0.010 C 
HETATM    8  C6  UNL     1     -35.472   6.056   3.374  1.00 20.00     0.011 C 
BRANCH   7   9
HETATM    9  C8  UNL     1     -33.234   4.925   3.274  1.00 20.00     0.000 C 
HETATM   10  C5  UNL     1     -33.980   4.021   4.245  1.00 20.00     0.005 C 
ENDBRANCH   7   9
ENDBRANCH   4   7
TORSDOF 3
ENDMDL
MODEL 5
REMARK VINA RESULT:      -4.1     11.275     12.036
REMARK  3 active torsions:
REMARK  status: ('A' for Active; 'I' for Inactive)
REMARK    1  A    between atoms: C4_4  and  C7_7 
REMARK    2  A    between atoms: C4_4  and  C9_9 
REMARK    3  A    between atoms: C8_8  and  C9_9 
ROOT
HETATM    1  C1  UNL     1     -35.233  16.838  -1.502  1.00 20.00     0.002 C 
HETATM    2  C2  UNL     1     -35.727  17.025  -2.949  1.00 20.00     0.011 C 
HETATM    3  C3  UNL     1     -33.790  16.923  -2.038  1.00 20.00     0.011 C 
HETATM    4  C4  UNL     1     -34.337  16.523  -3.440  1.00 20.00    -0.025 C 
ENDROOT
BRANCH   4   5
HETATM    5  C7  UNL     1     -33.754  17.337  -4.590  1.00 20.00     0.124 C 
HETATM    6 CL10 UNL     1     -34.985  17.606  -5.836  1.00 20.00    -0.130 Cl
ENDBRANCH   4   5
BRANCH   4   7
HETATM    7  C9  UNL     1     -34.281  15.023  -3.730  1.00 20.00    -0.010 C 
HETATM    8  C6  UNL     1     -33.012  14.696  -4.523  1.00 20.00     0.011 C 
BRANCH   7   9
HETATM    9  C8  UNL     1     -35.516  14.526  -4.502  1.00 20.00     0.000 C 
HETATM   10  C5  UNL     1     -35.184  13.922  -5.859  1.00 20.00     0.005 C 
ENDBRANCH   7   9
ENDBRANCH   4   7
TORSDOF 3
ENDMDL
MODEL 6
REMARK VINA RESULT:      -3.9     10.615     12.333
REMARK  3 active torsions:
REMARK  status: ('A' for Active; 'I' for Inactive)
REMARK    1  A    between atoms: C4_4  and  C7_7 
REMARK    2  A    between atoms: C4_4  and  C9_9 
REMARK    3  A    between atoms: C8_8  and  C9_9 
ROOT
HETATM    1  C1  UNL     1     -34.660  17.491  -6.520  1.00 20.00     0.002 C 
HETATM    2  C2  UNL     1     -35.584  16.465  -5.838  1.00 20.00     0.011 C 
HETATM    3  C3  UNL     1     -33.738  16.321  -6.916  1.00 20.00     0.011 C 
HETATM    4  C4  UNL     1     -34.371  15.493  -5.759  1.00 20.00    -0.025 C 
ENDROOT
BRANCH   4   5
HETATM    5  C7  UNL     1     -34.702  14.054  -6.136  1.00 20.00     0.124 C 
HETATM    6 CL10 UNL     1     -36.110  13.489  -5.218  1.00 20.00    -0.130 Cl
ENDBRANCH   4   5
BRANCH   4   7
HETATM    7  C9  UNL     1     -33.597  15.563  -4.442  1.00 20.00    -0.010 C 
HETATM    8  C6  UNL     1     -32.792  14.276  -4.245  1.00 20.00     0.011 C 
BRANCH   7   9
HETATM    9  C8  UNL     1     -34.517  15.790  -3.230  1.00 20.00     0.000 C 
HETATM   10  C5  UNL     1     -33.997  16.838  -2.258  1.00 20.00     0.005 C 
ENDBRANCH   7   9
ENDBRANCH   4   7
TORSDOF 3
ENDMDL
MODEL 7
REMARK VINA RESULT:      -3.8     10.965     12.004
REMARK  3 active torsions:
REMARK  status: ('A' for Active; 'I' for Inactive)
REMARK    1  A    between atoms: C4_4  and  C7_7 
REMARK    2  A    between atoms: C4_4  and  C9_9 
REMARK    3  A    between atoms: C8_8  and  C9_9 
ROOT
HETATM    1  C1  UNL     1     -35.812  13.923  -4.872  1.00 20.00     0.002 C 
HETATM    2  C2  UNL     1     -34.435  14.067  -4.197  1.00 20.00     0.011 C 
HETATM    3  C3  UNL     1     -35.667  15.378  -5.361  1.00 20.00     0.011 C 
HETATM    4  C4  UNL     1     -34.637  15.610  -4.216  1.00 20.00    -0.025 C 
ENDROOT
BRANCH   4   5
HETATM    5  C7  UNL     1     -33.401  16.393  -4.643  1.00 20.00     0.124 C 
HETATM    6 CL10 UNL     1     -33.877  17.899  -5.447  1.00 20.00    -0.130 Cl
ENDBRANCH   4   5
BRANCH   4   7
HETATM    7  C9  UNL     1     -35.245  16.179  -2.934  1.00 20.00    -0.010 C 
HETATM    8  C6  UNL     1     -36.346  17.183  -3.283  1.00 20.00     0.011 C 
BRANCH   7   9
HETATM    9  C8  UNL     1     -34.195  16.853  -2.034  1.00 20.00     0.000 C 
HETATM   10  C5  UNL     1     -34.770  17.415  -0.742  1.00 20.00     0.005 C 
ENDBRANCH   7   9
ENDBRANCH   4   7
TORSDOF 3
ENDMDL
MODEL 8
REMARK VINA RESULT:      -3.8      2.122      3.672
REMARK  3 active torsions:
REMARK  status: ('A' for Active; 'I' for Inactive)
REMARK    1  A    between atoms: C4_4  and  C7_7 
REMARK    2  A    between atoms: C4_4  and  C9_9 
REMARK    3  A    between atoms: C8_8  and  C9_9 
ROOT
HETATM    1  C1  UNL     1     -33.922   5.566   1.839  1.00 20.00     0.002 C 
HETATM    2  C2  UNL     1     -32.819   5.489   2.912  1.00 20.00     0.011 C 
HETATM    3  C3  UNL     1     -33.851   7.102   1.949  1.00 20.00     0.011 C 
HETATM    4  C4  UNL     1     -33.221   6.924   3.363  1.00 20.00    -0.025 C 
ENDROOT
BRANCH   4   5
HETATM    5  C7  UNL     1     -32.037   7.844   3.635  1.00 20.00     0.124 C 
HETATM    6 CL10 UNL     1     -31.734   8.883   2.231  1.00 20.00    -0.130 Cl
ENDBRANCH   4   5
BRANCH   4   7
HETATM    7  C9  UNL     1     -34.234   6.960   4.508  1.00 20.00    -0.010 C 
HETATM    8  C6  UNL     1     -33.529   7.350   5.810  1.00 20.00     0.011 C 
BRANCH   7   9
HETATM    9  C8  UNL     1     -34.959   5.615   4.695  1.00 20.00     0.000 C 
HETATM   10  C5  UNL     1     -34.541   4.867   5.952  1.00 20.00     0.005 C 
ENDBRANCH   7   9
ENDBRANCH   4   7
TORSDOF 3
ENDMDL
MODEL 9
REMARK VINA RESULT:      -3.7     10.861     11.917
REMARK  3 active torsions:
REMARK  status: ('A' for Active; 'I' for Inactive)
REMARK    1  A    between atoms: C4_4  and  C7_7 
REMARK    2  A    between atoms: C4_4  and  C9_9 
REMARK    3  A    between atoms: C8_8  and  C9_9 
ROOT
HETATM    1  C1  UNL     1     -36.603  14.296  -5.394  1.00 20.00     0.002 C 
HETATM    2  C2  UNL     1     -35.346  14.028  -4.544  1.00 20.00     0.011 C 
HETATM    3  C3  UNL     1     -35.742  15.213  -6.285  1.00 20.00     0.011 C 
HETATM    4  C4  UNL     1     -34.746  15.355  -5.097  1.00 20.00    -0.025 C 
ENDROOT
BRANCH   4   5
HETATM    5  C7  UNL     1     -33.280  15.252  -5.500  1.00 20.00     0.124 C 
HETATM    6 CL10 UNL     1     -32.385  14.283  -4.316  1.00 20.00    -0.130 Cl
ENDBRANCH   4   5
BRANCH   4   7
HETATM    7  C9  UNL     1     -34.999  16.574  -4.209  1.00 20.00    -0.010 C 
HETATM    8  C6  UNL     1     -34.071  17.718  -4.624  1.00 20.00     0.011 C 
BRANCH   7   9
HETATM    9  C8  UNL     1     -34.802  16.264  -2.714  1.00 20.00     0.000 C 
HETATM   10  C5  UNL     1     -33.658  17.040  -2.077  1.00 20.00     0.005 C 
ENDBRANCH   7   9
ENDBRANCH   4   7
TORSDOF 3
ENDMDL
