MODEL 1
REMARK VINA RESULT:      -5.3      0.000      0.000
REMARK  5 active torsions:
REMARK  status: ('A' for Active; 'I' for Inactive)
REMARK    1  A    between atoms: C1_1  and  C7_7 
REMARK    2  A    between atoms: C1_1  and  C11_11 
REMARK    3  A    between atoms: C7_7  and  C10_10 
REMARK    4  A    between atoms: C8_8  and  C10_10 
REMARK    5  A    between atoms: C9_9  and  C10_10 
ROOT
HETATM    1  C1  UNL     1     -32.337   8.256   2.226  1.00 20.00     0.134 C 
HETATM    2  O12 UNL     1     -31.559   8.427   3.167  1.00 20.00    -0.297 OA
ENDROOT
BRANCH   1   3
HETATM    3  C7  UNL     1     -33.392   7.152   2.271  1.00 20.00     0.083 C 
BRANCH   3   4
HETATM    4  C10 UNL     1     -33.372   6.332   3.578  1.00 20.00    -0.008 C 
BRANCH   4   5
HETATM    5  C8  UNL     1     -33.650   4.839   3.290  1.00 20.00     0.000 C 
HETATM    6  C2  UNL     1     -34.314   4.072   4.424  1.00 20.00     0.005 C 
ENDBRANCH   4   5
BRANCH   4   7
HETATM    7  C9  UNL     1     -34.333   6.953   4.616  1.00 20.00     0.000 C 
HETATM    8  C3  UNL     1     -33.655   7.343   5.922  1.00 20.00     0.005 C 
ENDBRANCH   4   7
ENDBRANCH   3   4
ENDBRANCH   1   3
BRANCH   1   9
HETATM    9  C11 UNL     1     -32.269   9.139   0.961  1.00 20.00     0.009 C 
HETATM   10  C4  UNL     1     -30.924   8.905   0.262  1.00 20.00     0.022 C 
HETATM   11  C5  UNL     1     -33.405   8.746  -0.001  1.00 20.00     0.022 C 
HETATM   12  C6  UNL     1     -32.432  10.620   1.325  1.00 20.00     0.022 C 
ENDBRANCH   1   9
TORSDOF 5
ENDMDL
MODEL 2
REMARK VINA RESULT:      -5.0      1.558      4.822
REMARK  5 active torsions:
REMARK  status: ('A' for Active; 'I' for Inactive)
REMARK    1  A    between atoms: C1_1  and  C7_7 
REMARK    2  A    between atoms: C1_1  and  C11_11 
REMARK    3  A    between atoms: C7_7  and  C10_10 
REMARK    4  A    between atoms: C8_8  and  C10_10 
REMARK    5  A    between atoms: C9_9  and  C10_10 
ROOT
HETATM    1  C1  UNL     1     -33.428   6.034   3.095  1.00 20.00     0.134 C 
HETATM    2  O12 UNL     1     -32.702   5.178   2.585  1.00 20.00    -0.297 OA
ENDROOT
BRANCH   1   3
HETATM    3  C7  UNL     1     -33.343   7.496   2.660  1.00 20.00     0.083 C 
BRANCH   3   4
HETATM    4  C10 UNL     1     -31.955   7.899   2.117  1.00 20.00    -0.008 C 
BRANCH   4   5
HETATM    5  C8  UNL     1     -31.070   8.464   3.250  1.00 20.00     0.000 C 
HETATM    6  C2  UNL     1     -31.798   8.773   4.551  1.00 20.00     0.005 C 
ENDBRANCH   4   5
BRANCH   4   7
HETATM    7  C9  UNL     1     -32.107   8.855   0.913  1.00 20.00     0.000 C 
HETATM    8  C3  UNL     1     -32.725  10.199   1.272  1.00 20.00     0.005 C 
ENDBRANCH   4   7
ENDBRANCH   3   4
ENDBRANCH   1   3
BRANCH   1   9
HETATM    9  C11 UNL     1     -34.442   5.667   4.200  1.00 20.00     0.009 C 
HETATM   10  C4  UNL     1     -35.856   5.993   3.705  1.00 20.00     0.022 C 
HETATM   11  C5  UNL     1     -34.354   4.159   4.497  1.00 20.00     0.022 C 
HETATM   12  C6  UNL     1     -34.137   6.435   5.492  1.00 20.00     0.022 C 
ENDBRANCH   1   9
TORSDOF 5
ENDMDL
MODEL 3
REMARK VINA RESULT:      -4.8      0.687      1.793
REMARK  5 active torsions:
REMARK  status: ('A' for Active; 'I' for Inactive)
REMARK    1  A    between atoms: C1_1  and  C7_7 
REMARK    2  A    between atoms: C1_1  and  C11_11 
REMARK    3  A    between atoms: C7_7  and  C10_10 
REMARK    4  A    between atoms: C8_8  and  C10_10 
REMARK    5  A    between atoms: C9_9  and  C10_10 
ROOT
HETATM    1  C1  UNL     1     -32.138   8.178   2.440  1.00 20.00     0.134 C 
HETATM    2  O12 UNL     1     -31.330   8.519   3.307  1.00 20.00    -0.297 OA
ENDROOT
BRANCH   1   3
HETATM    3  C7  UNL     1     -33.004   6.933   2.622  1.00 20.00     0.083 C 
BRANCH   3   4
HETATM    4  C10 UNL     1     -34.032   7.057   3.767  1.00 20.00    -0.008 C 
BRANCH   4   5
HETATM    5  C8  UNL     1     -33.323   7.368   5.105  1.00 20.00     0.000 C 
HETATM    6  C2  UNL     1     -34.124   7.035   6.356  1.00 20.00     0.005 C 
ENDBRANCH   4   5
BRANCH   4   7
HETATM    7  C9  UNL     1     -34.932   5.802   3.819  1.00 20.00     0.000 C 
HETATM    8  C3  UNL     1     -34.159   4.501   3.986  1.00 20.00     0.005 C 
ENDBRANCH   4   7
ENDBRANCH   3   4
ENDBRANCH   1   3
BRANCH   1   9
HETATM    9  C11 UNL     1     -32.302   8.987   1.136  1.00 20.00     0.009 C 
HETATM   10  C4  UNL     1     -31.017   8.863   0.309  1.00 20.00     0.022 C 
HETATM   11  C5  UNL     1     -33.476   8.416   0.320  1.00 20.00     0.022 C 
HETATM   12  C6  UNL     1     -32.598  10.460   1.445  1.00 20.00     0.022 C 
ENDBRANCH   1   9
TORSDOF 5
ENDMDL
MODEL 4
REMARK VINA RESULT:      -4.8      0.688      2.194
REMARK  5 active torsions:
REMARK  status: ('A' for Active; 'I' for Inactive)
REMARK    1  A    between atoms: C1_1  and  C7_7 
REMARK    2  A    between atoms: C1_1  and  C11_11 
REMARK    3  A    between atoms: C7_7  and  C10_10 
REMARK    4  A    between atoms: C8_8  and  C10_10 
REMARK    5  A    between atoms: C9_9  and  C10_10 
ROOT
HETATM    1  C1  UNL     1     -32.171   8.167   2.433  1.00 20.00     0.134 C 
HETATM    2  O12 UNL     1     -31.370   8.495   3.312  1.00 20.00    -0.297 OA
ENDROOT
BRANCH   1   3
HETATM    3  C7  UNL     1     -33.049   6.928   2.595  1.00 20.00     0.083 C 
BRANCH   3   4
HETATM    4  C10 UNL     1     -34.062   7.036   3.755  1.00 20.00    -0.008 C 
BRANCH   4   5
HETATM    5  C8  UNL     1     -33.342   7.391   5.075  1.00 20.00     0.000 C 
HETATM    6  C2  UNL     1     -34.101   7.031   6.345  1.00 20.00     0.005 C 
ENDBRANCH   4   5
BRANCH   4   7
HETATM    7  C9  UNL     1     -34.918   5.753   3.840  1.00 20.00     0.000 C 
HETATM    8  C3  UNL     1     -34.097   4.473   3.913  1.00 20.00     0.005 C 
ENDBRANCH   4   7
ENDBRANCH   3   4
ENDBRANCH   1   3
BRANCH   1   9
HETATM    9  C11 UNL     1     -32.310   8.987   1.133  1.00 20.00     0.009 C 
HETATM   10  C4  UNL     1     -32.527  10.461   1.495  1.00 20.00     0.022 C 
HETATM   11  C5  UNL     1     -31.017   8.864   0.306  1.00 20.00     0.022 C 
HETATM   12  C6  UNL     1     -33.479   8.467   0.287  1.00 20.00     0.022 C 
ENDBRANCH   1   9
TORSDOF 5
ENDMDL
MODEL 5
REMARK VINA RESULT:      -4.6      1.513      4.766
REMARK  5 active torsions:
REMARK  status: ('A' for Active; 'I' for Inactive)
REMARK    1  A    between atoms: C1_1  and  C7_7 
REMARK    2  A    between atoms: C1_1  and  C11_11 
REMARK    3  A    between atoms: C7_7  and  C10_10 
REMARK    4  A    between atoms: C8_8  and  C10_10 
REMARK    5  A    between atoms: C9_9  and  C10_10 
ROOT
HETATM    1  C1  UNL     1     -33.425   5.744   2.973  1.00 20.00     0.134 C 
HETATM    2  O12 UNL     1     -32.512   4.917   2.917  1.00 20.00    -0.297 OA
ENDROOT
BRANCH   1   3
HETATM    3  C7  UNL     1     -33.594   6.800   1.881  1.00 20.00     0.083 C 
BRANCH   3   4
HETATM    4  C10 UNL     1     -32.864   8.125   2.185  1.00 20.00    -0.008 C 
BRANCH   4   5
HETATM    5  C8  UNL     1     -32.713   8.971   0.900  1.00 20.00     0.000 C 
HETATM    6  C2  UNL     1     -32.638  10.476   1.120  1.00 20.00     0.005 C 
ENDBRANCH   4   5
BRANCH   4   7
HETATM    7  C9  UNL     1     -31.525   7.847   2.904  1.00 20.00     0.000 C 
HETATM    8  C3  UNL     1     -31.314   8.692   4.153  1.00 20.00     0.005 C 
ENDBRANCH   4   7
ENDBRANCH   3   4
ENDBRANCH   1   3
BRANCH   1   9
HETATM    9  C11 UNL     1     -34.425   5.754   4.149  1.00 20.00     0.009 C 
HETATM   10  C4  UNL     1     -35.808   6.155   3.623  1.00 20.00     0.022 C 
HETATM   11  C5  UNL     1     -34.514   4.343   4.759  1.00 20.00     0.022 C 
HETATM   12  C6  UNL     1     -33.966   6.727   5.242  1.00 20.00     0.022 C 
ENDBRANCH   1   9
TORSDOF 5
ENDMDL
MODEL 6
REMARK VINA RESULT:      -4.5     10.391     11.291
REMARK  5 active torsions:
REMARK  status: ('A' for Active; 'I' for Inactive)
REMARK    1  A    between atoms: C1_1  and  C7_7 
REMARK    2  A    between atoms: C1_1  and  C11_11 
REMARK    3  A    between atoms: C7_7  and  C10_10 
REMARK    4  A    between atoms: C8_8  and  C10_10 
REMARK    5  A    between atoms: C9_9  and  C10_10 
ROOT
HETATM    1  C1  UNL     1     -33.850  14.664  -4.862  1.00 20.00     0.134 C 
HETATM    2  O12 UNL     1     -33.207  13.748  -4.346  1.00 20.00    -0.297 OA
ENDROOT
BRANCH   1   3
HETATM    3  C7  UNL     1     -33.564  16.122  -4.505  1.00 20.00     0.083 C 
BRANCH   3   4
HETATM    4  C10 UNL     1     -33.783  16.447  -3.012  1.00 20.00    -0.008 C 
BRANCH   4   5
HETATM    5  C8  UNL     1     -35.247  16.166  -2.603  1.00 20.00     0.000 C 
HETATM    6  C2  UNL     1     -36.240  17.266  -2.951  1.00 20.00     0.005 C 
ENDBRANCH   4   5
BRANCH   4   7
HETATM    7  C9  UNL     1     -33.317  17.886  -2.702  1.00 20.00     0.000 C 
HETATM    8  C3  UNL     1     -32.758  18.060  -1.297  1.00 20.00     0.005 C 
ENDBRANCH   4   7
ENDBRANCH   3   4
ENDBRANCH   1   3
BRANCH   1   9
HETATM    9  C11 UNL     1     -34.975  14.377  -5.879  1.00 20.00     0.009 C 
HETATM   10  C4  UNL     1     -36.053  13.522  -5.202  1.00 20.00     0.022 C 
HETATM   11  C5  UNL     1     -35.608  15.705  -6.334  1.00 20.00     0.022 C 
HETATM   12  C6  UNL     1     -34.419  13.657  -7.114  1.00 20.00     0.022 C 
ENDBRANCH   1   9
TORSDOF 5
ENDMDL
MODEL 7
REMARK VINA RESULT:      -4.4     10.504     11.434
REMARK  5 active torsions:
REMARK  status: ('A' for Active; 'I' for Inactive)
REMARK    1  A    between atoms: C1_1  and  C7_7 
REMARK    2  A    between atoms: C1_1  and  C11_11 
REMARK    3  A    between atoms: C7_7  and  C10_10 
REMARK    4  A    between atoms: C8_8  and  C10_10 
REMARK    5  A    between atoms: C9_9  and  C10_10 
ROOT
HETATM    1  C1  UNL     1     -34.590  14.420  -4.959  1.00 20.00     0.134 C 
HETATM    2  O12 UNL     1     -35.038  13.396  -4.439  1.00 20.00    -0.297 OA
ENDROOT
BRANCH   1   3
HETATM    3  C7  UNL     1     -33.791  15.431  -4.138  1.00 20.00     0.083 C 
BRANCH   3   4
HETATM    4  C10 UNL     1     -34.576  16.017  -2.946  1.00 20.00    -0.008 C 
BRANCH   4   5
HETATM    5  C8  UNL     1     -35.917  16.622  -3.421  1.00 20.00     0.000 C 
HETATM    6  C2  UNL     1     -35.797  17.888  -4.257  1.00 20.00     0.005 C 
ENDBRANCH   4   5
BRANCH   4   7
HETATM    7  C9  UNL     1     -33.693  17.009  -2.157  1.00 20.00     0.000 C 
HETATM    8  C3  UNL     1     -34.323  17.492  -0.858  1.00 20.00     0.005 C 
ENDBRANCH   4   7
ENDBRANCH   3   4
ENDBRANCH   1   3
BRANCH   1   9
HETATM    9  C11 UNL     1     -34.826  14.728  -6.453  1.00 20.00     0.009 C 
HETATM   10  C4  UNL     1     -33.926  15.897  -6.868  1.00 20.00     0.022 C 
HETATM   11  C5  UNL     1     -34.457  13.493  -7.296  1.00 20.00     0.022 C 
HETATM   12  C6  UNL     1     -36.299  15.068  -6.710  1.00 20.00     0.022 C 
ENDBRANCH   1   9
TORSDOF 5
ENDMDL
MODEL 8
REMARK VINA RESULT:      -4.3     10.518     11.529
REMARK  5 active torsions:
REMARK  status: ('A' for Active; 'I' for Inactive)
REMARK    1  A    between atoms: C1_1  and  C7_7 
REMARK    2  A    between atoms: C1_1  and  C11_11 
REMARK    3  A    between atoms: C7_7  and  C10_10 
REMARK    4  A    between atoms: C8_8  and  C10_10 
REMARK    5  A    between atoms: C9_9  and  C10_10 
ROOT
HETATM    1  C1  UNL     1     -34.417  14.468  -4.961  1.00 20.00     0.134 C 
HETATM    2  O12 UNL     1     -33.519  13.694  -4.621  1.00 20.00    -0.297 OA
ENDROOT
BRANCH   1   3
HETATM    3  C7  UNL     1     -35.192  15.276  -3.922  1.00 20.00     0.083 C 
BRANCH   3   4
HETATM    4  C10 UNL     1     -34.294  16.164  -3.035  1.00 20.00    -0.008 C 
BRANCH   4   5
HETATM    5  C8  UNL     1     -35.089  16.712  -1.828  1.00 20.00     0.000 C 
HETATM    6  C2  UNL     1     -34.284  17.552  -0.847  1.00 20.00     0.005 C 
ENDBRANCH   4   5
BRANCH   4   7
HETATM    7  C9  UNL     1     -33.621  17.265  -3.885  1.00 20.00     0.000 C 
HETATM    8  C3  UNL     1     -34.608  18.192  -4.578  1.00 20.00     0.005 C 
ENDBRANCH   4   7
ENDBRANCH   3   4
ENDBRANCH   1   3
BRANCH   1   9
HETATM    9  C11 UNL     1     -34.800  14.644  -6.446  1.00 20.00     0.009 C 
HETATM   10  C4  UNL     1     -34.906  13.262  -7.100  1.00 20.00     0.022 C 
HETATM   11  C5  UNL     1     -36.167  15.346  -6.544  1.00 20.00     0.022 C 
HETATM   12  C6  UNL     1     -33.761  15.504  -7.176  1.00 20.00     0.022 C 
ENDBRANCH   1   9
TORSDOF 5
ENDMDL
MODEL 9
REMARK VINA RESULT:      -4.3     10.492     11.492
REMARK  5 active torsions:
REMARK  status: ('A' for Active; 'I' for Inactive)
REMARK    1  A    between atoms: C1_1  and  C7_7 
REMARK    2  A    between atoms: C1_1  and  C11_11 
REMARK    3  A    between atoms: C7_7  and  C10_10 
REMARK    4  A    between atoms: C8_8  and  C10_10 
REMARK    5  A    between atoms: C9_9  and  C10_10 
ROOT
HETATM    1  C1  UNL     1     -33.958  15.129  -5.361  1.00 20.00     0.134 C 
HETATM    2  O12 UNL     1     -33.008  15.655  -5.944  1.00 20.00    -0.297 OA
ENDROOT
BRANCH   1   3
HETATM    3  C7  UNL     1     -34.065  15.173  -3.837  1.00 20.00     0.083 C 
BRANCH   3   4
HETATM    4  C10 UNL     1     -34.518  16.543  -3.289  1.00 20.00    -0.008 C 
BRANCH   4   5
HETATM    5  C8  UNL     1     -33.554  17.034  -2.186  1.00 20.00     0.000 C 
HETATM    6  C2  UNL     1     -34.224  17.530  -0.912  1.00 20.00     0.005 C 
ENDBRANCH   4   5
BRANCH   4   7
HETATM    7  C9  UNL     1     -35.995  16.479  -2.840  1.00 20.00     0.000 C 
HETATM    8  C3  UNL     1     -36.936  17.300  -3.711  1.00 20.00     0.005 C 
ENDBRANCH   4   7
ENDBRANCH   3   4
ENDBRANCH   1   3
BRANCH   1   9
HETATM    9  C11 UNL     1     -35.070  14.397  -6.142  1.00 20.00     0.009 C 
HETATM   10  C4  UNL     1     -35.878  13.532  -5.167  1.00 20.00     0.022 C 
HETATM   11  C5  UNL     1     -36.012  15.432  -6.786  1.00 20.00     0.022 C 
HETATM   12  C6  UNL     1     -34.470  13.529  -7.255  1.00 20.00     0.022 C 
ENDBRANCH   1   9
TORSDOF 5
ENDMDL
