MODEL 1
REMARK VINA RESULT:      -4.6      0.000      0.000
REMARK  2 active torsions:
REMARK  status: ('A' for Active; 'I' for Inactive)
REMARK    1  A    between atoms: C5_5  and  C7_7 
REMARK    2  A    between atoms: C7_7  and  N8_8 
ROOT
HETATM    1  C1  UNL     1     -32.162   8.346   2.154  1.00 20.00     0.332 C 
HETATM    2  N8  UNL     1     -32.257   7.629   3.082  1.00 20.00    -0.245 NA
HETATM    3  O9  UNL     1     -32.067   9.065   1.228  1.00 20.00    -0.260 OA
ENDROOT
BRANCH   2   4
HETATM    4  C7  UNL     1     -32.837   6.325   2.786  1.00 20.00     0.190 C 
BRANCH   4   5
HETATM    5  C5  UNL     1     -34.051   6.121   3.689  1.00 20.00     0.075 C 
HETATM    6  C3  UNL     1     -34.039   4.747   4.360  1.00 20.00     0.041 C 
HETATM    7  C2  UNL     1     -34.682   5.028   5.696  1.00 20.00     0.029 C 
HETATM    8  C4  UNL     1     -34.160   6.412   6.009  1.00 20.00     0.169 C 
HETATM    9  O10 UNL     1     -34.001   7.090   4.754  1.00 20.00    -0.379 OA
HETATM   10  C6  UNL     1     -35.342   6.361   2.901  1.00 20.00     0.048 C 
ENDBRANCH   4   5
ENDBRANCH   2   4
TORSDOF 2
ENDMDL
MODEL 2
REMARK VINA RESULT:      -4.1      1.210      1.864
REMARK  2 active torsions:
REMARK  status: ('A' for Active; 'I' for Inactive)
REMARK    1  A    between atoms: C5_5  and  C7_7 
REMARK    2  A    between atoms: C7_7  and  N8_8 
ROOT
HETATM    1  C1  UNL     1     -31.992   8.657   1.611  1.00 20.00     0.332 C 
HETATM    2  N8  UNL     1     -32.219   8.007   2.565  1.00 20.00    -0.245 NA
HETATM    3  O9  UNL     1     -31.762   9.307   0.658  1.00 20.00    -0.260 OA
ENDROOT
BRANCH   2   4
HETATM    4  C7  UNL     1     -33.636   7.791   2.830  1.00 20.00     0.190 C 
BRANCH   4   5
HETATM    5  C5  UNL     1     -33.767   6.733   3.923  1.00 20.00     0.075 C 
HETATM    6  C3  UNL     1     -35.170   6.128   3.966  1.00 20.00     0.041 C 
HETATM    7  C2  UNL     1     -34.901   4.703   4.384  1.00 20.00     0.029 C 
HETATM    8  C4  UNL     1     -33.597   4.411   3.678  1.00 20.00     0.169 C 
HETATM    9  O10 UNL     1     -32.869   5.647   3.622  1.00 20.00    -0.379 OA
HETATM   10  C6  UNL     1     -33.354   7.317   5.277  1.00 20.00     0.048 C 
ENDBRANCH   4   5
ENDBRANCH   2   4
TORSDOF 2
ENDMDL
MODEL 3
REMARK VINA RESULT:      -4.0     11.491     12.146
REMARK  2 active torsions:
REMARK  status: ('A' for Active; 'I' for Inactive)
REMARK    1  A    between atoms: C5_5  and  C7_7 
REMARK    2  A    between atoms: C7_7  and  N8_8 
ROOT
HETATM    1  C1  UNL     1     -35.772  13.829  -4.922  1.00 20.00     0.332 C 
HETATM    2  N8  UNL     1     -35.645  14.951  -4.592  1.00 20.00    -0.245 NA
HETATM    3  O9  UNL     1     -35.902  12.707  -5.253  1.00 20.00    -0.260 OA
ENDROOT
BRANCH   2   4
HETATM    4  C7  UNL     1     -34.483  15.210  -3.752  1.00 20.00     0.190 C 
BRANCH   4   5
HETATM    5  C5  UNL     1     -34.622  16.607  -3.153  1.00 20.00     0.075 C 
HETATM    6  C3  UNL     1     -35.261  16.573  -1.765  1.00 20.00     0.041 C 
HETATM    7  C2  UNL     1     -34.579  17.718  -1.059  1.00 20.00     0.029 C 
HETATM    8  C4  UNL     1     -33.181  17.648  -1.630  1.00 20.00     0.169 C 
HETATM    9  O10 UNL     1     -33.305  17.165  -2.975  1.00 20.00    -0.379 OA
HETATM   10  C6  UNL     1     -35.388  17.520  -4.113  1.00 20.00     0.048 C 
ENDBRANCH   4   5
ENDBRANCH   2   4
TORSDOF 2
ENDMDL
MODEL 4
REMARK VINA RESULT:      -3.9      1.801      4.183
REMARK  2 active torsions:
REMARK  status: ('A' for Active; 'I' for Inactive)
REMARK    1  A    between atoms: C5_5  and  C7_7 
REMARK    2  A    between atoms: C7_7  and  N8_8 
ROOT
HETATM    1  C1  UNL     1     -34.392   5.741   5.686  1.00 20.00     0.332 C 
HETATM    2  N8  UNL     1     -34.029   6.814   5.365  1.00 20.00    -0.245 NA
HETATM    3  O9  UNL     1     -34.754   4.669   6.008  1.00 20.00    -0.260 OA
ENDROOT
BRANCH   2   4
HETATM    4  C7  UNL     1     -34.401   7.202   4.011  1.00 20.00     0.190 C 
BRANCH   4   5
HETATM    5  C5  UNL     1     -33.159   7.127   3.128  1.00 20.00     0.075 C 
HETATM    6  C3  UNL     1     -33.235   8.100   1.951  1.00 20.00     0.041 C 
HETATM    7  C2  UNL     1     -31.793   8.502   1.761  1.00 20.00     0.029 C 
HETATM    8  C4  UNL     1     -31.289   8.534   3.186  1.00 20.00     0.169 C 
HETATM    9  O10 UNL     1     -32.015   7.529   3.907  1.00 20.00    -0.379 OA
HETATM   10  C6  UNL     1     -32.925   5.687   2.665  1.00 20.00     0.048 C 
ENDBRANCH   4   5
ENDBRANCH   2   4
TORSDOF 2
ENDMDL
MODEL 5
REMARK VINA RESULT:      -3.8     11.755     12.933
REMARK  2 active torsions:
REMARK  status: ('A' for Active; 'I' for Inactive)
REMARK    1  A    between atoms: C5_5  and  C7_7 
REMARK    2  A    between atoms: C7_7  and  N8_8 
ROOT
HETATM    1  C1  UNL     1     -37.565  14.277  -4.873  1.00 20.00     0.332 C 
HETATM    2  N8  UNL     1     -36.698  13.664  -5.382  1.00 20.00    -0.245 NA
HETATM    3  O9  UNL     1     -38.431  14.888  -4.363  1.00 20.00    -0.260 OA
ENDROOT
BRANCH   2   4
HETATM    4  C7  UNL     1     -36.264  14.183  -6.673  1.00 20.00     0.190 C 
BRANCH   4   5
HETATM    5  C5  UNL     1     -34.769  14.479  -6.596  1.00 20.00     0.075 C 
HETATM    6  C3  UNL     1     -34.494  15.929  -6.193  1.00 20.00     0.041 C 
HETATM    7  C2  UNL     1     -33.223  15.812  -5.389  1.00 20.00     0.029 C 
HETATM    8  C4  UNL     1     -33.421  14.490  -4.682  1.00 20.00     0.169 C 
HETATM    9  O10 UNL     1     -34.189  13.658  -5.563  1.00 20.00    -0.379 OA
HETATM   10  C6  UNL     1     -34.088  14.115  -7.918  1.00 20.00     0.048 C 
ENDBRANCH   4   5
ENDBRANCH   2   4
TORSDOF 2
ENDMDL
MODEL 6
REMARK VINA RESULT:      -3.8      1.619      4.639
REMARK  2 active torsions:
REMARK  status: ('A' for Active; 'I' for Inactive)
REMARK    1  A    between atoms: C5_5  and  C7_7 
REMARK    2  A    between atoms: C7_7  and  N8_8 
ROOT
HETATM    1  C1  UNL     1     -34.375   5.840   4.054  1.00 20.00     0.332 C 
HETATM    2  N8  UNL     1     -33.955   6.867   3.661  1.00 20.00    -0.245 NA
HETATM    3  O9  UNL     1     -34.797   4.815   4.448  1.00 20.00    -0.260 OA
ENDROOT
BRANCH   2   4
HETATM    4  C7  UNL     1     -33.047   6.758   2.526  1.00 20.00     0.190 C 
BRANCH   4   5
HETATM    5  C5  UNL     1     -32.357   8.105   2.329  1.00 20.00     0.075 C 
HETATM    6  C3  UNL     1     -31.665   8.199   0.969  1.00 20.00     0.041 C 
HETATM    7  C2  UNL     1     -31.819   9.659   0.621  1.00 20.00     0.029 C 
HETATM    8  C4  UNL     1     -33.187   9.972   1.186  1.00 20.00     0.169 C 
HETATM    9  O10 UNL     1     -33.357   9.142   2.344  1.00 20.00    -0.379 OA
HETATM   10  C6  UNL     1     -31.388   8.377   3.483  1.00 20.00     0.048 C 
ENDBRANCH   4   5
ENDBRANCH   2   4
TORSDOF 2
ENDMDL
MODEL 7
REMARK VINA RESULT:      -3.7     11.814     12.718
REMARK  2 active torsions:
REMARK  status: ('A' for Active; 'I' for Inactive)
REMARK    1  A    between atoms: C5_5  and  C7_7 
REMARK    2  A    between atoms: C7_7  and  N8_8 
ROOT
HETATM    1  C1  UNL     1     -37.557  14.913  -4.823  1.00 20.00     0.332 C 
HETATM    2  N8  UNL     1     -36.815  15.823  -4.737  1.00 20.00    -0.245 NA
HETATM    3  O9  UNL     1     -38.300  14.005  -4.912  1.00 20.00    -0.260 OA
ENDROOT
BRANCH   2   4
HETATM    4  C7  UNL     1     -36.193  15.977  -3.428  1.00 20.00     0.190 C 
BRANCH   4   5
HETATM    5  C5  UNL     1     -34.685  16.105  -3.623  1.00 20.00     0.075 C 
HETATM    6  C3  UNL     1     -34.043  14.771  -4.006  1.00 20.00     0.041 C 
HETATM    7  C2  UNL     1     -32.918  15.196  -4.917  1.00 20.00     0.029 C 
HETATM    8  C4  UNL     1     -33.532  16.372  -5.643  1.00 20.00     0.169 C 
HETATM    9  O10 UNL     1     -34.437  17.001  -4.724  1.00 20.00    -0.379 OA
HETATM   10  C6  UNL     1     -34.040  16.712  -2.374  1.00 20.00     0.048 C 
ENDBRANCH   4   5
ENDBRANCH   2   4
TORSDOF 2
ENDMDL
MODEL 8
REMARK VINA RESULT:      -3.6     11.449     12.403
REMARK  2 active torsions:
REMARK  status: ('A' for Active; 'I' for Inactive)
REMARK    1  A    between atoms: C5_5  and  C7_7 
REMARK    2  A    between atoms: C7_7  and  N8_8 
ROOT
HETATM    1  C1  UNL     1     -34.450  16.264  -2.827  1.00 20.00     0.332 C 
HETATM    2  N8  UNL     1     -35.252  15.723  -3.499  1.00 20.00    -0.245 NA
HETATM    3  O9  UNL     1     -33.652  16.806  -2.155  1.00 20.00    -0.260 OA
ENDROOT
BRANCH   2   4
HETATM    4  C7  UNL     1     -34.778  14.510  -4.152  1.00 20.00     0.190 C 
BRANCH   4   5
HETATM    5  C5  UNL     1     -35.675  14.228  -5.354  1.00 20.00     0.075 C 
HETATM    6  C3  UNL     1     -35.309  15.099  -6.557  1.00 20.00     0.041 C 
HETATM    7  C2  UNL     1     -35.609  14.191  -7.725  1.00 20.00     0.029 C 
HETATM    8  C4  UNL     1     -35.207  12.839  -7.180  1.00 20.00     0.169 C 
HETATM    9  O10 UNL     1     -35.473  12.863  -5.770  1.00 20.00    -0.379 OA
HETATM   10  C6  UNL     1     -37.147  14.383  -4.964  1.00 20.00     0.048 C 
ENDBRANCH   4   5
ENDBRANCH   2   4
TORSDOF 2
ENDMDL
MODEL 9
REMARK VINA RESULT:      -3.6     11.693     12.490
REMARK  2 active torsions:
REMARK  status: ('A' for Active; 'I' for Inactive)
REMARK    1  A    between atoms: C5_5  and  C7_7 
REMARK    2  A    between atoms: C7_7  and  N8_8 
ROOT
HETATM    1  C1  UNL     1     -35.499  13.024  -6.749  1.00 20.00     0.332 C 
HETATM    2  N8  UNL     1     -35.673  13.029  -5.585  1.00 20.00    -0.245 NA
HETATM    3  O9  UNL     1     -35.322  13.017  -7.911  1.00 20.00    -0.260 OA
ENDROOT
BRANCH   2   4
HETATM    4  C7  UNL     1     -36.497  14.129  -5.098  1.00 20.00     0.190 C 
BRANCH   4   5
HETATM    5  C5  UNL     1     -35.578  15.203  -4.524  1.00 20.00     0.075 C 
HETATM    6  C3  UNL     1     -34.309  14.604  -3.917  1.00 20.00     0.041 C 
HETATM    7  C2  UNL     1     -33.275  15.666  -4.200  1.00 20.00     0.029 C 
HETATM    8  C4  UNL     1     -33.715  16.177  -5.554  1.00 20.00     0.169 C 
HETATM    9  O10 UNL     1     -35.144  16.061  -5.597  1.00 20.00    -0.379 OA
HETATM   10  C6  UNL     1     -36.340  16.067  -3.516  1.00 20.00     0.048 C 
ENDBRANCH   4   5
ENDBRANCH   2   4
TORSDOF 2
ENDMDL
