MODEL 1
REMARK VINA RESULT:      -4.1      0.000      0.000
REMARK  1 active torsions:
REMARK  status: ('A' for Active; 'I' for Inactive)
REMARK    1  A    between atoms: C4_4  and  C6_6 
ROOT
HETATM    1  C1  UNL     1     -33.039   5.005   2.463  1.00 20.00     0.029 C 
HETATM    2  C2  UNL     1     -33.704   4.602   3.756  1.00 20.00     0.041 C 
HETATM    3  C3  UNL     1     -32.616   6.426   2.759  1.00 20.00     0.169 C 
HETATM    4  C4  UNL     1     -34.384   5.896   4.200  1.00 20.00     0.070 C 
HETATM    5  C5  UNL     1     -35.798   6.026   3.628  1.00 20.00     0.047 C 
HETATM    6  O7  UNL     1     -33.592   6.972   3.657  1.00 20.00    -0.379 OA
ENDROOT
BRANCH   4   7
HETATM    7  C6  UNL     1     -34.416   6.033   5.720  1.00 20.00     0.152 C 
HETATM    8 CL8  UNL     1     -33.604   7.528   6.216  1.00 20.00    -0.127 Cl
ENDBRANCH   4   7
TORSDOF 1
ENDMDL
MODEL 2
REMARK VINA RESULT:      -4.0      1.650      2.766
REMARK  1 active torsions:
REMARK  status: ('A' for Active; 'I' for Inactive)
REMARK    1  A    between atoms: C4_4  and  C6_6 
ROOT
HETATM    1  C1  UNL     1     -34.688   5.507   5.855  1.00 20.00     0.029 C 
HETATM    2  C2  UNL     1     -33.995   6.589   5.063  1.00 20.00     0.041 C 
HETATM    3  C3  UNL     1     -34.222   4.256   5.145  1.00 20.00     0.169 C 
HETATM    4  C4  UNL     1     -34.033   6.038   3.638  1.00 20.00     0.070 C 
HETATM    5  C5  UNL     1     -35.309   6.449   2.898  1.00 20.00     0.047 C 
HETATM    6  O7  UNL     1     -34.044   4.602   3.765  1.00 20.00    -0.379 OA
ENDROOT
BRANCH   4   7
HETATM    7  C6  UNL     1     -32.802   6.448   2.834  1.00 20.00     0.152 C 
HETATM    8 CL8  UNL     1     -32.071   7.902   3.536  1.00 20.00    -0.127 Cl
ENDBRANCH   4   7
TORSDOF 1
ENDMDL
MODEL 3
REMARK VINA RESULT:      -4.0      1.842      3.035
REMARK  1 active torsions:
REMARK  status: ('A' for Active; 'I' for Inactive)
REMARK    1  A    between atoms: C4_4  and  C6_6 
ROOT
HETATM    1  C1  UNL     1     -34.876   5.778   5.233  1.00 20.00     0.029 C 
HETATM    2  C2  UNL     1     -35.000   6.109   3.765  1.00 20.00     0.041 C 
HETATM    3  C3  UNL     1     -33.870   6.805   5.699  1.00 20.00     0.169 C 
HETATM    4  C4  UNL     1     -33.577   6.522   3.394  1.00 20.00     0.070 C 
HETATM    5  C5  UNL     1     -32.730   5.325   2.951  1.00 20.00     0.047 C 
HETATM    6  O7  UNL     1     -32.987   7.055   4.597  1.00 20.00    -0.379 OA
ENDROOT
BRANCH   4   7
HETATM    7  C6  UNL     1     -33.559   7.606   2.320  1.00 20.00     0.152 C 
HETATM    8 CL8  UNL     1     -31.936   8.305   2.185  1.00 20.00    -0.127 Cl
ENDBRANCH   4   7
TORSDOF 1
ENDMDL
MODEL 4
REMARK VINA RESULT:      -3.9      1.643      2.482
REMARK  1 active torsions:
REMARK  status: ('A' for Active; 'I' for Inactive)
REMARK    1  A    between atoms: C4_4  and  C6_6 
ROOT
HETATM    1  C1  UNL     1     -31.842   8.024   3.209  1.00 20.00     0.029 C 
HETATM    2  C2  UNL     1     -32.697   7.220   4.158  1.00 20.00     0.041 C 
HETATM    3  C3  UNL     1     -32.794   8.265   2.061  1.00 20.00     0.169 C 
HETATM    4  C4  UNL     1     -33.536   6.365   3.210  1.00 20.00     0.070 C 
HETATM    5  C5  UNL     1     -32.846   5.042   2.867  1.00 20.00     0.047 C 
HETATM    6  O7  UNL     1     -33.660   7.124   1.990  1.00 20.00    -0.379 OA
ENDROOT
BRANCH   4   7
HETATM    7  C6  UNL     1     -34.934   6.102   3.764  1.00 20.00     0.152 C 
HETATM    8 CL8  UNL     1     -34.824   5.313   5.347  1.00 20.00    -0.127 Cl
ENDBRANCH   4   7
TORSDOF 1
ENDMDL
MODEL 5
REMARK VINA RESULT:      -3.8      1.415      1.772
REMARK  1 active torsions:
REMARK  status: ('A' for Active; 'I' for Inactive)
REMARK    1  A    between atoms: C4_4  and  C6_6 
ROOT
HETATM    1  C1  UNL     1     -32.686   7.265   2.519  1.00 20.00     0.029 C 
HETATM    2  C2  UNL     1     -33.219   5.853   2.551  1.00 20.00     0.041 C 
HETATM    3  C3  UNL     1     -32.624   7.607   3.990  1.00 20.00     0.169 C 
HETATM    4  C4  UNL     1     -34.193   5.889   3.728  1.00 20.00     0.070 C 
HETATM    5  C5  UNL     1     -35.601   6.306   3.294  1.00 20.00     0.047 C 
HETATM    6  O7  UNL     1     -33.695   6.899   4.628  1.00 20.00    -0.379 OA
ENDROOT
BRANCH   4   7
HETATM    7  C6  UNL     1     -34.242   4.556   4.469  1.00 20.00     0.152 C 
HETATM    8 CL8  UNL     1     -34.678   4.818   6.167  1.00 20.00    -0.127 Cl
ENDBRANCH   4   7
TORSDOF 1
ENDMDL
MODEL 6
REMARK VINA RESULT:      -3.7      2.213      2.899
REMARK  1 active torsions:
REMARK  status: ('A' for Active; 'I' for Inactive)
REMARK    1  A    between atoms: C4_4  and  C6_6 
ROOT
HETATM    1  C1  UNL     1     -33.385   7.896   4.702  1.00 20.00     0.029 C 
HETATM    2  C2  UNL     1     -33.294   6.783   3.687  1.00 20.00     0.041 C 
HETATM    3  C3  UNL     1     -33.667   7.133   5.976  1.00 20.00     0.169 C 
HETATM    4  C4  UNL     1     -34.348   5.793   4.181  1.00 20.00     0.070 C 
HETATM    5  C5  UNL     1     -35.730   6.085   3.592  1.00 20.00     0.047 C 
HETATM    6  O7  UNL     1     -34.432   5.977   5.608  1.00 20.00    -0.379 OA
ENDROOT
BRANCH   4   7
HETATM    7  C6  UNL     1     -33.949   4.347   3.898  1.00 20.00     0.152 C 
HETATM    8 CL8  UNL     1     -32.870   4.275   2.494  1.00 20.00    -0.127 Cl
ENDBRANCH   4   7
TORSDOF 1
ENDMDL
MODEL 7
REMARK VINA RESULT:      -3.5      2.484      3.545
REMARK  1 active torsions:
REMARK  status: ('A' for Active; 'I' for Inactive)
REMARK    1  A    between atoms: C4_4  and  C6_6 
ROOT
HETATM    1  C1  UNL     1     -33.469   5.380   3.332  1.00 20.00     0.029 C 
HETATM    2  C2  UNL     1     -32.774   6.201   2.272  1.00 20.00     0.041 C 
HETATM    3  C3  UNL     1     -34.540   6.333   3.811  1.00 20.00     0.169 C 
HETATM    4  C4  UNL     1     -32.830   7.613   2.853  1.00 20.00     0.070 C 
HETATM    5  C5  UNL     1     -31.620   7.917   3.741  1.00 20.00     0.047 C 
HETATM    6  O7  UNL     1     -34.007   7.658   3.685  1.00 20.00    -0.379 OA
ENDROOT
BRANCH   4   7
HETATM    7  C6  UNL     1     -32.963   8.674   1.763  1.00 20.00     0.152 C 
HETATM    8 CL8  UNL     1     -31.484   8.737   0.790  1.00 20.00    -0.127 Cl
ENDBRANCH   4   7
TORSDOF 1
ENDMDL
MODEL 8
REMARK VINA RESULT:      -3.4      1.779      2.720
REMARK  1 active torsions:
REMARK  status: ('A' for Active; 'I' for Inactive)
REMARK    1  A    between atoms: C4_4  and  C6_6 
ROOT
HETATM    1  C1  UNL     1     -34.486   4.651   4.403  1.00 20.00     0.029 C 
HETATM    2  C2  UNL     1     -33.240   5.305   3.859  1.00 20.00     0.041 C 
HETATM    3  C3  UNL     1     -35.571   5.566   3.883  1.00 20.00     0.169 C 
HETATM    4  C4  UNL     1     -33.578   6.793   3.945  1.00 20.00     0.070 C 
HETATM    5  C5  UNL     1     -33.183   7.393   5.297  1.00 20.00     0.047 C 
HETATM    6  O7  UNL     1     -35.012   6.885   3.827  1.00 20.00    -0.379 OA
ENDROOT
BRANCH   4   7
HETATM    7  C6  UNL     1     -32.942   7.590   2.809  1.00 20.00     0.152 C 
HETATM    8 CL8  UNL     1     -31.418   8.316   3.351  1.00 20.00    -0.127 Cl
ENDBRANCH   4   7
TORSDOF 1
ENDMDL
MODEL 9
REMARK VINA RESULT:      -3.4     12.201     12.773
REMARK  1 active torsions:
REMARK  status: ('A' for Active; 'I' for Inactive)
REMARK    1  A    between atoms: C4_4  and  C6_6 
ROOT
HETATM    1  C1  UNL     1     -33.087  15.638  -5.149  1.00 20.00     0.029 C 
HETATM    2  C2  UNL     1     -34.317  15.305  -5.957  1.00 20.00     0.041 C 
HETATM    3  C3  UNL     1     -32.887  14.371  -4.349  1.00 20.00     0.169 C 
HETATM    4  C4  UNL     1     -35.139  14.462  -4.983  1.00 20.00     0.070 C 
HETATM    5  C5  UNL     1     -36.062  15.323  -4.118  1.00 20.00     0.047 C 
HETATM    6  O7  UNL     1     -34.189  13.821  -4.108  1.00 20.00    -0.379 OA
ENDROOT
BRANCH   4   7
HETATM    7  C6  UNL     1     -35.945  13.383  -5.702  1.00 20.00     0.152 C 
HETATM    8 CL8  UNL     1     -35.145  12.930  -7.217  1.00 20.00    -0.127 Cl
ENDBRANCH   4   7
TORSDOF 1
ENDMDL
