MODEL 1
REMARK VINA RESULT:      -5.8      0.000      0.000
REMARK  2 active torsions:
REMARK  status: ('A' for Active; 'I' for Inactive)
REMARK    1  A    between atoms: C1_1  and  C6_6 
REMARK    2  A    between atoms: C1_1  and  C9_9 
ROOT
HETATM    1  C2  UNL     1     -33.739   5.517   5.458  1.00 20.00     0.005 C 
HETATM    2  C3  UNL     1     -34.037   7.018   5.334  1.00 20.00     0.006 C 
HETATM    3  C4  UNL     1     -33.233   5.381   3.011  1.00 20.00     0.017 C 
HETATM    4  C5  UNL     1     -35.431   5.850   3.815  1.00 20.00     0.010 C 
HETATM    5  C6  UNL     1     -33.531   6.880   2.841  1.00 20.00     0.061 C 
HETATM    6  C7  UNL     1     -34.225   4.958   4.111  1.00 20.00    -0.013 C 
HETATM    7  C8  UNL     1     -34.612   7.142   3.910  1.00 20.00    -0.003 C 
ENDROOT
BRANCH   5   8
HETATM    8  C1  UNL     1     -32.319   7.745   2.986  1.00 20.00     0.145 C 
HETATM    9  O10 UNL     1     -31.795   7.910   4.087  1.00 20.00    -0.296 OA
BRANCH   8  10
HETATM   10  C9  UNL     1     -31.811   8.381   1.712  1.00 20.00     0.193 C 
HETATM   11 CL11 UNL     1     -32.700   9.869   1.357  1.00 20.00    -0.123 Cl
ENDBRANCH   8  10
ENDBRANCH   5   8
TORSDOF 2
ENDMDL
MODEL 2
REMARK VINA RESULT:      -5.1     11.337     12.322
REMARK  2 active torsions:
REMARK  status: ('A' for Active; 'I' for Inactive)
REMARK    1  A    between atoms: C1_1  and  C6_6 
REMARK    2  A    between atoms: C1_1  and  C9_9 
ROOT
HETATM    1  C2  UNL     1     -34.124  16.750  -5.578  1.00 20.00     0.005 C 
HETATM    2  C3  UNL     1     -35.535  16.617  -4.986  1.00 20.00     0.006 C 
HETATM    3  C4  UNL     1     -33.592  14.394  -4.921  1.00 20.00     0.017 C 
HETATM    4  C5  UNL     1     -33.961  16.100  -3.293  1.00 20.00     0.010 C 
HETATM    5  C6  UNL     1     -34.991  14.222  -4.309  1.00 20.00     0.061 C 
HETATM    6  C7  UNL     1     -33.275  15.876  -4.641  1.00 20.00    -0.013 C 
HETATM    7  C8  UNL     1     -35.329  15.643  -3.811  1.00 20.00    -0.003 C 
ENDROOT
BRANCH   5   8
HETATM    8  C1  UNL     1     -35.995  13.668  -5.270  1.00 20.00     0.145 C 
HETATM    9  O10 UNL     1     -37.173  13.536  -4.939  1.00 20.00    -0.296 OA
BRANCH   8  10
HETATM   10  C9  UNL     1     -35.460  13.292  -6.633  1.00 20.00     0.193 C 
HETATM   11 CL11 UNL     1     -36.052  14.413  -7.868  1.00 20.00    -0.123 Cl
ENDBRANCH   8  10
ENDBRANCH   5   8
TORSDOF 2
ENDMDL
MODEL 3
REMARK VINA RESULT:      -4.9     11.236     12.407
REMARK  2 active torsions:
REMARK  status: ('A' for Active; 'I' for Inactive)
REMARK    1  A    between atoms: C1_1  and  C6_6 
REMARK    2  A    between atoms: C1_1  and  C9_9 
ROOT
HETATM    1  C2  UNL     1     -34.032  16.563  -4.520  1.00 20.00     0.005 C 
HETATM    2  C3  UNL     1     -34.889  15.657  -3.625  1.00 20.00     0.006 C 
HETATM    3  C4  UNL     1     -34.202  14.921  -6.402  1.00 20.00     0.017 C 
HETATM    4  C5  UNL     1     -33.027  14.408  -4.390  1.00 20.00     0.010 C 
HETATM    5  C6  UNL     1     -35.056  13.980  -5.537  1.00 20.00     0.061 C 
HETATM    6  C7  UNL     1     -33.245  15.556  -5.375  1.00 20.00    -0.013 C 
HETATM    7  C8  UNL     1     -34.524  14.241  -4.112  1.00 20.00    -0.003 C 
ENDROOT
BRANCH   5   8
HETATM    8  C1  UNL     1     -36.527  14.214  -5.681  1.00 20.00     0.145 C 
HETATM    9  O10 UNL     1     -37.329  13.622  -4.961  1.00 20.00    -0.296 OA
BRANCH   8  10
HETATM   10  C9  UNL     1     -36.932  15.201  -6.752  1.00 20.00     0.193 C 
HETATM   11 CL11 UNL     1     -37.380  16.755  -6.034  1.00 20.00    -0.123 Cl
ENDBRANCH   8  10
ENDBRANCH   5   8
TORSDOF 2
ENDMDL
MODEL 4
REMARK VINA RESULT:      -4.7     11.408     12.402
REMARK  2 active torsions:
REMARK  status: ('A' for Active; 'I' for Inactive)
REMARK    1  A    between atoms: C1_1  and  C6_6 
REMARK    2  A    between atoms: C1_1  and  C9_9 
ROOT
HETATM    1  C2  UNL     1     -35.359  17.796  -4.105  1.00 20.00     0.005 C 
HETATM    2  C3  UNL     1     -35.816  16.553  -3.329  1.00 20.00     0.006 C 
HETATM    3  C4  UNL     1     -33.385  16.547  -5.006  1.00 20.00     0.017 C 
HETATM    4  C5  UNL     1     -33.593  17.061  -2.685  1.00 20.00     0.010 C 
HETATM    5  C6  UNL     1     -33.803  15.283  -4.238  1.00 20.00     0.061 C 
HETATM    6  C7  UNL     1     -33.826  17.682  -4.063  1.00 20.00    -0.013 C 
HETATM    7  C8  UNL     1     -34.488  15.853  -2.978  1.00 20.00    -0.003 C 
ENDROOT
BRANCH   5   8
HETATM    8  C1  UNL     1     -34.676  14.366  -5.035  1.00 20.00     0.145 C 
HETATM    9  O10 UNL     1     -35.091  13.315  -4.547  1.00 20.00    -0.296 OA
BRANCH   8  10
HETATM   10  C9  UNL     1     -34.993  14.820  -6.441  1.00 20.00     0.193 C 
HETATM   11 CL11 UNL     1     -34.233  13.752  -7.630  1.00 20.00    -0.123 Cl
ENDBRANCH   8  10
ENDBRANCH   5   8
TORSDOF 2
ENDMDL
MODEL 5
REMARK VINA RESULT:      -4.6      1.152      2.008
REMARK  2 active torsions:
REMARK  status: ('A' for Active; 'I' for Inactive)
REMARK    1  A    between atoms: C1_1  and  C6_6 
REMARK    2  A    between atoms: C1_1  and  C9_9 
ROOT
HETATM    1  C2  UNL     1     -35.544   6.088   3.622  1.00 20.00     0.005 C 
HETATM    2  C3  UNL     1     -34.721   5.926   2.336  1.00 20.00     0.006 C 
HETATM    3  C4  UNL     1     -33.580   7.110   4.789  1.00 20.00     0.017 C 
HETATM    4  C5  UNL     1     -33.581   4.826   4.098  1.00 20.00     0.010 C 
HETATM    5  C6  UNL     1     -32.718   6.958   3.525  1.00 20.00     0.061 C 
HETATM    6  C7  UNL     1     -34.498   5.874   4.728  1.00 20.00    -0.013 C 
HETATM    7  C8  UNL     1     -33.293   5.688   2.864  1.00 20.00    -0.003 C 
ENDROOT
BRANCH   5   8
HETATM    8  C1  UNL     1     -32.747   8.163   2.639  1.00 20.00     0.145 C 
HETATM    9  O10 UNL     1     -33.633   9.008   2.759  1.00 20.00    -0.296 OA
BRANCH   8  10
HETATM   10  C9  UNL     1     -31.637   8.252   1.616  1.00 20.00     0.193 C 
HETATM   11 CL11 UNL     1     -32.048   9.414   0.346  1.00 20.00    -0.123 Cl
ENDBRANCH   8  10
ENDBRANCH   5   8
TORSDOF 2
ENDMDL
MODEL 6
REMARK VINA RESULT:      -4.6     11.374     12.260
REMARK  2 active torsions:
REMARK  status: ('A' for Active; 'I' for Inactive)
REMARK    1  A    between atoms: C1_1  and  C6_6 
REMARK    2  A    between atoms: C1_1  and  C9_9 
ROOT
HETATM    1  C2  UNL     1     -33.935  15.604  -6.273  1.00 20.00     0.005 C 
HETATM    2  C3  UNL     1     -33.597  16.696  -5.249  1.00 20.00     0.006 C 
HETATM    3  C4  UNL     1     -35.297  14.379  -4.566  1.00 20.00     0.017 C 
HETATM    4  C5  UNL     1     -32.930  14.604  -4.359  1.00 20.00     0.010 C 
HETATM    5  C6  UNL     1     -34.975  15.447  -3.508  1.00 20.00     0.061 C 
HETATM    6  C7  UNL     1     -34.008  14.334  -5.409  1.00 20.00    -0.013 C 
HETATM    7  C8  UNL     1     -33.566  15.925  -3.915  1.00 20.00    -0.003 C 
ENDROOT
BRANCH   5   8
HETATM    8  C1  UNL     1     -35.989  16.545  -3.446  1.00 20.00     0.145 C 
HETATM    9  O10 UNL     1     -36.974  16.531  -4.182  1.00 20.00    -0.296 OA
BRANCH   8  10
HETATM   10  C9  UNL     1     -35.710  17.640  -2.441  1.00 20.00     0.193 C 
HETATM   11 CL11 UNL     1     -35.328  16.951  -0.856  1.00 20.00    -0.123 Cl
ENDBRANCH   8  10
ENDBRANCH   5   8
TORSDOF 2
ENDMDL
MODEL 7
REMARK VINA RESULT:      -4.6     11.357     12.350
REMARK  2 active torsions:
REMARK  status: ('A' for Active; 'I' for Inactive)
REMARK    1  A    between atoms: C1_1  and  C6_6 
REMARK    2  A    between atoms: C1_1  and  C9_9 
ROOT
HETATM    1  C2  UNL     1     -36.300  15.094  -7.125  1.00 20.00     0.005 C 
HETATM    2  C3  UNL     1     -35.058  15.921  -6.765  1.00 20.00     0.006 C 
HETATM    3  C4  UNL     1     -35.913  13.596  -5.157  1.00 20.00     0.017 C 
HETATM    4  C5  UNL     1     -34.405  13.657  -7.006  1.00 20.00     0.010 C 
HETATM    5  C6  UNL     1     -34.658  14.393  -4.767  1.00 20.00     0.061 C 
HETATM    6  C7  UNL     1     -35.902  13.673  -6.696  1.00 20.00    -0.013 C 
HETATM    7  C8  UNL     1     -34.119  14.880  -6.128  1.00 20.00    -0.003 C 
ENDROOT
BRANCH   5   8
HETATM    8  C1  UNL     1     -34.934  15.499  -3.799  1.00 20.00     0.145 C 
HETATM    9  O10 UNL     1     -36.087  15.756  -3.454  1.00 20.00    -0.296 OA
BRANCH   8  10
HETATM   10  C9  UNL     1     -33.722  16.251  -3.298  1.00 20.00     0.193 C 
HETATM   11 CL11 UNL     1     -34.035  16.952  -1.704  1.00 20.00    -0.123 Cl
ENDBRANCH   8  10
ENDBRANCH   5   8
TORSDOF 2
ENDMDL
MODEL 8
REMARK VINA RESULT:      -4.5     11.014     12.127
REMARK  2 active torsions:
REMARK  status: ('A' for Active; 'I' for Inactive)
REMARK    1  A    between atoms: C1_1  and  C6_6 
REMARK    2  A    between atoms: C1_1  and  C9_9 
ROOT
HETATM    1  C2  UNL     1     -36.795  14.524  -5.001  1.00 20.00     0.005 C 
HETATM    2  C3  UNL     1     -36.251  15.684  -5.847  1.00 20.00     0.006 C 
HETATM    3  C4  UNL     1     -34.490  14.007  -4.171  1.00 20.00     0.017 C 
HETATM    4  C5  UNL     1     -35.099  13.707  -6.459  1.00 20.00     0.010 C 
HETATM    5  C6  UNL     1     -33.904  15.153  -5.011  1.00 20.00     0.061 C 
HETATM    6  C7  UNL     1     -35.650  13.499  -5.049  1.00 20.00    -0.013 C 
HETATM    7  C8  UNL     1     -34.841  15.201  -6.236  1.00 20.00    -0.003 C 
ENDROOT
BRANCH   5   8
HETATM    8  C1  UNL     1     -33.819  16.449  -4.268  1.00 20.00     0.145 C 
HETATM    9  O10 UNL     1     -33.345  17.449  -4.804  1.00 20.00    -0.296 OA
BRANCH   8  10
HETATM   10  C9  UNL     1     -34.344  16.428  -2.850  1.00 20.00     0.193 C 
HETATM   11 CL11 UNL     1     -33.272  17.333  -1.772  1.00 20.00    -0.123 Cl
ENDBRANCH   8  10
ENDBRANCH   5   8
TORSDOF 2
ENDMDL
MODEL 9
REMARK VINA RESULT:      -4.5     11.632     12.589
REMARK  2 active torsions:
REMARK  status: ('A' for Active; 'I' for Inactive)
REMARK    1  A    between atoms: C1_1  and  C6_6 
REMARK    2  A    between atoms: C1_1  and  C9_9 
ROOT
HETATM    1  C2  UNL     1     -33.227  15.239  -4.055  1.00 20.00     0.005 C 
HETATM    2  C3  UNL     1     -33.381  15.294  -5.581  1.00 20.00     0.006 C 
HETATM    3  C4  UNL     1     -35.714  15.157  -3.776  1.00 20.00     0.017 C 
HETATM    4  C5  UNL     1     -34.610  17.088  -4.640  1.00 20.00     0.010 C 
HETATM    5  C6  UNL     1     -35.912  15.220  -5.299  1.00 20.00     0.061 C 
HETATM    6  C7  UNL     1     -34.456  16.019  -3.558  1.00 20.00    -0.013 C 
HETATM    7  C8  UNL     1     -34.706  16.058  -5.771  1.00 20.00    -0.003 C 
ENDROOT
BRANCH   5   8
HETATM    8  C1  UNL     1     -35.996  13.872  -5.942  1.00 20.00     0.145 C 
HETATM    9  O10 UNL     1     -35.905  12.848  -5.266  1.00 20.00    -0.296 OA
BRANCH   8  10
HETATM   10  C9  UNL     1     -36.192  13.872  -7.441  1.00 20.00     0.193 C 
HETATM   11 CL11 UNL     1     -37.384  15.090  -7.917  1.00 20.00    -0.123 Cl
ENDBRANCH   8  10
ENDBRANCH   5   8
TORSDOF 2
ENDMDL
