MODEL 1
REMARK VINA RESULT:      -4.7      0.000      0.000
REMARK  3 active torsions:
REMARK  status: ('A' for Active; 'I' for Inactive)
REMARK    1  A    between atoms: C6_6  and  C10_10 
REMARK    2  A    between atoms: C6_6  and  C11_11 
REMARK    3  A    between atoms: C9_9  and  N12_12 
ROOT
HETATM    1  C1  UNL     1     -33.326   9.503  -0.985  1.00 20.00     0.013 C 
HETATM    2  C2  UNL     1     -32.823   9.596   0.102  1.00 20.00    -0.087 C 
HETATM    3  C9  UNL     1     -32.210   9.714   1.427  1.00 20.00     0.364 C 
ENDROOT
BRANCH   3   4
HETATM    4  N12 UNL     1     -32.260   8.443   2.132  1.00 20.00     0.100 N 
HETATM    5  C4  UNL     1     -31.434   8.437   3.340  1.00 20.00     0.274 C 
HETATM    6  C3  UNL     1     -32.009   7.307   4.197  1.00 20.00     0.041 C 
HETATM    7  C6  UNL     1     -33.345   6.924   3.533  1.00 20.00    -0.013 C 
HETATM    8  C5  UNL     1     -33.609   8.104   2.589  1.00 20.00     0.283 C 
BRANCH   7   9
HETATM    9  C10 UNL     1     -34.471   6.763   4.557  1.00 20.00     0.007 C 
HETATM   10  C7  UNL     1     -33.989   7.048   5.937  1.00 20.00     0.006 C 
ENDBRANCH   7   9
BRANCH   7  11
HETATM   11  C11 UNL     1     -33.188   5.610   2.744  1.00 20.00     0.007 C 
HETATM   12  C8  UNL     1     -33.774   4.453   3.483  1.00 20.00     0.006 C 
ENDBRANCH   7  11
ENDBRANCH   3   4
TORSDOF 3
ENDMDL
MODEL 2
REMARK VINA RESULT:      -4.6      0.736      1.189
REMARK  3 active torsions:
REMARK  status: ('A' for Active; 'I' for Inactive)
REMARK    1  A    between atoms: C6_6  and  C10_10 
REMARK    2  A    between atoms: C6_6  and  C11_11 
REMARK    3  A    between atoms: C9_9  and  N12_12 
ROOT
HETATM    1  C1  UNL     1     -32.604  11.428   1.821  1.00 20.00     0.013 C 
HETATM    2  C2  UNL     1     -32.553  10.350   1.293  1.00 20.00    -0.087 C 
HETATM    3  C9  UNL     1     -32.491   9.038   0.645  1.00 20.00     0.364 C 
ENDROOT
BRANCH   3   4
HETATM    4  N12 UNL     1     -32.421   7.978   1.638  1.00 20.00     0.100 N 
HETATM    5  C4  UNL     1     -31.524   8.304   2.748  1.00 20.00     0.274 C 
HETATM    6  C3  UNL     1     -31.975   7.396   3.893  1.00 20.00     0.041 C 
HETATM    7  C6  UNL     1     -33.324   6.803   3.442  1.00 20.00    -0.013 C 
HETATM    8  C5  UNL     1     -33.717   7.703   2.262  1.00 20.00     0.283 C 
BRANCH   7   9
HETATM    9  C10 UNL     1     -34.373   6.850   4.555  1.00 20.00     0.007 C 
HETATM   10  C7  UNL     1     -33.774   7.299   5.842  1.00 20.00     0.006 C 
ENDBRANCH   7   9
BRANCH   7  11
HETATM   11  C11 UNL     1     -33.137   5.344   2.985  1.00 20.00     0.007 C 
HETATM   12  C8  UNL     1     -33.972   4.406   3.790  1.00 20.00     0.006 C 
ENDBRANCH   7  11
ENDBRANCH   3   4
TORSDOF 3
ENDMDL
MODEL 3
REMARK VINA RESULT:      -4.3     10.049     11.445
REMARK  3 active torsions:
REMARK  status: ('A' for Active; 'I' for Inactive)
REMARK    1  A    between atoms: C6_6  and  C10_10 
REMARK    2  A    between atoms: C6_6  and  C11_11 
REMARK    3  A    between atoms: C9_9  and  N12_12 
ROOT
HETATM    1  C1  UNL     1     -34.558  13.649  -7.588  1.00 20.00     0.013 C 
HETATM    2  C2  UNL     1     -35.166  13.542  -6.557  1.00 20.00    -0.087 C 
HETATM    3  C9  UNL     1     -35.909  13.409  -5.302  1.00 20.00     0.364 C 
ENDROOT
BRANCH   3   4
HETATM    4  N12 UNL     1     -35.452  14.386  -4.327  1.00 20.00     0.100 N 
HETATM    5  C4  UNL     1     -33.996  14.383  -4.168  1.00 20.00     0.274 C 
HETATM    6  C3  UNL     1     -33.667  15.754  -3.575  1.00 20.00     0.041 C 
HETATM    7  C6  UNL     1     -34.959  16.583  -3.711  1.00 20.00    -0.013 C 
HETATM    8  C5  UNL     1     -35.792  15.760  -4.703  1.00 20.00     0.283 C 
BRANCH   7   9
HETATM    9  C10 UNL     1     -34.685  17.991  -4.244  1.00 20.00     0.007 C 
HETATM   10  C7  UNL     1     -33.720  17.960  -5.377  1.00 20.00     0.006 C 
ENDBRANCH   7   9
BRANCH   7  11
HETATM   11  C11 UNL     1     -35.669  16.687  -2.348  1.00 20.00     0.007 C 
HETATM   12  C8  UNL     1     -34.708  17.013  -1.253  1.00 20.00     0.006 C 
ENDBRANCH   7  11
ENDBRANCH   3   4
TORSDOF 3
ENDMDL
MODEL 4
REMARK VINA RESULT:      -4.2     10.037     11.453
REMARK  3 active torsions:
REMARK  status: ('A' for Active; 'I' for Inactive)
REMARK    1  A    between atoms: C6_6  and  C10_10 
REMARK    2  A    between atoms: C6_6  and  C11_11 
REMARK    3  A    between atoms: C9_9  and  N12_12 
ROOT
HETATM    1  C1  UNL     1     -32.696  18.332  -1.021  1.00 20.00     0.013 C 
HETATM    2  C2  UNL     1     -33.762  17.785  -1.092  1.00 20.00    -0.087 C 
HETATM    3  C9  UNL     1     -35.065  17.120  -1.175  1.00 20.00     0.364 C 
ENDROOT
BRANCH   3   4
HETATM    4  N12 UNL     1     -35.164  16.333  -2.393  1.00 20.00     0.100 N 
HETATM    5  C4  UNL     1     -36.010  16.967  -3.406  1.00 20.00     0.274 C 
HETATM    6  C3  UNL     1     -35.575  16.331  -4.728  1.00 20.00     0.041 C 
HETATM    7  C6  UNL     1     -34.274  15.569  -4.412  1.00 20.00    -0.013 C 
HETATM    8  C5  UNL     1     -33.868  16.138  -3.045  1.00 20.00     0.283 C 
BRANCH   7   9
HETATM    9  C10 UNL     1     -33.192  15.818  -5.466  1.00 20.00     0.007 C 
HETATM   10  C7  UNL     1     -33.745  16.537  -6.646  1.00 20.00     0.006 C 
ENDBRANCH   7   9
BRANCH   7  11
HETATM   11  C11 UNL     1     -34.553  14.057  -4.319  1.00 20.00     0.007 C 
HETATM   12  C8  UNL     1     -35.817  13.689  -5.023  1.00 20.00     0.006 C 
ENDBRANCH   7  11
ENDBRANCH   3   4
TORSDOF 3
ENDMDL
MODEL 5
REMARK VINA RESULT:      -4.2     10.001     11.426
REMARK  3 active torsions:
REMARK  status: ('A' for Active; 'I' for Inactive)
REMARK    1  A    between atoms: C6_6  and  C10_10 
REMARK    2  A    between atoms: C6_6  and  C11_11 
REMARK    3  A    between atoms: C9_9  and  N12_12 
ROOT
HETATM    1  C1  UNL     1     -35.182  16.769  -1.563  1.00 20.00     0.013 C 
HETATM    2  C2  UNL     1     -34.506  16.614  -2.544  1.00 20.00    -0.087 C 
HETATM    3  C9  UNL     1     -33.679  16.426  -3.739  1.00 20.00     0.364 C 
ENDROOT
BRANCH   3   4
HETATM    4  N12 UNL     1     -34.317  15.505  -4.666  1.00 20.00     0.100 N 
HETATM    5  C4  UNL     1     -34.546  14.184  -4.078  1.00 20.00     0.274 C 
HETATM    6  C3  UNL     1     -35.654  13.565  -4.932  1.00 20.00     0.041 C 
HETATM    7  C6  UNL     1     -36.203  14.718  -5.794  1.00 20.00    -0.013 C 
HETATM    8  C5  UNL     1     -35.638  15.964  -5.099  1.00 20.00     0.283 C 
BRANCH   7   9
HETATM    9  C10 UNL     1     -37.733  14.737  -5.820  1.00 20.00     0.007 C 
HETATM   10  C7  UNL     1     -38.289  15.181  -4.512  1.00 20.00     0.006 C 
ENDBRANCH   7   9
BRANCH   7  11
HETATM   11  C11 UNL     1     -35.674  14.602  -7.236  1.00 20.00     0.007 C 
HETATM   12  C8  UNL     1     -35.120  13.244  -7.509  1.00 20.00     0.006 C 
ENDBRANCH   7  11
ENDBRANCH   3   4
TORSDOF 3
ENDMDL
MODEL 6
REMARK VINA RESULT:      -4.1      1.220      4.961
REMARK  3 active torsions:
REMARK  status: ('A' for Active; 'I' for Inactive)
REMARK    1  A    between atoms: C6_6  and  C10_10 
REMARK    2  A    between atoms: C6_6  and  C11_11 
REMARK    3  A    between atoms: C9_9  and  N12_12 
ROOT
HETATM    1  C1  UNL     1     -34.691   5.746   5.939  1.00 20.00     0.013 C 
HETATM    2  C2  UNL     1     -34.419   5.859   4.775  1.00 20.00    -0.087 C 
HETATM    3  C9  UNL     1     -34.090   5.994   3.354  1.00 20.00     0.364 C 
ENDROOT
BRANCH   3   4
HETATM    4  N12 UNL     1     -33.507   7.299   3.083  1.00 20.00     0.100 N 
HETATM    5  C4  UNL     1     -32.166   7.445   3.652  1.00 20.00     0.274 C 
HETATM    6  C3  UNL     1     -31.524   8.576   2.847  1.00 20.00     0.041 C 
HETATM    7  C6  UNL     1     -32.460   8.812   1.646  1.00 20.00    -0.013 C 
HETATM    8  C5  UNL     1     -33.345   7.558   1.651  1.00 20.00     0.283 C 
BRANCH   7   9
HETATM    9  C10 UNL     1     -31.687   8.946   0.333  1.00 20.00     0.007 C 
HETATM   10  C7  UNL     1     -32.610   8.985  -0.834  1.00 20.00     0.006 C 
ENDBRANCH   7   9
BRANCH   7  11
HETATM   11  C11 UNL     1     -33.302  10.082   1.870  1.00 20.00     0.007 C 
HETATM   12  C8  UNL     1     -32.447  11.305   1.917  1.00 20.00     0.006 C 
ENDBRANCH   7  11
ENDBRANCH   3   4
TORSDOF 3
ENDMDL
MODEL 7
REMARK VINA RESULT:      -4.0     10.210     11.785
REMARK  3 active torsions:
REMARK  status: ('A' for Active; 'I' for Inactive)
REMARK    1  A    between atoms: C6_6  and  C10_10 
REMARK    2  A    between atoms: C6_6  and  C11_11 
REMARK    3  A    between atoms: C9_9  and  N12_12 
ROOT
HETATM    1  C1  UNL     1     -39.822  15.922  -4.641  1.00 20.00     0.013 C 
HETATM    2  C2  UNL     1     -38.895  15.245  -4.995  1.00 20.00    -0.087 C 
HETATM    3  C9  UNL     1     -37.767  14.419  -5.430  1.00 20.00     0.364 C 
ENDROOT
BRANCH   3   4
HETATM    4  N12 UNL     1     -36.595  14.674  -4.608  1.00 20.00     0.100 N 
HETATM    5  C4  UNL     1     -35.555  13.659  -4.780  1.00 20.00     0.274 C 
HETATM    6  C3  UNL     1     -34.267  14.339  -4.311  1.00 20.00     0.041 C 
HETATM    7  C6  UNL     1     -34.616  15.834  -4.172  1.00 20.00    -0.013 C 
HETATM    8  C5  UNL     1     -35.946  15.946  -4.930  1.00 20.00     0.283 C 
BRANCH   7   9
HETATM    9  C10 UNL     1     -33.543  16.734  -4.788  1.00 20.00     0.007 C 
HETATM   10  C7  UNL     1     -33.886  17.101  -6.189  1.00 20.00     0.006 C 
ENDBRANCH   7   9
BRANCH   7  11
HETATM   11  C11 UNL     1     -34.795  16.202  -2.687  1.00 20.00     0.007 C 
HETATM   12  C8  UNL     1     -33.672  17.051  -2.194  1.00 20.00     0.006 C 
ENDBRANCH   7  11
ENDBRANCH   3   4
TORSDOF 3
ENDMDL
MODEL 8
REMARK VINA RESULT:      -4.0     10.564     11.705
REMARK  3 active torsions:
REMARK  status: ('A' for Active; 'I' for Inactive)
REMARK    1  A    between atoms: C6_6  and  C10_10 
REMARK    2  A    between atoms: C6_6  and  C11_11 
REMARK    3  A    between atoms: C9_9  and  N12_12 
ROOT
HETATM    1  C1  UNL     1     -35.464  17.185  -0.879  1.00 20.00     0.013 C 
HETATM    2  C2  UNL     1     -34.679  16.917  -1.748  1.00 20.00    -0.087 C 
HETATM    3  C9  UNL     1     -33.719  16.589  -2.805  1.00 20.00     0.364 C 
ENDROOT
BRANCH   3   4
HETATM    4  N12 UNL     1     -34.403  16.362  -4.068  1.00 20.00     0.100 N 
HETATM    5  C4  UNL     1     -33.488  16.363  -5.211  1.00 20.00     0.274 C 
HETATM    6  C3  UNL     1     -34.235  15.600  -6.307  1.00 20.00     0.041 C 
HETATM    7  C6  UNL     1     -35.439  14.944  -5.606  1.00 20.00    -0.013 C 
HETATM    8  C5  UNL     1     -35.077  15.064  -4.119  1.00 20.00     0.283 C 
BRANCH   7   9
HETATM    9  C10 UNL     1     -35.621  13.483  -6.022  1.00 20.00     0.007 C 
HETATM   10  C7  UNL     1     -34.925  13.198  -7.307  1.00 20.00     0.006 C 
ENDBRANCH   7   9
BRANCH   7  11
HETATM   11  C11 UNL     1     -36.729  15.724  -5.924  1.00 20.00     0.007 C 
HETATM   12  C8  UNL     1     -37.934  14.849  -5.840  1.00 20.00     0.006 C 
ENDBRANCH   7  11
ENDBRANCH   3   4
TORSDOF 3
ENDMDL
MODEL 9
REMARK VINA RESULT:      -4.0     10.456     11.443
REMARK  3 active torsions:
REMARK  status: ('A' for Active; 'I' for Inactive)
REMARK    1  A    between atoms: C6_6  and  C10_10 
REMARK    2  A    between atoms: C6_6  and  C11_11 
REMARK    3  A    between atoms: C9_9  and  N12_12 
ROOT
HETATM    1  C1  UNL     1     -35.870  13.453  -5.228  1.00 20.00     0.013 C 
HETATM    2  C2  UNL     1     -34.938  14.199  -5.365  1.00 20.00    -0.087 C 
HETATM    3  C9  UNL     1     -33.800  15.105  -5.536  1.00 20.00     0.364 C 
ENDROOT
BRANCH   3   4
HETATM    4  N12 UNL     1     -33.943  16.275  -4.684  1.00 20.00     0.100 N 
HETATM    5  C4  UNL     1     -35.197  16.993  -4.919  1.00 20.00     0.274 C 
HETATM    6  C3  UNL     1     -35.426  17.803  -3.641  1.00 20.00     0.041 C 
HETATM    7  C6  UNL     1     -34.414  17.254  -2.617  1.00 20.00    -0.013 C 
HETATM    8  C5  UNL     1     -33.957  15.937  -3.259  1.00 20.00     0.283 C 
BRANCH   7   9
HETATM    9  C10 UNL     1     -35.053  17.017  -1.247  1.00 20.00     0.007 C 
HETATM   10  C7  UNL     1     -36.284  17.837  -1.078  1.00 20.00     0.006 C 
ENDBRANCH   7   9
BRANCH   7  11
HETATM   11  C11 UNL     1     -33.232  18.231  -2.463  1.00 20.00     0.007 C 
HETATM   12  C8  UNL     1     -32.563  18.075  -1.139  1.00 20.00     0.006 C 
ENDBRANCH   7  11
ENDBRANCH   3   4
TORSDOF 3
ENDMDL
