MODEL 1
REMARK VINA RESULT:      -5.0      0.000      0.000
REMARK  3 active torsions:
REMARK  status: ('A' for Active; 'I' for Inactive)
REMARK    1  A    between atoms: C1_1  and  C5_5 
REMARK    2  A    between atoms: C1_1  and  C8_8 
REMARK    3  A    between atoms: C8_8  and  C9_9 
ROOT
HETATM    1  C2  UNL     1     -34.254   3.988   4.479  1.00 20.00     0.029 C 
HETATM    2  C3  UNL     1     -33.478   4.789   3.463  1.00 20.00     0.048 C 
HETATM    3  C4  UNL     1     -34.471   5.000   5.578  1.00 20.00     0.169 C 
HETATM    4  C5  UNL     1     -34.067   6.188   3.613  1.00 20.00     0.117 C 
HETATM    5  C6  UNL     1     -35.150   6.497   2.589  1.00 20.00     0.054 C 
HETATM    6  O11 UNL     1     -34.643   6.265   4.926  1.00 20.00    -0.373 OA
ENDROOT
BRANCH   4   7
HETATM    7  C1  UNL     1     -32.991   7.231   3.570  1.00 20.00     0.160 C 
HETATM    8  O10 UNL     1     -32.575   7.756   4.602  1.00 20.00    -0.295 OA
BRANCH   7   9
HETATM    9  C8  UNL     1     -32.461   7.588   2.192  1.00 20.00     0.081 C 
BRANCH   9  10
HETATM   10  C9  UNL     1     -32.096   9.064   2.071  1.00 20.00     0.003 C 
HETATM   11  C7  UNL     1     -32.426   9.608   0.690  1.00 20.00     0.005 C 
ENDBRANCH   9  10
ENDBRANCH   7   9
ENDBRANCH   4   7
TORSDOF 3
ENDMDL
MODEL 2
REMARK VINA RESULT:      -4.6      1.651      4.716
REMARK  3 active torsions:
REMARK  status: ('A' for Active; 'I' for Inactive)
REMARK    1  A    between atoms: C1_1  and  C5_5 
REMARK    2  A    between atoms: C1_1  and  C8_8 
REMARK    3  A    between atoms: C8_8  and  C9_9 
ROOT
HETATM    1  C2  UNL     1     -31.785   9.331   0.596  1.00 20.00     0.029 C 
HETATM    2  C3  UNL     1     -31.586   7.963   1.203  1.00 20.00     0.048 C 
HETATM    3  C4  UNL     1     -33.133   9.725   1.148  1.00 20.00     0.169 C 
HETATM    4  C5  UNL     1     -32.256   8.097   2.566  1.00 20.00     0.117 C 
HETATM    5  C6  UNL     1     -31.277   8.409   3.689  1.00 20.00     0.054 C 
HETATM    6  O11 UNL     1     -33.200   9.174   2.469  1.00 20.00    -0.373 OA
ENDROOT
BRANCH   4   7
HETATM    7  C1  UNL     1     -33.055   6.872   2.893  1.00 20.00     0.160 C 
HETATM    8  O10 UNL     1     -32.867   5.813   2.295  1.00 20.00    -0.295 OA
BRANCH   7   9
HETATM    9  C8  UNL     1     -34.093   7.024   3.992  1.00 20.00     0.081 C 
BRANCH   9  10
HETATM   10  C9  UNL     1     -34.938   5.766   4.176  1.00 20.00     0.003 C 
HETATM   11  C7  UNL     1     -34.651   5.094   5.510  1.00 20.00     0.005 C 
ENDBRANCH   9  10
ENDBRANCH   7   9
ENDBRANCH   4   7
TORSDOF 3
ENDMDL
MODEL 3
REMARK VINA RESULT:      -4.6      1.257      1.905
REMARK  3 active torsions:
REMARK  status: ('A' for Active; 'I' for Inactive)
REMARK    1  A    between atoms: C1_1  and  C5_5 
REMARK    2  A    between atoms: C1_1  and  C8_8 
REMARK    3  A    between atoms: C8_8  and  C9_9 
ROOT
HETATM    1  C2  UNL     1     -35.315   5.770   3.744  1.00 20.00     0.029 C 
HETATM    2  C3  UNL     1     -34.772   7.166   3.560  1.00 20.00     0.048 C 
HETATM    3  C4  UNL     1     -34.070   4.928   3.596  1.00 20.00     0.169 C 
HETATM    4  C5  UNL     1     -33.385   7.076   4.188  1.00 20.00     0.117 C 
HETATM    5  C6  UNL     1     -33.344   7.571   5.627  1.00 20.00     0.054 C 
HETATM    6  O11 UNL     1     -33.002   5.693   4.168  1.00 20.00    -0.373 OA
ENDROOT
BRANCH   4   7
HETATM    7  C1  UNL     1     -32.372   7.801   3.355  1.00 20.00     0.160 C 
HETATM    8  O10 UNL     1     -31.378   8.313   3.869  1.00 20.00    -0.295 OA
BRANCH   7   9
HETATM    9  C8  UNL     1     -32.650   7.859   1.863  1.00 20.00     0.081 C 
BRANCH   9  10
HETATM   10  C9  UNL     1     -31.890   8.986   1.170  1.00 20.00     0.003 C 
HETATM   11  C7  UNL     1     -32.714  10.263   1.118  1.00 20.00     0.005 C 
ENDBRANCH   9  10
ENDBRANCH   7   9
ENDBRANCH   4   7
TORSDOF 3
ENDMDL
MODEL 4
REMARK VINA RESULT:      -4.5     11.093     12.067
REMARK  3 active torsions:
REMARK  status: ('A' for Active; 'I' for Inactive)
REMARK    1  A    between atoms: C1_1  and  C5_5 
REMARK    2  A    between atoms: C1_1  and  C8_8 
REMARK    3  A    between atoms: C8_8  and  C9_9 
ROOT
HETATM    1  C2  UNL     1     -35.594  14.218  -7.748  1.00 20.00     0.029 C 
HETATM    2  C3  UNL     1     -35.387  15.130  -6.564  1.00 20.00     0.048 C 
HETATM    3  C4  UNL     1     -35.159  12.882  -7.195  1.00 20.00     0.169 C 
HETATM    4  C5  UNL     1     -35.727  14.230  -5.380  1.00 20.00     0.117 C 
HETATM    5  C6  UNL     1     -37.157  14.402  -4.885  1.00 20.00     0.054 C 
HETATM    6  O11 UNL     1     -35.555  12.874  -5.818  1.00 20.00    -0.373 OA
ENDROOT
BRANCH   4   7
HETATM    7  C1  UNL     1     -34.756  14.431  -4.257  1.00 20.00     0.160 C 
HETATM    8  O10 UNL     1     -33.810  13.661  -4.090  1.00 20.00    -0.295 OA
BRANCH   7   9
HETATM    9  C8  UNL     1     -35.013  15.628  -3.357  1.00 20.00     0.081 C 
BRANCH   9  10
HETATM   10  C9  UNL     1     -33.741  16.416  -3.056  1.00 20.00     0.003 C 
HETATM   11  C7  UNL     1     -33.850  17.164  -1.737  1.00 20.00     0.005 C 
ENDBRANCH   9  10
ENDBRANCH   7   9
ENDBRANCH   4   7
TORSDOF 3
ENDMDL
MODEL 5
REMARK VINA RESULT:      -4.4      1.208      4.324
REMARK  3 active torsions:
REMARK  status: ('A' for Active; 'I' for Inactive)
REMARK    1  A    between atoms: C1_1  and  C5_5 
REMARK    2  A    between atoms: C1_1  and  C8_8 
REMARK    3  A    between atoms: C8_8  and  C9_9 
ROOT
HETATM    1  C2  UNL     1     -32.379   8.869   1.553  1.00 20.00     0.029 C 
HETATM    2  C3  UNL     1     -33.556   8.167   2.184  1.00 20.00     0.048 C 
HETATM    3  C4  UNL     1     -31.368   8.857   2.674  1.00 20.00     0.169 C 
HETATM    4  C5  UNL     1     -32.889   7.142   3.096  1.00 20.00     0.117 C 
HETATM    5  C6  UNL     1     -32.781   5.759   2.469  1.00 20.00     0.054 C 
HETATM    6  O11 UNL     1     -31.565   7.622   3.375  1.00 20.00    -0.373 OA
ENDROOT
BRANCH   4   7
HETATM    7  C1  UNL     1     -33.590   7.065   4.419  1.00 20.00     0.160 C 
HETATM    8  O10 UNL     1     -33.135   7.630   5.412  1.00 20.00    -0.295 OA
BRANCH   7   9
HETATM    9  C8  UNL     1     -34.875   6.255   4.448  1.00 20.00     0.081 C 
BRANCH   9  10
HETATM   10  C9  UNL     1     -34.792   5.059   5.391  1.00 20.00     0.003 C 
HETATM   11  C7  UNL     1     -34.153   3.858   4.712  1.00 20.00     0.005 C 
ENDBRANCH   9  10
ENDBRANCH   7   9
ENDBRANCH   4   7
TORSDOF 3
ENDMDL
MODEL 6
REMARK VINA RESULT:      -4.4     11.557     12.680
REMARK  3 active torsions:
REMARK  status: ('A' for Active; 'I' for Inactive)
REMARK    1  A    between atoms: C1_1  and  C5_5 
REMARK    2  A    between atoms: C1_1  and  C8_8 
REMARK    3  A    between atoms: C8_8  and  C9_9 
ROOT
HETATM    1  C2  UNL     1     -33.262  16.103  -5.394  1.00 20.00     0.029 C 
HETATM    2  C3  UNL     1     -34.608  15.824  -6.017  1.00 20.00     0.048 C 
HETATM    3  C4  UNL     1     -33.045  14.870  -4.550  1.00 20.00     0.169 C 
HETATM    4  C5  UNL     1     -34.585  14.310  -6.208  1.00 20.00     0.117 C 
HETATM    5  C6  UNL     1     -34.180  13.888  -7.613  1.00 20.00     0.054 C 
HETATM    6  O11 UNL     1     -33.628  13.782  -5.278  1.00 20.00    -0.373 OA
ENDROOT
BRANCH   4   7
HETATM    7  C1  UNL     1     -35.905  13.703  -5.837  1.00 20.00     0.160 C 
HETATM    8  O10 UNL     1     -35.963  12.668  -5.175  1.00 20.00    -0.295 OA
BRANCH   7   9
HETATM    9  C8  UNL     1     -37.140  14.440  -6.326  1.00 20.00     0.081 C 
BRANCH   9  10
HETATM   10  C9  UNL     1     -38.221  14.543  -5.253  1.00 20.00     0.003 C 
HETATM   11  C7  UNL     1     -37.934  15.677  -4.282  1.00 20.00     0.005 C 
ENDBRANCH   9  10
ENDBRANCH   7   9
ENDBRANCH   4   7
TORSDOF 3
ENDMDL
MODEL 7
REMARK VINA RESULT:      -4.3     11.360     12.556
REMARK  3 active torsions:
REMARK  status: ('A' for Active; 'I' for Inactive)
REMARK    1  A    between atoms: C1_1  and  C5_5 
REMARK    2  A    between atoms: C1_1  and  C8_8 
REMARK    3  A    between atoms: C8_8  and  C9_9 
ROOT
HETATM    1  C2  UNL     1     -35.675  13.789  -7.905  1.00 20.00     0.029 C 
HETATM    2  C3  UNL     1     -34.504  13.602  -6.971  1.00 20.00     0.048 C 
HETATM    3  C4  UNL     1     -36.665  14.514  -7.025  1.00 20.00     0.169 C 
HETATM    4  C5  UNL     1     -34.547  14.866  -6.118  1.00 20.00     0.117 C 
HETATM    5  C6  UNL     1     -33.601  15.954  -6.608  1.00 20.00     0.054 C 
HETATM    6  O11 UNL     1     -35.890  15.368  -6.174  1.00 20.00    -0.373 OA
ENDROOT
BRANCH   4   7
HETATM    7  C1  UNL     1     -34.281  14.550  -4.678  1.00 20.00     0.160 C 
HETATM    8  O10 UNL     1     -34.572  13.452  -4.205  1.00 20.00    -0.295 OA
BRANCH   7   9
HETATM    9  C8  UNL     1     -33.640  15.656  -3.857  1.00 20.00     0.081 C 
BRANCH   9  10
HETATM   10  C9  UNL     1     -34.604  16.264  -2.842  1.00 20.00     0.003 C 
HETATM   11  C7  UNL     1     -33.866  17.080  -1.793  1.00 20.00     0.005 C 
ENDBRANCH   9  10
ENDBRANCH   7   9
ENDBRANCH   4   7
TORSDOF 3
ENDMDL
MODEL 8
REMARK VINA RESULT:      -4.2     11.332     12.254
REMARK  3 active torsions:
REMARK  status: ('A' for Active; 'I' for Inactive)
REMARK    1  A    between atoms: C1_1  and  C5_5 
REMARK    2  A    between atoms: C1_1  and  C8_8 
REMARK    3  A    between atoms: C8_8  and  C9_9 
ROOT
HETATM    1  C2  UNL     1     -37.267  14.245  -5.713  1.00 20.00     0.029 C 
HETATM    2  C3  UNL     1     -36.023  13.575  -5.180  1.00 20.00     0.048 C 
HETATM    3  C4  UNL     1     -36.822  15.683  -5.832  1.00 20.00     0.169 C 
HETATM    4  C5  UNL     1     -34.901  14.362  -5.850  1.00 20.00     0.117 C 
HETATM    5  C6  UNL     1     -34.364  13.690  -7.106  1.00 20.00     0.054 C 
HETATM    6  O11 UNL     1     -35.440  15.642  -6.211  1.00 20.00    -0.373 OA
ENDROOT
BRANCH   4   7
HETATM    7  C1  UNL     1     -33.788  14.636  -4.885  1.00 20.00     0.160 C 
HETATM    8  O10 UNL     1     -33.160  13.716  -4.363  1.00 20.00    -0.295 OA
BRANCH   7   9
HETATM    9  C8  UNL     1     -33.495  16.099  -4.600  1.00 20.00     0.081 C 
BRANCH   9  10
HETATM   10  C9  UNL     1     -33.631  16.445  -3.120  1.00 20.00     0.003 C 
HETATM   11  C7  UNL     1     -35.065  16.289  -2.641  1.00 20.00     0.005 C 
ENDBRANCH   9  10
ENDBRANCH   7   9
ENDBRANCH   4   7
TORSDOF 3
ENDMDL
MODEL 9
REMARK VINA RESULT:      -4.1     11.353     12.180
REMARK  3 active torsions:
REMARK  status: ('A' for Active; 'I' for Inactive)
REMARK    1  A    between atoms: C1_1  and  C5_5 
REMARK    2  A    between atoms: C1_1  and  C8_8 
REMARK    3  A    between atoms: C8_8  and  C9_9 
ROOT
HETATM    1  C2  UNL     1     -35.573  13.532  -6.537  1.00 20.00     0.029 C 
HETATM    2  C3  UNL     1     -35.652  13.631  -5.033  1.00 20.00     0.048 C 
HETATM    3  C4  UNL     1     -35.494  14.984  -6.943  1.00 20.00     0.169 C 
HETATM    4  C5  UNL     1     -34.783  14.847  -4.727  1.00 20.00     0.117 C 
HETATM    5  C6  UNL     1     -33.359  14.482  -4.330  1.00 20.00     0.054 C 
HETATM    6  O11 UNL     1     -34.736  15.643  -5.920  1.00 20.00    -0.373 OA
ENDROOT
BRANCH   4   7
HETATM    7  C1  UNL     1     -35.416  15.708  -3.677  1.00 20.00     0.160 C 
HETATM    8  O10 UNL     1     -36.635  15.869  -3.639  1.00 20.00    -0.295 OA
BRANCH   7   9
HETATM    9  C8  UNL     1     -34.468  16.357  -2.683  1.00 20.00     0.081 C 
BRANCH   9  10
HETATM   10  C9  UNL     1     -35.190  16.892  -1.450  1.00 20.00     0.003 C 
HETATM   11  C7  UNL     1     -34.266  17.736  -0.586  1.00 20.00     0.005 C 
ENDBRANCH   9  10
ENDBRANCH   7   9
ENDBRANCH   4   7
TORSDOF 3
ENDMDL
