MODEL 1
REMARK VINA RESULT:      -4.8      0.000      0.000
REMARK  3 active torsions:
REMARK  status: ('A' for Active; 'I' for Inactive)
REMARK    1  A    between atoms: C4_4  and  C9_9 
REMARK    2  A    between atoms: C8_8  and  C9_9 
REMARK    3  A    between atoms: C9_9  and  O11_11 
ROOT
HETATM    1  C1  UNL     1     -32.493   8.450   1.879  1.00 20.00     0.066 C 
HETATM    2  C6  UNL     1     -31.057   8.236   3.842  1.00 20.00     0.028 C 
HETATM    3  C8  UNL     1     -32.197   7.586   3.045  1.00 20.00     0.123 C 
HETATM    4  N10 UNL     1     -32.727   9.122   0.963  1.00 20.00    -0.197 NA
ENDROOT
BRANCH   3   5
HETATM    5  C9  UNL     1     -33.472   7.316   3.901  1.00 20.00     0.077 C 
HETATM    6  C7  UNL     1     -33.213   7.596   5.369  1.00 20.00     0.048 C 
BRANCH   5   7
HETATM    7  C4  UNL     1     -33.959   5.863   3.754  1.00 20.00    -0.012 A 
HETATM    8  C2  UNL     1     -35.443   5.599   3.858  1.00 20.00     0.013 A 
HETATM    9  C3  UNL     1     -34.529   5.179   4.974  1.00 20.00     0.013 A 
HETATM   10  C5  UNL     1     -33.163   5.031   2.786  1.00 20.00     0.018 C 
ENDBRANCH   5   7
BRANCH   5  11
HETATM   11  O11 UNL     1     -34.522   8.182   3.459  1.00 20.00    -0.388 OA
HETATM   12  H26 UNL     1     -34.364   9.037   3.885  1.00 20.00     0.210 HD
ENDBRANCH   5  11
ENDBRANCH   3   5
TORSDOF 3
ENDMDL
MODEL 2
REMARK VINA RESULT:      -4.4     10.800     12.193
REMARK  3 active torsions:
REMARK  status: ('A' for Active; 'I' for Inactive)
REMARK    1  A    between atoms: C4_4  and  C9_9 
REMARK    2  A    between atoms: C8_8  and  C9_9 
REMARK    3  A    between atoms: C9_9  and  O11_11 
ROOT
HETATM    1  C1  UNL     1     -37.693  14.809  -4.622  1.00 20.00     0.066 C 
HETATM    2  C6  UNL     1     -35.967  15.955  -3.328  1.00 20.00     0.028 C 
HETATM    3  C8  UNL     1     -36.298  15.303  -4.679  1.00 20.00     0.123 C 
HETATM    4  N10 UNL     1     -38.785  14.421  -4.582  1.00 20.00    -0.197 NA
ENDROOT
BRANCH   3   5
HETATM    5  C9  UNL     1     -35.300  14.173  -5.079  1.00 20.00     0.077 C 
HETATM    6  C7  UNL     1     -34.098  14.155  -4.156  1.00 20.00     0.048 C 
BRANCH   5   7
HETATM    7  C4  UNL     1     -34.808  14.336  -6.529  1.00 20.00    -0.012 A 
HETATM    8  C2  UNL     1     -35.826  14.224  -7.640  1.00 20.00     0.013 A 
HETATM    9  C3  UNL     1     -34.829  13.120  -7.425  1.00 20.00     0.013 A 
HETATM   10  C5  UNL     1     -33.684  15.319  -6.701  1.00 20.00     0.018 C 
ENDBRANCH   5   7
BRANCH   5  11
HETATM   11  O11 UNL     1     -35.963  12.909  -4.975  1.00 20.00    -0.388 OA
HETATM   12  H26 UNL     1     -36.827  13.021  -5.399  1.00 20.00     0.210 HD
ENDBRANCH   5  11
ENDBRANCH   3   5
TORSDOF 3
ENDMDL
MODEL 3
REMARK VINA RESULT:      -4.4     10.951     12.069
REMARK  3 active torsions:
REMARK  status: ('A' for Active; 'I' for Inactive)
REMARK    1  A    between atoms: C4_4  and  C9_9 
REMARK    2  A    between atoms: C8_8  and  C9_9 
REMARK    3  A    between atoms: C9_9  and  O11_11 
ROOT
HETATM    1  C1  UNL     1     -35.254  13.755  -4.719  1.00 20.00     0.066 C 
HETATM    2  C6  UNL     1     -32.903  14.286  -4.327  1.00 20.00     0.028 C 
HETATM    3  C8  UNL     1     -34.350  14.725  -4.059  1.00 20.00     0.123 C 
HETATM    4  N10 UNL     1     -35.966  12.996  -5.232  1.00 20.00    -0.197 NA
ENDROOT
BRANCH   3   5
HETATM    5  C9  UNL     1     -34.645  16.188  -4.510  1.00 20.00     0.077 C 
HETATM    6  C7  UNL     1     -33.558  16.703  -5.434  1.00 20.00     0.048 C 
BRANCH   5   7
HETATM    7  C4  UNL     1     -34.764  17.142  -3.308  1.00 20.00    -0.012 A 
HETATM    8  C2  UNL     1     -33.712  17.055  -2.227  1.00 20.00     0.013 A 
HETATM    9  C3  UNL     1     -35.100  16.546  -1.961  1.00 20.00     0.013 A 
HETATM   10  C5  UNL     1     -35.323  18.498  -3.639  1.00 20.00     0.018 C 
ENDBRANCH   5   7
BRANCH   5  11
HETATM   11  O11 UNL     1     -35.886  16.214  -5.223  1.00 20.00    -0.388 OA
HETATM   12  H26 UNL     1     -36.421  16.906  -4.808  1.00 20.00     0.210 HD
ENDBRANCH   5  11
ENDBRANCH   3   5
TORSDOF 3
ENDMDL
MODEL 4
REMARK VINA RESULT:      -4.4     11.057     12.238
REMARK  3 active torsions:
REMARK  status: ('A' for Active; 'I' for Inactive)
REMARK    1  A    between atoms: C4_4  and  C9_9 
REMARK    2  A    between atoms: C8_8  and  C9_9 
REMARK    3  A    between atoms: C9_9  and  O11_11 
ROOT
HETATM    1  C1  UNL     1     -36.790  13.865  -5.348  1.00 20.00     0.066 C 
HETATM    2  C6  UNL     1     -35.246  13.152  -7.101  1.00 20.00     0.028 C 
HETATM    3  C8  UNL     1     -35.356  13.804  -5.715  1.00 20.00     0.123 C 
HETATM    4  N10 UNL     1     -37.911  13.913  -5.056  1.00 20.00    -0.197 NA
ENDROOT
BRANCH   3   5
HETATM    5  C9  UNL     1     -34.680  15.208  -5.638  1.00 20.00     0.077 C 
HETATM    6  C7  UNL     1     -33.776  15.444  -6.832  1.00 20.00     0.048 C 
BRANCH   5   7
HETATM    7  C4  UNL     1     -33.853  15.371  -4.350  1.00 20.00    -0.012 A 
HETATM    8  C2  UNL     1     -34.548  15.916  -3.125  1.00 20.00     0.013 A 
HETATM    9  C3  UNL     1     -33.563  16.773  -3.867  1.00 20.00     0.013 A 
HETATM   10  C5  UNL     1     -32.793  14.323  -4.151  1.00 20.00     0.018 C 
ENDBRANCH   5   7
BRANCH   5  11
HETATM   11  O11 UNL     1     -35.698  16.215  -5.642  1.00 20.00    -0.388 OA
HETATM   12  H26 UNL     1     -35.476  16.826  -4.925  1.00 20.00     0.210 HD
ENDBRANCH   5  11
ENDBRANCH   3   5
TORSDOF 3
ENDMDL
MODEL 5
REMARK VINA RESULT:      -4.3     11.427     12.144
REMARK  3 active torsions:
REMARK  status: ('A' for Active; 'I' for Inactive)
REMARK    1  A    between atoms: C4_4  and  C9_9 
REMARK    2  A    between atoms: C8_8  and  C9_9 
REMARK    3  A    between atoms: C9_9  and  O11_11 
ROOT
HETATM    1  C1  UNL     1     -33.041  17.752  -1.666  1.00 20.00     0.066 C 
HETATM    2  C6  UNL     1     -35.309  16.930  -1.289  1.00 20.00     0.028 C 
HETATM    3  C8  UNL     1     -34.050  16.785  -2.156  1.00 20.00     0.123 C 
HETATM    4  N10 UNL     1     -32.247  18.507  -1.285  1.00 20.00    -0.197 NA
ENDROOT
BRANCH   3   5
HETATM    5  C9  UNL     1     -34.327  16.962  -3.680  1.00 20.00     0.077 C 
HETATM    6  C7  UNL     1     -35.689  17.586  -3.918  1.00 20.00     0.048 C 
BRANCH   5   7
HETATM    7  C4  UNL     1     -34.261  15.620  -4.431  1.00 20.00    -0.012 A 
HETATM    8  C2  UNL     1     -32.968  14.840  -4.375  1.00 20.00     0.013 A 
HETATM    9  C3  UNL     1     -33.369  15.532  -5.647  1.00 20.00     0.013 A 
HETATM   10  C5  UNL     1     -35.550  14.845  -4.443  1.00 20.00     0.018 C 
ENDBRANCH   5   7
BRANCH   5  11
HETATM   11  O11 UNL     1     -33.334  17.831  -4.236  1.00 20.00    -0.388 OA
HETATM   12  H26 UNL     1     -33.632  18.042  -5.133  1.00 20.00     0.210 HD
ENDBRANCH   5  11
ENDBRANCH   3   5
TORSDOF 3
ENDMDL
MODEL 6
REMARK VINA RESULT:      -4.1     11.188     12.068
REMARK  3 active torsions:
REMARK  status: ('A' for Active; 'I' for Inactive)
REMARK    1  A    between atoms: C4_4  and  C9_9 
REMARK    2  A    between atoms: C8_8  and  C9_9 
REMARK    3  A    between atoms: C9_9  and  O11_11 
ROOT
HETATM    1  C1  UNL     1     -35.299  13.239  -6.793  1.00 20.00     0.066 C 
HETATM    2  C6  UNL     1     -36.723  15.223  -6.815  1.00 20.00     0.028 C 
HETATM    3  C8  UNL     1     -35.424  14.617  -6.264  1.00 20.00     0.123 C 
HETATM    4  N10 UNL     1     -35.196  12.160  -7.205  1.00 20.00    -0.197 NA
ENDROOT
BRANCH   3   5
HETATM    5  C9  UNL     1     -35.340  14.649  -4.707  1.00 20.00     0.077 C 
HETATM    6  C7  UNL     1     -36.584  15.274  -4.107  1.00 20.00     0.048 C 
BRANCH   5   7
HETATM    7  C4  UNL     1     -34.108  15.432  -4.219  1.00 20.00    -0.012 A 
HETATM    8  C2  UNL     1     -33.159  15.980  -5.259  1.00 20.00     0.013 A 
HETATM    9  C3  UNL     1     -32.747  14.807  -4.416  1.00 20.00     0.013 A 
HETATM   10  C5  UNL     1     -34.338  16.248  -2.977  1.00 20.00     0.018 C 
ENDBRANCH   5   7
BRANCH   5  11
HETATM   11  O11 UNL     1     -35.233  13.307  -4.220  1.00 20.00    -0.388 OA
HETATM   12  H26 UNL     1     -35.780  13.265  -3.423  1.00 20.00     0.210 HD
ENDBRANCH   5  11
ENDBRANCH   3   5
TORSDOF 3
ENDMDL
MODEL 7
REMARK VINA RESULT:      -4.1     10.909     12.242
REMARK  3 active torsions:
REMARK  status: ('A' for Active; 'I' for Inactive)
REMARK    1  A    between atoms: C4_4  and  C9_9 
REMARK    2  A    between atoms: C8_8  and  C9_9 
REMARK    3  A    between atoms: C9_9  and  O11_11 
ROOT
HETATM    1  C1  UNL     1     -33.334  14.229  -4.656  1.00 20.00     0.066 C 
HETATM    2  C6  UNL     1     -33.617  15.586  -6.667  1.00 20.00     0.028 C 
HETATM    3  C8  UNL     1     -34.347  14.902  -5.501  1.00 20.00     0.123 C 
HETATM    4  N10 UNL     1     -32.543  13.702  -3.990  1.00 20.00    -0.197 NA
ENDROOT
BRANCH   3   5
HETATM    5  C9  UNL     1     -35.461  13.914  -5.964  1.00 20.00     0.077 C 
HETATM    6  C7  UNL     1     -35.066  13.212  -7.250  1.00 20.00     0.048 C 
BRANCH   5   7
HETATM    7  C4  UNL     1     -36.804  14.633  -6.186  1.00 20.00    -0.012 A 
HETATM    8  C2  UNL     1     -37.238  15.654  -5.160  1.00 20.00     0.013 A 
HETATM    9  C3  UNL     1     -37.937  14.326  -5.235  1.00 20.00     0.013 A 
HETATM   10  C5  UNL     1     -37.143  14.895  -7.627  1.00 20.00     0.018 C 
ENDBRANCH   5   7
BRANCH   5  11
HETATM   11  O11 UNL     1     -35.651  12.920  -4.953  1.00 20.00    -0.388 OA
HETATM   12  H26 UNL     1     -36.608  12.799  -4.869  1.00 20.00     0.210 HD
ENDBRANCH   5  11
ENDBRANCH   3   5
TORSDOF 3
ENDMDL
MODEL 8
REMARK VINA RESULT:      -4.1     10.866     11.941
REMARK  3 active torsions:
REMARK  status: ('A' for Active; 'I' for Inactive)
REMARK    1  A    between atoms: C4_4  and  C9_9 
REMARK    2  A    between atoms: C8_8  and  C9_9 
REMARK    3  A    between atoms: C9_9  and  O11_11 
ROOT
HETATM    1  C1  UNL     1     -34.406  14.637  -4.065  1.00 20.00     0.066 C 
HETATM    2  C6  UNL     1     -33.377  16.602  -5.089  1.00 20.00     0.028 C 
HETATM    3  C8  UNL     1     -33.933  16.013  -3.784  1.00 20.00     0.123 C 
HETATM    4  N10 UNL     1     -34.775  13.559  -4.281  1.00 20.00    -0.197 NA
ENDROOT
BRANCH   3   5
HETATM    5  C9  UNL     1     -35.052  16.887  -3.140  1.00 20.00     0.077 C 
HETATM    6  C7  UNL     1     -35.449  18.028  -4.057  1.00 20.00     0.048 C 
BRANCH   5   7
HETATM    7  C4  UNL     1     -34.609  17.473  -1.787  1.00 20.00    -0.012 A 
HETATM    8  C2  UNL     1     -35.420  17.120  -0.562  1.00 20.00     0.013 A 
HETATM    9  C3  UNL     1     -35.499  18.506  -1.136  1.00 20.00     0.013 A 
HETATM   10  C5  UNL     1     -33.121  17.622  -1.627  1.00 20.00     0.018 C 
ENDBRANCH   5   7
BRANCH   5  11
HETATM   11  O11 UNL     1     -36.207  16.073  -2.914  1.00 20.00    -0.388 OA
HETATM   12  H26 UNL     1     -36.081  15.272  -3.443  1.00 20.00     0.210 HD
ENDBRANCH   5  11
ENDBRANCH   3   5
TORSDOF 3
ENDMDL
MODEL 9
REMARK VINA RESULT:      -4.0     11.455     12.686
REMARK  3 active torsions:
REMARK  status: ('A' for Active; 'I' for Inactive)
REMARK    1  A    between atoms: C4_4  and  C9_9 
REMARK    2  A    between atoms: C8_8  and  C9_9 
REMARK    3  A    between atoms: C9_9  and  O11_11 
ROOT
HETATM    1  C1  UNL     1     -36.879  13.960  -5.418  1.00 20.00     0.066 C 
HETATM    2  C6  UNL     1     -35.287  13.136  -7.076  1.00 20.00     0.028 C 
HETATM    3  C8  UNL     1     -35.459  14.024  -5.835  1.00 20.00     0.123 C 
HETATM    4  N10 UNL     1     -37.990  13.911  -5.086  1.00 20.00    -0.197 NA
ENDROOT
BRANCH   3   5
HETATM    5  C9  UNL     1     -34.989  15.494  -6.059  1.00 20.00     0.077 C 
HETATM    6  C7  UNL     1     -34.312  15.651  -7.407  1.00 20.00     0.048 C 
BRANCH   5   7
HETATM    7  C4  UNL     1     -34.015  15.954  -4.960  1.00 20.00    -0.012 A 
HETATM    8  C2  UNL     1     -33.074  14.928  -4.373  1.00 20.00     0.013 A 
HETATM    9  C3  UNL     1     -34.231  15.433  -3.558  1.00 20.00     0.013 A 
HETATM   10  C5  UNL     1     -33.510  17.362  -5.119  1.00 20.00     0.018 C 
ENDBRANCH   5   7
BRANCH   5  11
HETATM   11  O11 UNL     1     -36.131  16.358  -6.029  1.00 20.00    -0.388 OA
HETATM   12  H26 UNL     1     -35.857  17.182  -6.455  1.00 20.00     0.210 HD
ENDBRANCH   5  11
ENDBRANCH   3   5
TORSDOF 3
ENDMDL
