MODEL 1
REMARK VINA RESULT:      -5.7      0.000      0.000
REMARK  1 active torsions:
REMARK  status: ('A' for Active; 'I' for Inactive)
REMARK    1  A    between atoms: C3_3  and  C8_8 
ROOT
HETATM    1  C1  UNL     1     -33.243   6.240   2.405  1.00 20.00     0.017 A 
HETATM    2  C2  UNL     1     -33.904   5.308   3.257  1.00 20.00     0.032 A 
HETATM    3  C3  UNL     1     -32.923   7.407   3.064  1.00 20.00    -0.012 A 
HETATM    4  C4  UNL     1     -34.064   5.799   4.535  1.00 20.00     0.075 A 
HETATM    5  S10 UNL     1     -33.419   7.377   4.703  1.00 20.00    -0.082 SA
HETATM    6 CL11 UNL     1     -34.800   5.023   5.874  1.00 20.00    -0.076 Cl
ENDROOT
BRANCH   3   7
HETATM    7  C8  UNL     1     -32.223   8.631   2.522  1.00 20.00     0.027 C 
HETATM    8  C5  UNL     1     -33.159   9.829   2.304  1.00 20.00     0.011 C 
HETATM    9  C6  UNL     1     -32.462  10.633   1.214  1.00 20.00     0.021 C 
HETATM   10  C9  UNL     1     -31.930   9.570   0.262  1.00 20.00     0.083 C 
HETATM   11  C7  UNL     1     -31.495   8.420   1.176  1.00 20.00     0.030 C 
HETATM   12 CL12 UNL     1     -33.214   9.031  -0.858  1.00 20.00    -0.125 Cl
ENDBRANCH   3   7
TORSDOF 1
ENDMDL
MODEL 2
REMARK VINA RESULT:      -4.9      1.751      5.354
REMARK  1 active torsions:
REMARK  status: ('A' for Active; 'I' for Inactive)
REMARK    1  A    between atoms: C3_3  and  C8_8 
ROOT
HETATM    1  C1  UNL     1     -31.921   8.041   3.928  1.00 20.00     0.017 A 
HETATM    2  C2  UNL     1     -31.202   8.615   2.841  1.00 20.00     0.032 A 
HETATM    3  C3  UNL     1     -33.195   7.662   3.564  1.00 20.00    -0.012 A 
HETATM    4  C4  UNL     1     -31.953   8.652   1.686  1.00 20.00     0.075 A 
HETATM    5  S10 UNL     1     -33.519   7.998   1.916  1.00 20.00    -0.082 SA
HETATM    6 CL11 UNL     1     -31.489   9.253   0.150  1.00 20.00    -0.076 Cl
ENDROOT
BRANCH   3   7
HETATM    7  C8  UNL     1     -34.265   7.022   4.416  1.00 20.00     0.027 C 
HETATM    8  C5  UNL     1     -33.740   6.463   5.747  1.00 20.00     0.011 C 
HETATM    9  C6  UNL     1     -34.735   5.364   6.091  1.00 20.00     0.021 C 
HETATM   10  C9  UNL     1     -35.021   4.699   4.750  1.00 20.00     0.083 C 
HETATM   11  C7  UNL     1     -35.019   5.854   3.743  1.00 20.00     0.030 C 
HETATM   12 CL12 UNL     1     -33.741   3.516   4.351  1.00 20.00    -0.125 Cl
ENDBRANCH   3   7
TORSDOF 1
ENDMDL
MODEL 3
REMARK VINA RESULT:      -4.7     10.186     10.878
REMARK  1 active torsions:
REMARK  status: ('A' for Active; 'I' for Inactive)
REMARK    1  A    between atoms: C3_3  and  C8_8 
ROOT
HETATM    1  C1  UNL     1     -35.294  16.578  -2.056  1.00 20.00     0.017 A 
HETATM    2  C2  UNL     1     -35.358  17.170  -0.762  1.00 20.00     0.032 A 
HETATM    3  C3  UNL     1     -34.097  16.839  -2.686  1.00 20.00    -0.012 A 
HETATM    4  C4  UNL     1     -34.206  17.859  -0.451  1.00 20.00     0.075 A 
HETATM    5  S10 UNL     1     -33.055  17.793  -1.718  1.00 20.00    -0.082 SA
HETATM    6 CL11 UNL     1     -33.850  18.717   0.989  1.00 20.00    -0.076 Cl
ENDROOT
BRANCH   3   7
HETATM    7  C8  UNL     1     -33.640  16.396  -4.056  1.00 20.00     0.027 C 
HETATM    8  C5  UNL     1     -34.643  16.719  -5.174  1.00 20.00     0.011 C 
HETATM    9  C6  UNL     1     -34.338  15.675  -6.240  1.00 20.00     0.021 C 
HETATM   10  C9  UNL     1     -34.077  14.404  -5.442  1.00 20.00     0.083 C 
HETATM   11  C7  UNL     1     -33.344  14.885  -4.185  1.00 20.00     0.030 C 
HETATM   12 CL12 UNL     1     -35.618  13.611  -5.005  1.00 20.00    -0.125 Cl
ENDBRANCH   3   7
TORSDOF 1
ENDMDL
MODEL 4
REMARK VINA RESULT:      -4.6     10.202     10.880
REMARK  1 active torsions:
REMARK  status: ('A' for Active; 'I' for Inactive)
REMARK    1  A    between atoms: C3_3  and  C8_8 
ROOT
HETATM    1  C1  UNL     1     -33.011  17.736  -1.934  1.00 20.00     0.017 A 
HETATM    2  C2  UNL     1     -33.637  18.009  -0.683  1.00 20.00     0.032 A 
HETATM    3  C3  UNL     1     -33.828  17.010  -2.773  1.00 20.00    -0.012 A 
HETATM    4  C4  UNL     1     -34.908  17.482  -0.615  1.00 20.00     0.075 A 
HETATM    5  S10 UNL     1     -35.342  16.661  -2.053  1.00 20.00    -0.082 SA
HETATM    6 CL11 UNL     1     -36.012  17.571   0.693  1.00 20.00    -0.076 Cl
ENDROOT
BRANCH   3   7
HETATM    7  C8  UNL     1     -33.541  16.523  -4.174  1.00 20.00     0.027 C 
HETATM    8  C5  UNL     1     -34.685  16.789  -5.165  1.00 20.00     0.011 C 
HETATM    9  C6  UNL     1     -34.498  15.711  -6.224  1.00 20.00     0.021 C 
HETATM   10  C9  UNL     1     -34.112  14.475  -5.420  1.00 20.00     0.083 C 
HETATM   11  C7  UNL     1     -33.235  15.013  -4.286  1.00 20.00     0.030 C 
HETATM   12 CL12 UNL     1     -35.570  13.675  -4.762  1.00 20.00    -0.125 Cl
ENDBRANCH   3   7
TORSDOF 1
ENDMDL
MODEL 5
REMARK VINA RESULT:      -4.6      1.578      2.080
REMARK  1 active torsions:
REMARK  status: ('A' for Active; 'I' for Inactive)
REMARK    1  A    between atoms: C3_3  and  C8_8 
ROOT
HETATM    1  C1  UNL     1     -32.904   7.940   4.492  1.00 20.00     0.017 A 
HETATM    2  C2  UNL     1     -33.445   7.220   5.596  1.00 20.00     0.032 A 
HETATM    3  C3  UNL     1     -33.180   7.328   3.289  1.00 20.00    -0.012 A 
HETATM    4  C4  UNL     1     -34.115   6.085   5.194  1.00 20.00     0.075 A 
HETATM    5  S10 UNL     1     -34.089   5.891   3.492  1.00 20.00    -0.082 SA
HETATM    6 CL11 UNL     1     -34.914   4.932   6.179  1.00 20.00    -0.076 Cl
ENDROOT
BRANCH   3   7
HETATM    7  C8  UNL     1     -32.788   7.769   1.898  1.00 20.00     0.027 C 
HETATM    8  C5  UNL     1     -31.339   8.267   1.796  1.00 20.00     0.011 C 
HETATM    9  C6  UNL     1     -31.370   9.215   0.604  1.00 20.00     0.021 C 
HETATM   10  C9  UNL     1     -32.692   9.955   0.763  1.00 20.00     0.083 C 
HETATM   11  C7  UNL     1     -33.659   8.899   1.305  1.00 20.00     0.030 C 
HETATM   12 CL12 UNL     1     -32.520  11.304   1.923  1.00 20.00    -0.125 Cl
ENDBRANCH   3   7
TORSDOF 1
ENDMDL
MODEL 6
REMARK VINA RESULT:      -4.6     10.148     11.046
REMARK  1 active torsions:
REMARK  status: ('A' for Active; 'I' for Inactive)
REMARK    1  A    between atoms: C3_3  and  C8_8 
ROOT
HETATM    1  C1  UNL     1     -33.340  16.982  -2.626  1.00 20.00     0.017 A 
HETATM    2  C2  UNL     1     -33.046  17.748  -1.461  1.00 20.00     0.032 A 
HETATM    3  C3  UNL     1     -34.640  16.527  -2.631  1.00 20.00    -0.012 A 
HETATM    4  C4  UNL     1     -34.133  17.849  -0.620  1.00 20.00     0.075 A 
HETATM    5  S10 UNL     1     -35.501  17.022  -1.235  1.00 20.00    -0.082 SA
HETATM    6 CL11 UNL     1     -34.228  18.670   0.881  1.00 20.00    -0.076 Cl
ENDROOT
BRANCH   3   7
HETATM    7  C8  UNL     1     -35.338  15.689  -3.676  1.00 20.00     0.027 C 
HETATM    8  C5  UNL     1     -34.581  14.403  -4.041  1.00 20.00     0.011 C 
HETATM    9  C6  UNL     1     -35.053  14.101  -5.457  1.00 20.00     0.021 C 
HETATM   10  C9  UNL     1     -35.112  15.471  -6.121  1.00 20.00     0.083 C 
HETATM   11  C7  UNL     1     -35.604  16.411  -5.016  1.00 20.00     0.030 C 
HETATM   12 CL12 UNL     1     -33.490  15.963  -6.689  1.00 20.00    -0.125 Cl
ENDBRANCH   3   7
TORSDOF 1
ENDMDL
MODEL 7
REMARK VINA RESULT:      -4.2     10.126     11.020
REMARK  1 active torsions:
REMARK  status: ('A' for Active; 'I' for Inactive)
REMARK    1  A    between atoms: C3_3  and  C8_8 
ROOT
HETATM    1  C1  UNL     1     -33.282  15.554  -3.873  1.00 20.00     0.017 A 
HETATM    2  C2  UNL     1     -33.834  14.414  -4.526  1.00 20.00     0.032 A 
HETATM    3  C3  UNL     1     -34.256  16.431  -3.451  1.00 20.00    -0.012 A 
HETATM    4  C4  UNL     1     -35.210  14.464  -4.577  1.00 20.00     0.075 A 
HETATM    5  S10 UNL     1     -35.830  15.880  -3.841  1.00 20.00    -0.082 SA
HETATM    6 CL11 UNL     1     -36.277  13.313  -5.265  1.00 20.00    -0.076 Cl
ENDROOT
BRANCH   3   7
HETATM    7  C8  UNL     1     -34.088  17.745  -2.725  1.00 20.00     0.027 C 
HETATM    8  C5  UNL     1     -33.053  17.694  -1.591  1.00 20.00     0.011 C 
HETATM    9  C6  UNL     1     -33.503  18.799  -0.646  1.00 20.00     0.021 C 
HETATM   10  C9  UNL     1     -35.022  18.679  -0.644  1.00 20.00     0.083 C 
HETATM   11  C7  UNL     1     -35.378  18.305  -2.086  1.00 20.00     0.030 C 
HETATM   12 CL12 UNL     1     -35.549  17.398   0.487  1.00 20.00    -0.125 Cl
ENDBRANCH   3   7
TORSDOF 1
ENDMDL
MODEL 8
REMARK VINA RESULT:      -4.2     10.474     11.564
REMARK  1 active torsions:
REMARK  status: ('A' for Active; 'I' for Inactive)
REMARK    1  A    between atoms: C3_3  and  C8_8 
ROOT
HETATM    1  C1  UNL     1     -34.582  15.443  -3.423  1.00 20.00     0.017 A 
HETATM    2  C2  UNL     1     -34.629  14.543  -4.526  1.00 20.00     0.032 A 
HETATM    3  C3  UNL     1     -34.068  16.671  -3.779  1.00 20.00    -0.012 A 
HETATM    4  C4  UNL     1     -34.150  15.117  -5.683  1.00 20.00     0.075 A 
HETATM    5  S10 UNL     1     -33.645  16.735  -5.437  1.00 20.00    -0.082 SA
HETATM    6 CL11 UNL     1     -34.023  14.403  -7.236  1.00 20.00    -0.076 Cl
ENDROOT
BRANCH   3   7
HETATM    7  C8  UNL     1     -33.854  17.888  -2.910  1.00 20.00     0.027 C 
HETATM    8  C5  UNL     1     -32.946  17.628  -1.699  1.00 20.00     0.011 C 
HETATM    9  C6  UNL     1     -33.386  18.679  -0.689  1.00 20.00     0.021 C 
HETATM   10  C9  UNL     1     -34.902  18.712  -0.837  1.00 20.00     0.083 C 
HETATM   11  C7  UNL     1     -35.146  18.511  -2.336  1.00 20.00     0.030 C 
HETATM   12 CL12 UNL     1     -35.653  17.391   0.105  1.00 20.00    -0.125 Cl
ENDBRANCH   3   7
TORSDOF 1
ENDMDL
MODEL 9
REMARK VINA RESULT:      -4.0     10.694     11.272
REMARK  1 active torsions:
REMARK  status: ('A' for Active; 'I' for Inactive)
REMARK    1  A    between atoms: C3_3  and  C8_8 
ROOT
HETATM    1  C1  UNL     1     -34.157  18.433   2.359  1.00 20.00     0.017 A 
HETATM    2  C2  UNL     1     -32.975  18.523   3.149  1.00 20.00     0.032 A 
HETATM    3  C3  UNL     1     -33.897  18.614   1.018  1.00 20.00    -0.012 A 
HETATM    4  C4  UNL     1     -31.857  18.768   2.382  1.00 20.00     0.075 A 
HETATM    5  S10 UNL     1     -32.234  18.890   0.716  1.00 20.00    -0.082 SA
HETATM    6 CL11 UNL     1     -30.238  18.950   2.913  1.00 20.00    -0.076 Cl
ENDROOT
BRANCH   3   7
HETATM    7  C8  UNL     1     -34.869  18.594  -0.138  1.00 20.00     0.027 C 
HETATM    8  C5  UNL     1     -35.556  17.235  -0.342  1.00 20.00     0.011 C 
HETATM    9  C6  UNL     1     -35.919  17.236  -1.821  1.00 20.00     0.021 C 
HETATM   10  C9  UNL     1     -34.710  17.876  -2.491  1.00 20.00     0.083 C 
HETATM   11  C7  UNL     1     -34.256  18.960  -1.508  1.00 20.00     0.030 C 
HETATM   12 CL12 UNL     1     -33.415  16.668  -2.736  1.00 20.00    -0.125 Cl
ENDBRANCH   3   7
TORSDOF 1
ENDMDL
