MODEL 1
REMARK VINA RESULT:      -5.3      0.000      0.000
REMARK  3 active torsions:
REMARK  status: ('A' for Active; 'I' for Inactive)
REMARK    1  A    between atoms: C3_3  and  C6_6 
REMARK    2  A    between atoms: C6_6  and  C7_7 
REMARK    3  A    between atoms: C6_6  and  O8_8 
ROOT
HETATM    1  C5  UNL     1     -34.387   4.244   4.756  1.00 20.00     0.056 C 
HETATM    2  C6  UNL     1     -34.428   5.686   4.290  1.00 20.00     0.158 C 
ENDROOT
BRANCH   2   3
HETATM    3  C3  UNL     1     -33.454   5.929   3.170  1.00 20.00    -0.004 A 
HETATM    4  C1  UNL     1     -32.573   7.155   3.250  1.00 20.00     0.013 A 
HETATM    5  C2  UNL     1     -33.702   7.109   2.259  1.00 20.00     0.013 A 
HETATM    6  C4  UNL     1     -32.872   4.682   2.565  1.00 20.00     0.018 C 
ENDBRANCH   2   3
BRANCH   2   7
HETATM    7  C7  UNL     1     -34.179   6.628   5.475  1.00 20.00     0.418 C 
HETATM    8  F9  UNL     1     -34.942   6.278   6.534  1.00 20.00    -0.168 F 
HETATM    9  F10 UNL     1     -34.464   7.916   5.178  1.00 20.00    -0.168 F 
HETATM   10  F11 UNL     1     -32.887   6.577   5.870  1.00 20.00    -0.168 F 
ENDBRANCH   2   7
BRANCH   2  11
HETATM   11  O8  UNL     1     -35.761   5.940   3.819  1.00 20.00    -0.380 OA
HETATM   12  H22 UNL     1     -36.196   6.448   4.517  1.00 20.00     0.211 HD
ENDBRANCH   2  11
TORSDOF 3
ENDMDL
MODEL 2
REMARK VINA RESULT:      -5.1      1.630      2.423
REMARK  3 active torsions:
REMARK  status: ('A' for Active; 'I' for Inactive)
REMARK    1  A    between atoms: C3_3  and  C6_6 
REMARK    2  A    between atoms: C6_6  and  C7_7 
REMARK    3  A    between atoms: C6_6  and  O8_8 
ROOT
HETATM    1  C5  UNL     1     -32.716   4.816   2.794  1.00 20.00     0.056 C 
HETATM    2  C6  UNL     1     -33.772   5.824   3.205  1.00 20.00     0.158 C 
ENDROOT
BRANCH   2   3
HETATM    3  C3  UNL     1     -33.152   7.131   3.618  1.00 20.00    -0.004 A 
HETATM    4  C1  UNL     1     -33.020   8.214   2.574  1.00 20.00     0.013 A 
HETATM    5  C2  UNL     1     -31.797   7.483   3.050  1.00 20.00     0.013 A 
HETATM    6  C4  UNL     1     -33.453   7.547   5.032  1.00 20.00     0.018 C 
ENDBRANCH   2   3
BRANCH   2   7
HETATM    7  C7  UNL     1     -34.653   5.236   4.315  1.00 20.00     0.418 C 
HETATM    8  F9  UNL     1     -35.926   5.675   4.197  1.00 20.00    -0.168 F 
HETATM    9  F10 UNL     1     -34.220   5.575   5.550  1.00 20.00    -0.168 F 
HETATM   10  F11 UNL     1     -34.680   3.886   4.248  1.00 20.00    -0.168 F 
ENDBRANCH   2   7
BRANCH   2  11
HETATM   11  O8  UNL     1     -34.616   6.042   2.063  1.00 20.00    -0.380 OA
HETATM   12  H22 UNL     1     -34.065   5.862   1.290  1.00 20.00     0.211 HD
ENDBRANCH   2  11
TORSDOF 3
ENDMDL
MODEL 3
REMARK VINA RESULT:      -4.9     11.924     13.086
REMARK  3 active torsions:
REMARK  status: ('A' for Active; 'I' for Inactive)
REMARK    1  A    between atoms: C3_3  and  C6_6 
REMARK    2  A    between atoms: C6_6  and  C7_7 
REMARK    3  A    between atoms: C6_6  and  O8_8 
ROOT
HETATM    1  C5  UNL     1     -34.435  14.283  -4.134  1.00 20.00     0.056 C 
HETATM    2  C6  UNL     1     -35.570  14.033  -5.107  1.00 20.00     0.158 C 
ENDROOT
BRANCH   2   3
HETATM    3  C3  UNL     1     -35.131  14.247  -6.530  1.00 20.00    -0.004 A 
HETATM    4  C1  UNL     1     -36.152  14.043  -7.625  1.00 20.00     0.013 A 
HETATM    5  C2  UNL     1     -35.049  13.041  -7.435  1.00 20.00     0.013 A 
HETATM    6  C4  UNL     1     -34.109  15.335  -6.711  1.00 20.00     0.018 C 
ENDBRANCH   2   3
BRANCH   2   7
HETATM    7  C7  UNL     1     -36.775  14.911  -4.745  1.00 20.00     0.418 C 
HETATM    8  F9  UNL     1     -37.923  14.201  -4.818  1.00 20.00    -0.168 F 
HETATM    9  F10 UNL     1     -36.902  15.975  -5.569  1.00 20.00    -0.168 F 
HETATM   10  F11 UNL     1     -36.668  15.382  -3.482  1.00 20.00    -0.168 F 
ENDBRANCH   2   7
BRANCH   2  11
HETATM   11  O8  UNL     1     -35.976  12.665  -4.940  1.00 20.00    -0.380 OA
HETATM   12  H22 UNL     1     -35.358  12.139  -5.464  1.00 20.00     0.211 HD
ENDBRANCH   2  11
TORSDOF 3
ENDMDL
MODEL 4
REMARK VINA RESULT:      -4.8     11.818     13.029
REMARK  3 active torsions:
REMARK  status: ('A' for Active; 'I' for Inactive)
REMARK    1  A    between atoms: C3_3  and  C6_6 
REMARK    2  A    between atoms: C6_6  and  C7_7 
REMARK    3  A    between atoms: C6_6  and  O8_8 
ROOT
HETATM    1  C5  UNL     1     -33.316  15.725  -6.322  1.00 20.00     0.056 C 
HETATM    2  C6  UNL     1     -34.210  14.668  -5.704  1.00 20.00     0.158 C 
ENDROOT
BRANCH   2   3
HETATM    3  C3  UNL     1     -35.664  15.030  -5.843  1.00 20.00    -0.004 A 
HETATM    4  C1  UNL     1     -36.690  14.055  -5.314  1.00 20.00     0.013 A 
HETATM    5  C2  UNL     1     -36.508  14.217  -6.796  1.00 20.00     0.013 A 
HETATM    6  C4  UNL     1     -35.958  16.499  -5.719  1.00 20.00     0.018 C 
ENDBRANCH   2   3
BRANCH   2   7
HETATM    7  C7  UNL     1     -33.818  14.440  -4.239  1.00 20.00     0.418 C 
HETATM    8  F9  UNL     1     -34.417  13.332  -3.750  1.00 20.00    -0.168 F 
HETATM    9  F10 UNL     1     -34.170  15.476  -3.445  1.00 20.00    -0.168 F 
HETATM   10  F11 UNL     1     -32.482  14.268  -4.117  1.00 20.00    -0.168 F 
ENDBRANCH   2   7
BRANCH   2  11
HETATM   11  O8  UNL     1     -33.960  13.440  -6.407  1.00 20.00    -0.380 OA
HETATM   12  H22 UNL     1     -34.676  12.842  -6.155  1.00 20.00     0.211 HD
ENDBRANCH   2  11
TORSDOF 3
ENDMDL
MODEL 5
REMARK VINA RESULT:      -4.7     12.364     13.310
REMARK  3 active torsions:
REMARK  status: ('A' for Active; 'I' for Inactive)
REMARK    1  A    between atoms: C3_3  and  C6_6 
REMARK    2  A    between atoms: C6_6  and  C7_7 
REMARK    3  A    between atoms: C6_6  and  O8_8 
ROOT
HETATM    1  C5  UNL     1     -37.389  14.282  -5.699  1.00 20.00     0.056 C 
HETATM    2  C6  UNL     1     -35.938  13.861  -5.567  1.00 20.00     0.158 C 
ENDROOT
BRANCH   2   3
HETATM    3  C3  UNL     1     -35.158  14.837  -4.728  1.00 20.00    -0.004 A 
HETATM    4  C1  UNL     1     -35.931  15.796  -3.853  1.00 20.00     0.013 A 
HETATM    5  C2  UNL     1     -35.240  16.303  -5.087  1.00 20.00     0.013 A 
HETATM    6  C4  UNL     1     -33.848  14.310  -4.211  1.00 20.00     0.018 C 
ENDBRANCH   2   3
BRANCH   2   7
HETATM    7  C7  UNL     1     -35.315  13.681  -6.957  1.00 20.00     0.418 C 
HETATM    8  F9  UNL     1     -35.157  12.369  -7.244  1.00 20.00    -0.168 F 
HETATM    9  F10 UNL     1     -34.101  14.267  -7.056  1.00 20.00    -0.168 F 
HETATM   10  F11 UNL     1     -36.106  14.214  -7.914  1.00 20.00    -0.168 F 
ENDBRANCH   2   7
BRANCH   2  11
HETATM   11  O8  UNL     1     -35.928  12.575  -4.926  1.00 20.00    -0.380 OA
HETATM   12  H22 UNL     1     -36.793  12.482  -4.507  1.00 20.00     0.211 HD
ENDBRANCH   2  11
TORSDOF 3
ENDMDL
MODEL 6
REMARK VINA RESULT:      -4.7     12.324     13.504
REMARK  3 active torsions:
REMARK  status: ('A' for Active; 'I' for Inactive)
REMARK    1  A    between atoms: C3_3  and  C6_6 
REMARK    2  A    between atoms: C6_6  and  C7_7 
REMARK    3  A    between atoms: C6_6  and  O8_8 
ROOT
HETATM    1  C5  UNL     1     -33.789  17.167  -5.366  1.00 20.00     0.056 C 
HETATM    2  C6  UNL     1     -33.628  15.668  -5.528  1.00 20.00     0.158 C 
ENDROOT
BRANCH   2   3
HETATM    3  C3  UNL     1     -34.524  15.134  -6.612  1.00 20.00    -0.004 A 
HETATM    4  C1  UNL     1     -34.430  13.664  -6.949  1.00 20.00     0.013 A 
HETATM    5  C2  UNL     1     -33.882  14.686  -7.904  1.00 20.00     0.013 A 
HETATM    6  C4  UNL     1     -35.875  15.790  -6.687  1.00 20.00     0.018 C 
ENDBRANCH   2   3
BRANCH   2   7
HETATM    7  C7  UNL     1     -33.877  14.965  -4.187  1.00 20.00     0.418 C 
HETATM    8  F9  UNL     1     -33.075  13.886  -4.056  1.00 20.00    -0.168 F 
HETATM    9  F10 UNL     1     -35.154  14.540  -4.058  1.00 20.00    -0.168 F 
HETATM   10  F11 UNL     1     -33.617  15.794  -3.151  1.00 20.00    -0.168 F 
ENDBRANCH   2   7
BRANCH   2  11
HETATM   11  O8  UNL     1     -32.258  15.426  -5.886  1.00 20.00    -0.380 OA
HETATM   12  H22 UNL     1     -32.214  14.498  -6.152  1.00 20.00     0.211 HD
ENDBRANCH   2  11
TORSDOF 3
ENDMDL
MODEL 7
REMARK VINA RESULT:      -4.7     12.455     13.367
REMARK  3 active torsions:
REMARK  status: ('A' for Active; 'I' for Inactive)
REMARK    1  A    between atoms: C3_3  and  C6_6 
REMARK    2  A    between atoms: C6_6  and  C7_7 
REMARK    3  A    between atoms: C6_6  and  O8_8 
ROOT
HETATM    1  C5  UNL     1     -37.111  14.418  -5.595  1.00 20.00     0.056 C 
HETATM    2  C6  UNL     1     -35.654  13.997  -5.594  1.00 20.00     0.158 C 
ENDROOT
BRANCH   2   3
HETATM    3  C3  UNL     1     -34.762  15.109  -5.113  1.00 20.00    -0.004 A 
HETATM    4  C1  UNL     1     -33.381  14.745  -4.619  1.00 20.00     0.013 A 
HETATM    5  C2  UNL     1     -34.437  15.169  -3.638  1.00 20.00     0.013 A 
HETATM    6  C4  UNL     1     -34.928  16.408  -5.851  1.00 20.00     0.018 C 
ENDBRANCH   2   3
BRANCH   2   7
HETATM    7  C7  UNL     1     -35.249  13.506  -6.989  1.00 20.00     0.418 C 
HETATM    8  F9  UNL     1     -35.179  12.156  -7.020  1.00 20.00    -0.168 F 
HETATM    9  F10 UNL     1     -34.043  13.983  -7.372  1.00 20.00    -0.168 F 
HETATM   10  F11 UNL     1     -36.154  13.887  -7.918  1.00 20.00    -0.168 F 
ENDBRANCH   2   7
BRANCH   2  11
HETATM   11  O8  UNL     1     -35.539  12.879  -4.699  1.00 20.00    -0.380 OA
HETATM   12  H22 UNL     1     -34.892  13.140  -4.031  1.00 20.00     0.211 HD
ENDBRANCH   2  11
TORSDOF 3
ENDMDL
MODEL 8
REMARK VINA RESULT:      -4.7      2.143      3.459
REMARK  3 active torsions:
REMARK  status: ('A' for Active; 'I' for Inactive)
REMARK    1  A    between atoms: C3_3  and  C6_6 
REMARK    2  A    between atoms: C6_6  and  C7_7 
REMARK    3  A    between atoms: C6_6  and  O8_8 
ROOT
HETATM    1  C5  UNL     1     -34.259   6.131   1.806  1.00 20.00     0.056 C 
HETATM    2  C6  UNL     1     -33.341   6.270   3.004  1.00 20.00     0.158 C 
ENDROOT
BRANCH   2   3
HETATM    3  C3  UNL     1     -34.099   6.128   4.296  1.00 20.00    -0.004 A 
HETATM    4  C1  UNL     1     -34.467   4.735   4.752  1.00 20.00     0.013 A 
HETATM    5  C2  UNL     1     -35.532   5.655   4.227  1.00 20.00     0.013 A 
HETATM    6  C4  UNL     1     -33.741   7.143   5.346  1.00 20.00     0.018 C 
ENDBRANCH   2   3
BRANCH   2   7
HETATM    7  C7  UNL     1     -32.583   7.603   2.933  1.00 20.00     0.418 C 
HETATM    8  F9  UNL     1     -31.816   7.658   1.822  1.00 20.00    -0.168 F 
HETATM    9  F10 UNL     1     -31.770   7.789   3.997  1.00 20.00    -0.168 F 
HETATM   10  F11 UNL     1     -33.442   8.645   2.888  1.00 20.00    -0.168 F 
ENDBRANCH   2   7
BRANCH   2  11
HETATM   11  O8  UNL     1     -32.364   5.221   2.913  1.00 20.00    -0.380 OA
HETATM   12  H22 UNL     1     -31.940   5.329   2.051  1.00 20.00     0.211 HD
ENDBRANCH   2  11
TORSDOF 3
ENDMDL
MODEL 9
REMARK VINA RESULT:      -4.7     11.965     13.143
REMARK  3 active torsions:
REMARK  status: ('A' for Active; 'I' for Inactive)
REMARK    1  A    between atoms: C3_3  and  C6_6 
REMARK    2  A    between atoms: C6_6  and  C7_7 
REMARK    3  A    between atoms: C6_6  and  O8_8 
ROOT
HETATM    1  C5  UNL     1     -34.691  13.579  -6.808  1.00 20.00     0.056 C 
HETATM    2  C6  UNL     1     -35.572  13.882  -5.612  1.00 20.00     0.158 C 
ENDROOT
BRANCH   2   3
HETATM    3  C3  UNL     1     -36.791  14.667  -6.014  1.00 20.00    -0.004 A 
HETATM    4  C1  UNL     1     -37.019  14.918  -7.486  1.00 20.00     0.013 A 
HETATM    5  C2  UNL     1     -36.586  16.047  -6.594  1.00 20.00     0.013 A 
HETATM    6  C4  UNL     1     -37.995  14.441  -5.142  1.00 20.00     0.018 C 
ENDBRANCH   2   3
BRANCH   2   7
HETATM    7  C7  UNL     1     -34.760  14.606  -4.531  1.00 20.00     0.418 C 
HETATM    8  F9  UNL     1     -33.893  15.481  -5.089  1.00 20.00    -0.168 F 
HETATM    9  F10 UNL     1     -34.040  13.752  -3.769  1.00 20.00    -0.168 F 
HETATM   10  F11 UNL     1     -35.570  15.307  -3.706  1.00 20.00    -0.168 F 
ENDBRANCH   2   7
BRANCH   2  11
HETATM   11  O8  UNL     1     -35.984  12.621  -5.061  1.00 20.00    -0.380 OA
HETATM   12  H22 UNL     1     -36.683  12.825  -4.426  1.00 20.00     0.211 HD
ENDBRANCH   2  11
TORSDOF 3
ENDMDL
