MODEL 1
REMARK VINA RESULT:      -5.0      0.000      0.000
REMARK  2 active torsions:
REMARK  status: ('A' for Active; 'I' for Inactive)
REMARK    1  A    between atoms: C1_1  and  C4_4 
REMARK    2  A    between atoms: C1_1  and  C6_6 
ROOT
HETATM    1  C2  UNL     1     -34.488   4.858   4.751  1.00 20.00     0.018 A 
HETATM    2  C3  UNL     1     -35.384   5.829   4.044  1.00 20.00     0.018 A 
HETATM    3  C4  UNL     1     -33.984   6.253   4.439  1.00 20.00     0.018 A 
HETATM    4  C5  UNL     1     -33.860   7.211   5.596  1.00 20.00     0.023 C 
ENDROOT
BRANCH   3   5
HETATM    5  C1  UNL     1     -32.989   6.378   3.347  1.00 20.00     0.148 C 
HETATM    6  O7  UNL     1     -32.819   5.463   2.545  1.00 20.00    -0.296 OA
BRANCH   5   7
HETATM    7  C6  UNL     1     -32.223   7.682   3.305  1.00 20.00     0.193 C 
HETATM    8 CL8  UNL     1     -32.383   8.450   1.720  1.00 20.00    -0.123 Cl
ENDBRANCH   5   7
ENDBRANCH   3   5
TORSDOF 2
ENDMDL
MODEL 2
REMARK VINA RESULT:      -5.0      1.597      2.106
REMARK  2 active torsions:
REMARK  status: ('A' for Active; 'I' for Inactive)
REMARK    1  A    between atoms: C1_1  and  C4_4 
REMARK    2  A    between atoms: C1_1  and  C6_6 
ROOT
HETATM    1  C2  UNL     1     -35.476   5.743   3.865  1.00 20.00     0.018 A 
HETATM    2  C3  UNL     1     -34.677   5.108   4.961  1.00 20.00     0.018 A 
HETATM    3  C4  UNL     1     -33.963   5.804   3.821  1.00 20.00     0.018 A 
HETATM    4  C5  UNL     1     -33.271   4.927   2.808  1.00 20.00     0.023 C 
ENDROOT
BRANCH   3   5
HETATM    5  C1  UNL     1     -33.335   7.113   4.122  1.00 20.00     0.148 C 
HETATM    6  O7  UNL     1     -33.226   7.504   5.282  1.00 20.00    -0.296 OA
BRANCH   5   7
HETATM    7  C6  UNL     1     -32.857   7.903   2.923  1.00 20.00     0.193 C 
HETATM    8 CL8  UNL     1     -31.172   8.398   3.132  1.00 20.00    -0.123 Cl
ENDBRANCH   5   7
ENDBRANCH   3   5
TORSDOF 2
ENDMDL
MODEL 3
REMARK VINA RESULT:      -4.8      1.068      1.645
REMARK  2 active torsions:
REMARK  status: ('A' for Active; 'I' for Inactive)
REMARK    1  A    between atoms: C1_1  and  C4_4 
REMARK    2  A    between atoms: C1_1  and  C6_6 
ROOT
HETATM    1  C2  UNL     1     -34.223   6.094   5.494  1.00 20.00     0.018 A 
HETATM    2  C3  UNL     1     -34.477   4.683   5.060  1.00 20.00     0.018 A 
HETATM    3  C4  UNL     1     -34.510   5.799   4.036  1.00 20.00     0.018 A 
HETATM    4  C5  UNL     1     -35.863   6.205   3.509  1.00 20.00     0.023 C 
ENDROOT
BRANCH   3   5
HETATM    5  C1  UNL     1     -33.366   5.880   3.096  1.00 20.00     0.148 C 
HETATM    6  O7  UNL     1     -32.760   4.866   2.757  1.00 20.00    -0.296 OA
BRANCH   5   7
HETATM    7  C6  UNL     1     -33.017   7.268   2.607  1.00 20.00     0.193 C 
HETATM    8 CL8  UNL     1     -31.718   7.967   3.584  1.00 20.00    -0.123 Cl
ENDBRANCH   5   7
ENDBRANCH   3   5
TORSDOF 2
ENDMDL
MODEL 4
REMARK VINA RESULT:      -4.7      1.843      2.088
REMARK  2 active torsions:
REMARK  status: ('A' for Active; 'I' for Inactive)
REMARK    1  A    between atoms: C1_1  and  C4_4 
REMARK    2  A    between atoms: C1_1  and  C6_6 
ROOT
HETATM    1  C2  UNL     1     -32.987   5.491   2.971  1.00 20.00     0.018 A 
HETATM    2  C3  UNL     1     -34.134   6.281   2.421  1.00 20.00     0.018 A 
HETATM    3  C4  UNL     1     -33.190   6.925   3.415  1.00 20.00     0.018 A 
HETATM    4  C5  UNL     1     -33.711   7.143   4.813  1.00 20.00     0.023 C 
ENDROOT
BRANCH   3   5
HETATM    5  C1  UNL     1     -32.242   7.933   2.883  1.00 20.00     0.148 C 
HETATM    6  O7  UNL     1     -31.309   8.341   3.571  1.00 20.00    -0.296 OA
BRANCH   5   7
HETATM    7  C6  UNL     1     -32.510   8.405   1.471  1.00 20.00     0.193 C 
HETATM    8 CL8  UNL     1     -32.552  10.173   1.400  1.00 20.00    -0.123 Cl
ENDBRANCH   5   7
ENDBRANCH   3   5
TORSDOF 2
ENDMDL
MODEL 5
REMARK VINA RESULT:      -4.7      2.212      3.290
REMARK  2 active torsions:
REMARK  status: ('A' for Active; 'I' for Inactive)
REMARK    1  A    between atoms: C1_1  and  C4_4 
REMARK    2  A    between atoms: C1_1  and  C6_6 
ROOT
HETATM    1  C2  UNL     1     -33.057   8.269   2.558  1.00 20.00     0.018 A 
HETATM    2  C3  UNL     1     -31.762   7.613   2.929  1.00 20.00     0.018 A 
HETATM    3  C4  UNL     1     -33.031   7.236   3.666  1.00 20.00     0.018 A 
HETATM    4  C5  UNL     1     -33.179   7.743   5.079  1.00 20.00     0.023 C 
ENDROOT
BRANCH   3   5
HETATM    5  C1  UNL     1     -33.615   5.908   3.360  1.00 20.00     0.148 C 
HETATM    6  O7  UNL     1     -33.042   5.131   2.600  1.00 20.00    -0.296 OA
BRANCH   5   7
HETATM    7  C6  UNL     1     -34.933   5.599   4.036  1.00 20.00     0.193 C 
HETATM    8 CL8  UNL     1     -34.675   4.637   5.498  1.00 20.00    -0.123 Cl
ENDBRANCH   5   7
ENDBRANCH   3   5
TORSDOF 2
ENDMDL
MODEL 6
REMARK VINA RESULT:      -4.5      2.567      3.721
REMARK  2 active torsions:
REMARK  status: ('A' for Active; 'I' for Inactive)
REMARK    1  A    between atoms: C1_1  and  C4_4 
REMARK    2  A    between atoms: C1_1  and  C6_6 
ROOT
HETATM    1  C2  UNL     1     -31.802   7.757   3.199  1.00 20.00     0.018 A 
HETATM    2  C3  UNL     1     -33.007   8.106   2.380  1.00 20.00     0.018 A 
HETATM    3  C4  UNL     1     -33.010   6.843   3.217  1.00 20.00     0.018 A 
HETATM    4  C5  UNL     1     -32.889   5.533   2.480  1.00 20.00     0.023 C 
ENDROOT
BRANCH   3   5
HETATM    5  C1  UNL     1     -33.842   6.854   4.444  1.00 20.00     0.148 C 
HETATM    6  O7  UNL     1     -33.602   7.639   5.358  1.00 20.00    -0.296 OA
BRANCH   5   7
HETATM    7  C6  UNL     1     -34.973   5.849   4.478  1.00 20.00     0.193 C 
HETATM    8 CL8  UNL     1     -34.583   4.506   5.561  1.00 20.00    -0.123 Cl
ENDBRANCH   5   7
ENDBRANCH   3   5
TORSDOF 2
ENDMDL
MODEL 7
REMARK VINA RESULT:      -4.4      2.314      3.345
REMARK  2 active torsions:
REMARK  status: ('A' for Active; 'I' for Inactive)
REMARK    1  A    between atoms: C1_1  and  C4_4 
REMARK    2  A    between atoms: C1_1  and  C6_6 
ROOT
HETATM    1  C2  UNL     1     -32.534   7.177   3.324  1.00 20.00     0.018 A 
HETATM    2  C3  UNL     1     -33.450   7.197   2.139  1.00 20.00     0.018 A 
HETATM    3  C4  UNL     1     -33.497   6.029   3.103  1.00 20.00     0.018 A 
HETATM    4  C5  UNL     1     -32.909   4.724   2.626  1.00 20.00     0.023 C 
ENDROOT
BRANCH   3   5
HETATM    5  C1  UNL     1     -34.670   5.952   4.006  1.00 20.00     0.148 C 
HETATM    6  O7  UNL     1     -35.811   6.052   3.562  1.00 20.00    -0.296 OA
BRANCH   5   7
HETATM    7  C6  UNL     1     -34.356   5.747   5.472  1.00 20.00     0.193 C 
HETATM    8 CL8  UNL     1     -33.947   7.286   6.244  1.00 20.00    -0.123 Cl
ENDBRANCH   5   7
ENDBRANCH   3   5
TORSDOF 2
ENDMDL
MODEL 8
REMARK VINA RESULT:      -4.2      1.836      1.953
REMARK  2 active torsions:
REMARK  status: ('A' for Active; 'I' for Inactive)
REMARK    1  A    between atoms: C1_1  and  C4_4 
REMARK    2  A    between atoms: C1_1  and  C6_6 
ROOT
HETATM    1  C2  UNL     1     -33.931   4.962   5.454  1.00 20.00     0.018 A 
HETATM    2  C3  UNL     1     -35.191   5.556   4.903  1.00 20.00     0.018 A 
HETATM    3  C4  UNL     1     -33.947   6.412   5.015  1.00 20.00     0.018 A 
HETATM    4  C5  UNL     1     -33.930   7.457   6.102  1.00 20.00     0.023 C 
ENDROOT
BRANCH   3   5
HETATM    5  C1  UNL     1     -33.241   6.739   3.753  1.00 20.00     0.148 C 
HETATM    6  O7  UNL     1     -32.321   7.554   3.742  1.00 20.00    -0.296 OA
BRANCH   5   7
HETATM    7  C6  UNL     1     -33.733   6.014   2.520  1.00 20.00     0.193 C 
HETATM    8 CL8  UNL     1     -32.838   4.507   2.282  1.00 20.00    -0.123 Cl
ENDBRANCH   5   7
ENDBRANCH   3   5
TORSDOF 2
ENDMDL
MODEL 9
REMARK VINA RESULT:      -4.1      2.625      3.428
REMARK  2 active torsions:
REMARK  status: ('A' for Active; 'I' for Inactive)
REMARK    1  A    between atoms: C1_1  and  C4_4 
REMARK    2  A    between atoms: C1_1  and  C6_6 
ROOT
HETATM    1  C2  UNL     1     -34.081   6.160   2.191  1.00 20.00     0.018 A 
HETATM    2  C3  UNL     1     -32.919   5.368   2.706  1.00 20.00     0.018 A 
HETATM    3  C4  UNL     1     -33.183   6.754   3.257  1.00 20.00     0.018 A 
HETATM    4  C5  UNL     1     -32.243   7.852   2.827  1.00 20.00     0.023 C 
ENDROOT
BRANCH   3   5
HETATM    5  C1  UNL     1     -33.735   6.836   4.631  1.00 20.00     0.148 C 
HETATM    6  O7  UNL     1     -33.224   7.576   5.469  1.00 20.00    -0.296 OA
BRANCH   5   7
HETATM    7  C6  UNL     1     -34.938   5.961   4.908  1.00 20.00     0.193 C 
HETATM    8 CL8  UNL     1     -34.448   4.459   5.704  1.00 20.00    -0.123 Cl
ENDBRANCH   5   7
ENDBRANCH   3   5
TORSDOF 2
ENDMDL
