MODEL 1
REMARK VINA RESULT:      -4.6      0.000      0.000
REMARK  3 active torsions:
REMARK  status: ('A' for Active; 'I' for Inactive)
REMARK    1  A    between atoms: C1_1  and  C10_10 
REMARK    2  A    between atoms: C5_5  and  C10_10 
REMARK    3  A    between atoms: C10_10  and  O11_11 
ROOT
HETATM    1  C9  UNL     1     -31.620   8.009   3.985  1.00 20.00     0.051 C 
HETATM    2  C10 UNL     1     -32.663   7.298   3.154  1.00 20.00     0.079 C 
ENDROOT
BRANCH   2   3
HETATM    3  C1  UNL     1     -33.255   8.181   2.069  1.00 20.00     0.013 C 
HETATM    4  C2  UNL     1     -32.643   8.801   1.039  1.00 20.00    -0.088 C 
HETATM    5  C6  UNL     1     -33.442   9.638   0.074  1.00 20.00     0.042 C 
HETATM    6  C7  UNL     1     -31.170   8.767   0.750  1.00 20.00     0.042 C 
ENDBRANCH   2   3
BRANCH   2   7
HETATM    7  C5  UNL     1     -33.793   6.785   4.061  1.00 20.00    -0.010 A 
HETATM    8  C3  UNL     1     -34.180   5.329   3.956  1.00 20.00     0.013 A 
HETATM    9  C4  UNL     1     -35.098   6.386   3.411  1.00 20.00     0.013 A 
HETATM   10  C8  UNL     1     -33.850   7.435   5.417  1.00 20.00     0.018 C 
ENDBRANCH   2   7
BRANCH   2  11
HETATM   11  O11 UNL     1     -32.067   6.139   2.560  1.00 20.00    -0.385 OA
HETATM   12  H29 UNL     1     -31.111   6.285   2.582  1.00 20.00     0.211 HD
ENDBRANCH   2  11
TORSDOF 3
ENDMDL
MODEL 2
REMARK VINA RESULT:      -4.6     10.088     11.546
REMARK  3 active torsions:
REMARK  status: ('A' for Active; 'I' for Inactive)
REMARK    1  A    between atoms: C1_1  and  C10_10 
REMARK    2  A    between atoms: C5_5  and  C10_10 
REMARK    3  A    between atoms: C10_10  and  O11_11 
ROOT
HETATM    1  C9  UNL     1     -37.605  14.199  -5.312  1.00 20.00     0.051 C 
HETATM    2  C10 UNL     1     -36.094  14.183  -5.291  1.00 20.00     0.079 C 
ENDROOT
BRANCH   2   3
HETATM    3  C1  UNL     1     -35.508  15.175  -4.300  1.00 20.00     0.013 C 
HETATM    4  C2  UNL     1     -34.241  15.295  -3.854  1.00 20.00    -0.088 C 
HETATM    5  C6  UNL     1     -33.885  16.368  -2.857  1.00 20.00     0.042 C 
HETATM    6  C7  UNL     1     -33.091  14.411  -4.243  1.00 20.00     0.042 C 
ENDBRANCH   2   3
BRANCH   2   7
HETATM    7  C5  UNL     1     -35.547  14.490  -6.695  1.00 20.00    -0.010 A 
HETATM    8  C3  UNL     1     -35.908  13.546  -7.817  1.00 20.00     0.013 A 
HETATM    9  C4  UNL     1     -34.508  13.557  -7.271  1.00 20.00     0.013 A 
HETATM   10  C8  UNL     1     -35.434  15.956  -7.014  1.00 20.00     0.018 C 
ENDBRANCH   2   7
BRANCH   2  11
HETATM   11  O11 UNL     1     -35.650  12.861  -4.967  1.00 20.00    -0.385 OA
HETATM   12  H29 UNL     1     -34.988  12.962  -4.268  1.00 20.00     0.211 HD
ENDBRANCH   2  11
TORSDOF 3
ENDMDL
MODEL 3
REMARK VINA RESULT:      -4.4      1.080      4.282
REMARK  3 active torsions:
REMARK  status: ('A' for Active; 'I' for Inactive)
REMARK    1  A    between atoms: C1_1  and  C10_10 
REMARK    2  A    between atoms: C5_5  and  C10_10 
REMARK    3  A    between atoms: C10_10  and  O11_11 
ROOT
HETATM    1  C9  UNL     1     -34.242   6.723   1.687  1.00 20.00     0.051 C 
HETATM    2  C10 UNL     1     -33.181   6.765   2.763  1.00 20.00     0.079 C 
ENDROOT
BRANCH   2   3
HETATM    3  C1  UNL     1     -33.765   6.810   4.165  1.00 20.00     0.013 C 
HETATM    4  C2  UNL     1     -34.311   5.819   4.899  1.00 20.00    -0.088 C 
HETATM    5  C6  UNL     1     -34.833   6.098   6.284  1.00 20.00     0.042 C 
HETATM    6  C7  UNL     1     -34.489   4.396   4.450  1.00 20.00     0.042 C 
ENDBRANCH   2   3
BRANCH   2   7
HETATM    7  C5  UNL     1     -32.273   7.989   2.555  1.00 20.00    -0.010 A 
HETATM    8  C3  UNL     1     -32.798   9.123   1.707  1.00 20.00     0.013 A 
HETATM    9  C4  UNL     1     -31.715   8.230   1.172  1.00 20.00     0.013 A 
HETATM   10  C8  UNL     1     -31.406   8.331   3.735  1.00 20.00     0.018 C 
ENDBRANCH   2   7
BRANCH   2  11
HETATM   11  O11 UNL     1     -32.340   5.613   2.628  1.00 20.00    -0.385 OA
HETATM   12  H29 UNL     1     -31.461   5.885   2.929  1.00 20.00     0.211 HD
ENDBRANCH   2  11
TORSDOF 3
ENDMDL
MODEL 4
REMARK VINA RESULT:      -4.3     10.256     11.329
REMARK  3 active torsions:
REMARK  status: ('A' for Active; 'I' for Inactive)
REMARK    1  A    between atoms: C1_1  and  C10_10 
REMARK    2  A    between atoms: C5_5  and  C10_10 
REMARK    3  A    between atoms: C10_10  and  O11_11 
ROOT
HETATM    1  C9  UNL     1     -32.835  14.358  -4.206  1.00 20.00     0.051 C 
HETATM    2  C10 UNL     1     -33.952  15.293  -4.610  1.00 20.00     0.079 C 
ENDROOT
BRANCH   2   3
HETATM    3  C1  UNL     1     -34.802  15.739  -3.433  1.00 20.00     0.013 C 
HETATM    4  C2  UNL     1     -34.500  16.592  -2.432  1.00 20.00    -0.088 C 
HETATM    5  C6  UNL     1     -35.513  16.890  -1.357  1.00 20.00     0.042 C 
HETATM    6  C7  UNL     1     -33.184  17.293  -2.249  1.00 20.00     0.042 C 
ENDBRANCH   2   3
BRANCH   2   7
HETATM    7  C5  UNL     1     -34.853  14.610  -5.653  1.00 20.00    -0.010 A 
HETATM    8  C3  UNL     1     -34.272  14.338  -7.021  1.00 20.00     0.013 A 
HETATM    9  C4  UNL     1     -35.296  15.423  -6.847  1.00 20.00     0.013 A 
HETATM   10  C8  UNL     1     -35.819  13.608  -5.084  1.00 20.00     0.018 C 
ENDBRANCH   2   7
BRANCH   2  11
HETATM   11  O11 UNL     1     -33.385  16.438  -5.257  1.00 20.00    -0.385 OA
HETATM   12  H29 UNL     1     -34.131  16.955  -5.592  1.00 20.00     0.211 HD
ENDBRANCH   2  11
TORSDOF 3
ENDMDL
MODEL 5
REMARK VINA RESULT:      -4.3     10.250     11.625
REMARK  3 active torsions:
REMARK  status: ('A' for Active; 'I' for Inactive)
REMARK    1  A    between atoms: C1_1  and  C10_10 
REMARK    2  A    between atoms: C5_5  and  C10_10 
REMARK    3  A    between atoms: C10_10  and  O11_11 
ROOT
HETATM    1  C9  UNL     1     -35.490  13.665  -4.918  1.00 20.00     0.051 C 
HETATM    2  C10 UNL     1     -34.268  14.549  -4.810  1.00 20.00     0.079 C 
ENDROOT
BRANCH   2   3
HETATM    3  C1  UNL     1     -34.250  15.375  -3.535  1.00 20.00     0.013 C 
HETATM    4  C2  UNL     1     -35.229  16.118  -2.981  1.00 20.00    -0.088 C 
HETATM    5  C6  UNL     1     -34.982  16.863  -1.695  1.00 20.00     0.042 C 
HETATM    6  C7  UNL     1     -36.605  16.315  -3.550  1.00 20.00     0.042 C 
ENDBRANCH   2   3
BRANCH   2   7
HETATM    7  C5  UNL     1     -34.196  15.491  -6.024  1.00 20.00    -0.010 A 
HETATM    8  C3  UNL     1     -35.363  15.501  -6.983  1.00 20.00     0.013 A 
HETATM    9  C4  UNL     1     -34.062  14.871  -7.395  1.00 20.00     0.013 A 
HETATM   10  C8  UNL     1     -33.483  16.790  -5.765  1.00 20.00     0.018 C 
ENDBRANCH   2   7
BRANCH   2  11
HETATM   11  O11 UNL     1     -33.097  13.727  -4.869  1.00 20.00    -0.385 OA
HETATM   12  H29 UNL     1     -32.349  14.310  -4.676  1.00 20.00     0.211 HD
ENDBRANCH   2  11
TORSDOF 3
ENDMDL
MODEL 6
REMARK VINA RESULT:      -4.2      1.429      2.117
REMARK  3 active torsions:
REMARK  status: ('A' for Active; 'I' for Inactive)
REMARK    1  A    between atoms: C1_1  and  C10_10 
REMARK    2  A    between atoms: C5_5  and  C10_10 
REMARK    3  A    between atoms: C10_10  and  O11_11 
ROOT
HETATM    1  C9  UNL     1     -32.880   4.826   2.604  1.00 20.00     0.051 C 
HETATM    2  C10 UNL     1     -33.592   6.045   3.146  1.00 20.00     0.079 C 
ENDROOT
BRANCH   2   3
HETATM    3  C1  UNL     1     -32.688   7.264   3.234  1.00 20.00     0.013 C 
HETATM    4  C2  UNL     1     -32.392   8.182   2.292  1.00 20.00    -0.088 C 
HETATM    5  C6  UNL     1     -31.458   9.321   2.608  1.00 20.00     0.042 C 
HETATM    6  C7  UNL     1     -32.898   8.177   0.878  1.00 20.00     0.042 C 
ENDBRANCH   2   3
BRANCH   2   7
HETATM    7  C5  UNL     1     -34.166   5.740   4.539  1.00 20.00    -0.010 A 
HETATM    8  C3  UNL     1     -34.110   4.312   5.030  1.00 20.00     0.013 A 
HETATM    9  C4  UNL     1     -35.426   4.911   4.620  1.00 20.00     0.013 A 
HETATM   10  C8  UNL     1     -33.979   6.841   5.547  1.00 20.00     0.018 C 
ENDBRANCH   2   7
BRANCH   2  11
HETATM   11  O11 UNL     1     -34.713   6.337   2.304  1.00 20.00    -0.385 OA
HETATM   12  H29 UNL     1     -34.517   7.185   1.879  1.00 20.00     0.211 HD
ENDBRANCH   2  11
TORSDOF 3
ENDMDL
MODEL 7
REMARK VINA RESULT:      -4.1      1.426      2.105
REMARK  3 active torsions:
REMARK  status: ('A' for Active; 'I' for Inactive)
REMARK    1  A    between atoms: C1_1  and  C10_10 
REMARK    2  A    between atoms: C5_5  and  C10_10 
REMARK    3  A    between atoms: C10_10  and  O11_11 
ROOT
HETATM    1  C9  UNL     1     -34.434   8.409   3.608  1.00 20.00     0.051 C 
HETATM    2  C10 UNL     1     -33.284   7.428   3.602  1.00 20.00     0.079 C 
ENDROOT
BRANCH   2   3
HETATM    3  C1  UNL     1     -32.398   7.566   2.375  1.00 20.00     0.013 C 
HETATM    4  C2  UNL     1     -32.157   8.650   1.609  1.00 20.00    -0.088 C 
HETATM    5  C6  UNL     1     -31.231   8.553   0.426  1.00 20.00     0.042 C 
HETATM    6  C7  UNL     1     -32.766  10.010   1.803  1.00 20.00     0.042 C 
ENDBRANCH   2   3
BRANCH   2   7
HETATM    7  C5  UNL     1     -33.824   5.990   3.675  1.00 20.00    -0.010 A 
HETATM    8  C3  UNL     1     -35.311   5.800   3.861  1.00 20.00     0.013 A 
HETATM    9  C4  UNL     1     -34.372   5.505   4.996  1.00 20.00     0.013 A 
HETATM   10  C8  UNL     1     -33.088   5.002   2.811  1.00 20.00     0.018 C 
ENDBRANCH   2   7
BRANCH   2  11
HETATM   11  O11 UNL     1     -32.502   7.624   4.785  1.00 20.00    -0.385 OA
HETATM   12  H29 UNL     1     -32.375   8.580   4.868  1.00 20.00     0.211 HD
ENDBRANCH   2  11
TORSDOF 3
ENDMDL
MODEL 8
REMARK VINA RESULT:      -4.1      1.396      4.232
REMARK  3 active torsions:
REMARK  status: ('A' for Active; 'I' for Inactive)
REMARK    1  A    between atoms: C1_1  and  C10_10 
REMARK    2  A    between atoms: C5_5  and  C10_10 
REMARK    3  A    between atoms: C10_10  and  O11_11 
ROOT
HETATM    1  C9  UNL     1     -31.505   8.637   3.551  1.00 20.00     0.051 C 
HETATM    2  C10 UNL     1     -32.549   8.287   2.515  1.00 20.00     0.079 C 
ENDROOT
BRANCH   2   3
HETATM    3  C1  UNL     1     -32.674   6.790   2.286  1.00 20.00     0.013 C 
HETATM    4  C2  UNL     1     -33.368   5.871   2.986  1.00 20.00    -0.088 C 
HETATM    5  C6  UNL     1     -33.346   4.423   2.569  1.00 20.00     0.042 C 
HETATM    6  C7  UNL     1     -34.184   6.144   4.217  1.00 20.00     0.042 C 
ENDBRANCH   2   3
BRANCH   2   7
HETATM    7  C5  UNL     1     -32.213   8.976   1.182  1.00 20.00    -0.010 A 
HETATM    8  C3  UNL     1     -32.572  10.435   1.029  1.00 20.00     0.013 A 
HETATM    9  C4  UNL     1     -33.360   9.390   0.290  1.00 20.00     0.013 A 
HETATM   10  C8  UNL     1     -30.950   8.487   0.527  1.00 20.00     0.018 C 
ENDBRANCH   2   7
BRANCH   2  11
HETATM   11  O11 UNL     1     -33.811   8.817   2.935  1.00 20.00    -0.385 OA
HETATM   12  H29 UNL     1     -34.423   8.669   2.200  1.00 20.00     0.211 HD
ENDBRANCH   2  11
TORSDOF 3
ENDMDL
MODEL 9
REMARK VINA RESULT:      -4.1      0.985      1.634
REMARK  3 active torsions:
REMARK  status: ('A' for Active; 'I' for Inactive)
REMARK    1  A    between atoms: C1_1  and  C10_10 
REMARK    2  A    between atoms: C5_5  and  C10_10 
REMARK    3  A    between atoms: C10_10  and  O11_11 
ROOT
HETATM    1  C9  UNL     1     -33.235   7.747   5.233  1.00 20.00     0.051 C 
HETATM    2  C10 UNL     1     -32.980   7.366   3.793  1.00 20.00     0.079 C 
ENDROOT
BRANCH   2   3
HETATM    3  C1  UNL     1     -33.374   8.460   2.815  1.00 20.00     0.013 C 
HETATM    4  C2  UNL     1     -32.712   8.924   1.736  1.00 20.00    -0.088 C 
HETATM    5  C6  UNL     1     -33.302  10.030   0.901  1.00 20.00     0.042 C 
HETATM    6  C7  UNL     1     -31.365   8.452   1.268  1.00 20.00     0.042 C 
ENDBRANCH   2   3
BRANCH   2   7
HETATM    7  C5  UNL     1     -33.750   6.079   3.449  1.00 20.00    -0.010 A 
HETATM    8  C3  UNL     1     -35.259   6.140   3.436  1.00 20.00     0.013 A 
HETATM    9  C4  UNL     1     -34.550   5.417   4.546  1.00 20.00     0.013 A 
HETATM   10  C8  UNL     1     -33.070   5.195   2.440  1.00 20.00     0.018 C 
ENDBRANCH   2   7
BRANCH   2  11
HETATM   11  O11 UNL     1     -31.591   7.057   3.636  1.00 20.00    -0.385 OA
HETATM   12  H29 UNL     1     -31.554   6.219   3.153  1.00 20.00     0.211 HD
ENDBRANCH   2  11
TORSDOF 3
ENDMDL
