MODEL 1
REMARK VINA RESULT:      -4.6      0.000      0.000
REMARK  1 active torsions:
REMARK  status: ('A' for Active; 'I' for Inactive)
REMARK    1  A    between atoms: C4_4  and  C5_5 
ROOT
HETATM    1  C1  UNL     1     -34.069   4.301   4.326  1.00 20.00     0.013 A 
HETATM    2  C2  UNL     1     -34.731   4.835   5.564  1.00 20.00     0.013 A 
HETATM    3  C4  UNL     1     -34.571   5.725   4.355  1.00 20.00    -0.011 A 
HETATM    4  C6  UNL     1     -35.822   6.015   3.563  1.00 20.00     0.018 C 
ENDROOT
BRANCH   3   5
HETATM    5  C5  UNL     1     -33.577   6.894   4.382  1.00 20.00     0.086 A 
HETATM    6  C3  UNL     1     -32.521   7.054   3.324  1.00 20.00     0.207 A 
HETATM    7  O8  UNL     1     -33.731   7.827   3.310  1.00 20.00    -0.375 OA
HETATM    8  C7  UNL     1     -33.363   7.543   5.712  1.00 20.00     0.049 C 
ENDBRANCH   3   5
TORSDOF 1
ENDMDL
MODEL 2
REMARK VINA RESULT:      -4.5      1.216      2.203
REMARK  1 active torsions:
REMARK  status: ('A' for Active; 'I' for Inactive)
REMARK    1  A    between atoms: C4_4  and  C5_5 
ROOT
HETATM    1  C1  UNL     1     -35.561   5.941   4.037  1.00 20.00     0.013 A 
HETATM    2  C2  UNL     1     -34.660   4.900   4.638  1.00 20.00     0.013 A 
HETATM    3  C4  UNL     1     -34.108   6.264   4.297  1.00 20.00    -0.011 A 
HETATM    4  C6  UNL     1     -33.821   7.183   5.459  1.00 20.00     0.018 C 
ENDROOT
BRANCH   3   5
HETATM    5  C5  UNL     1     -33.131   6.431   3.126  1.00 20.00     0.086 A 
HETATM    6  C3  UNL     1     -32.991   7.741   2.400  1.00 20.00     0.207 A 
HETATM    7  O8  UNL     1     -32.039   7.317   3.388  1.00 20.00    -0.375 OA
HETATM    8  C7  UNL     1     -32.726   5.175   2.424  1.00 20.00     0.049 C 
ENDBRANCH   3   5
TORSDOF 1
ENDMDL
MODEL 3
REMARK VINA RESULT:      -4.2      1.618      3.059
REMARK  1 active torsions:
REMARK  status: ('A' for Active; 'I' for Inactive)
REMARK    1  A    between atoms: C4_4  and  C5_5 
ROOT
HETATM    1  C1  UNL     1     -33.110   7.797   2.289  1.00 20.00     0.013 A 
HETATM    2  C2  UNL     1     -31.993   7.592   3.272  1.00 20.00     0.013 A 
HETATM    3  C4  UNL     1     -33.089   6.560   3.156  1.00 20.00    -0.011 A 
HETATM    4  C6  UNL     1     -32.723   5.265   2.473  1.00 20.00     0.018 C 
ENDROOT
BRANCH   3   5
HETATM    5  C5  UNL     1     -34.113   6.390   4.285  1.00 20.00     0.086 A 
HETATM    6  C3  UNL     1     -35.518   5.926   4.011  1.00 20.00     0.207 A 
HETATM    7  O8  UNL     1     -34.513   5.038   4.525  1.00 20.00    -0.375 OA
HETATM    8  C7  UNL     1     -33.847   7.165   5.536  1.00 20.00     0.049 C 
ENDBRANCH   3   5
TORSDOF 1
ENDMDL
MODEL 4
REMARK VINA RESULT:      -4.1      1.363      1.753
REMARK  1 active torsions:
REMARK  status: ('A' for Active; 'I' for Inactive)
REMARK    1  A    between atoms: C4_4  and  C5_5 
ROOT
HETATM    1  C1  UNL     1     -34.379   5.020   5.506  1.00 20.00     0.013 A 
HETATM    2  C2  UNL     1     -34.290   6.499   5.753  1.00 20.00     0.013 A 
HETATM    3  C4  UNL     1     -34.510   5.984   4.350  1.00 20.00    -0.011 A 
HETATM    4  C6  UNL     1     -35.894   6.165   3.777  1.00 20.00     0.018 C 
ENDROOT
BRANCH   3   5
HETATM    5  C5  UNL     1     -33.394   6.093   3.304  1.00 20.00     0.086 A 
HETATM    6  C3  UNL     1     -32.853   4.878   2.600  1.00 20.00     0.207 A 
HETATM    7  O8  UNL     1     -33.796   5.762   1.972  1.00 20.00    -0.375 OA
HETATM    8  C7  UNL     1     -32.537   7.316   3.382  1.00 20.00     0.049 C 
ENDBRANCH   3   5
TORSDOF 1
ENDMDL
MODEL 5
REMARK VINA RESULT:      -3.9      1.390      3.218
REMARK  1 active torsions:
REMARK  status: ('A' for Active; 'I' for Inactive)
REMARK    1  A    between atoms: C4_4  and  C5_5 
ROOT
HETATM    1  C1  UNL     1     -32.441   6.888   3.305  1.00 20.00     0.013 A 
HETATM    2  C2  UNL     1     -33.560   7.870   3.103  1.00 20.00     0.013 A 
HETATM    3  C4  UNL     1     -33.618   6.890   4.251  1.00 20.00    -0.011 A 
HETATM    4  C6  UNL     1     -33.374   7.455   5.629  1.00 20.00     0.018 C 
ENDROOT
BRANCH   3   5
HETATM    5  C5  UNL     1     -34.629   5.736   4.231  1.00 20.00     0.086 A 
HETATM    6  C3  UNL     1     -34.196   4.309   4.426  1.00 20.00     0.207 A 
HETATM    7  O8  UNL     1     -34.793   5.071   5.487  1.00 20.00    -0.375 OA
HETATM    8  C7  UNL     1     -35.918   6.003   3.524  1.00 20.00     0.049 C 
ENDBRANCH   3   5
TORSDOF 1
ENDMDL
MODEL 6
REMARK VINA RESULT:      -3.6     12.094     13.423
REMARK  1 active torsions:
REMARK  status: ('A' for Active; 'I' for Inactive)
REMARK    1  A    between atoms: C4_4  and  C5_5 
ROOT
HETATM    1  C1  UNL     1     -34.964  15.998  -7.051  1.00 20.00     0.013 A 
HETATM    2  C2  UNL     1     -33.593  15.721  -6.503  1.00 20.00     0.013 A 
HETATM    3  C4  UNL     1     -34.624  14.618  -6.538  1.00 20.00    -0.011 A 
HETATM    4  C6  UNL     1     -34.423  13.543  -7.578  1.00 20.00     0.018 C 
ENDROOT
BRANCH   3   5
HETATM    5  C5  UNL     1     -35.249  14.102  -5.235  1.00 20.00     0.086 A 
HETATM    6  C3  UNL     1     -36.738  13.968  -5.076  1.00 20.00     0.207 A 
HETATM    7  O8  UNL     1     -35.900  12.835  -5.352  1.00 20.00    -0.375 OA
HETATM    8  C7  UNL     1     -34.406  14.230  -4.007  1.00 20.00     0.049 C 
ENDBRANCH   3   5
TORSDOF 1
ENDMDL
MODEL 7
REMARK VINA RESULT:      -3.5      1.515      2.397
REMARK  1 active torsions:
REMARK  status: ('A' for Active; 'I' for Inactive)
REMARK    1  A    between atoms: C4_4  and  C5_5 
ROOT
HETATM    1  C1  UNL     1     -34.328   5.949   4.700  1.00 20.00     0.013 A 
HETATM    2  C2  UNL     1     -35.156   6.175   3.467  1.00 20.00     0.013 A 
HETATM    3  C4  UNL     1     -33.649   6.167   3.368  1.00 20.00    -0.011 A 
HETATM    4  C6  UNL     1     -33.025   4.954   2.723  1.00 20.00     0.018 C 
ENDROOT
BRANCH   3   5
HETATM    5  C5  UNL     1     -32.886   7.469   3.093  1.00 20.00     0.086 A 
HETATM    6  C3  UNL     1     -32.116   8.174   4.176  1.00 20.00     0.207 A 
HETATM    7  O8  UNL     1     -31.464   7.355   3.193  1.00 20.00    -0.375 OA
HETATM    8  C7  UNL     1     -33.339   8.259   1.907  1.00 20.00     0.049 C 
ENDBRANCH   3   5
TORSDOF 1
ENDMDL
MODEL 8
REMARK VINA RESULT:      -3.4      1.381      2.533
REMARK  1 active torsions:
REMARK  status: ('A' for Active; 'I' for Inactive)
REMARK    1  A    between atoms: C4_4  and  C5_5 
ROOT
HETATM    1  C1  UNL     1     -32.938   5.030   2.732  1.00 20.00     0.013 A 
HETATM    2  C2  UNL     1     -34.180   5.699   2.216  1.00 20.00     0.013 A 
HETATM    3  C4  UNL     1     -33.372   6.356   3.310  1.00 20.00    -0.011 A 
HETATM    4  C6  UNL     1     -32.558   7.563   2.913  1.00 20.00     0.018 C 
ENDROOT
BRANCH   3   5
HETATM    5  C5  UNL     1     -33.925   6.433   4.739  1.00 20.00     0.086 A 
HETATM    6  C3  UNL     1     -33.265   7.277   5.795  1.00 20.00     0.207 A 
HETATM    7  O8  UNL     1     -34.446   7.714   5.105  1.00 20.00    -0.375 OA
HETATM    8  C7  UNL     1     -34.788   5.291   5.172  1.00 20.00     0.049 C 
ENDBRANCH   3   5
TORSDOF 1
ENDMDL
MODEL 9
REMARK VINA RESULT:      -3.4      1.696      2.504
REMARK  1 active torsions:
REMARK  status: ('A' for Active; 'I' for Inactive)
REMARK    1  A    between atoms: C4_4  and  C5_5 
ROOT
HETATM    1  C1  UNL     1     -34.180   6.067   2.299  1.00 20.00     0.013 A 
HETATM    2  C2  UNL     1     -33.022   5.343   2.924  1.00 20.00     0.013 A 
HETATM    3  C4  UNL     1     -33.283   6.789   3.277  1.00 20.00    -0.011 A 
HETATM    4  C6  UNL     1     -33.855   7.053   4.648  1.00 20.00     0.018 C 
ENDROOT
BRANCH   3   5
HETATM    5  C5  UNL     1     -32.331   7.888   2.787  1.00 20.00     0.086 A 
HETATM    6  C3  UNL     1     -32.155   8.180   1.323  1.00 20.00     0.207 A 
HETATM    7  O8  UNL     1     -32.981   9.000   2.165  1.00 20.00    -0.375 OA
HETATM    8  C7  UNL     1     -31.243   8.284   3.733  1.00 20.00     0.049 C 
ENDBRANCH   3   5
TORSDOF 1
ENDMDL
