MODEL 1
REMARK VINA RESULT:      -4.9      0.000      0.000
REMARK  4 active torsions:
REMARK  status: ('A' for Active; 'I' for Inactive)
REMARK    1  A    between atoms: C3_3  and  C10_10 
REMARK    2  A    between atoms: C8_8  and  C9_9 
REMARK    3  A    between atoms: C9_9  and  C10_10 
REMARK    4  A    between atoms: C10_10  and  O11_11 
ROOT
HETATM    1  C7  UNL     1     -32.384   5.410   2.702  1.00 20.00     0.047 C 
HETATM    2  C10 UNL     1     -33.407   6.502   2.937  1.00 20.00     0.065 C 
ENDROOT
BRANCH   2   3
HETATM    3  C3  UNL     1     -34.144   6.247   4.258  1.00 20.00    -0.013 A 
HETATM    4  C1  UNL     1     -34.383   4.813   4.669  1.00 20.00     0.013 A 
HETATM    5  C2  UNL     1     -35.533   5.654   4.191  1.00 20.00     0.013 A 
HETATM    6  C4  UNL     1     -33.857   7.252   5.339  1.00 20.00     0.018 C 
ENDBRANCH   2   3
BRANCH   2   7
HETATM    7  C9  UNL     1     -32.766   7.928   2.850  1.00 20.00     0.016 C 
HETATM    8  C6  UNL     1     -31.407   7.991   3.570  1.00 20.00     0.013 C 
BRANCH   7   9
HETATM    9  C8  UNL     1     -32.643   8.452   1.401  1.00 20.00     0.002 C 
HETATM   10  C5  UNL     1     -32.659   9.973   1.296  1.00 20.00     0.005 C 
ENDBRANCH   7   9
ENDBRANCH   2   7
BRANCH   2  11
HETATM   11  O11 UNL     1     -34.393   6.382   1.900  1.00 20.00    -0.389 OA
HETATM   12  H31 UNL     1     -35.245   6.552   2.323  1.00 20.00     0.210 HD
ENDBRANCH   2  11
TORSDOF 4
ENDMDL
MODEL 2
REMARK VINA RESULT:      -4.8     10.473     12.213
REMARK  4 active torsions:
REMARK  status: ('A' for Active; 'I' for Inactive)
REMARK    1  A    between atoms: C3_3  and  C10_10 
REMARK    2  A    between atoms: C8_8  and  C9_9 
REMARK    3  A    between atoms: C9_9  and  C10_10 
REMARK    4  A    between atoms: C10_10  and  O11_11 
ROOT
HETATM    1  C7  UNL     1     -37.748  14.307  -5.187  1.00 20.00     0.047 C 
HETATM    2  C10 UNL     1     -36.278  14.097  -5.491  1.00 20.00     0.065 C 
ENDROOT
BRANCH   2   3
HETATM    3  C3  UNL     1     -36.043  14.194  -7.004  1.00 20.00    -0.013 A 
HETATM    4  C1  UNL     1     -35.341  13.043  -7.687  1.00 20.00     0.013 A 
HETATM    5  C2  UNL     1     -34.621  14.347  -7.491  1.00 20.00     0.013 A 
HETATM    6  C4  UNL     1     -37.129  14.908  -7.761  1.00 20.00     0.018 C 
ENDBRANCH   2   3
BRANCH   2   7
HETATM    7  C9  UNL     1     -35.369  15.061  -4.658  1.00 20.00     0.016 C 
HETATM    8  C6  UNL     1     -36.191  15.945  -3.704  1.00 20.00     0.013 C 
BRANCH   7   9
HETATM    9  C8  UNL     1     -34.243  14.327  -3.893  1.00 20.00     0.002 C 
HETATM   10  C5  UNL     1     -32.844  14.639  -4.413  1.00 20.00     0.005 C 
ENDBRANCH   7   9
ENDBRANCH   2   7
BRANCH   2  11
HETATM   11  O11 UNL     1     -35.965  12.744  -5.124  1.00 20.00    -0.389 OA
HETATM   12  H31 UNL     1     -35.532  12.798  -4.261  1.00 20.00     0.210 HD
ENDBRANCH   2  11
TORSDOF 4
ENDMDL
MODEL 3
REMARK VINA RESULT:      -4.7     10.482     12.209
REMARK  4 active torsions:
REMARK  status: ('A' for Active; 'I' for Inactive)
REMARK    1  A    between atoms: C3_3  and  C10_10 
REMARK    2  A    between atoms: C8_8  and  C9_9 
REMARK    3  A    between atoms: C9_9  and  C10_10 
REMARK    4  A    between atoms: C10_10  and  O11_11 
ROOT
HETATM    1  C7  UNL     1     -34.797  13.275  -7.197  1.00 20.00     0.047 C 
HETATM    2  C10 UNL     1     -35.324  13.943  -5.944  1.00 20.00     0.065 C 
ENDROOT
BRANCH   2   3
HETATM    3  C3  UNL     1     -34.211  14.772  -5.290  1.00 20.00    -0.013 A 
HETATM    4  C1  UNL     1     -33.458  14.158  -4.134  1.00 20.00     0.013 A 
HETATM    5  C2  UNL     1     -34.435  15.272  -3.881  1.00 20.00     0.013 A 
HETATM    6  C4  UNL     1     -33.450  15.655  -6.239  1.00 20.00     0.018 C 
ENDBRANCH   2   3
BRANCH   2   7
HETATM    7  C9  UNL     1     -36.625  14.766  -6.228  1.00 20.00     0.016 C 
HETATM    8  C6  UNL     1     -36.967  14.801  -7.729  1.00 20.00     0.013 C 
BRANCH   7   9
HETATM    9  C8  UNL     1     -37.841  14.289  -5.401  1.00 20.00     0.002 C 
HETATM   10  C5  UNL     1     -38.387  15.346  -4.447  1.00 20.00     0.005 C 
ENDBRANCH   7   9
ENDBRANCH   2   7
BRANCH   2  11
HETATM   11  O11 UNL     1     -35.642  12.896  -5.014  1.00 20.00    -0.389 OA
HETATM   12  H31 UNL     1     -34.890  12.289  -5.030  1.00 20.00     0.210 HD
ENDBRANCH   2  11
TORSDOF 4
ENDMDL
MODEL 4
REMARK VINA RESULT:      -4.6     10.672     11.931
REMARK  4 active torsions:
REMARK  status: ('A' for Active; 'I' for Inactive)
REMARK    1  A    between atoms: C3_3  and  C10_10 
REMARK    2  A    between atoms: C8_8  and  C9_9 
REMARK    3  A    between atoms: C9_9  and  C10_10 
REMARK    4  A    between atoms: C10_10  and  O11_11 
ROOT
HETATM    1  C7  UNL     1     -37.095  14.704  -4.747  1.00 20.00     0.047 C 
HETATM    2  C10 UNL     1     -35.731  14.124  -5.060  1.00 20.00     0.065 C 
ENDROOT
BRANCH   2   3
HETATM    3  C3  UNL     1     -35.312  14.520  -6.481  1.00 20.00    -0.013 A 
HETATM    4  C1  UNL     1     -35.822  13.680  -7.629  1.00 20.00     0.013 A 
HETATM    5  C2  UNL     1     -34.376  13.596  -7.227  1.00 20.00     0.013 A 
HETATM    6  C4  UNL     1     -35.165  16.000  -6.700  1.00 20.00     0.018 C 
ENDBRANCH   2   3
BRANCH   2   7
HETATM    7  C9  UNL     1     -34.673  14.508  -3.971  1.00 20.00     0.016 C 
HETATM    8  C6  UNL     1     -33.237  14.465  -4.524  1.00 20.00     0.013 C 
BRANCH   7   9
HETATM    9  C8  UNL     1     -34.961  15.869  -3.297  1.00 20.00     0.002 C 
HETATM   10  C5  UNL     1     -33.706  16.600  -2.831  1.00 20.00     0.005 C 
ENDBRANCH   7   9
ENDBRANCH   2   7
BRANCH   2  11
HETATM   11  O11 UNL     1     -35.876  12.695  -5.069  1.00 20.00    -0.389 OA
HETATM   12  H31 UNL     1     -35.174  12.353  -4.498  1.00 20.00     0.210 HD
ENDBRANCH   2  11
TORSDOF 4
ENDMDL
MODEL 5
REMARK VINA RESULT:      -4.6     11.049     12.220
REMARK  4 active torsions:
REMARK  status: ('A' for Active; 'I' for Inactive)
REMARK    1  A    between atoms: C3_3  and  C10_10 
REMARK    2  A    between atoms: C8_8  and  C9_9 
REMARK    3  A    between atoms: C9_9  and  C10_10 
REMARK    4  A    between atoms: C10_10  and  O11_11 
ROOT
HETATM    1  C7  UNL     1     -36.313  13.623  -5.224  1.00 20.00     0.047 C 
HETATM    2  C10 UNL     1     -35.097  14.503  -5.020  1.00 20.00     0.065 C 
ENDROOT
BRANCH   2   3
HETATM    3  C3  UNL     1     -34.429  14.785  -6.371  1.00 20.00    -0.013 A 
HETATM    4  C1  UNL     1     -33.263  15.745  -6.397  1.00 20.00     0.013 A 
HETATM    5  C2  UNL     1     -34.589  16.166  -6.965  1.00 20.00     0.013 A 
HETATM    6  C4  UNL     1     -34.399  13.612  -7.311  1.00 20.00     0.018 C 
ENDBRANCH   2   3
BRANCH   2   7
HETATM    7  C9  UNL     1     -35.448  15.801  -4.218  1.00 20.00     0.016 C 
HETATM    8  C6  UNL     1     -36.942  15.863  -3.850  1.00 20.00     0.013 C 
BRANCH   7   9
HETATM    9  C8  UNL     1     -34.566  15.999  -2.964  1.00 20.00     0.002 C 
HETATM   10  C5  UNL     1     -35.270  16.733  -1.828  1.00 20.00     0.005 C 
ENDBRANCH   7   9
ENDBRANCH   2   7
BRANCH   2  11
HETATM   11  O11 UNL     1     -34.150  13.739  -4.257  1.00 20.00    -0.389 OA
HETATM   12  H31 UNL     1     -34.493  12.835  -4.238  1.00 20.00     0.210 HD
ENDBRANCH   2  11
TORSDOF 4
ENDMDL
MODEL 6
REMARK VINA RESULT:      -4.5     11.020     12.175
REMARK  4 active torsions:
REMARK  status: ('A' for Active; 'I' for Inactive)
REMARK    1  A    between atoms: C3_3  and  C10_10 
REMARK    2  A    between atoms: C8_8  and  C9_9 
REMARK    3  A    between atoms: C9_9  and  C10_10 
REMARK    4  A    between atoms: C10_10  and  O11_11 
ROOT
HETATM    1  C7  UNL     1     -33.414  18.114  -4.510  1.00 20.00     0.047 C 
HETATM    2  C10 UNL     1     -34.206  16.906  -4.052  1.00 20.00     0.065 C 
ENDROOT
BRANCH   2   3
HETATM    3  C3  UNL     1     -33.807  15.679  -4.881  1.00 20.00    -0.013 A 
HETATM    4  C1  UNL     1     -34.460  14.358  -4.549  1.00 20.00     0.013 A 
HETATM    5  C2  UNL     1     -33.018  14.587  -4.195  1.00 20.00     0.013 A 
HETATM    6  C4  UNL     1     -33.499  15.972  -6.323  1.00 20.00     0.018 C 
ENDBRANCH   2   3
BRANCH   2   7
HETATM    7  C9  UNL     1     -34.079  16.680  -2.508  1.00 20.00     0.016 C 
HETATM    8  C6  UNL     1     -33.093  17.669  -1.861  1.00 20.00     0.013 C 
BRANCH   7   9
HETATM    9  C8  UNL     1     -35.440  16.705  -1.775  1.00 20.00     0.002 C 
HETATM   10  C5  UNL     1     -35.385  17.365  -0.401  1.00 20.00     0.005 C 
ENDBRANCH   7   9
ENDBRANCH   2   7
BRANCH   2  11
HETATM   11  O11 UNL     1     -35.584  17.167  -4.361  1.00 20.00    -0.389 OA
HETATM   12  H31 UNL     1     -35.965  16.316  -4.616  1.00 20.00     0.210 HD
ENDBRANCH   2  11
TORSDOF 4
ENDMDL
MODEL 7
REMARK VINA RESULT:      -4.5     10.860     12.061
REMARK  4 active torsions:
REMARK  status: ('A' for Active; 'I' for Inactive)
REMARK    1  A    between atoms: C3_3  and  C10_10 
REMARK    2  A    between atoms: C8_8  and  C9_9 
REMARK    3  A    between atoms: C9_9  and  C10_10 
REMARK    4  A    between atoms: C10_10  and  O11_11 
ROOT
HETATM    1  C7  UNL     1     -33.417  15.907  -6.496  1.00 20.00     0.047 C 
HETATM    2  C10 UNL     1     -34.527  15.435  -5.579  1.00 20.00     0.065 C 
ENDROOT
BRANCH   2   3
HETATM    3  C3  UNL     1     -35.257  14.246  -6.217  1.00 20.00    -0.013 A 
HETATM    4  C1  UNL     1     -36.764  14.303  -6.299  1.00 20.00     0.013 A 
HETATM    5  C2  UNL     1     -36.104  13.372  -5.321  1.00 20.00     0.013 A 
HETATM    6  C4  UNL     1     -34.513  13.588  -7.346  1.00 20.00     0.018 C 
ENDBRANCH   2   3
BRANCH   2   7
HETATM    7  C9  UNL     1     -34.000  15.137  -4.135  1.00 20.00     0.016 C 
HETATM    8  C6  UNL     1     -32.724  14.276  -4.156  1.00 20.00     0.013 C 
BRANCH   7   9
HETATM    9  C8  UNL     1     -33.786  16.414  -3.290  1.00 20.00     0.002 C 
HETATM   10  C5  UNL     1     -34.767  16.553  -2.131  1.00 20.00     0.005 C 
ENDBRANCH   7   9
ENDBRANCH   2   7
BRANCH   2  11
HETATM   11  O11 UNL     1     -35.487  16.500  -5.502  1.00 20.00    -0.389 OA
HETATM   12  H31 UNL     1     -36.145  16.313  -6.185  1.00 20.00     0.210 HD
ENDBRANCH   2  11
TORSDOF 4
ENDMDL
MODEL 8
REMARK VINA RESULT:      -4.5     10.686     11.913
REMARK  4 active torsions:
REMARK  status: ('A' for Active; 'I' for Inactive)
REMARK    1  A    between atoms: C3_3  and  C10_10 
REMARK    2  A    between atoms: C8_8  and  C9_9 
REMARK    3  A    between atoms: C9_9  and  C10_10 
REMARK    4  A    between atoms: C10_10  and  O11_11 
ROOT
HETATM    1  C7  UNL     1     -35.627  17.904  -4.120  1.00 20.00     0.047 C 
HETATM    2  C10 UNL     1     -35.521  16.520  -3.511  1.00 20.00     0.065 C 
ENDROOT
BRANCH   2   3
HETATM    3  C3  UNL     1     -35.000  15.530  -4.561  1.00 20.00    -0.013 A 
HETATM    4  C1  UNL     1     -35.749  14.231  -4.741  1.00 20.00     0.013 A 
HETATM    5  C2  UNL     1     -34.403  14.230  -4.073  1.00 20.00     0.013 A 
HETATM    6  C4  UNL     1     -34.396  16.171  -5.779  1.00 20.00     0.018 C 
ENDBRANCH   2   3
BRANCH   2   7
HETATM    7  C9  UNL     1     -34.676  16.529  -2.193  1.00 20.00     0.016 C 
HETATM    8  C6  UNL     1     -33.376  17.338  -2.349  1.00 20.00     0.013 C 
BRANCH   7   9
HETATM    9  C8  UNL     1     -35.476  17.009  -0.960  1.00 20.00     0.002 C 
HETATM   10  C5  UNL     1     -34.675  17.903  -0.020  1.00 20.00     0.005 C 
ENDBRANCH   7   9
ENDBRANCH   2   7
BRANCH   2  11
HETATM   11  O11 UNL     1     -36.857  16.099  -3.192  1.00 20.00    -0.389 OA
HETATM   12  H31 UNL     1     -36.924  16.138  -2.229  1.00 20.00     0.210 HD
ENDBRANCH   2  11
TORSDOF 4
ENDMDL
MODEL 9
REMARK VINA RESULT:      -4.4     10.799     11.917
REMARK  4 active torsions:
REMARK  status: ('A' for Active; 'I' for Inactive)
REMARK    1  A    between atoms: C3_3  and  C10_10 
REMARK    2  A    between atoms: C8_8  and  C9_9 
REMARK    3  A    between atoms: C9_9  and  C10_10 
REMARK    4  A    between atoms: C10_10  and  O11_11 
ROOT
HETATM    1  C7  UNL     1     -33.095  14.592  -4.215  1.00 20.00     0.047 C 
HETATM    2  C10 UNL     1     -34.511  14.629  -4.754  1.00 20.00     0.065 C 
ENDROOT
BRANCH   2   3
HETATM    3  C3  UNL     1     -35.333  15.667  -3.980  1.00 20.00    -0.013 A 
HETATM    4  C1  UNL     1     -36.834  15.498  -3.944  1.00 20.00     0.013 A 
HETATM    5  C2  UNL     1     -36.226  16.596  -4.771  1.00 20.00     0.013 A 
HETATM    6  C4  UNL     1     -34.655  16.215  -2.755  1.00 20.00     0.018 C 
ENDBRANCH   2   3
BRANCH   2   7
HETATM    7  C9  UNL     1     -34.538  14.846  -6.304  1.00 20.00     0.016 C 
HETATM    8  C6  UNL     1     -33.342  15.686  -6.787  1.00 20.00     0.013 C 
BRANCH   7   9
HETATM    9  C8  UNL     1     -34.638  13.525  -7.102  1.00 20.00     0.002 C 
HETATM   10  C5  UNL     1     -35.919  13.397  -7.917  1.00 20.00     0.005 C 
ENDBRANCH   7   9
ENDBRANCH   2   7
BRANCH   2  11
HETATM   11  O11 UNL     1     -35.103  13.353  -4.462  1.00 20.00    -0.389 OA
HETATM   12  H31 UNL     1     -34.381  12.711  -4.498  1.00 20.00     0.210 HD
ENDBRANCH   2  11
TORSDOF 4
ENDMDL
