MODEL 1
REMARK VINA RESULT:      -5.0      0.000      0.000
REMARK  1 active torsions:
REMARK  status: ('A' for Active; 'I' for Inactive)
REMARK    1  A    between atoms: C3_3  and  C8_8 
ROOT
HETATM    1  C1  UNL     1     -35.870  13.807  -4.888  1.00 20.00     0.089 C 
HETATM    2  C2  UNL     1     -35.932  15.024  -4.157  1.00 20.00     0.113 C 
HETATM    3  C3  UNL     1     -34.849  15.682  -3.717  1.00 20.00     0.030 C 
HETATM    4  N10 UNL     1     -35.826  12.813  -5.485  1.00 20.00    -0.192 NA
HETATM    5 CL11 UNL     1     -33.274  15.024  -4.053  1.00 20.00    -0.087 Cl
ENDROOT
BRANCH   3   6
HETATM    6  C8  UNL     1     -34.818  16.990  -2.929  1.00 20.00    -0.005 C 
HETATM    7  C6  UNL     1     -35.196  16.774  -1.455  1.00 20.00     0.015 C 
HETATM    8  C4  UNL     1     -34.367  17.803  -0.699  1.00 20.00     0.001 C 
HETATM    9  C5  UNL     1     -33.039  17.775  -1.434  1.00 20.00     0.001 C 
HETATM   10  C7  UNL     1     -33.416  17.630  -2.907  1.00 20.00     0.015 C 
HETATM   11  C9  UNL     1     -35.788  17.951  -3.568  1.00 20.00     0.021 C 
ENDBRANCH   3   6
TORSDOF 1
ENDMDL
MODEL 2
REMARK VINA RESULT:      -4.8      1.373      1.373
REMARK  1 active torsions:
REMARK  status: ('A' for Active; 'I' for Inactive)
REMARK    1  A    between atoms: C3_3  and  C8_8 
ROOT
HETATM    1  C1  UNL     1     -35.410  13.736  -4.761  1.00 20.00     0.089 C 
HETATM    2  C2  UNL     1     -34.925  14.857  -4.034  1.00 20.00     0.113 C 
HETATM    3  C3  UNL     1     -35.701  15.878  -3.639  1.00 20.00     0.030 C 
HETATM    4  N10 UNL     1     -35.799  12.818  -5.355  1.00 20.00    -0.192 NA
HETATM    5 CL11 UNL     1     -37.395  15.843  -4.029  1.00 20.00    -0.087 Cl
ENDROOT
BRANCH   3   6
HETATM    6  C8  UNL     1     -35.271  17.117  -2.858  1.00 20.00    -0.005 C 
HETATM    7  C6  UNL     1     -35.393  16.902  -1.341  1.00 20.00     0.015 C 
HETATM    8  C4  UNL     1     -34.254  17.723  -0.752  1.00 20.00     0.001 C 
HETATM    9  C5  UNL     1     -33.122  17.487  -1.734  1.00 20.00     0.001 C 
HETATM   10  C7  UNL     1     -33.795  17.486  -3.106  1.00 20.00     0.015 C 
HETATM   11  C9  UNL     1     -36.144  18.271  -3.281  1.00 20.00     0.021 C 
ENDBRANCH   3   6
TORSDOF 1
ENDMDL
MODEL 3
REMARK VINA RESULT:      -4.7     11.460     12.251
REMARK  1 active torsions:
REMARK  status: ('A' for Active; 'I' for Inactive)
REMARK    1  A    between atoms: C3_3  and  C8_8 
ROOT
HETATM    1  C1  UNL     1     -32.159   8.460   1.448  1.00 20.00     0.089 C 
HETATM    2  C2  UNL     1     -33.108   7.510   1.912  1.00 20.00     0.113 C 
HETATM    3  C3  UNL     1     -33.274   7.199   3.207  1.00 20.00     0.030 C 
HETATM    4  N10 UNL     1     -31.385   9.233   1.061  1.00 20.00    -0.192 NA
HETATM    5 CL11 UNL     1     -32.281   7.992   4.394  1.00 20.00    -0.087 Cl
ENDROOT
BRANCH   3   6
HETATM    6  C8  UNL     1     -34.264   6.198   3.798  1.00 20.00    -0.005 C 
HETATM    7  C6  UNL     1     -33.816   4.747   3.559  1.00 20.00     0.015 C 
HETATM    8  C4  UNL     1     -34.308   3.993   4.786  1.00 20.00     0.001 C 
HETATM    9  C5  UNL     1     -34.049   4.976   5.914  1.00 20.00     0.001 C 
HETATM   10  C7  UNL     1     -34.404   6.341   5.326  1.00 20.00     0.015 C 
HETATM   11  C9  UNL     1     -35.609   6.427   3.157  1.00 20.00     0.021 C 
ENDBRANCH   3   6
TORSDOF 1
ENDMDL
MODEL 4
REMARK VINA RESULT:      -4.6     10.416     11.046
REMARK  1 active torsions:
REMARK  status: ('A' for Active; 'I' for Inactive)
REMARK    1  A    between atoms: C3_3  and  C8_8 
ROOT
HETATM    1  C1  UNL     1     -34.229   6.220   5.214  1.00 20.00     0.089 C 
HETATM    2  C2  UNL     1     -33.416   7.230   4.632  1.00 20.00     0.113 C 
HETATM    3  C3  UNL     1     -33.123   7.285   3.324  1.00 20.00     0.030 C 
HETATM    4  N10 UNL     1     -34.892   5.398   5.696  1.00 20.00    -0.192 NA
HETATM    5 CL11 UNL     1     -33.767   6.062   2.268  1.00 20.00    -0.087 Cl
ENDROOT
BRANCH   3   6
HETATM    6  C8  UNL     1     -32.264   8.327   2.612  1.00 20.00    -0.005 C 
HETATM    7  C6  UNL     1     -31.864   7.866   1.202  1.00 20.00     0.015 C 
HETATM    8  C4  UNL     1     -31.807   9.151   0.387  1.00 20.00     0.001 C 
HETATM    9  C5  UNL     1     -32.994   9.937   0.913  1.00 20.00     0.001 C 
HETATM   10  C7  UNL     1     -33.004   9.665   2.415  1.00 20.00     0.015 C 
HETATM   11  C9  UNL     1     -31.026   8.567   3.440  1.00 20.00     0.021 C 
ENDBRANCH   3   6
TORSDOF 1
ENDMDL
MODEL 5
REMARK VINA RESULT:      -4.5      0.841      1.349
REMARK  1 active torsions:
REMARK  status: ('A' for Active; 'I' for Inactive)
REMARK    1  A    between atoms: C3_3  and  C8_8 
ROOT
HETATM    1  C1  UNL     1     -35.688  13.813  -4.911  1.00 20.00     0.089 C 
HETATM    2  C2  UNL     1     -35.746  15.002  -4.136  1.00 20.00     0.113 C 
HETATM    3  C3  UNL     1     -34.660  15.674  -3.725  1.00 20.00     0.030 C 
HETATM    4  N10 UNL     1     -35.649  12.841  -5.544  1.00 20.00    -0.192 NA
HETATM    5 CL11 UNL     1     -33.087  15.071  -4.157  1.00 20.00    -0.087 Cl
ENDROOT
BRANCH   3   6
HETATM    6  C8  UNL     1     -34.624  16.955  -2.894  1.00 20.00    -0.005 C 
HETATM    7  C6  UNL     1     -33.331  17.061  -2.070  1.00 20.00     0.015 C 
HETATM    8  C4  UNL     1     -33.040  18.554  -2.016  1.00 20.00     0.001 C 
HETATM    9  C5  UNL     1     -33.410  19.022  -3.412  1.00 20.00     0.001 C 
HETATM   10  C7  UNL     1     -34.663  18.224  -3.768  1.00 20.00     0.015 C 
HETATM   11  C9  UNL     1     -35.817  16.955  -1.972  1.00 20.00     0.021 C 
ENDBRANCH   3   6
TORSDOF 1
ENDMDL
MODEL 6
REMARK VINA RESULT:      -4.5     10.706     11.538
REMARK  1 active torsions:
REMARK  status: ('A' for Active; 'I' for Inactive)
REMARK    1  A    between atoms: C3_3  and  C8_8 
ROOT
HETATM    1  C1  UNL     1     -32.601   9.570   1.162  1.00 20.00     0.089 C 
HETATM    2  C2  UNL     1     -33.205   8.365   1.613  1.00 20.00     0.113 C 
HETATM    3  C3  UNL     1     -32.774   7.673   2.679  1.00 20.00     0.030 C 
HETATM    4  N10 UNL     1     -32.113  10.554   0.787  1.00 20.00    -0.192 NA
HETATM    5 CL11 UNL     1     -31.404   8.270   3.569  1.00 20.00    -0.087 Cl
ENDROOT
BRANCH   3   6
HETATM    6  C8  UNL     1     -33.356   6.376   3.236  1.00 20.00    -0.005 C 
HETATM    7  C6  UNL     1     -33.481   6.422   4.768  1.00 20.00     0.015 C 
HETATM    8  C4  UNL     1     -34.720   5.591   5.070  1.00 20.00     0.001 C 
HETATM    9  C5  UNL     1     -35.669   5.979   3.950  1.00 20.00     0.001 C 
HETATM   10  C7  UNL     1     -34.780   6.099   2.714  1.00 20.00     0.015 C 
HETATM   11  C9  UNL     1     -32.453   5.239   2.832  1.00 20.00     0.021 C 
ENDBRANCH   3   6
TORSDOF 1
ENDMDL
MODEL 7
REMARK VINA RESULT:      -4.3      2.903      4.404
REMARK  1 active torsions:
REMARK  status: ('A' for Active; 'I' for Inactive)
REMARK    1  A    between atoms: C3_3  and  C8_8 
ROOT
HETATM    1  C1  UNL     1     -35.480  17.405  -0.114  1.00 20.00     0.089 C 
HETATM    2  C2  UNL     1     -35.548  16.890  -1.437  1.00 20.00     0.113 C 
HETATM    3  C3  UNL     1     -34.506  16.872  -2.282  1.00 20.00     0.030 C 
HETATM    4  N10 UNL     1     -35.431  17.824   0.967  1.00 20.00    -0.192 NA
HETATM    5 CL11 UNL     1     -32.980  17.509  -1.744  1.00 20.00    -0.087 Cl
ENDROOT
BRANCH   3   6
HETATM    6  C8  UNL     1     -34.485  16.342  -3.713  1.00 20.00    -0.005 C 
HETATM    7  C6  UNL     1     -33.232  15.494  -3.986  1.00 20.00     0.015 C 
HETATM    8  C4  UNL     1     -33.702  14.436  -4.975  1.00 20.00     0.001 C 
HETATM    9  C5  UNL     1     -35.087  14.086  -4.465  1.00 20.00     0.001 C 
HETATM   10  C7  UNL     1     -35.682  15.419  -4.016  1.00 20.00     0.015 C 
HETATM   11  C9  UNL     1     -34.519  17.518  -4.656  1.00 20.00     0.021 C 
ENDBRANCH   3   6
TORSDOF 1
ENDMDL
MODEL 8
REMARK VINA RESULT:      -4.3      0.806      1.935
REMARK  1 active torsions:
REMARK  status: ('A' for Active; 'I' for Inactive)
REMARK    1  A    between atoms: C3_3  and  C8_8 
ROOT
HETATM    1  C1  UNL     1     -35.650  13.874  -4.834  1.00 20.00     0.089 C 
HETATM    2  C2  UNL     1     -35.724  15.039  -4.023  1.00 20.00     0.113 C 
HETATM    3  C3  UNL     1     -34.648  15.723  -3.607  1.00 20.00     0.030 C 
HETATM    4  N10 UNL     1     -35.597  12.922  -5.495  1.00 20.00    -0.192 NA
HETATM    5 CL11 UNL     1     -33.068  15.167  -4.075  1.00 20.00    -0.087 Cl
ENDROOT
BRANCH   3   6
HETATM    6  C8  UNL     1     -34.629  16.979  -2.739  1.00 20.00    -0.005 C 
HETATM    7  C6  UNL     1     -35.185  18.198  -3.493  1.00 20.00     0.015 C 
HETATM    8  C4  UNL     1     -35.866  19.029  -2.415  1.00 20.00     0.001 C 
HETATM    9  C5  UNL     1     -36.521  17.977  -1.539  1.00 20.00     0.001 C 
HETATM   10  C7  UNL     1     -35.506  16.837  -1.479  1.00 20.00     0.015 C 
HETATM   11  C9  UNL     1     -33.205  17.246  -2.320  1.00 20.00     0.021 C 
ENDBRANCH   3   6
TORSDOF 1
ENDMDL
MODEL 9
REMARK VINA RESULT:      -4.2      2.911      4.671
REMARK  1 active torsions:
REMARK  status: ('A' for Active; 'I' for Inactive)
REMARK    1  A    between atoms: C3_3  and  C8_8 
ROOT
HETATM    1  C1  UNL     1     -34.999  16.891  -1.606  1.00 20.00     0.089 C 
HETATM    2  C2  UNL     1     -34.194  16.332  -2.635  1.00 20.00     0.113 C 
HETATM    3  C3  UNL     1     -34.695  15.697  -3.706  1.00 20.00     0.030 C 
HETATM    4  N10 UNL     1     -35.650  17.349  -0.761  1.00 20.00    -0.192 NA
HETATM    5 CL11 UNL     1     -36.420  15.543  -3.859  1.00 20.00    -0.087 Cl
ENDROOT
BRANCH   3   6
HETATM    6  C8  UNL     1     -33.913  15.069  -4.857  1.00 20.00    -0.005 C 
HETATM    7  C6  UNL     1     -34.806  14.168  -5.725  1.00 20.00     0.015 C 
HETATM    8  C4  UNL     1     -34.238  14.317  -7.130  1.00 20.00     0.001 C 
HETATM    9  C5  UNL     1     -33.891  15.792  -7.201  1.00 20.00     0.001 C 
HETATM   10  C7  UNL     1     -33.331  16.124  -5.819  1.00 20.00     0.015 C 
HETATM   11  C9  UNL     1     -32.783  14.257  -4.275  1.00 20.00     0.021 C 
ENDBRANCH   3   6
TORSDOF 1
ENDMDL
