MODEL 1
REMARK VINA RESULT:      -5.2      0.000      0.000
REMARK  3 active torsions:
REMARK  status: ('A' for Active; 'I' for Inactive)
REMARK    1  A    between atoms: C3_3  and  C6_6 
REMARK    2  A    between atoms: C5_5  and  C6_6 
REMARK    3  A    between atoms: C5_5  and  O7_7 
ROOT
HETATM    1  C6  UNL     1     -34.118   6.894   4.117  1.00 20.00     0.110 C 
HETATM    2 CL8  UNL     1     -33.379   7.505   5.644  1.00 20.00    -0.122 Cl
ENDROOT
BRANCH   1   3
HETATM    3  C3  UNL     1     -34.915   5.665   4.387  1.00 20.00     0.006 A 
HETATM    4  C1  UNL     1     -34.275   4.308   4.281  1.00 20.00     0.006 A 
HETATM    5  C2  UNL     1     -34.659   4.855   5.628  1.00 20.00     0.006 A 
ENDBRANCH   1   3
BRANCH   1   6
HETATM    6  C5  UNL     1     -32.993   6.659   3.094  1.00 20.00     0.187 C 
BRANCH   6   7
HETATM    7  O7  UNL     1     -32.010   7.683   3.181  1.00 20.00    -0.394 OA
HETATM    8  C4  UNL     1     -32.084   8.571   2.075  1.00 20.00     0.201 C 
ENDBRANCH   6   7
ENDBRANCH   1   6
TORSDOF 3
ENDMDL
MODEL 2
REMARK VINA RESULT:      -5.2      1.756      2.117
REMARK  3 active torsions:
REMARK  status: ('A' for Active; 'I' for Inactive)
REMARK    1  A    between atoms: C3_3  and  C6_6 
REMARK    2  A    between atoms: C5_5  and  C6_6 
REMARK    3  A    between atoms: C5_5  and  O7_7 
ROOT
HETATM    1  C6  UNL     1     -32.971   6.867   3.419  1.00 20.00     0.110 C 
HETATM    2 CL8  UNL     1     -33.117   5.212   2.719  1.00 20.00    -0.122 Cl
ENDROOT
BRANCH   1   3
HETATM    3  C3  UNL     1     -34.044   7.095   4.428  1.00 20.00     0.006 A 
HETATM    4  C1  UNL     1     -34.408   6.011   5.404  1.00 20.00     0.006 A 
HETATM    5  C2  UNL     1     -33.694   7.244   5.883  1.00 20.00     0.006 A 
ENDBRANCH   1   3
BRANCH   1   6
HETATM    6  C5  UNL     1     -33.013   7.886   2.268  1.00 20.00     0.187 C 
BRANCH   6   7
HETATM    7  O7  UNL     1     -31.701   8.318   1.929  1.00 20.00    -0.394 OA
HETATM    8  C4  UNL     1     -31.695   9.068   0.722  1.00 20.00     0.201 C 
ENDBRANCH   6   7
ENDBRANCH   1   6
TORSDOF 3
ENDMDL
MODEL 3
REMARK VINA RESULT:      -5.0      0.923      1.201
REMARK  3 active torsions:
REMARK  status: ('A' for Active; 'I' for Inactive)
REMARK    1  A    between atoms: C3_3  and  C6_6 
REMARK    2  A    between atoms: C5_5  and  C6_6 
REMARK    3  A    between atoms: C5_5  and  O7_7 
ROOT
HETATM    1  C6  UNL     1     -33.546   7.374   4.171  1.00 20.00     0.110 C 
HETATM    2 CL8  UNL     1     -33.353   7.514   5.958  1.00 20.00    -0.122 Cl
ENDROOT
BRANCH   1   3
HETATM    3  C3  UNL     1     -34.020   6.009   3.810  1.00 20.00     0.006 A 
HETATM    4  C1  UNL     1     -34.609   5.109   4.860  1.00 20.00     0.006 A 
HETATM    5  C2  UNL     1     -35.491   5.698   3.795  1.00 20.00     0.006 A 
ENDBRANCH   1   3
BRANCH   1   6
HETATM    6  C5  UNL     1     -32.205   7.732   3.508  1.00 20.00     0.187 C 
BRANCH   6   7
HETATM    7  O7  UNL     1     -32.340   7.787   2.093  1.00 20.00    -0.394 OA
HETATM    8  C4  UNL     1     -32.213   9.116   1.609  1.00 20.00     0.201 C 
ENDBRANCH   6   7
ENDBRANCH   1   6
TORSDOF 3
ENDMDL
MODEL 4
REMARK VINA RESULT:      -4.6      2.260      4.026
REMARK  3 active torsions:
REMARK  status: ('A' for Active; 'I' for Inactive)
REMARK    1  A    between atoms: C3_3  and  C6_6 
REMARK    2  A    between atoms: C5_5  and  C6_6 
REMARK    3  A    between atoms: C5_5  and  O7_7 
ROOT
HETATM    1  C6  UNL     1     -33.984   6.249   2.770  1.00 20.00     0.110 C 
HETATM    2 CL8  UNL     1     -32.816   4.878   2.678  1.00 20.00    -0.122 Cl
ENDROOT
BRANCH   1   3
HETATM    3  C3  UNL     1     -33.281   7.498   3.173  1.00 20.00     0.006 A 
HETATM    4  C1  UNL     1     -31.781   7.581   3.100  1.00 20.00     0.006 A 
HETATM    5  C2  UNL     1     -32.625   8.366   2.134  1.00 20.00     0.006 A 
ENDBRANCH   1   3
BRANCH   1   6
HETATM    6  C5  UNL     1     -35.111   5.862   3.743  1.00 20.00     0.187 C 
BRANCH   6   7
HETATM    7  O7  UNL     1     -34.761   4.698   4.482  1.00 20.00    -0.394 OA
HETATM    8  C4  UNL     1     -34.556   4.995   5.856  1.00 20.00     0.201 C 
ENDBRANCH   6   7
ENDBRANCH   1   6
TORSDOF 3
ENDMDL
MODEL 5
REMARK VINA RESULT:      -4.6      1.793      3.751
REMARK  3 active torsions:
REMARK  status: ('A' for Active; 'I' for Inactive)
REMARK    1  A    between atoms: C3_3  and  C6_6 
REMARK    2  A    between atoms: C5_5  and  C6_6 
REMARK    3  A    between atoms: C5_5  and  O7_7 
ROOT
HETATM    1  C6  UNL     1     -33.557   6.748   4.250  1.00 20.00     0.110 C 
HETATM    2 CL8  UNL     1     -33.705   7.318   5.954  1.00 20.00    -0.122 Cl
ENDROOT
BRANCH   1   3
HETATM    3  C3  UNL     1     -33.099   7.861   3.373  1.00 20.00     0.006 A 
HETATM    4  C1  UNL     1     -31.661   8.299   3.393  1.00 20.00     0.006 A 
HETATM    5  C2  UNL     1     -32.210   7.578   2.194  1.00 20.00     0.006 A 
ENDBRANCH   1   3
BRANCH   1   6
HETATM    6  C5  UNL     1     -34.913   6.168   3.814  1.00 20.00     0.187 C 
BRANCH   6   7
HETATM    7  O7  UNL     1     -35.198   4.965   4.517  1.00 20.00    -0.394 OA
HETATM    8  C4  UNL     1     -34.151   4.016   4.370  1.00 20.00     0.201 C 
ENDBRANCH   6   7
ENDBRANCH   1   6
TORSDOF 3
ENDMDL
MODEL 6
REMARK VINA RESULT:      -4.5      1.701      4.519
REMARK  3 active torsions:
REMARK  status: ('A' for Active; 'I' for Inactive)
REMARK    1  A    between atoms: C3_3  and  C6_6 
REMARK    2  A    between atoms: C5_5  and  C6_6 
REMARK    3  A    between atoms: C5_5  and  O7_7 
ROOT
HETATM    1  C6  UNL     1     -32.230   7.833   2.248  1.00 20.00     0.110 C 
HETATM    2 CL8  UNL     1     -31.437   8.508   3.719  1.00 20.00    -0.122 Cl
ENDROOT
BRANCH   1   3
HETATM    3  C3  UNL     1     -33.010   8.894   1.551  1.00 20.00     0.006 A 
HETATM    4  C1  UNL     1     -32.397  10.244   1.302  1.00 20.00     0.006 A 
HETATM    5  C2  UNL     1     -32.643   9.307   0.152  1.00 20.00     0.006 A 
ENDBRANCH   1   3
BRANCH   1   6
HETATM    6  C5  UNL     1     -33.102   6.639   2.672  1.00 20.00     0.187 C 
BRANCH   6   7
HETATM    7  O7  UNL     1     -33.907   6.975   3.795  1.00 20.00    -0.394 OA
HETATM    8  C4  UNL     1     -34.750   5.896   4.174  1.00 20.00     0.201 C 
ENDBRANCH   6   7
ENDBRANCH   1   6
TORSDOF 3
ENDMDL
MODEL 7
REMARK VINA RESULT:      -4.0      2.074      2.779
REMARK  3 active torsions:
REMARK  status: ('A' for Active; 'I' for Inactive)
REMARK    1  A    between atoms: C3_3  and  C6_6 
REMARK    2  A    between atoms: C5_5  and  C6_6 
REMARK    3  A    between atoms: C5_5  and  O7_7 
ROOT
HETATM    1  C6  UNL     1     -32.698   8.142   2.505  1.00 20.00     0.110 C 
HETATM    2 CL8  UNL     1     -31.592   8.066   3.926  1.00 20.00    -0.122 Cl
ENDROOT
BRANCH   1   3
HETATM    3  C3  UNL     1     -33.303   6.805   2.251  1.00 20.00     0.006 A 
HETATM    4  C1  UNL     1     -32.892   5.618   3.078  1.00 20.00     0.006 A 
HETATM    5  C2  UNL     1     -34.265   6.210   3.243  1.00 20.00     0.006 A 
ENDBRANCH   1   3
BRANCH   1   6
HETATM    6  C5  UNL     1     -31.903   8.671   1.299  1.00 20.00     0.187 C 
BRANCH   6   7
HETATM    7  O7  UNL     1     -32.556   9.793   0.717  1.00 20.00    -0.394 OA
HETATM    8  C4  UNL     1     -33.195   9.449  -0.504  1.00 20.00     0.201 C 
ENDBRANCH   6   7
ENDBRANCH   1   6
TORSDOF 3
ENDMDL
MODEL 8
REMARK VINA RESULT:      -3.7     12.184     12.727
REMARK  3 active torsions:
REMARK  status: ('A' for Active; 'I' for Inactive)
REMARK    1  A    between atoms: C3_3  and  C6_6 
REMARK    2  A    between atoms: C5_5  and  C6_6 
REMARK    3  A    between atoms: C5_5  and  O7_7 
ROOT
HETATM    1  C6  UNL     1     -35.302  14.786  -5.188  1.00 20.00     0.110 C 
HETATM    2 CL8  UNL     1     -34.087  14.902  -6.515  1.00 20.00    -0.122 Cl
ENDROOT
BRANCH   1   3
HETATM    3  C3  UNL     1     -34.633  14.923  -3.864  1.00 20.00     0.006 A 
HETATM    4  C1  UNL     1     -33.598  15.991  -3.646  1.00 20.00     0.006 A 
HETATM    5  C2  UNL     1     -34.941  16.099  -2.979  1.00 20.00     0.006 A 
ENDBRANCH   1   3
BRANCH   1   6
HETATM    6  C5  UNL     1     -36.057  13.454  -5.336  1.00 20.00     0.187 C 
BRANCH   6   7
HETATM    7  O7  UNL     1     -37.416  13.598  -4.943  1.00 20.00    -0.394 OA
HETATM    8  C4  UNL     1     -38.018  14.731  -5.554  1.00 20.00     0.201 C 
ENDBRANCH   6   7
ENDBRANCH   1   6
TORSDOF 3
ENDMDL
MODEL 9
REMARK VINA RESULT:      -3.7     12.172     12.601
REMARK  3 active torsions:
REMARK  status: ('A' for Active; 'I' for Inactive)
REMARK    1  A    between atoms: C3_3  and  C6_6 
REMARK    2  A    between atoms: C5_5  and  C6_6 
REMARK    3  A    between atoms: C5_5  and  O7_7 
ROOT
HETATM    1  C6  UNL     1     -34.480  16.080  -4.469  1.00 20.00     0.110 C 
HETATM    2 CL8  UNL     1     -33.437  17.414  -5.091  1.00 20.00    -0.122 Cl
ENDROOT
BRANCH   1   3
HETATM    3  C3  UNL     1     -34.299  15.929  -2.998  1.00 20.00     0.006 A 
HETATM    4  C1  UNL     1     -33.759  17.069  -2.180  1.00 20.00     0.006 A 
HETATM    5  C2  UNL     1     -35.201  16.664  -2.046  1.00 20.00     0.006 A 
ENDBRANCH   1   3
BRANCH   1   6
HETATM    6  C5  UNL     1     -34.138  14.796  -5.244  1.00 20.00     0.187 C 
BRANCH   6   7
HETATM    7  O7  UNL     1     -34.777  13.668  -4.658  1.00 20.00    -0.394 OA
HETATM    8  C4  UNL     1     -36.027  13.398  -5.276  1.00 20.00     0.201 C 
ENDBRANCH   6   7
ENDBRANCH   1   6
TORSDOF 3
ENDMDL
