MODEL 1
REMARK VINA RESULT:      -4.7      0.000      0.000
REMARK  3 active torsions:
REMARK  status: ('A' for Active; 'I' for Inactive)
REMARK    1  A    between atoms: C3_3  and  C6_6 
REMARK    2  A    between atoms: C5_5  and  C6_6 
REMARK    3  A    between atoms: C5_5  and  O7_7 
ROOT
HETATM    1  C6  UNL     1     -33.868   7.287   4.008  1.00 20.00     0.110 C 
HETATM    2 CL8  UNL     1     -33.590   7.285   5.790  1.00 20.00    -0.122 Cl
ENDROOT
BRANCH   1   3
HETATM    3  C3  UNL     1     -32.567   7.201   3.288  1.00 20.00     0.006 A 
HETATM    4  C1  UNL     1     -32.303   8.071   2.091  1.00 20.00     0.006 A 
HETATM    5  C2  UNL     1     -31.575   8.327   3.381  1.00 20.00     0.006 A 
ENDBRANCH   1   3
BRANCH   1   6
HETATM    6  C5  UNL     1     -34.819   6.132   3.654  1.00 20.00     0.187 C 
BRANCH   6   7
HETATM    7  O7  UNL     1     -34.904   5.202   4.727  1.00 20.00    -0.394 OA
HETATM    8  C4  UNL     1     -34.203   4.002   4.431  1.00 20.00     0.201 C 
ENDBRANCH   6   7
ENDBRANCH   1   6
TORSDOF 3
ENDMDL
MODEL 2
REMARK VINA RESULT:      -4.6      2.300      4.021
REMARK  3 active torsions:
REMARK  status: ('A' for Active; 'I' for Inactive)
REMARK    1  A    between atoms: C3_3  and  C6_6 
REMARK    2  A    between atoms: C5_5  and  C6_6 
REMARK    3  A    between atoms: C5_5  and  O7_7 
ROOT
HETATM    1  C6  UNL     1     -34.046   6.154   3.111  1.00 20.00     0.110 C 
HETATM    2 CL8  UNL     1     -32.957   4.783   2.676  1.00 20.00    -0.122 Cl
ENDROOT
BRANCH   1   3
HETATM    3  C3  UNL     1     -34.913   5.771   4.260  1.00 20.00     0.006 A 
HETATM    4  C1  UNL     1     -34.603   4.543   5.069  1.00 20.00     0.006 A 
HETATM    5  C2  UNL     1     -34.406   5.907   5.669  1.00 20.00     0.006 A 
ENDBRANCH   1   3
BRANCH   1   6
HETATM    6  C5  UNL     1     -33.186   7.394   3.404  1.00 20.00     0.187 C 
BRANCH   6   7
HETATM    7  O7  UNL     1     -32.173   7.551   2.418  1.00 20.00    -0.394 OA
HETATM    8  C4  UNL     1     -32.247   8.826   1.795  1.00 20.00     0.201 C 
ENDBRANCH   6   7
ENDBRANCH   1   6
TORSDOF 3
ENDMDL
MODEL 3
REMARK VINA RESULT:      -4.4      1.835      3.864
REMARK  3 active torsions:
REMARK  status: ('A' for Active; 'I' for Inactive)
REMARK    1  A    between atoms: C3_3  and  C6_6 
REMARK    2  A    between atoms: C5_5  and  C6_6 
REMARK    3  A    between atoms: C5_5  and  O7_7 
ROOT
HETATM    1  C6  UNL     1     -33.357   6.610   4.297  1.00 20.00     0.110 C 
HETATM    2 CL8  UNL     1     -33.354   7.815   5.639  1.00 20.00    -0.122 Cl
ENDROOT
BRANCH   1   3
HETATM    3  C3  UNL     1     -34.536   5.708   4.423  1.00 20.00     0.006 A 
HETATM    4  C1  UNL     1     -34.367   4.218   4.315  1.00 20.00     0.006 A 
HETATM    5  C2  UNL     1     -34.699   4.842   5.642  1.00 20.00     0.006 A 
ENDBRANCH   1   3
BRANCH   1   6
HETATM    6  C5  UNL     1     -33.327   7.363   2.956  1.00 20.00     0.187 C 
BRANCH   6   7
HETATM    7  O7  UNL     1     -32.058   7.970   2.748  1.00 20.00    -0.394 OA
HETATM    8  C4  UNL     1     -32.087   8.870   1.649  1.00 20.00     0.201 C 
ENDBRANCH   6   7
ENDBRANCH   1   6
TORSDOF 3
ENDMDL
MODEL 4
REMARK VINA RESULT:      -4.2      1.998      2.649
REMARK  3 active torsions:
REMARK  status: ('A' for Active; 'I' for Inactive)
REMARK    1  A    between atoms: C3_3  and  C6_6 
REMARK    2  A    between atoms: C5_5  and  C6_6 
REMARK    3  A    between atoms: C5_5  and  O7_7 
ROOT
HETATM    1  C6  UNL     1     -32.626   8.315   2.424  1.00 20.00     0.110 C 
HETATM    2 CL8  UNL     1     -31.381   8.319   3.730  1.00 20.00    -0.122 Cl
ENDROOT
BRANCH   1   3
HETATM    3  C3  UNL     1     -32.078   8.955   1.195  1.00 20.00     0.006 A 
HETATM    4  C1  UNL     1     -32.972   9.223   0.017  1.00 20.00     0.006 A 
HETATM    5  C2  UNL     1     -32.456  10.367   0.845  1.00 20.00     0.006 A 
ENDBRANCH   1   3
BRANCH   1   6
HETATM    6  C5  UNL     1     -33.087   6.868   2.184  1.00 20.00     0.187 C 
BRANCH   6   7
HETATM    7  O7  UNL     1     -33.303   6.196   3.419  1.00 20.00    -0.394 OA
HETATM    8  C4  UNL     1     -34.686   5.967   3.651  1.00 20.00     0.201 C 
ENDBRANCH   6   7
ENDBRANCH   1   6
TORSDOF 3
ENDMDL
MODEL 5
REMARK VINA RESULT:      -4.1      2.426      4.061
REMARK  3 active torsions:
REMARK  status: ('A' for Active; 'I' for Inactive)
REMARK    1  A    between atoms: C3_3  and  C6_6 
REMARK    2  A    between atoms: C5_5  and  C6_6 
REMARK    3  A    between atoms: C5_5  and  O7_7 
ROOT
HETATM    1  C6  UNL     1     -32.709   7.279   3.338  1.00 20.00     0.110 C 
HETATM    2 CL8  UNL     1     -31.622   8.385   4.259  1.00 20.00    -0.122 Cl
ENDROOT
BRANCH   1   3
HETATM    3  C3  UNL     1     -34.028   7.174   4.023  1.00 20.00     0.006 A 
HETATM    4  C1  UNL     1     -34.825   5.902   3.943  1.00 20.00     0.006 A 
HETATM    5  C2  UNL     1     -34.182   6.305   5.240  1.00 20.00     0.006 A 
ENDBRANCH   1   3
BRANCH   1   6
HETATM    6  C5  UNL     1     -32.830   7.793   1.894  1.00 20.00     0.187 C 
BRANCH   6   7
HETATM    7  O7  UNL     1     -31.931   8.872   1.667  1.00 20.00    -0.394 OA
HETATM    8  C4  UNL     1     -32.583   9.967   1.038  1.00 20.00     0.201 C 
ENDBRANCH   6   7
ENDBRANCH   1   6
TORSDOF 3
ENDMDL
MODEL 6
REMARK VINA RESULT:      -4.0      1.897      3.662
REMARK  3 active torsions:
REMARK  status: ('A' for Active; 'I' for Inactive)
REMARK    1  A    between atoms: C3_3  and  C6_6 
REMARK    2  A    between atoms: C5_5  and  C6_6 
REMARK    3  A    between atoms: C5_5  and  O7_7 
ROOT
HETATM    1  C6  UNL     1     -32.883   6.925   4.259  1.00 20.00     0.110 C 
HETATM    2 CL8  UNL     1     -33.686   7.658   5.698  1.00 20.00    -0.122 Cl
ENDROOT
BRANCH   1   3
HETATM    3  C3  UNL     1     -33.868   6.130   3.474  1.00 20.00     0.006 A 
HETATM    4  C1  UNL     1     -33.466   4.820   2.855  1.00 20.00     0.006 A 
HETATM    5  C2  UNL     1     -34.411   4.840   4.025  1.00 20.00     0.006 A 
ENDBRANCH   1   3
BRANCH   1   6
HETATM    6  C5  UNL     1     -32.231   8.046   3.432  1.00 20.00     0.187 C 
BRANCH   6   7
HETATM    7  O7  UNL     1     -32.736   8.050   2.102  1.00 20.00    -0.394 OA
HETATM    8  C4  UNL     1     -32.273   9.179   1.374  1.00 20.00     0.201 C 
ENDBRANCH   6   7
ENDBRANCH   1   6
TORSDOF 3
ENDMDL
MODEL 7
REMARK VINA RESULT:      -3.9      1.968      2.667
REMARK  3 active torsions:
REMARK  status: ('A' for Active; 'I' for Inactive)
REMARK    1  A    between atoms: C3_3  and  C6_6 
REMARK    2  A    between atoms: C5_5  and  C6_6 
REMARK    3  A    between atoms: C5_5  and  O7_7 
ROOT
HETATM    1  C6  UNL     1     -33.071   6.873   3.544  1.00 20.00     0.110 C 
HETATM    2 CL8  UNL     1     -32.567   8.214   2.447  1.00 20.00    -0.122 Cl
ENDROOT
BRANCH   1   3
HETATM    3  C3  UNL     1     -33.909   7.408   4.653  1.00 20.00     0.006 A 
HETATM    4  C1  UNL     1     -34.297   6.525   5.806  1.00 20.00     0.006 A 
HETATM    5  C2  UNL     1     -33.308   7.638   6.012  1.00 20.00     0.006 A 
ENDBRANCH   1   3
BRANCH   1   6
HETATM    6  C5  UNL     1     -33.800   5.803   2.714  1.00 20.00     0.187 C 
BRANCH   6   7
HETATM    7  O7  UNL     1     -33.264   4.511   2.974  1.00 20.00    -0.394 OA
HETATM    8  C4  UNL     1     -33.997   3.840   3.990  1.00 20.00     0.201 C 
ENDBRANCH   6   7
ENDBRANCH   1   6
TORSDOF 3
ENDMDL
MODEL 8
REMARK VINA RESULT:      -3.9      2.235      2.566
REMARK  3 active torsions:
REMARK  status: ('A' for Active; 'I' for Inactive)
REMARK    1  A    between atoms: C3_3  and  C6_6 
REMARK    2  A    between atoms: C5_5  and  C6_6 
REMARK    3  A    between atoms: C5_5  and  O7_7 
ROOT
HETATM    1  C6  UNL     1     -32.286   7.204   2.842  1.00 20.00     0.110 C 
HETATM    2 CL8  UNL     1     -33.064   5.591   2.628  1.00 20.00    -0.122 Cl
ENDROOT
BRANCH   1   3
HETATM    3  C3  UNL     1     -32.604   8.082   1.681  1.00 20.00     0.006 A 
HETATM    4  C1  UNL     1     -32.286   9.550   1.730  1.00 20.00     0.006 A 
HETATM    5  C2  UNL     1     -31.496   8.641   0.830  1.00 20.00     0.006 A 
ENDBRANCH   1   3
BRANCH   1   6
HETATM    6  C5  UNL     1     -32.749   7.802   4.181  1.00 20.00     0.187 C 
BRANCH   6   7
HETATM    7  O7  UNL     1     -33.993   7.242   4.581  1.00 20.00    -0.394 OA
HETATM    8  C4  UNL     1     -34.003   6.934   5.968  1.00 20.00     0.201 C 
ENDBRANCH   6   7
ENDBRANCH   1   6
TORSDOF 3
ENDMDL
MODEL 9
REMARK VINA RESULT:      -3.4     11.695     11.936
REMARK  3 active torsions:
REMARK  status: ('A' for Active; 'I' for Inactive)
REMARK    1  A    between atoms: C3_3  and  C6_6 
REMARK    2  A    between atoms: C5_5  and  C6_6 
REMARK    3  A    between atoms: C5_5  and  O7_7 
ROOT
HETATM    1  C6  UNL     1     -34.321  15.223  -3.649  1.00 20.00     0.110 C 
HETATM    2 CL8  UNL     1     -32.946  15.269  -4.816  1.00 20.00    -0.122 Cl
ENDROOT
BRANCH   1   3
HETATM    3  C3  UNL     1     -34.558  16.581  -3.085  1.00 20.00     0.006 A 
HETATM    4  C1  UNL     1     -35.232  16.741  -1.751  1.00 20.00     0.006 A 
HETATM    5  C2  UNL     1     -33.769  17.053  -1.895  1.00 20.00     0.006 A 
ENDBRANCH   1   3
BRANCH   1   6
HETATM    6  C5  UNL     1     -35.558  14.654  -4.365  1.00 20.00     0.187 C 
BRANCH   6   7
HETATM    7  O7  UNL     1     -35.276  13.377  -4.923  1.00 20.00    -0.394 OA
HETATM    8  C4  UNL     1     -35.639  13.317  -6.295  1.00 20.00     0.201 C 
ENDBRANCH   6   7
ENDBRANCH   1   6
TORSDOF 3
ENDMDL
