MODEL 1
REMARK VINA RESULT:      -5.5      0.000      0.000
REMARK  3 active torsions:
REMARK  status: ('A' for Active; 'I' for Inactive)
REMARK    1  A    between atoms: C3_3  and  C6_6 
REMARK    2  A    between atoms: C4_4  and  O8_8 
REMARK    3  A    between atoms: C6_6  and  C7_7 
ROOT
HETATM    1  C1  UNL     1     -34.076   6.698   4.926  1.00 20.00     0.036 C 
HETATM    2  C2  UNL     1     -33.962   5.894   2.954  1.00 20.00     0.036 C 
HETATM    3  C3  UNL     1     -33.634   7.279   3.561  1.00 20.00    -0.010 C 
HETATM    4  C4  UNL     1     -34.923   5.668   4.144  1.00 20.00     0.118 C 
ENDROOT
BRANCH   3   5
HETATM    5  C6  UNL     1     -32.196   7.743   3.456  1.00 20.00     0.004 C 
BRANCH   5   6
HETATM    6  C7  UNL     1     -31.829   8.128   2.022  1.00 20.00    -0.004 C 
HETATM    7  C5  UNL     1     -32.534   9.400   1.583  1.00 20.00     0.005 C 
ENDBRANCH   5   6
ENDBRANCH   3   5
BRANCH   4   8
HETATM    8  O8  UNL     1     -34.954   4.338   4.690  1.00 20.00    -0.396 OA
HETATM    9  H22 UNL     1     -35.115   3.749   3.941  1.00 20.00     0.210 HD
ENDBRANCH   4   8
TORSDOF 3
ENDMDL
MODEL 2
REMARK VINA RESULT:      -4.9      0.975      1.478
REMARK  3 active torsions:
REMARK  status: ('A' for Active; 'I' for Inactive)
REMARK    1  A    between atoms: C3_3  and  C6_6 
REMARK    2  A    between atoms: C4_4  and  O8_8 
REMARK    3  A    between atoms: C6_6  and  C7_7 
ROOT
HETATM    1  C1  UNL     1     -33.575   6.336   2.600  1.00 20.00     0.036 C 
HETATM    2  C2  UNL     1     -33.579   7.163   4.567  1.00 20.00     0.036 C 
HETATM    3  C3  UNL     1     -32.567   7.201   3.397  1.00 20.00    -0.010 C 
HETATM    4  C4  UNL     1     -34.142   5.858   3.957  1.00 20.00     0.118 C 
ENDROOT
BRANCH   3   5
HETATM    5  C6  UNL     1     -32.244   8.566   2.823  1.00 20.00     0.004 C 
BRANCH   5   6
HETATM    6  C7  UNL     1     -31.832   8.478   1.353  1.00 20.00    -0.004 C 
HETATM    7  C5  UNL     1     -32.477   9.574   0.522  1.00 20.00     0.005 C 
ENDBRANCH   5   6
ENDBRANCH   3   5
BRANCH   4   8
HETATM    8  O8  UNL     1     -35.569   5.695   4.018  1.00 20.00    -0.396 OA
HETATM    9  H22 UNL     1     -35.755   4.841   3.606  1.00 20.00     0.210 HD
ENDBRANCH   4   8
TORSDOF 3
ENDMDL
MODEL 3
REMARK VINA RESULT:      -4.7      2.496      4.134
REMARK  3 active torsions:
REMARK  status: ('A' for Active; 'I' for Inactive)
REMARK    1  A    between atoms: C3_3  and  C6_6 
REMARK    2  A    between atoms: C4_4  and  O8_8 
REMARK    3  A    between atoms: C6_6  and  C7_7 
ROOT
HETATM    1  C1  UNL     1     -31.904   8.019   3.864  1.00 20.00     0.036 C 
HETATM    2  C2  UNL     1     -33.583   7.492   2.658  1.00 20.00     0.036 C 
HETATM    3  C3  UNL     1     -33.037   6.972   4.009  1.00 20.00    -0.010 C 
HETATM    4  C4  UNL     1     -32.152   7.985   2.339  1.00 20.00     0.118 C 
ENDROOT
BRANCH   3   5
HETATM    5  C6  UNL     1     -33.947   7.119   5.210  1.00 20.00     0.004 C 
BRANCH   5   6
HETATM    6  C7  UNL     1     -34.411   5.761   5.739  1.00 20.00    -0.004 C 
HETATM    7  C5  UNL     1     -34.617   4.761   4.614  1.00 20.00     0.005 C 
ENDBRANCH   5   6
ENDBRANCH   3   5
BRANCH   4   8
HETATM    8  O8  UNL     1     -32.054   9.249   1.660  1.00 20.00    -0.396 OA
HETATM    9  H22 UNL     1     -32.113   9.924   2.349  1.00 20.00     0.210 HD
ENDBRANCH   4   8
TORSDOF 3
ENDMDL
MODEL 4
REMARK VINA RESULT:      -4.4      2.850      4.477
REMARK  3 active torsions:
REMARK  status: ('A' for Active; 'I' for Inactive)
REMARK    1  A    between atoms: C3_3  and  C6_6 
REMARK    2  A    between atoms: C4_4  and  O8_8 
REMARK    3  A    between atoms: C6_6  and  C7_7 
ROOT
HETATM    1  C1  UNL     1     -33.080   9.702   1.650  1.00 20.00     0.036 C 
HETATM    2  C2  UNL     1     -31.603   8.513   0.673  1.00 20.00     0.036 C 
HETATM    3  C3  UNL     1     -31.755   9.050   2.116  1.00 20.00    -0.010 C 
HETATM    4  C4  UNL     1     -32.517   9.671   0.211  1.00 20.00     0.118 C 
ENDROOT
BRANCH   3   5
HETATM    5  C6  UNL     1     -31.860   8.016   3.218  1.00 20.00     0.004 C 
BRANCH   5   6
HETATM    6  C7  UNL     1     -32.884   6.932   2.880  1.00 20.00    -0.004 C 
HETATM    7  C5  UNL     1     -33.924   6.779   3.977  1.00 20.00     0.005 C 
ENDBRANCH   5   6
ENDBRANCH   3   5
BRANCH   4   8
HETATM    8  O8  UNL     1     -33.462   9.357  -0.826  1.00 20.00    -0.396 OA
HETATM    9  H22 UNL     1     -34.335   9.525  -0.447  1.00 20.00     0.210 HD
ENDBRANCH   4   8
TORSDOF 3
ENDMDL
MODEL 5
REMARK VINA RESULT:      -4.3      2.628      4.233
REMARK  3 active torsions:
REMARK  status: ('A' for Active; 'I' for Inactive)
REMARK    1  A    between atoms: C3_3  and  C6_6 
REMARK    2  A    between atoms: C4_4  and  O8_8 
REMARK    3  A    between atoms: C6_6  and  C7_7 
ROOT
HETATM    1  C1  UNL     1     -33.388   8.026   1.790  1.00 20.00     0.036 C 
HETATM    2  C2  UNL     1     -31.679   7.804   3.048  1.00 20.00     0.036 C 
HETATM    3  C3  UNL     1     -33.193   7.563   3.255  1.00 20.00    -0.010 C 
HETATM    4  C4  UNL     1     -32.053   8.795   1.922  1.00 20.00     0.118 C 
ENDROOT
BRANCH   3   5
HETATM    5  C6  UNL     1     -33.616   6.145   3.580  1.00 20.00     0.004 C 
BRANCH   5   6
HETATM    6  C7  UNL     1     -34.435   6.080   4.870  1.00 20.00    -0.004 C 
HETATM    7  C5  UNL     1     -33.921   7.059   5.912  1.00 20.00     0.005 C 
ENDBRANCH   5   6
ENDBRANCH   3   5
BRANCH   4   8
HETATM    8  O8  UNL     1     -31.206   8.783   0.760  1.00 20.00    -0.396 OA
HETATM    9  H22 UNL     1     -31.057   9.710   0.533  1.00 20.00     0.210 HD
ENDBRANCH   4   8
TORSDOF 3
ENDMDL
MODEL 6
REMARK VINA RESULT:      -4.3      2.226      4.086
REMARK  3 active torsions:
REMARK  status: ('A' for Active; 'I' for Inactive)
REMARK    1  A    between atoms: C3_3  and  C6_6 
REMARK    2  A    between atoms: C4_4  and  O8_8 
REMARK    3  A    between atoms: C6_6  and  C7_7 
ROOT
HETATM    1  C1  UNL     1     -32.770   6.056   2.916  1.00 20.00     0.036 C 
HETATM    2  C2  UNL     1     -33.813   7.871   3.328  1.00 20.00     0.036 C 
HETATM    3  C3  UNL     1     -34.258   6.476   2.829  1.00 20.00    -0.010 C 
HETATM    4  C4  UNL     1     -32.405   7.552   2.775  1.00 20.00     0.118 C 
ENDROOT
BRANCH   3   5
HETATM    5  C6  UNL     1     -35.229   5.717   3.711  1.00 20.00     0.004 C 
BRANCH   5   6
HETATM    6  C7  UNL     1     -34.515   4.671   4.567  1.00 20.00    -0.004 C 
HETATM    7  C5  UNL     1     -34.540   5.038   6.041  1.00 20.00     0.005 C 
ENDBRANCH   5   6
ENDBRANCH   3   5
BRANCH   4   8
HETATM    8  O8  UNL     1     -31.295   8.004   3.570  1.00 20.00    -0.396 OA
HETATM    9  H22 UNL     1     -31.247   8.959   3.438  1.00 20.00     0.210 HD
ENDBRANCH   4   8
TORSDOF 3
ENDMDL
MODEL 7
REMARK VINA RESULT:      -4.2      1.752      2.626
REMARK  3 active torsions:
REMARK  status: ('A' for Active; 'I' for Inactive)
REMARK    1  A    between atoms: C3_3  and  C6_6 
REMARK    2  A    between atoms: C4_4  and  O8_8 
REMARK    3  A    between atoms: C6_6  and  C7_7 
ROOT
HETATM    1  C1  UNL     1     -33.197   7.233   2.554  1.00 20.00     0.036 C 
HETATM    2  C2  UNL     1     -31.809   8.226   3.835  1.00 20.00     0.036 C 
HETATM    3  C3  UNL     1     -31.745   7.739   2.368  1.00 20.00    -0.010 C 
HETATM    4  C4  UNL     1     -32.914   7.170   4.073  1.00 20.00     0.118 C 
ENDROOT
BRANCH   3   5
HETATM    5  C6  UNL     1     -31.528   8.801   1.309  1.00 20.00     0.004 C 
BRANCH   5   6
HETATM    6  C7  UNL     1     -32.802   9.605   1.046  1.00 20.00    -0.004 C 
HETATM    7  C5  UNL     1     -33.213   9.546  -0.416  1.00 20.00     0.005 C 
ENDBRANCH   5   6
ENDBRANCH   3   5
BRANCH   4   8
HETATM    8  O8  UNL     1     -33.997   7.569   4.930  1.00 20.00    -0.396 OA
HETATM    9  H22 UNL     1     -34.467   6.756   5.158  1.00 20.00     0.210 HD
ENDBRANCH   4   8
TORSDOF 3
ENDMDL
MODEL 8
REMARK VINA RESULT:      -4.1     10.823     11.348
REMARK  3 active torsions:
REMARK  status: ('A' for Active; 'I' for Inactive)
REMARK    1  A    between atoms: C3_3  and  C6_6 
REMARK    2  A    between atoms: C4_4  and  O8_8 
REMARK    3  A    between atoms: C6_6  and  C7_7 
ROOT
HETATM    1  C1  UNL     1     -35.908  15.194  -4.386  1.00 20.00     0.036 C 
HETATM    2  C2  UNL     1     -33.992  14.260  -4.331  1.00 20.00     0.036 C 
HETATM    3  C3  UNL     1     -34.470  15.721  -4.157  1.00 20.00    -0.010 C 
HETATM    4  C4  UNL     1     -35.284  13.998  -5.139  1.00 20.00     0.118 C 
ENDROOT
BRANCH   3   5
HETATM    5  C6  UNL     1     -34.192  16.371  -2.817  1.00 20.00     0.004 C 
BRANCH   5   6
HETATM    6  C7  UNL     1     -35.480  16.622  -2.032  1.00 20.00    -0.004 C 
HETATM    7  C5  UNL     1     -35.202  17.274  -0.688  1.00 20.00     0.005 C 
ENDBRANCH   5   6
ENDBRANCH   3   5
BRANCH   4   8
HETATM    8  O8  UNL     1     -35.916  12.724  -4.926  1.00 20.00    -0.396 OA
HETATM    9  H22 UNL     1     -35.199  12.079  -4.870  1.00 20.00     0.210 HD
ENDBRANCH   4   8
TORSDOF 3
ENDMDL
MODEL 9
REMARK VINA RESULT:      -3.7     11.449     12.181
REMARK  3 active torsions:
REMARK  status: ('A' for Active; 'I' for Inactive)
REMARK    1  A    between atoms: C3_3  and  C6_6 
REMARK    2  A    between atoms: C4_4  and  O8_8 
REMARK    3  A    between atoms: C6_6  and  C7_7 
ROOT
HETATM    1  C1  UNL     1     -33.599  16.791  -4.800  1.00 20.00     0.036 C 
HETATM    2  C2  UNL     1     -33.671  14.758  -4.158  1.00 20.00     0.036 C 
HETATM    3  C3  UNL     1     -33.772  16.113  -3.418  1.00 20.00    -0.010 C 
HETATM    4  C4  UNL     1     -32.904  15.496  -5.279  1.00 20.00     0.118 C 
ENDROOT
BRANCH   3   5
HETATM    5  C6  UNL     1     -35.067  16.391  -2.684  1.00 20.00     0.004 C 
BRANCH   5   6
HETATM    6  C7  UNL     1     -34.817  17.027  -1.317  1.00 20.00    -0.004 C 
HETATM    7  C5  UNL     1     -33.469  17.726  -1.260  1.00 20.00     0.005 C 
ENDBRANCH   5   6
ENDBRANCH   3   5
BRANCH   4   8
HETATM    8  O8  UNL     1     -33.200  15.087  -6.626  1.00 20.00    -0.396 OA
HETATM    9  H22 UNL     1     -34.051  15.488  -6.842  1.00 20.00     0.210 HD
ENDBRANCH   4   8
TORSDOF 3
ENDMDL
