MODEL 1
REMARK VINA RESULT:      -6.8      0.000      0.000
REMARK  0 active torsions:
REMARK  status: ('A' for Active; 'I' for Inactive)
ROOT
HETATM    1  C1  UNL     1     -32.971   7.766   4.698  1.00 20.00     0.005 C 
HETATM    2  C2  UNL     1     -33.673   6.970   5.674  1.00 20.00     0.041 C 
HETATM    3  C3  UNL     1     -32.868   7.378   3.415  1.00 20.00    -0.081 C 
HETATM    4  C4  UNL     1     -34.438   5.935   5.303  1.00 20.00     0.128 C 
HETATM    5  C5  UNL     1     -33.507   6.093   2.934  1.00 20.00     0.078 C 
HETATM    6  C6  UNL     1     -34.597   5.537   3.869  1.00 20.00     0.235 C 
HETATM    7  C7  UNL     1     -32.101   8.168   2.398  1.00 20.00     0.043 C 
HETATM    8  F8  UNL     1     -35.086   5.228   6.254  1.00 20.00    -0.208 F 
HETATM    9  F9  UNL     1     -35.805   5.985   3.416  1.00 20.00    -0.242 F 
ENDROOT
TORSDOF 0
ENDMDL
MODEL 2
REMARK VINA RESULT:      -5.9      1.137      2.149
REMARK  0 active torsions:
REMARK  status: ('A' for Active; 'I' for Inactive)
ROOT
HETATM    1  C1  UNL     1     -33.282   5.709   2.904  1.00 20.00     0.005 C 
HETATM    2  C2  UNL     1     -34.043   4.930   3.849  1.00 20.00     0.041 C 
HETATM    3  C3  UNL     1     -33.147   7.040   3.035  1.00 20.00    -0.081 C 
HETATM    4  C4  UNL     1     -34.455   5.458   5.009  1.00 20.00     0.128 C 
HETATM    5  C5  UNL     1     -33.774   7.779   4.198  1.00 20.00     0.078 C 
HETATM    6  C6  UNL     1     -34.165   6.879   5.384  1.00 20.00     0.235 C 
HETATM    7  C7  UNL     1     -32.401   7.872   2.036  1.00 20.00     0.043 C 
HETATM    8  F8  UNL     1     -35.153   4.685   5.868  1.00 20.00    -0.208 F 
HETATM    9  F9  UNL     1     -33.137   6.900   6.282  1.00 20.00    -0.242 F 
ENDROOT
TORSDOF 0
ENDMDL
MODEL 3
REMARK VINA RESULT:      -5.7      1.996      3.389
REMARK  0 active torsions:
REMARK  status: ('A' for Active; 'I' for Inactive)
ROOT
HETATM    1  C1  UNL     1     -33.322   7.209   5.177  1.00 20.00     0.005 C 
HETATM    2  C2  UNL     1     -32.672   7.824   4.045  1.00 20.00     0.041 C 
HETATM    3  C3  UNL     1     -34.195   6.198   5.023  1.00 20.00    -0.081 C 
HETATM    4  C4  UNL     1     -32.735   7.272   2.827  1.00 20.00     0.128 C 
HETATM    5  C5  UNL     1     -34.517   5.645   3.652  1.00 20.00     0.078 C 
HETATM    6  C6  UNL     1     -33.489   6.005   2.565  1.00 20.00     0.235 C 
HETATM    7  C7  UNL     1     -34.916   5.581   6.183  1.00 20.00     0.043 C 
HETATM    8  F8  UNL     1     -32.098   7.878   1.801  1.00 20.00    -0.208 F 
HETATM    9  F9  UNL     1     -32.600   4.972   2.470  1.00 20.00    -0.242 F 
ENDROOT
TORSDOF 0
ENDMDL
MODEL 4
REMARK VINA RESULT:      -5.6      1.748      3.056
REMARK  0 active torsions:
REMARK  status: ('A' for Active; 'I' for Inactive)
ROOT
HETATM    1  C1  UNL     1     -33.001   7.054   4.073  1.00 20.00     0.005 C 
HETATM    2  C2  UNL     1     -32.924   6.190   2.921  1.00 20.00     0.041 C 
HETATM    3  C3  UNL     1     -33.838   6.794   5.093  1.00 20.00    -0.081 C 
HETATM    4  C4  UNL     1     -33.508   4.986   2.918  1.00 20.00     0.128 C 
HETATM    5  C5  UNL     1     -34.723   5.566   5.084  1.00 20.00     0.078 C 
HETATM    6  C6  UNL     1     -34.283   4.474   4.093  1.00 20.00     0.235 C 
HETATM    7  C7  UNL     1     -33.968   7.707   6.275  1.00 20.00     0.043 C 
HETATM    8  F8  UNL     1     -33.396   4.207   1.820  1.00 20.00    -0.208 F 
HETATM    9  F9  UNL     1     -33.512   3.576   4.775  1.00 20.00    -0.242 F 
ENDROOT
TORSDOF 0
ENDMDL
MODEL 5
REMARK VINA RESULT:      -5.3      1.818      2.691
REMARK  0 active torsions:
REMARK  status: ('A' for Active; 'I' for Inactive)
ROOT
HETATM    1  C1  UNL     1     -34.029   4.634   4.472  1.00 20.00     0.005 C 
HETATM    2  C2  UNL     1     -34.397   5.437   5.612  1.00 20.00     0.041 C 
HETATM    3  C3  UNL     1     -33.642   5.193   3.313  1.00 20.00    -0.081 C 
HETATM    4  C4  UNL     1     -34.154   6.753   5.639  1.00 20.00     0.128 C 
HETATM    5  C5  UNL     1     -33.555   6.697   3.160  1.00 20.00     0.078 C 
HETATM    6  C6  UNL     1     -33.508   7.467   4.492  1.00 20.00     0.235 C 
HETATM    7  C7  UNL     1     -33.304   4.375   2.103  1.00 20.00     0.043 C 
HETATM    8  F8  UNL     1     -34.505   7.461   6.734  1.00 20.00    -0.208 F 
HETATM    9  F9  UNL     1     -32.196   7.697   4.796  1.00 20.00    -0.242 F 
ENDROOT
TORSDOF 0
ENDMDL
MODEL 6
REMARK VINA RESULT:      -5.2      2.089      3.129
REMARK  0 active torsions:
REMARK  status: ('A' for Active; 'I' for Inactive)
ROOT
HETATM    1  C1  UNL     1     -34.393   5.551   5.046  1.00 20.00     0.005 C 
HETATM    2  C2  UNL     1     -34.078   4.672   3.948  1.00 20.00     0.041 C 
HETATM    3  C3  UNL     1     -33.797   6.748   5.183  1.00 20.00    -0.081 C 
HETATM    4  C4  UNL     1     -33.355   5.098   2.905  1.00 20.00     0.128 C 
HETATM    5  C5  UNL     1     -32.780   7.235   4.173  1.00 20.00     0.078 C 
HETATM    6  C6  UNL     1     -32.821   6.495   2.824  1.00 20.00     0.235 C 
HETATM    7  C7  UNL     1     -34.076   7.654   6.344  1.00 20.00     0.043 C 
HETATM    8  F8  UNL     1     -33.096   4.241   1.894  1.00 20.00    -0.208 F 
HETATM    9  F9  UNL     1     -33.606   7.220   1.973  1.00 20.00    -0.242 F 
ENDROOT
TORSDOF 0
ENDMDL
MODEL 7
REMARK VINA RESULT:      -4.9      1.447      2.265
REMARK  0 active torsions:
REMARK  status: ('A' for Active; 'I' for Inactive)
ROOT
HETATM    1  C1  UNL     1     -32.718   6.362   2.890  1.00 20.00     0.005 C 
HETATM    2  C2  UNL     1     -33.024   7.247   3.987  1.00 20.00     0.041 C 
HETATM    3  C3  UNL     1     -33.133   5.083   2.881  1.00 20.00    -0.081 C 
HETATM    4  C4  UNL     1     -33.916   6.905   4.925  1.00 20.00     0.128 C 
HETATM    5  C5  UNL     1     -33.961   4.522   4.017  1.00 20.00     0.078 C 
HETATM    6  C6  UNL     1     -34.630   5.589   4.902  1.00 20.00     0.235 C 
HETATM    7  C7  UNL     1     -32.782   4.136   1.774  1.00 20.00     0.043 C 
HETATM    8  F8  UNL     1     -34.178   7.773   5.925  1.00 20.00    -0.208 F 
HETATM    9  F9  UNL     1     -35.899   5.782   4.436  1.00 20.00    -0.242 F 
ENDROOT
TORSDOF 0
ENDMDL
MODEL 8
REMARK VINA RESULT:      -4.6      1.936      3.736
REMARK  0 active torsions:
REMARK  status: ('A' for Active; 'I' for Inactive)
ROOT
HETATM    1  C1  UNL     1     -33.821   4.940   3.560  1.00 20.00     0.005 C 
HETATM    2  C2  UNL     1     -33.013   5.661   2.608  1.00 20.00     0.041 C 
HETATM    3  C3  UNL     1     -34.146   5.471   4.752  1.00 20.00    -0.081 C 
HETATM    4  C4  UNL     1     -32.743   6.962   2.772  1.00 20.00     0.128 C 
HETATM    5  C5  UNL     1     -33.692   6.863   5.138  1.00 20.00     0.078 C 
HETATM    6  C6  UNL     1     -33.247   7.736   3.951  1.00 20.00     0.235 C 
HETATM    7  C7  UNL     1     -34.943   4.718   5.774  1.00 20.00     0.043 C 
HETATM    8  F8  UNL     1     -31.992   7.596   1.846  1.00 20.00    -0.208 F 
HETATM    9  F9  UNL     1     -34.316   8.490   3.562  1.00 20.00    -0.242 F 
ENDROOT
TORSDOF 0
ENDMDL
MODEL 9
REMARK VINA RESULT:      -4.1     11.804     12.532
REMARK  0 active torsions:
REMARK  status: ('A' for Active; 'I' for Inactive)
ROOT
HETATM    1  C1  UNL     1     -33.535  16.134  -3.535  1.00 20.00     0.005 C 
HETATM    2  C2  UNL     1     -33.224  15.596  -4.836  1.00 20.00     0.041 C 
HETATM    3  C3  UNL     1     -34.789  16.125  -3.051  1.00 20.00    -0.081 C 
HETATM    4  C4  UNL     1     -34.119  14.868  -5.516  1.00 20.00     0.128 C 
HETATM    5  C5  UNL     1     -35.930  15.526  -3.846  1.00 20.00     0.078 C 
HETATM    6  C6  UNL     1     -35.487  14.583  -4.979  1.00 20.00     0.235 C 
HETATM    7  C7  UNL     1     -35.139  16.724  -1.722  1.00 20.00     0.043 C 
HETATM    8  F8  UNL     1     -33.776  14.374  -6.726  1.00 20.00    -0.208 F 
HETATM    9  F9  UNL     1     -35.517  13.306  -4.496  1.00 20.00    -0.242 F 
ENDROOT
TORSDOF 0
ENDMDL
