MODEL 1
REMARK VINA RESULT:      -4.2      0.000      0.000
REMARK  4 active torsions:
REMARK  status: ('A' for Active; 'I' for Inactive)
REMARK    1  A    between atoms: C3_3  and  C6_6 
REMARK    2  A    between atoms: C5_5  and  C6_6 
REMARK    3  A    between atoms: C5_5  and  O7_7 
REMARK    4  A    between atoms: C6_6  and  S8_8 
ROOT
HETATM    1  C6  UNL     1     -32.968   6.885   3.436  1.00 20.00     0.072 C 
ENDROOT
BRANCH   1   2
HETATM    2  C3  UNL     1     -34.057   7.111   4.479  1.00 20.00     0.001 A 
HETATM    3  C1  UNL     1     -34.393   6.033   5.471  1.00 20.00     0.006 A 
HETATM    4  C2  UNL     1     -33.693   7.281   5.928  1.00 20.00     0.006 A 
ENDBRANCH   1   2
BRANCH   1   5
HETATM    5  C5  UNL     1     -33.002   7.923   2.313  1.00 20.00     0.182 C 
BRANCH   5   6
HETATM    6  O7  UNL     1     -31.693   8.339   1.951  1.00 20.00    -0.395 OA
HETATM    7  C4  UNL     1     -31.691   9.046   0.718  1.00 20.00     0.201 C 
ENDBRANCH   5   6
ENDBRANCH   1   5
BRANCH   1   8
HETATM    8  S8  UNL     1     -33.134   5.200   2.745  1.00 20.00    -0.175 SA
HETATM    9  H20 UNL     1     -34.122   5.506   1.897  1.00 20.00     0.102 HD
ENDBRANCH   1   8
TORSDOF 4
ENDMDL
MODEL 2
REMARK VINA RESULT:      -4.0      1.795      2.155
REMARK  4 active torsions:
REMARK  status: ('A' for Active; 'I' for Inactive)
REMARK    1  A    between atoms: C3_3  and  C6_6 
REMARK    2  A    between atoms: C5_5  and  C6_6 
REMARK    3  A    between atoms: C5_5  and  O7_7 
REMARK    4  A    between atoms: C6_6  and  S8_8 
ROOT
HETATM    1  C6  UNL     1     -34.141   6.821   4.013  1.00 20.00     0.072 C 
ENDROOT
BRANCH   1   2
HETATM    2  C3  UNL     1     -34.919   5.541   4.297  1.00 20.00     0.001 A 
HETATM    3  C1  UNL     1     -34.231   4.205   4.233  1.00 20.00     0.006 A 
HETATM    4  C2  UNL     1     -34.663   4.764   5.559  1.00 20.00     0.006 A 
ENDBRANCH   1   2
BRANCH   1   5
HETATM    5  C5  UNL     1     -32.992   6.606   3.027  1.00 20.00     0.182 C 
BRANCH   5   6
HETATM    6  O7  UNL     1     -32.024   7.642   3.124  1.00 20.00    -0.395 OA
HETATM    7  C4  UNL     1     -32.109   8.540   2.026  1.00 20.00     0.201 C 
ENDBRANCH   5   6
ENDBRANCH   1   5
BRANCH   1   8
HETATM    8  S8  UNL     1     -33.506   7.503   5.586  1.00 20.00    -0.175 SA
HETATM    9  H20 UNL     1     -33.071   6.333   6.068  1.00 20.00     0.102 HD
ENDBRANCH   1   8
TORSDOF 4
ENDMDL
MODEL 3
REMARK VINA RESULT:      -3.7      1.816      2.064
REMARK  4 active torsions:
REMARK  status: ('A' for Active; 'I' for Inactive)
REMARK    1  A    between atoms: C3_3  and  C6_6 
REMARK    2  A    between atoms: C5_5  and  C6_6 
REMARK    3  A    between atoms: C5_5  and  O7_7 
REMARK    4  A    between atoms: C6_6  and  S8_8 
ROOT
HETATM    1  C6  UNL     1     -33.587   7.333   4.057  1.00 20.00     0.072 C 
ENDROOT
BRANCH   1   2
HETATM    2  C3  UNL     1     -34.070   5.925   3.723  1.00 20.00     0.001 A 
HETATM    3  C1  UNL     1     -34.592   5.026   4.808  1.00 20.00     0.006 A 
HETATM    4  C2  UNL     1     -35.535   5.593   3.785  1.00 20.00     0.006 A 
ENDBRANCH   1   2
BRANCH   1   5
HETATM    5  C5  UNL     1     -32.251   7.670   3.392  1.00 20.00     0.182 C 
BRANCH   5   6
HETATM    6  O7  UNL     1     -32.396   7.825   1.987  1.00 20.00    -0.395 OA
HETATM    7  C4  UNL     1     -32.195   9.173   1.586  1.00 20.00     0.201 C 
ENDBRANCH   5   6
ENDBRANCH   1   5
BRANCH   1   8
HETATM    8  S8  UNL     1     -33.455   7.512   5.872  1.00 20.00    -0.175 SA
HETATM    9  H20 UNL     1     -33.011   8.773   5.845  1.00 20.00     0.102 HD
ENDBRANCH   1   8
TORSDOF 4
ENDMDL
MODEL 4
REMARK VINA RESULT:      -3.5      2.673      4.114
REMARK  4 active torsions:
REMARK  status: ('A' for Active; 'I' for Inactive)
REMARK    1  A    between atoms: C3_3  and  C6_6 
REMARK    2  A    between atoms: C5_5  and  C6_6 
REMARK    3  A    between atoms: C5_5  and  O7_7 
REMARK    4  A    between atoms: C6_6  and  S8_8 
ROOT
HETATM    1  C6  UNL     1     -33.543   6.709   4.105  1.00 20.00     0.072 C 
ENDROOT
BRANCH   1   2
HETATM    2  C3  UNL     1     -33.057   7.849   3.217  1.00 20.00     0.001 A 
HETATM    3  C1  UNL     1     -31.649   8.361   3.342  1.00 20.00     0.006 A 
HETATM    4  C2  UNL     1     -32.060   7.585   2.122  1.00 20.00     0.006 A 
ENDBRANCH   1   2
BRANCH   1   5
HETATM    5  C5  UNL     1     -34.881   6.131   3.643  1.00 20.00     0.182 C 
BRANCH   5   6
HETATM    6  O7  UNL     1     -35.208   4.945   4.354  1.00 20.00    -0.395 OA
HETATM    7  C4  UNL     1     -34.138   4.011   4.330  1.00 20.00     0.201 C 
ENDBRANCH   5   6
ENDBRANCH   1   5
BRANCH   1   8
HETATM    8  S8  UNL     1     -33.669   7.299   5.831  1.00 20.00    -0.175 SA
HETATM    9  H20 UNL     1     -34.091   6.134   6.335  1.00 20.00     0.102 HD
ENDBRANCH   1   8
TORSDOF 4
ENDMDL
MODEL 5
REMARK VINA RESULT:      -3.4      2.174      4.360
REMARK  4 active torsions:
REMARK  status: ('A' for Active; 'I' for Inactive)
REMARK    1  A    between atoms: C3_3  and  C6_6 
REMARK    2  A    between atoms: C5_5  and  C6_6 
REMARK    3  A    between atoms: C5_5  and  O7_7 
REMARK    4  A    between atoms: C6_6  and  S8_8 
ROOT
HETATM    1  C6  UNL     1     -32.378   7.730   2.230  1.00 20.00     0.072 C 
ENDROOT
BRANCH   1   2
HETATM    2  C3  UNL     1     -33.090   8.871   1.510  1.00 20.00     0.001 A 
HETATM    3  C1  UNL     1     -32.397  10.189   1.307  1.00 20.00     0.006 A 
HETATM    4  C2  UNL     1     -32.653   9.287   0.133  1.00 20.00     0.006 A 
ENDBRANCH   1   2
BRANCH   1   5
HETATM    5  C5  UNL     1     -33.328   6.597   2.620  1.00 20.00     0.182 C 
BRANCH   5   6
HETATM    6  O7  UNL     1     -33.922   6.832   3.890  1.00 20.00    -0.395 OA
HETATM    7  C4  UNL     1     -34.834   5.799   4.239  1.00 20.00     0.201 C 
ENDBRANCH   5   6
ENDBRANCH   1   5
BRANCH   1   8
HETATM    8  S8  UNL     1     -31.533   8.387   3.712  1.00 20.00    -0.175 SA
HETATM    9  H20 UNL     1     -30.308   7.991   3.348  1.00 20.00     0.102 HD
ENDBRANCH   1   8
TORSDOF 4
ENDMDL
MODEL 6
REMARK VINA RESULT:      -3.3      1.796      4.102
REMARK  4 active torsions:
REMARK  status: ('A' for Active; 'I' for Inactive)
REMARK    1  A    between atoms: C3_3  and  C6_6 
REMARK    2  A    between atoms: C5_5  and  C6_6 
REMARK    3  A    between atoms: C5_5  and  O7_7 
REMARK    4  A    between atoms: C6_6  and  S8_8 
ROOT
HETATM    1  C6  UNL     1     -33.106   7.544   3.259  1.00 20.00     0.072 C 
ENDROOT
BRANCH   1   2
HETATM    2  C3  UNL     1     -32.005   8.381   2.617  1.00 20.00     0.001 A 
HETATM    3  C1  UNL     1     -31.774   8.321   1.133  1.00 20.00     0.006 A 
HETATM    4  C2  UNL     1     -32.357   9.560   1.753  1.00 20.00     0.006 A 
ENDBRANCH   1   2
BRANCH   1   5
HETATM    5  C5  UNL     1     -32.971   7.461   4.781  1.00 20.00     0.182 C 
BRANCH   5   6
HETATM    6  O7  UNL     1     -34.236   7.283   5.404  1.00 20.00    -0.395 OA
HETATM    7  C4  UNL     1     -34.426   5.938   5.824  1.00 20.00     0.201 C 
ENDBRANCH   5   6
ENDBRANCH   1   5
BRANCH   1   8
HETATM    8  S8  UNL     1     -33.092   5.867   2.530  1.00 20.00    -0.175 SA
HETATM    9  H20 UNL     1     -32.036   5.432   3.227  1.00 20.00     0.102 HD
ENDBRANCH   1   8
TORSDOF 4
ENDMDL
MODEL 7
REMARK VINA RESULT:      -3.3      2.331      3.997
REMARK  4 active torsions:
REMARK  status: ('A' for Active; 'I' for Inactive)
REMARK    1  A    between atoms: C3_3  and  C6_6 
REMARK    2  A    between atoms: C5_5  and  C6_6 
REMARK    3  A    between atoms: C5_5  and  O7_7 
REMARK    4  A    between atoms: C6_6  and  S8_8 
ROOT
HETATM    1  C6  UNL     1     -34.072   6.213   2.824  1.00 20.00     0.072 C 
ENDROOT
BRANCH   1   2
HETATM    2  C3  UNL     1     -33.291   7.455   3.240  1.00 20.00     0.001 A 
HETATM    3  C1  UNL     1     -31.809   7.535   2.999  1.00 20.00     0.006 A 
HETATM    4  C2  UNL     1     -32.748   8.392   2.196  1.00 20.00     0.006 A 
ENDBRANCH   1   2
BRANCH   1   5
HETATM    5  C5  UNL     1     -35.201   5.874   3.799  1.00 20.00     0.182 C 
BRANCH   5   6
HETATM    6  O7  UNL     1     -34.873   4.748   4.602  1.00 20.00    -0.395 OA
HETATM    7  C4  UNL     1     -34.577   5.129   5.939  1.00 20.00     0.201 C 
ENDBRANCH   5   6
ENDBRANCH   1   5
BRANCH   1   8
HETATM    8  S8  UNL     1     -32.922   4.800   2.671  1.00 20.00    -0.175 SA
HETATM    9  H20 UNL     1     -32.979   4.446   3.960  1.00 20.00     0.102 HD
ENDBRANCH   1   8
TORSDOF 4
ENDMDL
MODEL 8
REMARK VINA RESULT:      -3.2     11.286     11.808
REMARK  4 active torsions:
REMARK  status: ('A' for Active; 'I' for Inactive)
REMARK    1  A    between atoms: C3_3  and  C6_6 
REMARK    2  A    between atoms: C5_5  and  C6_6 
REMARK    3  A    between atoms: C5_5  and  O7_7 
REMARK    4  A    between atoms: C6_6  and  S8_8 
ROOT
HETATM    1  C6  UNL     1     -35.339  14.870  -5.120  1.00 20.00     0.072 C 
ENDROOT
BRANCH   1   2
HETATM    2  C3  UNL     1     -34.650  15.019  -3.767  1.00 20.00     0.001 A 
HETATM    3  C1  UNL     1     -33.667  16.133  -3.536  1.00 20.00     0.006 A 
HETATM    4  C2  UNL     1     -35.008  16.162  -2.858  1.00 20.00     0.006 A 
ENDBRANCH   1   2
BRANCH   1   5
HETATM    5  C5  UNL     1     -36.017  13.509  -5.288  1.00 20.00     0.182 C 
BRANCH   5   6
HETATM    6  O7  UNL     1     -37.392  13.568  -4.935  1.00 20.00    -0.395 OA
HETATM    7  C4  UNL     1     -38.028  14.706  -5.503  1.00 20.00     0.201 C 
ENDBRANCH   5   6
ENDBRANCH   1   5
BRANCH   1   8
HETATM    8  S8  UNL     1     -34.116  15.137  -6.453  1.00 20.00    -0.175 SA
HETATM    9  H20 UNL     1     -33.277  14.175  -6.053  1.00 20.00     0.102 HD
ENDBRANCH   1   8
TORSDOF 4
ENDMDL
MODEL 9
REMARK VINA RESULT:      -3.2     11.149     11.528
REMARK  4 active torsions:
REMARK  status: ('A' for Active; 'I' for Inactive)
REMARK    1  A    between atoms: C3_3  and  C6_6 
REMARK    2  A    between atoms: C5_5  and  C6_6 
REMARK    3  A    between atoms: C5_5  and  O7_7 
REMARK    4  A    between atoms: C6_6  and  S8_8 
ROOT
HETATM    1  C6  UNL     1     -34.236  15.970  -3.954  1.00 20.00     0.072 C 
ENDROOT
BRANCH   1   2
HETATM    2  C3  UNL     1     -33.922  16.473  -2.548  1.00 20.00     0.001 A 
HETATM    3  C1  UNL     1     -34.193  17.904  -2.177  1.00 20.00     0.006 A 
HETATM    4  C2  UNL     1     -35.038  16.805  -1.597  1.00 20.00     0.006 A 
ENDBRANCH   1   2
BRANCH   1   5
HETATM    5  C5  UNL     1     -33.585  14.619  -4.255  1.00 20.00     0.182 C 
BRANCH   5   6
HETATM    6  O7  UNL     1     -34.522  13.556  -4.146  1.00 20.00    -0.395 OA
HETATM    7  C4  UNL     1     -35.634  13.750  -5.010  1.00 20.00     0.201 C 
ENDBRANCH   5   6
ENDBRANCH   1   5
BRANCH   1   8
HETATM    8  S8  UNL     1     -33.697  17.219  -5.176  1.00 20.00    -0.175 SA
HETATM    9  H20 UNL     1     -32.803  16.430  -5.782  1.00 20.00     0.102 HD
ENDBRANCH   1   8
TORSDOF 4
ENDMDL
