MODEL 1
REMARK VINA RESULT:      -4.9      0.000      0.000
REMARK  5 active torsions:
REMARK  status: ('A' for Active; 'I' for Inactive)
REMARK    1  A    between atoms: C4_4  and  C5_5 
REMARK    2  A    between atoms: C4_4  and  O8_8 
REMARK    3  A    between atoms: C5_5  and  S9_9 
REMARK    4  A    between atoms: C6_6  and  C7_7 
REMARK    5  A    between atoms: C7_7  and  O8_8 
ROOT
HETATM    1  C3  UNL     1     -33.603   7.373   5.497  1.00 20.00     0.040 C 
HETATM    2  C7  UNL     1     -33.620   7.170   3.985  1.00 20.00     0.120 C 
ENDROOT
BRANCH   2   3
HETATM    3  C6  UNL     1     -34.255   5.833   3.550  1.00 20.00     0.006 C 
HETATM    4  C1  UNL     1     -34.766   5.014   4.737  1.00 20.00     0.012 C 
HETATM    5  C2  UNL     1     -33.258   4.992   2.743  1.00 20.00     0.012 C 
ENDBRANCH   2   3
BRANCH   2   6
HETATM    6  O8  UNL     1     -32.267   7.201   3.525  1.00 20.00    -0.385 OA
BRANCH   6   7
HETATM    7  C4  UNL     1     -31.909   8.495   3.068  1.00 20.00     0.178 C 
BRANCH   7   8
HETATM    8  C5  UNL     1     -31.980   8.551   1.550  1.00 20.00     0.097 C 
BRANCH   8   9
HETATM    9  S9  UNL     1     -32.646  10.141   0.973  1.00 20.00    -0.180 SA
HETATM   10  H25 UNL     1     -32.317  10.835   2.071  1.00 20.00     0.101 HD
ENDBRANCH   8   9
ENDBRANCH   7   8
ENDBRANCH   6   7
ENDBRANCH   2   6
TORSDOF 5
ENDMDL
MODEL 2
REMARK VINA RESULT:      -4.9      0.740      1.913
REMARK  5 active torsions:
REMARK  status: ('A' for Active; 'I' for Inactive)
REMARK    1  A    between atoms: C4_4  and  C5_5 
REMARK    2  A    between atoms: C4_4  and  O8_8 
REMARK    3  A    between atoms: C5_5  and  S9_9 
REMARK    4  A    between atoms: C6_6  and  C7_7 
REMARK    5  A    between atoms: C7_7  and  O8_8 
ROOT
HETATM    1  C3  UNL     1     -33.383   5.329   2.664  1.00 20.00     0.040 C 
HETATM    2  C7  UNL     1     -33.155   6.479   3.641  1.00 20.00     0.120 C 
ENDROOT
BRANCH   2   3
HETATM    3  C6  UNL     1     -34.220   6.562   4.754  1.00 20.00     0.006 C 
HETATM    4  C1  UNL     1     -33.731   7.344   5.975  1.00 20.00     0.012 C 
HETATM    5  C2  UNL     1     -34.664   5.161   5.191  1.00 20.00     0.012 C 
ENDBRANCH   2   3
BRANCH   2   6
HETATM    6  O8  UNL     1     -33.179   7.698   2.895  1.00 20.00    -0.385 OA
BRANCH   6   7
HETATM    7  C4  UNL     1     -31.871   8.214   2.712  1.00 20.00     0.178 C 
BRANCH   7   8
HETATM    8  C5  UNL     1     -31.695   8.693   1.279  1.00 20.00     0.097 C 
BRANCH   8   9
HETATM    9  S9  UNL     1     -32.722  10.155   0.936  1.00 20.00    -0.180 SA
HETATM   10  H25 UNL     1     -32.009  11.003   1.688  1.00 20.00     0.101 HD
ENDBRANCH   8   9
ENDBRANCH   7   8
ENDBRANCH   6   7
ENDBRANCH   2   6
TORSDOF 5
ENDMDL
MODEL 3
REMARK VINA RESULT:      -4.2      2.580      4.522
REMARK  5 active torsions:
REMARK  status: ('A' for Active; 'I' for Inactive)
REMARK    1  A    between atoms: C4_4  and  C5_5 
REMARK    2  A    between atoms: C4_4  and  O8_8 
REMARK    3  A    between atoms: C5_5  and  S9_9 
REMARK    4  A    between atoms: C6_6  and  C7_7 
REMARK    5  A    between atoms: C7_7  and  O8_8 
ROOT
HETATM    1  C3  UNL     1     -31.396   8.603   3.171  1.00 20.00     0.040 C 
HETATM    2  C7  UNL     1     -31.981   8.263   1.803  1.00 20.00     0.120 C 
ENDROOT
BRANCH   2   3
HETATM    3  C6  UNL     1     -32.129   9.487   0.875  1.00 20.00     0.006 C 
HETATM    4  C1  UNL     1     -32.775  10.682   1.581  1.00 20.00     0.012 C 
HETATM    5  C2  UNL     1     -32.948   9.130  -0.372  1.00 20.00     0.012 C 
ENDBRANCH   2   3
BRANCH   2   6
HETATM    6  O8  UNL     1     -33.274   7.691   2.011  1.00 20.00    -0.385 OA
BRANCH   6   7
HETATM    7  C4  UNL     1     -33.368   7.084   3.289  1.00 20.00     0.178 C 
BRANCH   7   8
HETATM    8  C5  UNL     1     -33.814   5.637   3.149  1.00 20.00     0.097 C 
BRANCH   8   9
HETATM    9  S9  UNL     1     -34.644   5.048   4.655  1.00 20.00    -0.180 SA
HETATM   10  H25 UNL     1     -34.386   3.749   4.456  1.00 20.00     0.101 HD
ENDBRANCH   8   9
ENDBRANCH   7   8
ENDBRANCH   6   7
ENDBRANCH   2   6
TORSDOF 5
ENDMDL
MODEL 4
REMARK VINA RESULT:      -4.1      1.044      1.981
REMARK  5 active torsions:
REMARK  status: ('A' for Active; 'I' for Inactive)
REMARK    1  A    between atoms: C4_4  and  C5_5 
REMARK    2  A    between atoms: C4_4  and  O8_8 
REMARK    3  A    between atoms: C5_5  and  S9_9 
REMARK    4  A    between atoms: C6_6  and  C7_7 
REMARK    5  A    between atoms: C7_7  and  O8_8 
ROOT
HETATM    1  C3  UNL     1     -35.086   6.139   3.088  1.00 20.00     0.040 C 
HETATM    2  C7  UNL     1     -33.692   6.335   3.677  1.00 20.00     0.120 C 
ENDROOT
BRANCH   2   3
HETATM    3  C6  UNL     1     -33.627   6.089   5.199  1.00 20.00     0.006 C 
HETATM    4  C1  UNL     1     -34.682   5.088   5.676  1.00 20.00     0.012 C 
HETATM    5  C2  UNL     1     -33.789   7.405   5.971  1.00 20.00     0.012 C 
ENDBRANCH   2   3
BRANCH   2   6
HETATM    6  O8  UNL     1     -33.293   7.682   3.416  1.00 20.00    -0.385 OA
BRANCH   6   7
HETATM    7  C4  UNL     1     -32.407   7.750   2.311  1.00 20.00     0.178 C 
BRANCH   7   8
HETATM    8  C5  UNL     1     -32.221   9.196   1.878  1.00 20.00     0.097 C 
BRANCH   8   9
HETATM    9  S9  UNL     1     -32.743   9.446   0.154  1.00 20.00    -0.180 SA
HETATM   10  H25 UNL     1     -33.071  10.737   0.296  1.00 20.00     0.101 HD
ENDBRANCH   8   9
ENDBRANCH   7   8
ENDBRANCH   6   7
ENDBRANCH   2   6
TORSDOF 5
ENDMDL
MODEL 5
REMARK VINA RESULT:      -3.6      2.377      4.113
REMARK  5 active torsions:
REMARK  status: ('A' for Active; 'I' for Inactive)
REMARK    1  A    between atoms: C4_4  and  C5_5 
REMARK    2  A    between atoms: C4_4  and  O8_8 
REMARK    3  A    between atoms: C5_5  and  S9_9 
REMARK    4  A    between atoms: C6_6  and  C7_7 
REMARK    5  A    between atoms: C7_7  and  O8_8 
ROOT
HETATM    1  C3  UNL     1     -32.906   5.183   2.525  1.00 20.00     0.040 C 
HETATM    2  C7  UNL     1     -33.328   6.643   2.400  1.00 20.00     0.120 C 
ENDROOT
BRANCH   2   3
HETATM    3  C6  UNL     1     -32.139   7.622   2.307  1.00 20.00     0.006 C 
HETATM    4  C1  UNL     1     -31.682   8.120   3.680  1.00 20.00     0.012 C 
HETATM    5  C2  UNL     1     -32.489   8.824   1.421  1.00 20.00     0.012 C 
ENDBRANCH   2   3
BRANCH   2   6
HETATM    6  O8  UNL     1     -34.101   6.976   3.555  1.00 20.00    -0.385 OA
BRANCH   6   7
HETATM    7  C4  UNL     1     -34.823   5.852   4.030  1.00 20.00     0.178 C 
BRANCH   7   8
HETATM    8  C5  UNL     1     -34.658   5.725   5.537  1.00 20.00     0.097 C 
BRANCH   8   9
HETATM    9  S9  UNL     1     -33.823   7.179   6.239  1.00 20.00    -0.180 SA
HETATM   10  H25 UNL     1     -32.580   6.783   5.937  1.00 20.00     0.101 HD
ENDBRANCH   8   9
ENDBRANCH   7   8
ENDBRANCH   6   7
ENDBRANCH   2   6
TORSDOF 5
ENDMDL
MODEL 6
REMARK VINA RESULT:      -3.3      2.671      4.338
REMARK  5 active torsions:
REMARK  status: ('A' for Active; 'I' for Inactive)
REMARK    1  A    between atoms: C4_4  and  C5_5 
REMARK    2  A    between atoms: C4_4  and  O8_8 
REMARK    3  A    between atoms: C5_5  and  S9_9 
REMARK    4  A    between atoms: C6_6  and  C7_7 
REMARK    5  A    between atoms: C7_7  and  O8_8 
ROOT
HETATM    1  C3  UNL     1     -33.204   5.716   2.224  1.00 20.00     0.040 C 
HETATM    2  C7  UNL     1     -33.164   7.122   2.814  1.00 20.00     0.120 C 
ENDROOT
BRANCH   2   3
HETATM    3  C6  UNL     1     -32.027   7.996   2.246  1.00 20.00     0.006 C 
HETATM    4  C1  UNL     1     -31.117   8.557   3.342  1.00 20.00     0.012 C 
HETATM    5  C2  UNL     1     -32.592   9.153   1.412  1.00 20.00     0.012 C 
ENDBRANCH   2   3
BRANCH   2   6
HETATM    6  O8  UNL     1     -32.981   6.998   4.226  1.00 20.00    -0.385 OA
BRANCH   6   7
HETATM    7  C4  UNL     1     -34.186   7.262   4.925  1.00 20.00     0.178 C 
BRANCH   7   8
HETATM    8  C5  UNL     1     -34.426   6.188   5.975  1.00 20.00     0.097 C 
BRANCH   8   9
HETATM    9  S9  UNL     1     -34.573   4.540   5.219  1.00 20.00    -0.180 SA
HETATM   10  H25 UNL     1     -33.901   3.889   6.177  1.00 20.00     0.101 HD
ENDBRANCH   8   9
ENDBRANCH   7   8
ENDBRANCH   6   7
ENDBRANCH   2   6
TORSDOF 5
ENDMDL
MODEL 7
REMARK VINA RESULT:      -3.3     10.919     11.702
REMARK  5 active torsions:
REMARK  status: ('A' for Active; 'I' for Inactive)
REMARK    1  A    between atoms: C4_4  and  C5_5 
REMARK    2  A    between atoms: C4_4  and  O8_8 
REMARK    3  A    between atoms: C5_5  and  S9_9 
REMARK    4  A    between atoms: C6_6  and  C7_7 
REMARK    5  A    between atoms: C7_7  and  O8_8 
ROOT
HETATM    1  C3  UNL     1     -33.278  16.008  -4.547  1.00 20.00     0.040 C 
HETATM    2  C7  UNL     1     -34.466  16.383  -3.667  1.00 20.00     0.120 C 
ENDROOT
BRANCH   2   3
HETATM    3  C6  UNL     1     -34.074  16.726  -2.215  1.00 20.00     0.006 C 
HETATM    4  C1  UNL     1     -35.292  16.948  -1.316  1.00 20.00     0.012 C 
HETATM    5  C2  UNL     1     -33.176  17.969  -2.172  1.00 20.00     0.012 C 
ENDBRANCH   2   3
BRANCH   2   6
HETATM    6  O8  UNL     1     -35.362  15.269  -3.645  1.00 20.00    -0.385 OA
BRANCH   6   7
HETATM    7  C4  UNL     1     -34.824  14.164  -4.352  1.00 20.00     0.178 C 
BRANCH   7   8
HETATM    8  C5  UNL     1     -35.883  13.559  -5.260  1.00 20.00     0.097 C 
BRANCH   8   9
HETATM    9  S9  UNL     1     -35.279  13.392  -6.967  1.00 20.00    -0.180 SA
HETATM   10  H25 UNL     1     -34.239  12.602  -6.668  1.00 20.00     0.101 HD
ENDBRANCH   8   9
ENDBRANCH   7   8
ENDBRANCH   6   7
ENDBRANCH   2   6
TORSDOF 5
ENDMDL
MODEL 8
REMARK VINA RESULT:      -3.2     11.412     12.162
REMARK  5 active torsions:
REMARK  status: ('A' for Active; 'I' for Inactive)
REMARK    1  A    between atoms: C4_4  and  C5_5 
REMARK    2  A    between atoms: C4_4  and  O8_8 
REMARK    3  A    between atoms: C5_5  and  S9_9 
REMARK    4  A    between atoms: C6_6  and  C7_7 
REMARK    5  A    between atoms: C7_7  and  O8_8 
ROOT
HETATM    1  C3  UNL     1     -35.069  15.330  -3.592  1.00 20.00     0.040 C 
HETATM    2  C7  UNL     1     -33.862  16.208  -3.276  1.00 20.00     0.120 C 
ENDROOT
BRANCH   2   3
HETATM    3  C6  UNL     1     -34.175  17.355  -2.293  1.00 20.00     0.006 C 
HETATM    4  C1  UNL     1     -32.932  17.838  -1.542  1.00 20.00     0.012 C 
HETATM    5  C2  UNL     1     -35.247  16.931  -1.282  1.00 20.00     0.012 C 
ENDBRANCH   2   3
BRANCH   2   6
HETATM    6  O8  UNL     1     -33.400  16.774  -4.504  1.00 20.00    -0.385 OA
BRANCH   6   7
HETATM    7  C4  UNL     1     -33.054  15.764  -5.437  1.00 20.00     0.178 C 
BRANCH   7   8
HETATM    8  C5  UNL     1     -33.589  16.121  -6.815  1.00 20.00     0.097 C 
BRANCH   8   9
HETATM    9  S9  UNL     1     -34.149  14.643  -7.715  1.00 20.00    -0.180 SA
HETATM   10  H25 UNL     1     -35.408  14.674  -7.261  1.00 20.00     0.101 HD
ENDBRANCH   8   9
ENDBRANCH   7   8
ENDBRANCH   6   7
ENDBRANCH   2   6
TORSDOF 5
ENDMDL
MODEL 9
REMARK VINA RESULT:      -3.1     11.231     12.064
REMARK  5 active torsions:
REMARK  status: ('A' for Active; 'I' for Inactive)
REMARK    1  A    between atoms: C4_4  and  C5_5 
REMARK    2  A    between atoms: C4_4  and  O8_8 
REMARK    3  A    between atoms: C5_5  and  S9_9 
REMARK    4  A    between atoms: C6_6  and  C7_7 
REMARK    5  A    between atoms: C7_7  and  O8_8 
ROOT
HETATM    1  C3  UNL     1     -36.614  14.009  -5.364  1.00 20.00     0.040 C 
HETATM    2  C7  UNL     1     -35.283  13.952  -4.620  1.00 20.00     0.120 C 
ENDROOT
BRANCH   2   3
HETATM    3  C6  UNL     1     -34.999  15.208  -3.770  1.00 20.00     0.006 C 
HETATM    4  C1  UNL     1     -35.968  16.352  -4.075  1.00 20.00     0.012 C 
HETATM    5  C2  UNL     1     -33.558  15.692  -3.977  1.00 20.00     0.012 C 
ENDBRANCH   2   3
BRANCH   2   6
HETATM    6  O8  UNL     1     -34.244  13.816  -5.592  1.00 20.00    -0.385 OA
BRANCH   6   7
HETATM    7  C4  UNL     1     -34.777  13.573  -6.883  1.00 20.00     0.178 C 
BRANCH   7   8
HETATM    8  C5  UNL     1     -34.043  14.411  -7.918  1.00 20.00     0.097 C 
BRANCH   8   9
HETATM    9  S9  UNL     1     -34.375  16.185  -7.693  1.00 20.00    -0.180 SA
HETATM   10  H25 UNL     1     -33.214  16.609  -8.209  1.00 20.00     0.101 HD
ENDBRANCH   8   9
ENDBRANCH   7   8
ENDBRANCH   6   7
ENDBRANCH   2   6
TORSDOF 5
ENDMDL
