MODEL 1
REMARK VINA RESULT:      -5.6      0.000      0.000
REMARK  0 active torsions:
REMARK  status: ('A' for Active; 'I' for Inactive)
ROOT
HETATM    1  C1  UNL     1     -32.420   8.777   1.839  1.00 20.00     0.128 C 
HETATM    2  C2  UNL     1     -33.663   8.123   2.461  1.00 20.00     0.088 C 
HETATM    3  C3  UNL     1     -31.520   8.270   2.978  1.00 20.00     0.088 C 
HETATM    4  C4  UNL     1     -35.067   5.774   4.561  1.00 20.00     0.000 C 
HETATM    5  C5  UNL     1     -34.162   4.628   4.127  1.00 20.00     0.000 C 
HETATM    6  C6  UNL     1     -34.374   6.939   5.259  1.00 20.00     0.001 C 
HETATM    7  C7  UNL     1     -33.496   4.889   2.778  1.00 20.00     0.001 C 
HETATM    8  C8  UNL     1     -32.940   7.267   4.857  1.00 20.00     0.010 C 
HETATM    9  C9  UNL     1     -32.330   5.868   2.811  1.00 20.00     0.010 C 
HETATM   10  C10 UNL     1     -32.683   7.270   3.346  1.00 20.00    -0.027 C 
HETATM   11  O11 UNL     1     -32.223   9.428   0.835  1.00 20.00    -0.298 OA
ENDROOT
TORSDOF 0
ENDMDL
MODEL 2
REMARK VINA RESULT:      -5.1     10.700     12.103
REMARK  0 active torsions:
REMARK  status: ('A' for Active; 'I' for Inactive)
ROOT
HETATM    1  C1  UNL     1     -35.631  13.716  -4.974  1.00 20.00     0.128 C 
HETATM    2  C2  UNL     1     -34.652  14.365  -3.983  1.00 20.00     0.088 C 
HETATM    3  C3  UNL     1     -36.633  14.872  -4.822  1.00 20.00     0.088 C 
HETATM    4  C4  UNL     1     -33.487  17.165  -2.338  1.00 20.00     0.000 C 
HETATM    5  C5  UNL     1     -33.517  18.077  -3.557  1.00 20.00     0.000 C 
HETATM    6  C6  UNL     1     -34.840  16.646  -1.862  1.00 20.00     0.001 C 
HETATM    7  C7  UNL     1     -33.549  17.296  -4.869  1.00 20.00     0.001 C 
HETATM    8  C8  UNL     1     -35.929  16.417  -2.905  1.00 20.00     0.010 C 
HETATM    9  C9  UNL     1     -34.899  16.685  -5.226  1.00 20.00     0.010 C 
HETATM   10  C10 UNL     1     -35.456  15.702  -4.177  1.00 20.00    -0.027 C 
HETATM   11  O11 UNL     1     -35.613  12.695  -5.629  1.00 20.00    -0.298 OA
ENDROOT
TORSDOF 0
ENDMDL
MODEL 3
REMARK VINA RESULT:      -4.8      1.113      2.414
REMARK  0 active torsions:
REMARK  status: ('A' for Active; 'I' for Inactive)
ROOT
HETATM    1  C1  UNL     1     -32.180   7.916   2.276  1.00 20.00     0.128 C 
HETATM    2  C2  UNL     1     -32.301   6.639   3.121  1.00 20.00     0.088 C 
HETATM    3  C3  UNL     1     -33.706   8.102   2.243  1.00 20.00     0.088 C 
HETATM    4  C4  UNL     1     -34.108   4.649   5.283  1.00 20.00     0.000 C 
HETATM    5  C5  UNL     1     -34.579   5.789   6.176  1.00 20.00     0.000 C 
HETATM    6  C6  UNL     1     -34.617   4.678   3.845  1.00 20.00     0.001 C 
HETATM    7  C7  UNL     1     -33.722   7.044   6.020  1.00 20.00     0.001 C 
HETATM    8  C8  UNL     1     -34.876   6.036   3.202  1.00 20.00     0.010 C 
HETATM    9  C9  UNL     1     -33.985   7.854   4.757  1.00 20.00     0.010 C 
HETATM   10  C10 UNL     1     -33.776   7.077   3.442  1.00 20.00    -0.027 C 
HETATM   11  O11 UNL     1     -31.245   8.541   1.823  1.00 20.00    -0.298 OA
ENDROOT
TORSDOF 0
ENDMDL
MODEL 4
REMARK VINA RESULT:      -4.4     10.880     12.238
REMARK  0 active torsions:
REMARK  status: ('A' for Active; 'I' for Inactive)
ROOT
HETATM    1  C1  UNL     1     -34.577  17.510  -3.672  1.00 20.00     0.128 C 
HETATM    2  C2  UNL     1     -35.407  16.624  -4.614  1.00 20.00     0.088 C 
HETATM    3  C3  UNL     1     -33.664  16.335  -3.286  1.00 20.00     0.088 C 
HETATM    4  C4  UNL     1     -35.705  13.782  -6.547  1.00 20.00     0.000 C 
HETATM    5  C5  UNL     1     -34.322  13.884  -7.176  1.00 20.00     0.000 C 
HETATM    6  C6  UNL     1     -35.735  13.550  -5.040  1.00 20.00     0.001 C 
HETATM    7  C7  UNL     1     -33.733  15.289  -7.065  1.00 20.00     0.001 C 
HETATM    8  C8  UNL     1     -34.604  14.137  -4.201  1.00 20.00     0.010 C 
HETATM    9  C9  UNL     1     -33.193  15.657  -5.689  1.00 20.00     0.010 C 
HETATM   10  C10 UNL     1     -34.230  15.582  -4.551  1.00 20.00    -0.027 C 
HETATM   11  O11 UNL     1     -34.620  18.683  -3.364  1.00 20.00    -0.298 OA
ENDROOT
TORSDOF 0
ENDMDL
MODEL 5
REMARK VINA RESULT:      -4.4     11.145     12.121
REMARK  0 active torsions:
REMARK  status: ('A' for Active; 'I' for Inactive)
ROOT
HETATM    1  C1  UNL     1     -35.354  13.347  -6.357  1.00 20.00     0.128 C 
HETATM    2  C2  UNL     1     -35.594  13.822  -4.915  1.00 20.00     0.088 C 
HETATM    3  C3  UNL     1     -35.393  14.788  -6.893  1.00 20.00     0.088 C 
HETATM    4  C4  UNL     1     -35.491  16.320  -2.539  1.00 20.00     0.000 C 
HETATM    5  C5  UNL     1     -34.113  16.838  -2.927  1.00 20.00     0.000 C 
HETATM    6  C6  UNL     1     -36.580  16.472  -3.596  1.00 20.00     0.001 C 
HETATM    7  C7  UNL     1     -33.312  15.817  -3.733  1.00 20.00     0.001 C 
HETATM    8  C8  UNL     1     -36.172  16.400  -5.064  1.00 20.00     0.010 C 
HETATM    9  C9  UNL     1     -33.728  15.674  -5.191  1.00 20.00     0.010 C 
HETATM   10  C10 UNL     1     -35.199  15.264  -5.402  1.00 20.00    -0.027 C 
HETATM   11  O11 UNL     1     -35.187  12.261  -6.869  1.00 20.00    -0.298 OA
ENDROOT
TORSDOF 0
ENDMDL
MODEL 6
REMARK VINA RESULT:      -4.4     11.209     12.527
REMARK  0 active torsions:
REMARK  status: ('A' for Active; 'I' for Inactive)
ROOT
HETATM    1  C1  UNL     1     -35.513  13.800  -5.275  1.00 20.00     0.128 C 
HETATM    2  C2  UNL     1     -35.996  15.128  -4.672  1.00 20.00     0.088 C 
HETATM    3  C3  UNL     1     -34.297  14.479  -5.927  1.00 20.00     0.088 C 
HETATM    4  C4  UNL     1     -35.340  18.356  -3.646  1.00 20.00     0.000 C 
HETATM    5  C5  UNL     1     -34.034  18.024  -2.937  1.00 20.00     0.000 C 
HETATM    6  C6  UNL     1     -35.350  18.142  -5.156  1.00 20.00     0.001 C 
HETATM    7  C7  UNL     1     -33.909  16.537  -2.611  1.00 20.00     0.001 C 
HETATM    8  C8  UNL     1     -34.484  17.024  -5.729  1.00 20.00     0.010 C 
HETATM    9  C9  UNL     1     -33.557  15.642  -3.793  1.00 20.00     0.010 C 
HETATM   10  C10 UNL     1     -34.560  15.699  -4.962  1.00 20.00    -0.027 C 
HETATM   11  O11 UNL     1     -35.924  12.659  -5.239  1.00 20.00    -0.298 OA
ENDROOT
TORSDOF 0
ENDMDL
MODEL 7
REMARK VINA RESULT:      -4.3     11.124     12.680
REMARK  0 active torsions:
REMARK  status: ('A' for Active; 'I' for Inactive)
ROOT
HETATM    1  C1  UNL     1     -37.114  14.256  -5.162  1.00 20.00     0.128 C 
HETATM    2  C2  UNL     1     -36.517  15.640  -5.462  1.00 20.00     0.088 C 
HETATM    3  C3  UNL     1     -35.720  13.608  -5.108  1.00 20.00     0.088 C 
HETATM    4  C4  UNL     1     -33.844  17.818  -5.384  1.00 20.00     0.000 C 
HETATM    5  C5  UNL     1     -33.412  17.473  -3.965  1.00 20.00     0.000 C 
HETATM    6  C6  UNL     1     -33.734  16.690  -6.404  1.00 20.00     0.001 C 
HETATM    7  C7  UNL     1     -34.525  16.799  -3.165  1.00 20.00     0.001 C 
HETATM    8  C8  UNL     1     -33.938  15.259  -5.918  1.00 20.00     0.010 C 
HETATM    9  C9  UNL     1     -34.768  15.333  -3.504  1.00 20.00     0.010 C 
HETATM   10  C10 UNL     1     -35.135  15.068  -4.977  1.00 20.00    -0.027 C 
HETATM   11  O11 UNL     1     -38.244  13.840  -5.014  1.00 20.00    -0.298 OA
ENDROOT
TORSDOF 0
ENDMDL
MODEL 8
REMARK VINA RESULT:      -4.2     10.843     12.146
REMARK  0 active torsions:
REMARK  status: ('A' for Active; 'I' for Inactive)
ROOT
HETATM    1  C1  UNL     1     -35.354  17.088  -1.421  1.00 20.00     0.128 C 
HETATM    2  C2  UNL     1     -34.175  16.687  -2.323  1.00 20.00     0.088 C 
HETATM    3  C3  UNL     1     -36.243  17.404  -2.635  1.00 20.00     0.088 C 
HETATM    4  C4  UNL     1     -32.981  15.633  -5.382  1.00 20.00     0.000 C 
HETATM    5  C5  UNL     1     -34.060  14.582  -5.609  1.00 20.00     0.000 C 
HETATM    6  C6  UNL     1     -33.463  17.079  -5.335  1.00 20.00     0.001 C 
HETATM    7  C7  UNL     1     -34.765  14.182  -4.314  1.00 20.00     0.001 C 
HETATM    8  C8  UNL     1     -34.861  17.353  -4.790  1.00 20.00     0.010 C 
HETATM    9  C9  UNL     1     -35.782  15.190  -3.794  1.00 20.00     0.010 C 
HETATM   10  C10 UNL     1     -35.208  16.591  -3.505  1.00 20.00    -0.027 C 
HETATM   11  O11 UNL     1     -35.520  17.127  -0.220  1.00 20.00    -0.298 OA
ENDROOT
TORSDOF 0
ENDMDL
MODEL 9
REMARK VINA RESULT:      -4.2     10.949     12.144
REMARK  0 active torsions:
REMARK  status: ('A' for Active; 'I' for Inactive)
ROOT
HETATM    1  C1  UNL     1     -34.444  17.535  -0.891  1.00 20.00     0.128 C 
HETATM    2  C2  UNL     1     -35.256  16.544  -1.739  1.00 20.00     0.088 C 
HETATM    3  C3  UNL     1     -33.269  17.502  -1.882  1.00 20.00     0.088 C 
HETATM    4  C4  UNL     1     -35.885  15.028  -4.773  1.00 20.00     0.000 C 
HETATM    5  C5  UNL     1     -35.780  16.302  -5.600  1.00 20.00     0.000 C 
HETATM    6  C6  UNL     1     -34.604  14.582  -4.076  1.00 20.00     0.001 C 
HETATM    7  C7  UNL     1     -35.940  17.563  -4.753  1.00 20.00     0.001 C 
HETATM    8  C8  UNL     1     -33.621  15.656  -3.621  1.00 20.00     0.010 C 
HETATM    9  C9  UNL     1     -34.722  17.940  -3.919  1.00 20.00     0.010 C 
HETATM   10  C10 UNL     1     -34.267  16.858  -2.921  1.00 20.00    -0.027 C 
HETATM   11  O11 UNL     1     -34.654  18.123   0.149  1.00 20.00    -0.298 OA
ENDROOT
TORSDOF 0
ENDMDL
