MODEL 1
REMARK VINA RESULT:      -4.4      0.000      0.000
REMARK  3 active torsions:
REMARK  status: ('A' for Active; 'I' for Inactive)
REMARK    1  A    between atoms: C5_5  and  C7_7 
REMARK    2  A    between atoms: C5_5  and  O9_9 
REMARK    3  A    between atoms: C6_6  and  C7_7 
ROOT
HETATM    1  C1  UNL     1     -33.341   5.209   2.948  1.00 20.00     0.088 C 
HETATM    2  C7  UNL     1     -34.005   6.278   3.729  1.00 20.00     0.149 C 
HETATM    3  N8  UNL     1     -32.817   4.374   2.337  1.00 20.00    -0.195 NA
HETATM    4 CL10 UNL     1     -35.768   6.142   3.375  1.00 20.00    -0.100 Cl
ENDROOT
BRANCH   2   5
HETATM    5  C5  UNL     1     -33.511   7.651   3.227  1.00 20.00     0.208 C 
BRANCH   5   6
HETATM    6  O9  UNL     1     -32.134   7.602   2.860  1.00 20.00    -0.393 OA
HETATM    7  C4  UNL     1     -31.848   8.509   1.806  1.00 20.00     0.201 C 
ENDBRANCH   5   6
ENDBRANCH   2   5
BRANCH   2   8
HETATM    8  C6  UNL     1     -33.720   6.085   5.255  1.00 20.00     0.017 C 
HETATM    9  C2  UNL     1     -33.787   7.386   6.070  1.00 20.00     0.012 C 
HETATM   10  C3  UNL     1     -34.632   5.044   5.929  1.00 20.00     0.012 C 
ENDBRANCH   2   8
TORSDOF 3
ENDMDL
MODEL 2
REMARK VINA RESULT:      -3.7     11.722     12.803
REMARK  3 active torsions:
REMARK  status: ('A' for Active; 'I' for Inactive)
REMARK    1  A    between atoms: C5_5  and  C7_7 
REMARK    2  A    between atoms: C5_5  and  O9_9 
REMARK    3  A    between atoms: C6_6  and  C7_7 
ROOT
HETATM    1  C1  UNL     1     -35.390  13.805  -5.085  1.00 20.00     0.088 C 
HETATM    2  C7  UNL     1     -34.661  15.070  -4.840  1.00 20.00     0.149 C 
HETATM    3  N8  UNL     1     -35.965  12.816  -5.277  1.00 20.00    -0.195 NA
HETATM    4 CL10 UNL     1     -33.021  14.603  -4.252  1.00 20.00    -0.100 Cl
ENDROOT
BRANCH   2   5
HETATM    5  C5  UNL     1     -35.375  15.856  -3.721  1.00 20.00     0.208 C 
BRANCH   5   6
HETATM    6  O9  UNL     1     -34.485  16.152  -2.647  1.00 20.00    -0.393 OA
HETATM    7  C4  UNL     1     -35.149  16.845  -1.601  1.00 20.00     0.201 C 
ENDBRANCH   5   6
ENDBRANCH   2   5
BRANCH   2   8
HETATM    8  C6  UNL     1     -34.569  15.903  -6.161  1.00 20.00     0.017 C 
HETATM    9  C2  UNL     1     -33.872  17.262  -5.994  1.00 20.00     0.012 C 
HETATM   10  C3  UNL     1     -33.892  15.151  -7.322  1.00 20.00     0.012 C 
ENDBRANCH   2   8
TORSDOF 3
ENDMDL
MODEL 3
REMARK VINA RESULT:      -3.7     11.995     12.665
REMARK  3 active torsions:
REMARK  status: ('A' for Active; 'I' for Inactive)
REMARK    1  A    between atoms: C5_5  and  C7_7 
REMARK    2  A    between atoms: C5_5  and  O9_9 
REMARK    3  A    between atoms: C6_6  and  C7_7 
ROOT
HETATM    1  C1  UNL     1     -35.706  13.867  -5.018  1.00 20.00     0.088 C 
HETATM    2  C7  UNL     1     -35.403  15.257  -4.609  1.00 20.00     0.149 C 
HETATM    3  N8  UNL     1     -35.941  12.778  -5.343  1.00 20.00    -0.195 NA
HETATM    4 CL10 UNL     1     -36.842  15.839  -3.691  1.00 20.00    -0.100 Cl
ENDROOT
BRANCH   2   5
HETATM    5  C5  UNL     1     -35.242  16.132  -5.870  1.00 20.00     0.208 C 
BRANCH   5   6
HETATM    6  O9  UNL     1     -35.191  15.333  -7.050  1.00 20.00    -0.393 OA
HETATM    7  C4  UNL     1     -34.072  15.671  -7.855  1.00 20.00     0.201 C 
ENDBRANCH   5   6
ENDBRANCH   2   5
BRANCH   2   8
HETATM    8  C6  UNL     1     -34.117  15.287  -3.718  1.00 20.00     0.017 C 
HETATM    9  C2  UNL     1     -32.877  14.682  -4.395  1.00 20.00     0.012 C 
HETATM   10  C3  UNL     1     -33.752  16.691  -3.203  1.00 20.00     0.012 C 
ENDBRANCH   2   8
TORSDOF 3
ENDMDL
MODEL 4
REMARK VINA RESULT:      -3.7     11.918     12.638
REMARK  3 active torsions:
REMARK  status: ('A' for Active; 'I' for Inactive)
REMARK    1  A    between atoms: C5_5  and  C7_7 
REMARK    2  A    between atoms: C5_5  and  O9_9 
REMARK    3  A    between atoms: C6_6  and  C7_7 
ROOT
HETATM    1  C1  UNL     1     -34.448  14.845  -3.965  1.00 20.00     0.088 C 
HETATM    2  C7  UNL     1     -34.480  16.310  -3.749  1.00 20.00     0.149 C 
HETATM    3  N8  UNL     1     -34.419  13.698  -4.135  1.00 20.00    -0.195 NA
HETATM    4 CL10 UNL     1     -36.151  16.846  -4.161  1.00 20.00    -0.100 Cl
ENDROOT
BRANCH   2   5
HETATM    5  C5  UNL     1     -33.495  16.986  -4.726  1.00 20.00     0.208 C 
BRANCH   5   6
HETATM    6  O9  UNL     1     -33.361  16.233  -5.929  1.00 20.00    -0.393 OA
HETATM    7  C4  UNL     1     -33.894  16.937  -7.041  1.00 20.00     0.201 C 
ENDBRANCH   5   6
ENDBRANCH   2   5
BRANCH   2   8
HETATM    8  C6  UNL     1     -34.133  16.640  -2.259  1.00 20.00     0.017 C 
HETATM    9  C2  UNL     1     -33.159  17.817  -2.094  1.00 20.00     0.012 C 
HETATM   10  C3  UNL     1     -35.368  16.906  -1.380  1.00 20.00     0.012 C 
ENDBRANCH   2   8
TORSDOF 3
ENDMDL
MODEL 5
REMARK VINA RESULT:      -3.7     12.178     12.627
REMARK  3 active torsions:
REMARK  status: ('A' for Active; 'I' for Inactive)
REMARK    1  A    between atoms: C5_5  and  C7_7 
REMARK    2  A    between atoms: C5_5  and  O9_9 
REMARK    3  A    between atoms: C6_6  and  C7_7 
ROOT
HETATM    1  C1  UNL     1     -33.966  16.252  -5.448  1.00 20.00     0.088 C 
HETATM    2  C7  UNL     1     -34.251  15.191  -4.455  1.00 20.00     0.149 C 
HETATM    3  N8  UNL     1     -33.748  17.083  -6.227  1.00 20.00    -0.195 NA
HETATM    4 CL10 UNL     1     -32.724  14.249  -4.270  1.00 20.00    -0.100 Cl
ENDROOT
BRANCH   2   5
HETATM    5  C5  UNL     1     -35.339  14.252  -5.016  1.00 20.00     0.208 C 
BRANCH   5   6
HETATM    6  O9  UNL     1     -34.766  13.198  -5.786  1.00 20.00    -0.393 OA
HETATM    7  C4  UNL     1     -35.245  13.214  -7.122  1.00 20.00     0.201 C 
ENDBRANCH   5   6
ENDBRANCH   2   5
BRANCH   2   8
HETATM    8  C6  UNL     1     -34.686  15.831  -3.095  1.00 20.00     0.017 C 
HETATM    9  C2  UNL     1     -33.681  16.850  -2.537  1.00 20.00     0.012 C 
HETATM   10  C3  UNL     1     -36.075  16.493  -3.138  1.00 20.00     0.012 C 
ENDBRANCH   2   8
TORSDOF 3
ENDMDL
MODEL 6
REMARK VINA RESULT:      -3.6     12.130     12.864
REMARK  3 active torsions:
REMARK  status: ('A' for Active; 'I' for Inactive)
REMARK    1  A    between atoms: C5_5  and  C7_7 
REMARK    2  A    between atoms: C5_5  and  O9_9 
REMARK    3  A    between atoms: C6_6  and  C7_7 
ROOT
HETATM    1  C1  UNL     1     -35.458  15.846  -5.964  1.00 20.00     0.088 C 
HETATM    2  C7  UNL     1     -35.724  14.854  -4.897  1.00 20.00     0.149 C 
HETATM    3  N8  UNL     1     -35.251  16.626  -6.798  1.00 20.00    -0.195 NA
HETATM    4 CL10 UNL     1     -35.826  13.249  -5.713  1.00 20.00    -0.100 Cl
ENDROOT
BRANCH   2   5
HETATM    5  C5  UNL     1     -37.091  15.161  -4.251  1.00 20.00     0.208 C 
BRANCH   5   6
HETATM    6  O9  UNL     1     -38.085  14.233  -4.678  1.00 20.00    -0.393 OA
HETATM    7  C4  UNL     1     -39.147  14.888  -5.355  1.00 20.00     0.201 C 
ENDBRANCH   5   6
ENDBRANCH   2   5
BRANCH   2   8
HETATM    8  C6  UNL     1     -34.569  14.877  -3.842  1.00 20.00     0.017 C 
HETATM    9  C2  UNL     1     -33.171  14.665  -4.445  1.00 20.00     0.012 C 
HETATM   10  C3  UNL     1     -34.538  16.156  -2.984  1.00 20.00     0.012 C 
ENDBRANCH   2   8
TORSDOF 3
ENDMDL
MODEL 7
REMARK VINA RESULT:      -3.5     11.957     13.206
REMARK  3 active torsions:
REMARK  status: ('A' for Active; 'I' for Inactive)
REMARK    1  A    between atoms: C5_5  and  C7_7 
REMARK    2  A    between atoms: C5_5  and  O9_9 
REMARK    3  A    between atoms: C6_6  and  C7_7 
ROOT
HETATM    1  C1  UNL     1     -35.736  13.854  -5.032  1.00 20.00     0.088 C 
HETATM    2  C7  UNL     1     -35.635  15.290  -4.685  1.00 20.00     0.149 C 
HETATM    3  N8  UNL     1     -35.820  12.729  -5.305  1.00 20.00    -0.195 NA
HETATM    4 CL10 UNL     1     -34.342  15.418  -3.435  1.00 20.00    -0.100 Cl
ENDROOT
BRANCH   2   5
HETATM    5  C5  UNL     1     -36.967  15.754  -4.060  1.00 20.00     0.208 C 
BRANCH   5   6
HETATM    6  O9  UNL     1     -37.995  14.785  -4.255  1.00 20.00    -0.393 OA
HETATM    7  C4  UNL     1     -39.148  15.366  -4.846  1.00 20.00     0.201 C 
ENDBRANCH   5   6
ENDBRANCH   2   5
BRANCH   2   8
HETATM    8  C6  UNL     1     -35.273  16.126  -5.958  1.00 20.00     0.017 C 
HETATM    9  C2  UNL     1     -36.250  17.277  -6.244  1.00 20.00     0.012 C 
HETATM   10  C3  UNL     1     -33.844  16.697  -5.938  1.00 20.00     0.012 C 
ENDBRANCH   2   8
TORSDOF 3
ENDMDL
MODEL 8
REMARK VINA RESULT:      -3.5     12.533     13.145
REMARK  3 active torsions:
REMARK  status: ('A' for Active; 'I' for Inactive)
REMARK    1  A    between atoms: C5_5  and  C7_7 
REMARK    2  A    between atoms: C5_5  and  O9_9 
REMARK    3  A    between atoms: C6_6  and  C7_7 
ROOT
HETATM    1  C1  UNL     1     -36.961  14.395  -5.149  1.00 20.00     0.088 C 
HETATM    2  C7  UNL     1     -35.585  14.886  -5.389  1.00 20.00     0.149 C 
HETATM    3  N8  UNL     1     -38.041  14.014  -4.962  1.00 20.00    -0.195 NA
HETATM    4 CL10 UNL     1     -34.530  14.039  -4.197  1.00 20.00    -0.100 Cl
ENDROOT
BRANCH   2   5
HETATM    5  C5  UNL     1     -35.531  16.401  -5.099  1.00 20.00     0.208 C 
BRANCH   5   6
HETATM    6  O9  UNL     1     -34.554  16.703  -4.105  1.00 20.00    -0.393 OA
HETATM    7  C4  UNL     1     -33.660  17.712  -4.548  1.00 20.00     0.201 C 
ENDBRANCH   5   6
ENDBRANCH   2   5
BRANCH   2   8
HETATM    8  C6  UNL     1     -35.148  14.564  -6.857  1.00 20.00     0.017 C 
HETATM    9  C2  UNL     1     -33.793  15.172  -7.250  1.00 20.00     0.012 C 
HETATM   10  C3  UNL     1     -35.116  13.059  -7.178  1.00 20.00     0.012 C 
ENDBRANCH   2   8
TORSDOF 3
ENDMDL
MODEL 9
REMARK VINA RESULT:      -3.5      2.263      2.652
REMARK  3 active torsions:
REMARK  status: ('A' for Active; 'I' for Inactive)
REMARK    1  A    between atoms: C5_5  and  C7_7 
REMARK    2  A    between atoms: C5_5  and  O9_9 
REMARK    3  A    between atoms: C6_6  and  C7_7 
ROOT
HETATM    1  C1  UNL     1     -31.897   7.820   3.594  1.00 20.00     0.088 C 
HETATM    2  C7  UNL     1     -33.132   7.187   3.075  1.00 20.00     0.149 C 
HETATM    3  N8  UNL     1     -30.932   8.320   4.000  1.00 20.00    -0.195 NA
HETATM    4 CL10 UNL     1     -32.661   5.534   2.531  1.00 20.00    -0.100 Cl
ENDROOT
BRANCH   2   5
HETATM    5  C5  UNL     1     -33.630   7.981   1.850  1.00 20.00     0.208 C 
BRANCH   5   6
HETATM    6  O9  UNL     1     -32.548   8.606   1.163  1.00 20.00    -0.393 OA
HETATM    7  C4  UNL     1     -32.868   9.941   0.800  1.00 20.00     0.201 C 
ENDBRANCH   5   6
ENDBRANCH   2   5
BRANCH   2   8
HETATM    8  C6  UNL     1     -34.216   7.122   4.201  1.00 20.00     0.017 C 
HETATM    9  C2  UNL     1     -35.060   5.838   4.179  1.00 20.00     0.012 C 
HETATM   10  C3  UNL     1     -33.648   7.305   5.620  1.00 20.00     0.012 C 
ENDBRANCH   2   8
TORSDOF 3
ENDMDL
