MODEL 1
REMARK VINA RESULT:      -5.5      0.000      0.000
REMARK  4 active torsions:
REMARK  status: ('A' for Active; 'I' for Inactive)
REMARK    1  A    between atoms: C2_2  and  C6_6 
REMARK    2  A    between atoms: C6_6  and  O10_10 
REMARK    3  A    between atoms: C7_7  and  C8_8 
REMARK    4  A    between atoms: C8_8  and  O10_10 
ROOT
HETATM    1  C5  UNL     1     -33.349   5.192   2.919  1.00 20.00     0.040 C 
HETATM    2  C8  UNL     1     -34.156   6.371   3.450  1.00 20.00     0.120 C 
ENDROOT
BRANCH   2   3
HETATM    3  C7  UNL     1     -34.604   6.199   4.917  1.00 20.00     0.006 C 
HETATM    4  C3  UNL     1     -33.819   7.093   5.879  1.00 20.00     0.012 C 
HETATM    5  C4  UNL     1     -34.472   4.736   5.359  1.00 20.00     0.012 C 
ENDBRANCH   2   3
BRANCH   2   6
HETATM    6  O10 UNL     1     -33.338   7.540   3.358  1.00 20.00    -0.383 OA
BRANCH   6   7
HETATM    7  C6  UNL     1     -32.548   7.522   2.179  1.00 20.00     0.202 C 
BRANCH   7   8
HETATM    8  C2  UNL     1     -32.181   8.944   1.812  1.00 20.00     0.169 A 
HETATM    9  C1  UNL     1     -32.755   9.606   0.590  1.00 20.00     0.202 A 
HETATM   10  O9  UNL     1     -31.422   9.070   0.605  1.00 20.00    -0.379 OA
ENDBRANCH   7   8
ENDBRANCH   6   7
ENDBRANCH   2   6
TORSDOF 4
ENDMDL
MODEL 2
REMARK VINA RESULT:      -5.1      0.363      1.171
REMARK  4 active torsions:
REMARK  status: ('A' for Active; 'I' for Inactive)
REMARK    1  A    between atoms: C2_2  and  C6_6 
REMARK    2  A    between atoms: C6_6  and  O10_10 
REMARK    3  A    between atoms: C7_7  and  C8_8 
REMARK    4  A    between atoms: C8_8  and  O10_10 
ROOT
HETATM    1  C5  UNL     1     -33.313   5.381   2.679  1.00 20.00     0.040 C 
HETATM    2  C8  UNL     1     -33.973   6.392   3.610  1.00 20.00     0.120 C 
ENDROOT
BRANCH   2   3
HETATM    3  C7  UNL     1     -33.752   6.086   5.107  1.00 20.00     0.006 C 
HETATM    4  C3  UNL     1     -34.743   5.051   5.645  1.00 20.00     0.012 C 
HETATM    5  C4  UNL     1     -33.848   7.367   5.945  1.00 20.00     0.012 C 
ENDBRANCH   2   3
BRANCH   2   6
HETATM    6  O10 UNL     1     -33.420   7.678   3.323  1.00 20.00    -0.383 OA
BRANCH   6   7
HETATM    7  C6  UNL     1     -32.535   7.621   2.215  1.00 20.00     0.202 C 
BRANCH   7   8
HETATM    8  C2  UNL     1     -32.177   9.031   1.798  1.00 20.00     0.169 A 
HETATM    9  C1  UNL     1     -32.766   9.650   0.561  1.00 20.00     0.202 A 
HETATM   10  O9  UNL     1     -31.431   9.120   0.580  1.00 20.00    -0.379 OA
ENDBRANCH   7   8
ENDBRANCH   6   7
ENDBRANCH   2   6
TORSDOF 4
ENDMDL
MODEL 3
REMARK VINA RESULT:      -4.9      0.704      1.800
REMARK  4 active torsions:
REMARK  status: ('A' for Active; 'I' for Inactive)
REMARK    1  A    between atoms: C2_2  and  C6_6 
REMARK    2  A    between atoms: C6_6  and  O10_10 
REMARK    3  A    between atoms: C7_7  and  C8_8 
REMARK    4  A    between atoms: C8_8  and  O10_10 
ROOT
HETATM    1  C5  UNL     1     -33.657   7.340   5.487  1.00 20.00     0.040 C 
HETATM    2  C8  UNL     1     -33.251   6.874   4.093  1.00 20.00     0.120 C 
ENDROOT
BRANCH   2   3
HETATM    3  C7  UNL     1     -34.074   5.672   3.584  1.00 20.00     0.006 C 
HETATM    4  C3  UNL     1     -34.704   4.867   4.723  1.00 20.00     0.012 C 
HETATM    5  C4  UNL     1     -33.207   4.743   2.723  1.00 20.00     0.012 C 
ENDBRANCH   2   3
BRANCH   2   6
HETATM    6  O10 UNL     1     -33.437   7.967   3.193  1.00 20.00    -0.383 OA
BRANCH   6   7
HETATM    7  C6  UNL     1     -32.345   8.083   2.294  1.00 20.00     0.202 C 
BRANCH   7   8
HETATM    8  C2  UNL     1     -32.511   9.348   1.478  1.00 20.00     0.169 A 
HETATM    9  C1  UNL     1     -32.918   9.292   0.031  1.00 20.00     0.202 A 
HETATM   10  O9  UNL     1     -31.554   9.508   0.427  1.00 20.00    -0.379 OA
ENDBRANCH   7   8
ENDBRANCH   6   7
ENDBRANCH   2   6
TORSDOF 4
ENDMDL
MODEL 4
REMARK VINA RESULT:      -4.7      1.568      4.997
REMARK  4 active torsions:
REMARK  status: ('A' for Active; 'I' for Inactive)
REMARK    1  A    between atoms: C2_2  and  C6_6 
REMARK    2  A    between atoms: C6_6  and  O10_10 
REMARK    3  A    between atoms: C7_7  and  C8_8 
REMARK    4  A    between atoms: C8_8  and  O10_10 
ROOT
HETATM    1  C5  UNL     1     -31.647   8.019   3.339  1.00 20.00     0.040 C 
HETATM    2  C8  UNL     1     -32.904   8.198   2.495  1.00 20.00     0.120 C 
ENDROOT
BRANCH   2   3
HETATM    3  C7  UNL     1     -32.651   8.930   1.160  1.00 20.00     0.006 C 
HETATM    4  C3  UNL     1     -31.266   8.631   0.583  1.00 20.00     0.012 C 
HETATM    5  C4  UNL     1     -32.816  10.445   1.329  1.00 20.00     0.012 C 
ENDBRANCH   2   3
BRANCH   2   6
HETATM    6  O10 UNL     1     -33.431   6.900   2.210  1.00 20.00    -0.383 OA
BRANCH   6   7
HETATM    7  C6  UNL     1     -33.197   6.005   3.286  1.00 20.00     0.202 C 
BRANCH   7   8
HETATM    8  C2  UNL     1     -34.525   5.609   3.895  1.00 20.00     0.169 A 
HETATM    9  C1  UNL     1     -34.640   5.264   5.354  1.00 20.00     0.202 A 
HETATM   10  O9  UNL     1     -34.596   4.250   4.337  1.00 20.00    -0.379 OA
ENDBRANCH   7   8
ENDBRANCH   6   7
ENDBRANCH   2   6
TORSDOF 4
ENDMDL
MODEL 5
REMARK VINA RESULT:      -4.6      1.235      1.693
REMARK  4 active torsions:
REMARK  status: ('A' for Active; 'I' for Inactive)
REMARK    1  A    between atoms: C2_2  and  C6_6 
REMARK    2  A    between atoms: C6_6  and  O10_10 
REMARK    3  A    between atoms: C7_7  and  C8_8 
REMARK    4  A    between atoms: C8_8  and  O10_10 
ROOT
HETATM    1  C5  UNL     1     -31.723   8.197   4.126  1.00 20.00     0.040 C 
HETATM    2  C8  UNL     1     -32.698   7.158   3.583  1.00 20.00     0.120 C 
ENDROOT
BRANCH   2   3
HETATM    3  C7  UNL     1     -34.024   7.089   4.370  1.00 20.00     0.006 C 
HETATM    4  C3  UNL     1     -33.816   7.206   5.881  1.00 20.00     0.012 C 
HETATM    5  C4  UNL     1     -34.775   5.787   4.059  1.00 20.00     0.012 C 
ENDBRANCH   2   3
BRANCH   2   6
HETATM    6  O10 UNL     1     -32.991   7.498   2.226  1.00 20.00    -0.383 OA
BRANCH   6   7
HETATM    7  C6  UNL     1     -32.148   8.542   1.765  1.00 20.00     0.202 C 
BRANCH   7   8
HETATM    8  C2  UNL     1     -32.990   9.571   1.043  1.00 20.00     0.169 A 
HETATM    9  C1  UNL     1     -33.121   9.556  -0.455  1.00 20.00     0.202 A 
HETATM   10  O9  UNL     1     -32.248  10.476   0.219  1.00 20.00    -0.379 OA
ENDBRANCH   7   8
ENDBRANCH   6   7
ENDBRANCH   2   6
TORSDOF 4
ENDMDL
MODEL 6
REMARK VINA RESULT:      -4.5      1.479      4.851
REMARK  4 active torsions:
REMARK  status: ('A' for Active; 'I' for Inactive)
REMARK    1  A    between atoms: C2_2  and  C6_6 
REMARK    2  A    between atoms: C6_6  and  O10_10 
REMARK    3  A    between atoms: C7_7  and  C8_8 
REMARK    4  A    between atoms: C8_8  and  O10_10 
ROOT
HETATM    1  C5  UNL     1     -31.483   8.248   3.344  1.00 20.00     0.040 C 
HETATM    2  C8  UNL     1     -32.630   8.519   2.377  1.00 20.00     0.120 C 
ENDROOT
BRANCH   2   3
HETATM    3  C7  UNL     1     -32.219   9.374   1.160  1.00 20.00     0.006 C 
HETATM    4  C3  UNL     1     -32.476  10.867   1.379  1.00 20.00     0.012 C 
HETATM    5  C4  UNL     1     -32.954   8.912  -0.105  1.00 20.00     0.012 C 
ENDBRANCH   2   3
BRANCH   2   6
HETATM    6  O10 UNL     1     -33.114   7.259   1.906  1.00 20.00    -0.383 OA
BRANCH   6   7
HETATM    7  C6  UNL     1     -32.966   6.251   2.893  1.00 20.00     0.202 C 
BRANCH   7   8
HETATM    8  C2  UNL     1     -34.337   5.840   3.385  1.00 20.00     0.169 A 
HETATM    9  C1  UNL     1     -34.655   5.792   4.854  1.00 20.00     0.202 A 
HETATM   10  O9  UNL     1     -34.366   4.602   4.103  1.00 20.00    -0.379 OA
ENDBRANCH   7   8
ENDBRANCH   6   7
ENDBRANCH   2   6
TORSDOF 4
ENDMDL
MODEL 7
REMARK VINA RESULT:      -3.9      1.587      5.016
REMARK  4 active torsions:
REMARK  status: ('A' for Active; 'I' for Inactive)
REMARK    1  A    between atoms: C2_2  and  C6_6 
REMARK    2  A    between atoms: C6_6  and  O10_10 
REMARK    3  A    between atoms: C7_7  and  C8_8 
REMARK    4  A    between atoms: C8_8  and  O10_10 
ROOT
HETATM    1  C5  UNL     1     -31.097   8.291   0.715  1.00 20.00     0.040 C 
HETATM    2  C8  UNL     1     -32.100   8.744   1.771  1.00 20.00     0.120 C 
ENDROOT
BRANCH   2   3
HETATM    3  C7  UNL     1     -33.056   9.849   1.277  1.00 20.00     0.006 C 
HETATM    4  C3  UNL     1     -33.237   9.832  -0.242  1.00 20.00     0.012 C 
HETATM    5  C4  UNL     1     -32.562  11.234   1.716  1.00 20.00     0.012 C 
ENDBRANCH   2   3
BRANCH   2   6
HETATM    6  O10 UNL     1     -32.877   7.607   2.155  1.00 20.00    -0.383 OA
BRANCH   6   7
HETATM    7  C6  UNL     1     -32.602   7.226   3.494  1.00 20.00     0.202 C 
BRANCH   7   8
HETATM    8  C2  UNL     1     -33.900   7.200   4.274  1.00 20.00     0.169 A 
HETATM    9  C1  UNL     1     -33.904   7.078   5.772  1.00 20.00     0.202 A 
HETATM   10  O9  UNL     1     -34.180   5.955   4.921  1.00 20.00    -0.379 OA
ENDBRANCH   7   8
ENDBRANCH   6   7
ENDBRANCH   2   6
TORSDOF 4
ENDMDL
MODEL 8
REMARK VINA RESULT:      -3.9     10.923     11.624
REMARK  4 active torsions:
REMARK  status: ('A' for Active; 'I' for Inactive)
REMARK    1  A    between atoms: C2_2  and  C6_6 
REMARK    2  A    between atoms: C6_6  and  O10_10 
REMARK    3  A    between atoms: C7_7  and  C8_8 
REMARK    4  A    between atoms: C8_8  and  O10_10 
ROOT
HETATM    1  C5  UNL     1     -33.388  16.418  -5.430  1.00 20.00     0.040 C 
HETATM    2  C8  UNL     1     -33.379  15.426  -4.272  1.00 20.00     0.120 C 
ENDROOT
BRANCH   2   3
HETATM    3  C7  UNL     1     -34.280  15.848  -3.093  1.00 20.00     0.006 C 
HETATM    4  C3  UNL     1     -35.665  16.310  -3.550  1.00 20.00     0.012 C 
HETATM    5  C4  UNL     1     -33.617  16.961  -2.271  1.00 20.00     0.012 C 
ENDBRANCH   2   3
BRANCH   2   6
HETATM    6  O10 UNL     1     -33.839  14.167  -4.770  1.00 20.00    -0.383 OA
BRANCH   6   7
HETATM    7  C6  UNL     1     -34.189  14.255  -6.142  1.00 20.00     0.202 C 
BRANCH   7   8
HETATM    8  C2  UNL     1     -35.414  13.401  -6.393  1.00 20.00     0.169 A 
HETATM    9  C1  UNL     1     -36.772  13.827  -5.908  1.00 20.00     0.202 A 
HETATM   10  O9  UNL     1     -35.997  12.836  -5.215  1.00 20.00    -0.379 OA
ENDBRANCH   7   8
ENDBRANCH   6   7
ENDBRANCH   2   6
TORSDOF 4
ENDMDL
MODEL 9
REMARK VINA RESULT:      -3.8     10.873     11.413
REMARK  4 active torsions:
REMARK  status: ('A' for Active; 'I' for Inactive)
REMARK    1  A    between atoms: C2_2  and  C6_6 
REMARK    2  A    between atoms: C6_6  and  O10_10 
REMARK    3  A    between atoms: C7_7  and  C8_8 
REMARK    4  A    between atoms: C8_8  and  O10_10 
ROOT
HETATM    1  C5  UNL     1     -36.320  17.021  -3.039  1.00 20.00     0.040 C 
HETATM    2  C8  UNL     1     -34.816  16.787  -2.956  1.00 20.00     0.120 C 
ENDROOT
BRANCH   2   3
HETATM    3  C7  UNL     1     -34.244  16.956  -1.533  1.00 20.00     0.006 C 
HETATM    4  C3  UNL     1     -35.296  17.439  -0.532  1.00 20.00     0.012 C 
HETATM    5  C4  UNL     1     -33.057  17.928  -1.533  1.00 20.00     0.012 C 
ENDBRANCH   2   3
BRANCH   2   6
HETATM    6  O10 UNL     1     -34.554  15.452  -3.396  1.00 20.00    -0.383 OA
BRANCH   6   7
HETATM    7  C6  UNL     1     -35.598  14.973  -4.229  1.00 20.00     0.202 C 
BRANCH   7   8
HETATM    8  C2  UNL     1     -35.058  13.864  -5.106  1.00 20.00     0.169 A 
HETATM    9  C1  UNL     1     -35.703  13.529  -6.422  1.00 20.00     0.202 A 
HETATM   10  O9  UNL     1     -35.930  12.737  -5.245  1.00 20.00    -0.379 OA
ENDBRANCH   7   8
ENDBRANCH   6   7
ENDBRANCH   2   6
TORSDOF 4
ENDMDL
