MODEL 1
REMARK VINA RESULT:      -4.9      0.000      0.000
REMARK  1 active torsions:
REMARK  status: ('A' for Active; 'I' for Inactive)
REMARK    1  A    between atoms: C6_6  and  O8_8 
ROOT
HETATM    1  C1  UNL     1     -31.799   8.387   2.115  1.00 20.00     0.002 C 
HETATM    2  C2  UNL     1     -33.342   8.239   2.147  1.00 20.00     0.010 C 
HETATM    3  C3  UNL     1     -31.762   7.794   3.548  1.00 20.00     0.010 C 
HETATM    4  C4  UNL     1     -34.157   7.130   4.356  1.00 20.00     0.041 C 
HETATM    5  C5  UNL     1     -33.274   5.767   2.927  1.00 20.00     0.041 C 
HETATM    6  C6  UNL     1     -34.635   5.814   3.679  1.00 20.00     0.119 C 
HETATM    7  C7  UNL     1     -33.132   7.234   3.260  1.00 20.00    -0.036 C 
ENDROOT
BRANCH   6   8
HETATM    8  O8  UNL     1     -34.903   4.717   4.568  1.00 20.00    -0.396 OA
HETATM    9  H20 UNL     1     -35.370   5.098   5.324  1.00 20.00     0.210 HD
ENDBRANCH   6   8
TORSDOF 1
ENDMDL
MODEL 2
REMARK VINA RESULT:      -4.8      2.128      3.553
REMARK  1 active torsions:
REMARK  status: ('A' for Active; 'I' for Inactive)
REMARK    1  A    between atoms: C6_6  and  O8_8 
ROOT
HETATM    1  C1  UNL     1     -34.765   5.146   5.307  1.00 20.00     0.002 C 
HETATM    2  C2  UNL     1     -33.826   6.362   5.513  1.00 20.00     0.010 C 
HETATM    3  C3  UNL     1     -35.195   5.771   3.954  1.00 20.00     0.010 C 
HETATM    4  C4  UNL     1     -33.879   7.977   3.472  1.00 20.00     0.041 C 
HETATM    5  C5  UNL     1     -32.745   6.161   3.165  1.00 20.00     0.041 C 
HETATM    6  C6  UNL     1     -32.421   7.675   3.022  1.00 20.00     0.119 C 
HETATM    7  C7  UNL     1     -33.922   6.575   4.017  1.00 20.00    -0.036 C 
ENDROOT
BRANCH   6   8
HETATM    8  O8  UNL     1     -32.069   8.125   1.703  1.00 20.00    -0.396 OA
HETATM    9  H20 UNL     1     -32.620   7.614   1.095  1.00 20.00     0.210 HD
ENDBRANCH   6   8
TORSDOF 1
ENDMDL
MODEL 3
REMARK VINA RESULT:      -4.6      2.109      3.606
REMARK  1 active torsions:
REMARK  status: ('A' for Active; 'I' for Inactive)
REMARK    1  A    between atoms: C6_6  and  O8_8 
ROOT
HETATM    1  C1  UNL     1     -35.131   4.808   4.878  1.00 20.00     0.002 C 
HETATM    2  C2  UNL     1     -35.358   5.930   3.832  1.00 20.00     0.010 C 
HETATM    3  C3  UNL     1     -33.707   4.619   4.294  1.00 20.00     0.010 C 
HETATM    4  C4  UNL     1     -33.227   6.350   2.396  1.00 20.00     0.041 C 
HETATM    5  C5  UNL     1     -33.145   7.160   4.400  1.00 20.00     0.041 C 
HETATM    6  C6  UNL     1     -32.945   7.763   2.981  1.00 20.00     0.119 C 
HETATM    7  C7  UNL     1     -33.849   6.007   3.722  1.00 20.00    -0.036 C 
ENDROOT
BRANCH   6   8
HETATM    8  O8  UNL     1     -31.644   8.305   2.703  1.00 20.00    -0.396 OA
HETATM    9  H20 UNL     1     -31.117   8.149   3.498  1.00 20.00     0.210 HD
ENDBRANCH   6   8
TORSDOF 1
ENDMDL
MODEL 4
REMARK VINA RESULT:      -4.5      0.522      1.603
REMARK  1 active torsions:
REMARK  status: ('A' for Active; 'I' for Inactive)
REMARK    1  A    between atoms: C6_6  and  O8_8 
ROOT
HETATM    1  C1  UNL     1     -31.871   8.887   2.423  1.00 20.00     0.002 C 
HETATM    2  C2  UNL     1     -31.626   7.666   3.346  1.00 20.00     0.010 C 
HETATM    3  C3  UNL     1     -33.015   8.086   1.749  1.00 20.00     0.010 C 
HETATM    4  C4  UNL     1     -33.340   5.759   2.896  1.00 20.00     0.041 C 
HETATM    5  C5  UNL     1     -34.121   7.437   4.016  1.00 20.00     0.041 C 
HETATM    6  C6  UNL     1     -34.065   5.903   4.264  1.00 20.00     0.119 C 
HETATM    7  C7  UNL     1     -33.031   7.229   2.990  1.00 20.00    -0.036 C 
ENDROOT
BRANCH   6   8
HETATM    8  O8  UNL     1     -35.333   5.234   4.371  1.00 20.00    -0.396 OA
HETATM    9  H20 UNL     1     -36.003   5.913   4.217  1.00 20.00     0.210 HD
ENDBRANCH   6   8
TORSDOF 1
ENDMDL
MODEL 5
REMARK VINA RESULT:      -4.3      2.288      3.558
REMARK  1 active torsions:
REMARK  status: ('A' for Active; 'I' for Inactive)
REMARK    1  A    between atoms: C6_6  and  O8_8 
ROOT
HETATM    1  C1  UNL     1     -34.641   5.612   4.427  1.00 20.00     0.002 C 
HETATM    2  C2  UNL     1     -33.593   5.545   3.287  1.00 20.00     0.010 C 
HETATM    3  C3  UNL     1     -33.933   6.894   4.937  1.00 20.00     0.010 C 
HETATM    4  C4  UNL     1     -31.954   7.567   3.367  1.00 20.00     0.041 C 
HETATM    5  C5  UNL     1     -33.921   8.022   2.590  1.00 20.00     0.041 C 
HETATM    6  C6  UNL     1     -32.475   8.216   2.052  1.00 20.00     0.119 C 
HETATM    7  C7  UNL     1     -33.341   7.014   3.555  1.00 20.00    -0.036 C 
ENDROOT
BRANCH   6   8
HETATM    8  O8  UNL     1     -32.063   9.573   1.821  1.00 20.00    -0.396 OA
HETATM    9  H20 UNL     1     -32.118  10.015   2.679  1.00 20.00     0.210 HD
ENDBRANCH   6   8
TORSDOF 1
ENDMDL
MODEL 6
REMARK VINA RESULT:      -4.1     10.620     11.402
REMARK  1 active torsions:
REMARK  status: ('A' for Active; 'I' for Inactive)
REMARK    1  A    between atoms: C6_6  and  O8_8 
ROOT
HETATM    1  C1  UNL     1     -33.614  17.214  -3.105  1.00 20.00     0.002 C 
HETATM    2  C2  UNL     1     -34.148  16.871  -4.519  1.00 20.00     0.010 C 
HETATM    3  C3  UNL     1     -34.732  16.313  -2.518  1.00 20.00     0.010 C 
HETATM    4  C4  UNL     1     -36.128  15.184  -4.417  1.00 20.00     0.041 C 
HETATM    5  C5  UNL     1     -34.176  14.313  -4.090  1.00 20.00     0.041 C 
HETATM    6  C6  UNL     1     -35.343  14.013  -5.073  1.00 20.00     0.119 C 
HETATM    7  C7  UNL     1     -34.809  15.669  -3.879  1.00 20.00    -0.036 C 
ENDROOT
BRANCH   6   8
HETATM    8  O8  UNL     1     -35.948  12.714  -4.956  1.00 20.00    -0.396 OA
HETATM    9  H20 UNL     1     -35.225  12.104  -4.758  1.00 20.00     0.210 HD
ENDBRANCH   6   8
TORSDOF 1
ENDMDL
MODEL 7
REMARK VINA RESULT:      -3.9      1.487      2.329
REMARK  1 active torsions:
REMARK  status: ('A' for Active; 'I' for Inactive)
REMARK    1  A    between atoms: C6_6  and  O8_8 
ROOT
HETATM    1  C1  UNL     1     -32.179   9.768   0.241  1.00 20.00     0.002 C 
HETATM    2  C2  UNL     1     -32.714   9.979   1.680  1.00 20.00     0.010 C 
HETATM    3  C3  UNL     1     -31.358   8.565   0.774  1.00 20.00     0.010 C 
HETATM    4  C4  UNL     1     -31.823   8.158   3.314  1.00 20.00     0.041 C 
HETATM    5  C5  UNL     1     -33.399   7.497   1.988  1.00 20.00     0.041 C 
HETATM    6  C6  UNL     1     -33.207   7.482   3.531  1.00 20.00     0.119 C 
HETATM    7  C7  UNL     1     -32.310   8.543   1.943  1.00 20.00    -0.036 C 
ENDROOT
BRANCH   6   8
HETATM    8  O8  UNL     1     -33.178   6.186   4.151  1.00 20.00    -0.396 OA
HETATM    9  H20 UNL     1     -33.449   6.326   5.068  1.00 20.00     0.210 HD
ENDBRANCH   6   8
TORSDOF 1
ENDMDL
MODEL 8
REMARK VINA RESULT:      -3.8     10.787     11.721
REMARK  1 active torsions:
REMARK  status: ('A' for Active; 'I' for Inactive)
REMARK    1  A    between atoms: C6_6  and  O8_8 
ROOT
HETATM    1  C1  UNL     1     -35.115  16.605  -1.983  1.00 20.00     0.002 C 
HETATM    2  C2  UNL     1     -33.803  16.525  -2.806  1.00 20.00     0.010 C 
HETATM    3  C3  UNL     1     -35.896  16.329  -3.294  1.00 20.00     0.010 C 
HETATM    4  C4  UNL     1     -34.267  15.941  -5.301  1.00 20.00     0.041 C 
HETATM    5  C5  UNL     1     -34.430  14.274  -3.932  1.00 20.00     0.041 C 
HETATM    6  C6  UNL     1     -33.617  14.530  -5.233  1.00 20.00     0.119 C 
HETATM    7  C7  UNL     1     -34.608  15.772  -3.845  1.00 20.00    -0.036 C 
ENDROOT
BRANCH   6   8
HETATM    8  O8  UNL     1     -33.903  13.658  -6.339  1.00 20.00    -0.396 OA
HETATM    9  H20 UNL     1     -33.058  13.511  -6.785  1.00 20.00     0.210 HD
ENDBRANCH   6   8
TORSDOF 1
ENDMDL
MODEL 9
REMARK VINA RESULT:      -3.8      8.748      9.656
REMARK  1 active torsions:
REMARK  status: ('A' for Active; 'I' for Inactive)
REMARK    1  A    between atoms: C6_6  and  O8_8 
ROOT
HETATM    1  C1  UNL     1     -41.161   8.008  -0.711  1.00 20.00     0.002 C 
HETATM    2  C2  UNL     1     -42.651   7.620  -0.533  1.00 20.00     0.010 C 
HETATM    3  C3  UNL     1     -40.801   6.900   0.313  1.00 20.00     0.010 C 
HETATM    4  C4  UNL     1     -42.933   5.599   1.083  1.00 20.00     0.041 C 
HETATM    5  C5  UNL     1     -42.226   5.087  -0.896  1.00 20.00     0.041 C 
HETATM    6  C6  UNL     1     -43.417   4.612  -0.017  1.00 20.00     0.119 C 
HETATM    7  C7  UNL     1     -42.148   6.297   0.006  1.00 20.00    -0.036 C 
ENDROOT
BRANCH   6   8
HETATM    8  O8  UNL     1     -43.417   3.222   0.348  1.00 20.00    -0.396 OA
HETATM    9  H20 UNL     1     -43.215   3.197   1.293  1.00 20.00     0.210 HD
ENDBRANCH   6   8
TORSDOF 1
ENDMDL
