MODEL 1
REMARK VINA RESULT:      -4.6      0.000      0.000
REMARK  4 active torsions:
REMARK  status: ('A' for Active; 'I' for Inactive)
REMARK    1  A    between atoms: C4_4  and  C7_7 
REMARK    2  A    between atoms: C4_4  and  C8_8 
REMARK    3  A    between atoms: C7_7  and  C9_9 
REMARK    4  A    between atoms: C8_8  and  C10_10 
ROOT
HETATM    1  C1  UNL     1     -31.812   8.496   1.572  1.00 20.00     0.128 C 
HETATM    2  C2  UNL     1     -31.580   8.155   3.054  1.00 20.00     0.088 C 
HETATM    3  C3  UNL     1     -33.289   8.069   1.643  1.00 20.00     0.088 C 
HETATM    4  C4  UNL     1     -32.953   7.408   3.021  1.00 20.00    -0.027 C 
HETATM    5  O11 UNL     1     -31.104   8.926   0.686  1.00 20.00    -0.298 OA
ENDROOT
BRANCH   4   6
HETATM    6  C7  UNL     1     -32.807   5.888   2.937  1.00 20.00     0.010 C 
BRANCH   6   7
HETATM    7  C9  UNL     1     -34.154   5.195   3.100  1.00 20.00    -0.004 C 
HETATM    8  C5  UNL     1     -34.077   4.081   4.130  1.00 20.00     0.005 C 
ENDBRANCH   6   7
ENDBRANCH   4   6
BRANCH   4   9
HETATM    9  C8  UNL     1     -33.900   7.820   4.143  1.00 20.00     0.010 C 
BRANCH   9  10
HETATM   10  C10 UNL     1     -33.302   7.516   5.513  1.00 20.00    -0.004 C 
HETATM   11  C6  UNL     1     -34.263   6.705   6.368  1.00 20.00     0.005 C 
ENDBRANCH   9  10
ENDBRANCH   4   9
TORSDOF 4
ENDMDL
MODEL 2
REMARK VINA RESULT:      -4.5      0.495      2.582
REMARK  4 active torsions:
REMARK  status: ('A' for Active; 'I' for Inactive)
REMARK    1  A    between atoms: C4_4  and  C7_7 
REMARK    2  A    between atoms: C4_4  and  C8_8 
REMARK    3  A    between atoms: C7_7  and  C9_9 
REMARK    4  A    between atoms: C8_8  and  C10_10 
ROOT
HETATM    1  C1  UNL     1     -32.224   8.879   1.770  1.00 20.00     0.128 C 
HETATM    2  C2  UNL     1     -33.300   7.802   1.542  1.00 20.00     0.088 C 
HETATM    3  C3  UNL     1     -31.655   8.136   2.993  1.00 20.00     0.088 C 
HETATM    4  C4  UNL     1     -32.945   7.253   2.963  1.00 20.00    -0.027 C 
HETATM    5  O11 UNL     1     -31.941   9.917   1.211  1.00 20.00    -0.298 OA
ENDROOT
BRANCH   4   6
HETATM    6  C7  UNL     1     -33.967   7.650   4.030  1.00 20.00     0.010 C 
BRANCH   6   7
HETATM    7  C9  UNL     1     -33.399   7.465   5.432  1.00 20.00    -0.004 C 
HETATM    8  C5  UNL     1     -34.331   6.632   6.296  1.00 20.00     0.005 C 
ENDBRANCH   6   7
ENDBRANCH   4   6
BRANCH   4   9
HETATM    9  C8  UNL     1     -32.662   5.755   2.987  1.00 20.00     0.010 C 
BRANCH   9  10
HETATM   10  C10 UNL     1     -33.955   4.947   3.011  1.00 20.00    -0.004 C 
HETATM   11  C6  UNL     1     -33.957   3.940   4.151  1.00 20.00     0.005 C 
ENDBRANCH   9  10
ENDBRANCH   4   9
TORSDOF 4
ENDMDL
MODEL 3
REMARK VINA RESULT:      -4.5      2.305      4.140
REMARK  4 active torsions:
REMARK  status: ('A' for Active; 'I' for Inactive)
REMARK    1  A    between atoms: C4_4  and  C7_7 
REMARK    2  A    between atoms: C4_4  and  C8_8 
REMARK    3  A    between atoms: C7_7  and  C9_9 
REMARK    4  A    between atoms: C8_8  and  C10_10 
ROOT
HETATM    1  C1  UNL     1     -34.075   4.774   3.631  1.00 20.00     0.128 C 
HETATM    2  C2  UNL     1     -32.783   5.194   2.909  1.00 20.00     0.088 C 
HETATM    3  C3  UNL     1     -34.692   6.176   3.470  1.00 20.00     0.088 C 
HETATM    4  C4  UNL     1     -33.266   6.674   3.063  1.00 20.00    -0.027 C 
HETATM    5  O11 UNL     1     -34.457   3.741   4.139  1.00 20.00    -0.298 OA
ENDROOT
BRANCH   4   6
HETATM    6  C7  UNL     1     -32.550   7.423   4.188  1.00 20.00     0.010 C 
BRANCH   6   7
HETATM    7  C9  UNL     1     -33.547   8.038   5.163  1.00 20.00    -0.004 C 
HETATM    8  C5  UNL     1     -33.792   7.120   6.349  1.00 20.00     0.005 C 
ENDBRANCH   6   7
ENDBRANCH   4   6
BRANCH   4   9
HETATM    9  C8  UNL     1     -33.243   7.464   1.760  1.00 20.00     0.010 C 
BRANCH   9  10
HETATM   10  C10 UNL     1     -32.174   8.552   1.790  1.00 20.00    -0.004 C 
HETATM   11  C6  UNL     1     -32.544   9.715   0.881  1.00 20.00     0.005 C 
ENDBRANCH   9  10
ENDBRANCH   4   9
TORSDOF 4
ENDMDL
MODEL 4
REMARK VINA RESULT:      -4.3     10.615     12.237
REMARK  4 active torsions:
REMARK  status: ('A' for Active; 'I' for Inactive)
REMARK    1  A    between atoms: C4_4  and  C7_7 
REMARK    2  A    between atoms: C4_4  and  C8_8 
REMARK    3  A    between atoms: C7_7  and  C9_9 
REMARK    4  A    between atoms: C8_8  and  C10_10 
ROOT
HETATM    1  C1  UNL     1     -35.377  13.817  -4.953  1.00 20.00     0.128 C 
HETATM    2  C2  UNL     1     -34.134  14.163  -4.114  1.00 20.00     0.088 C 
HETATM    3  C3  UNL     1     -35.573  15.284  -5.377  1.00 20.00     0.088 C 
HETATM    4  C4  UNL     1     -34.545  15.665  -4.261  1.00 20.00    -0.027 C 
HETATM    5  O11 UNL     1     -35.976  12.788  -5.184  1.00 20.00    -0.298 OA
ENDROOT
BRANCH   4   6
HETATM    6  C7  UNL     1     -35.207  16.231  -3.004  1.00 20.00     0.010 C 
BRANCH   6   7
HETATM    7  C9  UNL     1     -34.166  16.741  -2.015  1.00 20.00    -0.004 C 
HETATM    8  C5  UNL     1     -34.826  17.409  -0.820  1.00 20.00     0.005 C 
ENDBRANCH   6   7
ENDBRANCH   4   6
BRANCH   4   9
HETATM    9  C8  UNL     1     -33.415  16.563  -4.753  1.00 20.00     0.010 C 
BRANCH   9  10
HETATM   10  C10 UNL     1     -33.951  17.882  -5.297  1.00 20.00    -0.004 C 
HETATM   11  C6  UNL     1     -33.251  19.071  -4.656  1.00 20.00     0.005 C 
ENDBRANCH   9  10
ENDBRANCH   4   9
TORSDOF 4
ENDMDL
MODEL 5
REMARK VINA RESULT:      -4.2     10.687     12.259
REMARK  4 active torsions:
REMARK  status: ('A' for Active; 'I' for Inactive)
REMARK    1  A    between atoms: C4_4  and  C7_7 
REMARK    2  A    between atoms: C4_4  and  C8_8 
REMARK    3  A    between atoms: C7_7  and  C9_9 
REMARK    4  A    between atoms: C8_8  and  C10_10 
ROOT
HETATM    1  C1  UNL     1     -35.612  13.728  -4.780  1.00 20.00     0.128 C 
HETATM    2  C2  UNL     1     -36.403  14.997  -4.416  1.00 20.00     0.088 C 
HETATM    3  C3  UNL     1     -34.335  14.258  -4.101  1.00 20.00     0.088 C 
HETATM    4  C4  UNL     1     -35.033  15.657  -4.050  1.00 20.00    -0.027 C 
HETATM    5  O11 UNL     1     -35.884  12.709  -5.378  1.00 20.00    -0.298 OA
ENDROOT
BRANCH   4   6
HETATM    6  C7  UNL     1     -34.525  16.619  -5.125  1.00 20.00     0.010 C 
BRANCH   6   7
HETATM    7  C9  UNL     1     -35.335  17.910  -5.135  1.00 20.00    -0.004 C 
HETATM    8  C5  UNL     1     -34.428  19.126  -5.219  1.00 20.00     0.005 C 
ENDBRANCH   6   7
ENDBRANCH   4   6
BRANCH   4   9
HETATM    9  C8  UNL     1     -35.014  16.299  -2.668  1.00 20.00     0.010 C 
BRANCH   9  10
HETATM   10  C10 UNL     1     -33.638  16.870  -2.340  1.00 20.00    -0.004 C 
HETATM   11  C6  UNL     1     -33.696  17.798  -1.136  1.00 20.00     0.005 C 
ENDBRANCH   9  10
ENDBRANCH   4   9
TORSDOF 4
ENDMDL
MODEL 6
REMARK VINA RESULT:      -4.2     10.412     12.174
REMARK  4 active torsions:
REMARK  status: ('A' for Active; 'I' for Inactive)
REMARK    1  A    between atoms: C4_4  and  C7_7 
REMARK    2  A    between atoms: C4_4  and  C8_8 
REMARK    3  A    between atoms: C7_7  and  C9_9 
REMARK    4  A    between atoms: C8_8  and  C10_10 
ROOT
HETATM    1  C1  UNL     1     -35.492  13.716  -4.901  1.00 20.00     0.128 C 
HETATM    2  C2  UNL     1     -35.987  15.170  -4.812  1.00 20.00     0.088 C 
HETATM    3  C3  UNL     1     -34.332  13.989  -3.926  1.00 20.00     0.088 C 
HETATM    4  C4  UNL     1     -34.628  15.513  -4.118  1.00 20.00    -0.027 C 
HETATM    5  O11 UNL     1     -35.865  12.736  -5.510  1.00 20.00    -0.298 OA
ENDROOT
BRANCH   4   6
HETATM    6  C7  UNL     1     -33.634  16.202  -5.055  1.00 20.00     0.010 C 
BRANCH   6   7
HETATM    7  C9  UNL     1     -34.290  17.357  -5.800  1.00 20.00    -0.004 C 
HETATM    8  C5  UNL     1     -34.018  17.272  -7.293  1.00 20.00     0.005 C 
ENDBRANCH   6   7
ENDBRANCH   4   6
BRANCH   4   9
HETATM    9  C8  UNL     1     -34.786  16.276  -2.808  1.00 20.00     0.010 C 
BRANCH   9  10
HETATM   10  C10 UNL     1     -33.491  16.982  -2.418  1.00 20.00    -0.004 C 
HETATM   11  C6  UNL     1     -33.659  17.772  -1.130  1.00 20.00     0.005 C 
ENDBRANCH   9  10
ENDBRANCH   4   9
TORSDOF 4
ENDMDL
MODEL 7
REMARK VINA RESULT:      -4.1     11.164     12.281
REMARK  4 active torsions:
REMARK  status: ('A' for Active; 'I' for Inactive)
REMARK    1  A    between atoms: C4_4  and  C7_7 
REMARK    2  A    between atoms: C4_4  and  C8_8 
REMARK    3  A    between atoms: C7_7  and  C9_9 
REMARK    4  A    between atoms: C8_8  and  C10_10 
ROOT
HETATM    1  C1  UNL     1     -37.268  14.356  -4.836  1.00 20.00     0.128 C 
HETATM    2  C2  UNL     1     -36.692  15.621  -4.176  1.00 20.00     0.088 C 
HETATM    3  C3  UNL     1     -35.864  13.779  -5.094  1.00 20.00     0.088 C 
HETATM    4  C4  UNL     1     -35.300  15.197  -4.751  1.00 20.00    -0.027 C 
HETATM    5  O11 UNL     1     -38.392  13.968  -5.071  1.00 20.00    -0.298 OA
ENDROOT
BRANCH   4   6
HETATM    6  C7  UNL     1     -34.895  15.997  -5.990  1.00 20.00     0.010 C 
BRANCH   6   7
HETATM    7  C9  UNL     1     -33.595  15.469  -6.585  1.00 20.00    -0.004 C 
HETATM    8  C5  UNL     1     -33.841  14.781  -7.918  1.00 20.00     0.005 C 
ENDBRANCH   6   7
ENDBRANCH   4   6
BRANCH   4   9
HETATM    9  C8  UNL     1     -34.189  15.177  -3.708  1.00 20.00     0.010 C 
BRANCH   9  10
HETATM   10  C10 UNL     1     -33.718  16.589  -3.372  1.00 20.00    -0.004 C 
HETATM   11  C6  UNL     1     -34.043  16.952  -1.931  1.00 20.00     0.005 C 
ENDBRANCH   9  10
ENDBRANCH   4   9
TORSDOF 4
ENDMDL
MODEL 8
REMARK VINA RESULT:      -3.8     11.108     12.443
REMARK  4 active torsions:
REMARK  status: ('A' for Active; 'I' for Inactive)
REMARK    1  A    between atoms: C4_4  and  C7_7 
REMARK    2  A    between atoms: C4_4  and  C8_8 
REMARK    3  A    between atoms: C7_7  and  C9_9 
REMARK    4  A    between atoms: C8_8  and  C10_10 
ROOT
HETATM    1  C1  UNL     1     -35.732  13.855  -5.004  1.00 20.00     0.128 C 
HETATM    2  C2  UNL     1     -34.537  14.819  -5.111  1.00 20.00     0.088 C 
HETATM    3  C3  UNL     1     -36.682  14.986  -4.570  1.00 20.00     0.088 C 
HETATM    4  C4  UNL     1     -35.410  15.867  -4.344  1.00 20.00    -0.027 C 
HETATM    5  O11 UNL     1     -35.870  12.664  -5.183  1.00 20.00    -0.298 OA
ENDROOT
BRANCH   4   6
HETATM    6  C7  UNL     1     -35.028  16.000  -2.869  1.00 20.00     0.010 C 
BRANCH   6   7
HETATM    7  C9  UNL     1     -33.685  16.703  -2.709  1.00 20.00    -0.004 C 
HETATM    8  C5  UNL     1     -33.640  17.515  -1.425  1.00 20.00     0.005 C 
ENDBRANCH   6   7
ENDBRANCH   4   6
BRANCH   4   9
HETATM    9  C8  UNL     1     -35.477  17.226  -5.031  1.00 20.00     0.010 C 
BRANCH   9  10
HETATM   10  C10 UNL     1     -36.337  18.206  -4.239  1.00 20.00    -0.004 C 
HETATM   11  C6  UNL     1     -37.576  18.612  -5.022  1.00 20.00     0.005 C 
ENDBRANCH   9  10
ENDBRANCH   4   9
TORSDOF 4
ENDMDL
MODEL 9
REMARK VINA RESULT:      -3.7     11.187     12.803
REMARK  4 active torsions:
REMARK  status: ('A' for Active; 'I' for Inactive)
REMARK    1  A    between atoms: C4_4  and  C7_7 
REMARK    2  A    between atoms: C4_4  and  C8_8 
REMARK    3  A    between atoms: C7_7  and  C9_9 
REMARK    4  A    between atoms: C8_8  and  C10_10 
ROOT
HETATM    1  C1  UNL     1     -37.188  14.646  -4.898  1.00 20.00     0.128 C 
HETATM    2  C2  UNL     1     -35.811  14.665  -5.584  1.00 20.00     0.088 C 
HETATM    3  C3  UNL     1     -36.940  16.012  -4.231  1.00 20.00     0.088 C 
HETATM    4  C4  UNL     1     -35.438  15.854  -4.640  1.00 20.00    -0.027 C 
HETATM    5  O11 UNL     1     -38.109  13.857  -4.880  1.00 20.00    -0.298 OA
ENDROOT
BRANCH   4   6
HETATM    6  C7  UNL     1     -34.541  15.435  -3.474  1.00 20.00     0.010 C 
BRANCH   6   7
HETATM    7  C9  UNL     1     -33.876  16.645  -2.829  1.00 20.00    -0.004 C 
HETATM    8  C5  UNL     1     -34.540  16.998  -1.509  1.00 20.00     0.005 C 
ENDBRANCH   6   7
ENDBRANCH   4   6
BRANCH   4   9
HETATM    9  C8  UNL     1     -34.875  17.065  -5.375  1.00 20.00     0.010 C 
BRANCH   9  10
HETATM   10  C10 UNL     1     -33.716  16.671  -6.285  1.00 20.00    -0.004 C 
HETATM   11  C6  UNL     1     -33.942  17.156  -7.709  1.00 20.00     0.005 C 
ENDBRANCH   9  10
ENDBRANCH   4   9
TORSDOF 4
ENDMDL
