MODEL 1
REMARK VINA RESULT:      -4.9      0.000      0.000
REMARK  3 active torsions:
REMARK  status: ('A' for Active; 'I' for Inactive)
REMARK    1  A    between atoms: C4_4  and  C7_7 
REMARK    2  A    between atoms: C6_6  and  C7_7 
REMARK    3  A    between atoms: C6_6  and  O9_9 
ROOT
HETATM    1  C1  UNL     1     -33.009   5.622   2.927  1.00 20.00     0.066 C 
HETATM    2  C7  UNL     1     -32.921   6.992   3.454  1.00 20.00     0.120 C 
HETATM    3  N8  UNL     1     -33.073   4.540   2.510  1.00 20.00    -0.197 NA
ENDROOT
BRANCH   2   4
HETATM    4  C4  UNL     1     -34.054   7.107   4.436  1.00 20.00     0.005 A 
HETATM    5  C2  UNL     1     -34.328   5.994   5.409  1.00 20.00     0.006 A 
HETATM    6  C3  UNL     1     -33.768   7.300   5.900  1.00 20.00     0.006 A 
ENDBRANCH   2   4
BRANCH   2   7
HETATM    7  C6  UNL     1     -32.989   8.040   2.345  1.00 20.00     0.186 C 
BRANCH   7   8
HETATM    8  O9  UNL     1     -31.687   8.382   1.882  1.00 20.00    -0.395 OA
HETATM    9  C5  UNL     1     -31.742   9.101   0.658  1.00 20.00     0.201 C 
ENDBRANCH   7   8
ENDBRANCH   2   7
TORSDOF 3
ENDMDL
MODEL 2
REMARK VINA RESULT:      -4.3      2.033      2.518
REMARK  3 active torsions:
REMARK  status: ('A' for Active; 'I' for Inactive)
REMARK    1  A    between atoms: C4_4  and  C7_7 
REMARK    2  A    between atoms: C6_6  and  C7_7 
REMARK    3  A    between atoms: C6_6  and  O9_9 
ROOT
HETATM    1  C1  UNL     1     -33.767   7.241   5.161  1.00 20.00     0.066 C 
HETATM    2  C7  UNL     1     -34.193   6.692   3.865  1.00 20.00     0.120 C 
HETATM    3  N8  UNL     1     -33.430   7.680   6.182  1.00 20.00    -0.197 NA
ENDROOT
BRANCH   2   4
HETATM    4  C4  UNL     1     -34.920   5.419   4.200  1.00 20.00     0.005 A 
HETATM    5  C2  UNL     1     -34.185   4.108   4.213  1.00 20.00     0.006 A 
HETATM    6  C3  UNL     1     -34.656   4.718   5.503  1.00 20.00     0.006 A 
ENDBRANCH   2   4
BRANCH   2   7
HETATM    7  C6  UNL     1     -33.015   6.471   2.918  1.00 20.00     0.186 C 
BRANCH   7   8
HETATM    8  O9  UNL     1     -32.064   7.523   3.028  1.00 20.00    -0.395 OA
HETATM    9  C5  UNL     1     -32.170   8.437   1.946  1.00 20.00     0.201 C 
ENDBRANCH   7   8
ENDBRANCH   2   7
TORSDOF 3
ENDMDL
MODEL 3
REMARK VINA RESULT:      -4.1      2.590      4.149
REMARK  3 active torsions:
REMARK  status: ('A' for Active; 'I' for Inactive)
REMARK    1  A    between atoms: C4_4  and  C7_7 
REMARK    2  A    between atoms: C6_6  and  C7_7 
REMARK    3  A    between atoms: C6_6  and  O9_9 
ROOT
HETATM    1  C1  UNL     1     -33.405   7.216   4.992  1.00 20.00     0.066 C 
HETATM    2  C7  UNL     1     -33.189   6.768   3.608  1.00 20.00     0.120 C 
HETATM    3  N8  UNL     1     -33.574   7.563   6.087  1.00 20.00    -0.197 NA
ENDROOT
BRANCH   2   4
HETATM    4  C4  UNL     1     -32.913   8.025   2.829  1.00 20.00     0.005 A 
HETATM    5  C2  UNL     1     -31.619   8.765   3.021  1.00 20.00     0.006 A 
HETATM    6  C3  UNL     1     -31.879   8.026   1.738  1.00 20.00     0.006 A 
ENDBRANCH   2   4
BRANCH   2   7
HETATM    7  C6  UNL     1     -34.382   5.984   3.064  1.00 20.00     0.186 C 
BRANCH   7   8
HETATM    8  O9  UNL     1     -35.034   5.258   4.100  1.00 20.00    -0.395 OA
HETATM    9  C5  UNL     1     -34.333   4.066   4.423  1.00 20.00     0.201 C 
ENDBRANCH   7   8
ENDBRANCH   2   7
TORSDOF 3
ENDMDL
MODEL 4
REMARK VINA RESULT:      -4.0      1.842      3.852
REMARK  3 active torsions:
REMARK  status: ('A' for Active; 'I' for Inactive)
REMARK    1  A    between atoms: C4_4  and  C7_7 
REMARK    2  A    between atoms: C6_6  and  C7_7 
REMARK    3  A    between atoms: C6_6  and  O9_9 
ROOT
HETATM    1  C1  UNL     1     -33.091   5.777   2.767  1.00 20.00     0.066 C 
HETATM    2  C7  UNL     1     -33.379   7.126   3.277  1.00 20.00     0.120 C 
HETATM    3  N8  UNL     1     -32.871   4.711   2.364  1.00 20.00    -0.197 NA
ENDROOT
BRANCH   2   4
HETATM    4  C4  UNL     1     -32.156   7.937   2.948  1.00 20.00     0.005 A 
HETATM    5  C2  UNL     1     -31.737   8.128   1.517  1.00 20.00     0.006 A 
HETATM    6  C3  UNL     1     -32.297   9.285   2.297  1.00 20.00     0.006 A 
ENDBRANCH   2   4
BRANCH   2   7
HETATM    7  C6  UNL     1     -33.703   7.120   4.770  1.00 20.00     0.186 C 
BRANCH   7   8
HETATM    8  O9  UNL     1     -34.844   6.315   5.044  1.00 20.00    -0.395 OA
HETATM    9  C5  UNL     1     -34.502   5.171   5.813  1.00 20.00     0.201 C 
ENDBRANCH   7   8
ENDBRANCH   2   7
TORSDOF 3
ENDMDL
MODEL 5
REMARK VINA RESULT:      -3.8     11.208     11.855
REMARK  3 active torsions:
REMARK  status: ('A' for Active; 'I' for Inactive)
REMARK    1  A    between atoms: C4_4  and  C7_7 
REMARK    2  A    between atoms: C6_6  and  C7_7 
REMARK    3  A    between atoms: C6_6  and  O9_9 
ROOT
HETATM    1  C1  UNL     1     -35.806  13.811  -5.061  1.00 20.00     0.066 C 
HETATM    2  C7  UNL     1     -35.769  15.218  -4.636  1.00 20.00     0.120 C 
HETATM    3  N8  UNL     1     -35.838  12.701  -5.401  1.00 20.00    -0.197 NA
ENDROOT
BRANCH   2   4
HETATM    4  C4  UNL     1     -34.595  15.314  -3.701  1.00 20.00     0.005 A 
HETATM    5  C2  UNL     1     -33.210  14.999  -4.192  1.00 20.00     0.006 A 
HETATM    6  C3  UNL     1     -33.587  16.417  -3.866  1.00 20.00     0.006 A 
ENDBRANCH   2   4
BRANCH   2   7
HETATM    7  C6  UNL     1     -37.080  15.658  -3.988  1.00 20.00     0.186 C 
BRANCH   7   8
HETATM    8  O9  UNL     1     -38.129  14.740  -4.276  1.00 20.00    -0.395 OA
HETATM    9  C5  UNL     1     -39.225  15.382  -4.910  1.00 20.00     0.201 C 
ENDBRANCH   7   8
ENDBRANCH   2   7
TORSDOF 3
ENDMDL
MODEL 6
REMARK VINA RESULT:      -3.7      2.262      3.292
REMARK  3 active torsions:
REMARK  status: ('A' for Active; 'I' for Inactive)
REMARK    1  A    between atoms: C4_4  and  C7_7 
REMARK    2  A    between atoms: C6_6  and  C7_7 
REMARK    3  A    between atoms: C6_6  and  O9_9 
ROOT
HETATM    1  C1  UNL     1     -32.684   7.818   2.778  1.00 20.00     0.066 C 
HETATM    2  C7  UNL     1     -33.764   7.078   3.450  1.00 20.00     0.120 C 
HETATM    3  N8  UNL     1     -31.836   8.403   2.244  1.00 20.00    -0.197 NA
ENDROOT
BRANCH   2   4
HETATM    4  C4  UNL     1     -33.267   6.846   4.850  1.00 20.00     0.005 A 
HETATM    5  C2  UNL     1     -33.396   7.925   5.888  1.00 20.00     0.006 A 
HETATM    6  C3  UNL     1     -34.243   6.687   5.982  1.00 20.00     0.006 A 
ENDBRANCH   2   4
BRANCH   2   7
HETATM    7  C6  UNL     1     -34.113   5.782   2.721  1.00 20.00     0.186 C 
BRANCH   7   8
HETATM    8  O9  UNL     1     -33.322   4.698   3.196  1.00 20.00    -0.395 OA
HETATM    9  C5  UNL     1     -34.074   3.832   4.033  1.00 20.00     0.201 C 
ENDBRANCH   7   8
ENDBRANCH   2   7
TORSDOF 3
ENDMDL
MODEL 7
REMARK VINA RESULT:      -3.7      2.378      4.372
REMARK  3 active torsions:
REMARK  status: ('A' for Active; 'I' for Inactive)
REMARK    1  A    between atoms: C4_4  and  C7_7 
REMARK    2  A    between atoms: C6_6  and  C7_7 
REMARK    3  A    between atoms: C6_6  and  O9_9 
ROOT
HETATM    1  C1  UNL     1     -31.726   8.237   3.254  1.00 20.00     0.066 C 
HETATM    2  C7  UNL     1     -32.438   7.719   2.076  1.00 20.00     0.120 C 
HETATM    3  N8  UNL     1     -31.161   8.641   4.184  1.00 20.00    -0.197 NA
ENDROOT
BRANCH   2   4
HETATM    4  C4  UNL     1     -33.118   8.916   1.472  1.00 20.00     0.005 A 
HETATM    5  C2  UNL     1     -32.330  10.158   1.161  1.00 20.00     0.006 A 
HETATM    6  C3  UNL     1     -32.848   9.298   0.043  1.00 20.00     0.006 A 
ENDBRANCH   2   4
BRANCH   2   7
HETATM    7  C6  UNL     1     -33.414   6.602   2.438  1.00 20.00     0.186 C 
BRANCH   7   8
HETATM    8  O9  UNL     1     -34.034   6.850   3.695  1.00 20.00    -0.395 OA
HETATM    9  C5  UNL     1     -34.876   5.774   4.082  1.00 20.00     0.201 C 
ENDBRANCH   7   8
ENDBRANCH   2   7
TORSDOF 3
ENDMDL
MODEL 8
REMARK VINA RESULT:      -3.7     11.260     11.597
REMARK  3 active torsions:
REMARK  status: ('A' for Active; 'I' for Inactive)
REMARK    1  A    between atoms: C4_4  and  C7_7 
REMARK    2  A    between atoms: C6_6  and  C7_7 
REMARK    3  A    between atoms: C6_6  and  O9_9 
ROOT
HETATM    1  C1  UNL     1     -36.314  14.301  -4.671  1.00 20.00     0.066 C 
HETATM    2  C7  UNL     1     -34.925  14.640  -4.324  1.00 20.00     0.120 C 
HETATM    3  N8  UNL     1     -37.408  14.027  -4.945  1.00 20.00    -0.197 NA
ENDROOT
BRANCH   2   4
HETATM    4  C4  UNL     1     -34.985  16.052  -3.811  1.00 20.00     0.005 A 
HETATM    5  C2  UNL     1     -35.600  16.346  -2.471  1.00 20.00     0.006 A 
HETATM    6  C3  UNL     1     -34.114  16.476  -2.661  1.00 20.00     0.006 A 
ENDBRANCH   2   4
BRANCH   2   7
HETATM    7  C6  UNL     1     -33.979  14.479  -5.512  1.00 20.00     0.186 C 
BRANCH   7   8
HETATM    8  O9  UNL     1     -34.354  13.370  -6.320  1.00 20.00    -0.395 OA
HETATM    9  C5  UNL     1     -34.393  13.718  -7.697  1.00 20.00     0.201 C 
ENDBRANCH   7   8
ENDBRANCH   2   7
TORSDOF 3
ENDMDL
MODEL 9
REMARK VINA RESULT:      -3.7      2.240      3.668
REMARK  3 active torsions:
REMARK  status: ('A' for Active; 'I' for Inactive)
REMARK    1  A    between atoms: C4_4  and  C7_7 
REMARK    2  A    between atoms: C6_6  and  C7_7 
REMARK    3  A    between atoms: C6_6  and  O9_9 
ROOT
HETATM    1  C1  UNL     1     -32.295   7.996   2.192  1.00 20.00     0.066 C 
HETATM    2  C7  UNL     1     -32.723   7.136   3.306  1.00 20.00     0.120 C 
HETATM    3  N8  UNL     1     -31.953   8.677   1.316  1.00 20.00    -0.197 NA
ENDROOT
BRANCH   2   4
HETATM    4  C4  UNL     1     -33.539   6.047   2.668  1.00 20.00     0.005 A 
HETATM    5  C2  UNL     1     -32.916   4.712   2.365  1.00 20.00     0.006 A 
HETATM    6  C3  UNL     1     -33.934   4.834   3.464  1.00 20.00     0.006 A 
ENDBRANCH   2   4
BRANCH   2   7
HETATM    7  C6  UNL     1     -33.497   7.913   4.368  1.00 20.00     0.186 C 
BRANCH   7   8
HETATM    8  O9  UNL     1     -33.171   7.458   5.677  1.00 20.00    -0.395 OA
HETATM    9  C5  UNL     1     -34.240   6.723   6.255  1.00 20.00     0.201 C 
ENDBRANCH   7   8
ENDBRANCH   2   7
TORSDOF 3
ENDMDL
