MODEL 1
REMARK VINA RESULT:      -5.1      0.000      0.000
REMARK  3 active torsions:
REMARK  status: ('A' for Active; 'I' for Inactive)
REMARK    1  A    between atoms: C4_4  and  O7_7 
REMARK    2  A    between atoms: C5_5  and  C6_6 
REMARK    3  A    between atoms: C6_6  and  O7_7 
ROOT
HETATM    1  C3  UNL     1     -33.274   5.208   2.823  1.00 20.00     0.040 C 
HETATM    2  C6  UNL     1     -34.328   6.162   3.378  1.00 20.00     0.122 C 
ENDROOT
BRANCH   2   3
HETATM    3  C5  UNL     1     -34.747   5.840   4.828  1.00 20.00     0.006 C 
HETATM    4  C1  UNL     1     -34.063   6.750   5.851  1.00 20.00     0.012 C 
HETATM    5  C2  UNL     1     -34.446   4.375   5.169  1.00 20.00     0.012 C 
ENDBRANCH   2   3
BRANCH   2   6
HETATM    6  O7  UNL     1     -33.785   7.482   3.342  1.00 20.00    -0.371 OA
BRANCH   6   7
HETATM    7  C4  UNL     1     -32.611   7.533   2.548  1.00 20.00     0.282 C 
HETATM    8 CL8  UNL     1     -31.328   8.317   3.487  1.00 20.00    -0.102 Cl
ENDBRANCH   6   7
ENDBRANCH   2   6
TORSDOF 3
ENDMDL
MODEL 2
REMARK VINA RESULT:      -4.8      1.782      2.337
REMARK  3 active torsions:
REMARK  status: ('A' for Active; 'I' for Inactive)
REMARK    1  A    between atoms: C4_4  and  O7_7 
REMARK    2  A    between atoms: C5_5  and  C6_6 
REMARK    3  A    between atoms: C6_6  and  O7_7 
ROOT
HETATM    1  C3  UNL     1     -31.537   8.176   3.774  1.00 20.00     0.040 C 
HETATM    2  C6  UNL     1     -32.632   7.319   3.146  1.00 20.00     0.122 C 
ENDROOT
BRANCH   2   3
HETATM    3  C5  UNL     1     -33.904   7.212   4.014  1.00 20.00     0.006 C 
HETATM    4  C1  UNL     1     -33.596   7.268   5.512  1.00 20.00     0.012 C 
HETATM    5  C2  UNL     1     -34.672   5.922   3.699  1.00 20.00     0.012 C 
ENDBRANCH   2   3
BRANCH   2   6
HETATM    6  O7  UNL     1     -32.983   7.908   1.892  1.00 20.00    -0.371 OA
BRANCH   6   7
HETATM    7  C4  UNL     1     -31.986   8.816   1.455  1.00 20.00     0.282 C 
HETATM    8 CL8  UNL     1     -32.761  10.364   1.074  1.00 20.00    -0.102 Cl
ENDBRANCH   6   7
ENDBRANCH   2   6
TORSDOF 3
ENDMDL
MODEL 3
REMARK VINA RESULT:      -4.7      1.208      2.178
REMARK  3 active torsions:
REMARK  status: ('A' for Active; 'I' for Inactive)
REMARK    1  A    between atoms: C4_4  and  O7_7 
REMARK    2  A    between atoms: C5_5  and  C6_6 
REMARK    3  A    between atoms: C6_6  and  O7_7 
ROOT
HETATM    1  C3  UNL     1     -33.764   7.368   5.456  1.00 20.00     0.040 C 
HETATM    2  C6  UNL     1     -33.200   6.835   4.143  1.00 20.00     0.122 C 
ENDROOT
BRANCH   2   3
HETATM    3  C5  UNL     1     -34.024   5.676   3.544  1.00 20.00     0.006 C 
HETATM    4  C1  UNL     1     -34.674   4.802   4.621  1.00 20.00     0.012 C 
HETATM    5  C2  UNL     1     -33.153   4.800   2.635  1.00 20.00     0.012 C 
ENDBRANCH   2   3
BRANCH   2   6
HETATM    6  O7  UNL     1     -33.180   7.912   3.206  1.00 20.00    -0.371 OA
BRANCH   6   7
HETATM    7  C4  UNL     1     -31.850   8.275   2.869  1.00 20.00     0.282 C 
HETATM    8 CL8  UNL     1     -31.806   8.729   1.157  1.00 20.00    -0.102 Cl
ENDBRANCH   6   7
ENDBRANCH   2   6
TORSDOF 3
ENDMDL
MODEL 4
REMARK VINA RESULT:      -4.4      2.272      3.775
REMARK  3 active torsions:
REMARK  status: ('A' for Active; 'I' for Inactive)
REMARK    1  A    between atoms: C4_4  and  O7_7 
REMARK    2  A    between atoms: C5_5  and  C6_6 
REMARK    3  A    between atoms: C6_6  and  O7_7 
ROOT
HETATM    1  C3  UNL     1     -33.574   7.308   5.175  1.00 20.00     0.040 C 
HETATM    2  C6  UNL     1     -33.729   7.409   3.661  1.00 20.00     0.122 C 
ENDROOT
BRANCH   2   3
HETATM    3  C5  UNL     1     -32.392   7.611   2.917  1.00 20.00     0.006 C 
HETATM    4  C1  UNL     1     -31.321   8.254   3.802  1.00 20.00     0.012 C 
HETATM    5  C2  UNL     1     -32.592   8.464   1.658  1.00 20.00     0.012 C 
ENDBRANCH   2   3
BRANCH   2   6
HETATM    6  O7  UNL     1     -34.329   6.197   3.200  1.00 20.00    -0.371 OA
BRANCH   6   7
HETATM    7  C4  UNL     1     -34.971   5.508   4.260  1.00 20.00     0.282 C 
HETATM    8 CL8  UNL     1     -34.213   3.915   4.437  1.00 20.00    -0.102 Cl
ENDBRANCH   6   7
ENDBRANCH   2   6
TORSDOF 3
ENDMDL
MODEL 5
REMARK VINA RESULT:      -4.0      2.185      3.528
REMARK  3 active torsions:
REMARK  status: ('A' for Active; 'I' for Inactive)
REMARK    1  A    between atoms: C4_4  and  O7_7 
REMARK    2  A    between atoms: C5_5  and  C6_6 
REMARK    3  A    between atoms: C6_6  and  O7_7 
ROOT
HETATM    1  C3  UNL     1     -33.994   5.824   2.505  1.00 20.00     0.040 C 
HETATM    2  C6  UNL     1     -33.124   6.626   3.467  1.00 20.00     0.122 C 
ENDROOT
BRANCH   2   3
HETATM    3  C5  UNL     1     -32.128   7.568   2.757  1.00 20.00     0.006 C 
HETATM    4  C1  UNL     1     -31.299   8.395   3.742  1.00 20.00     0.012 C 
HETATM    5  C2  UNL     1     -32.861   8.510   1.793  1.00 20.00     0.012 C 
ENDBRANCH   2   3
BRANCH   2   6
HETATM    6  O7  UNL     1     -33.989   7.412   4.288  1.00 20.00    -0.371 OA
BRANCH   6   7
HETATM    7  C4  UNL     1     -33.895   7.026   5.649  1.00 20.00     0.282 C 
HETATM    8 CL8  UNL     1     -34.568   5.395   5.820  1.00 20.00    -0.102 Cl
ENDBRANCH   6   7
ENDBRANCH   2   6
TORSDOF 3
ENDMDL
MODEL 6
REMARK VINA RESULT:      -4.0      2.446      4.596
REMARK  3 active torsions:
REMARK  status: ('A' for Active; 'I' for Inactive)
REMARK    1  A    between atoms: C4_4  and  O7_7 
REMARK    2  A    between atoms: C5_5  and  C6_6 
REMARK    3  A    between atoms: C6_6  and  O7_7 
ROOT
HETATM    1  C3  UNL     1     -31.424   8.306   3.407  1.00 20.00     0.040 C 
HETATM    2  C6  UNL     1     -32.750   8.383   2.659  1.00 20.00     0.122 C 
ENDROOT
BRANCH   2   3
HETATM    3  C5  UNL     1     -32.610   8.895   1.209  1.00 20.00     0.006 C 
HETATM    4  C1  UNL     1     -31.247   8.560   0.599  1.00 20.00     0.012 C 
HETATM    5  C2  UNL     1     -32.840  10.410   1.142  1.00 20.00     0.012 C 
ENDBRANCH   2   3
BRANCH   2   6
HETATM    6  O7  UNL     1     -33.311   7.069   2.626  1.00 20.00    -0.371 OA
BRANCH   6   7
HETATM    7  C4  UNL     1     -33.713   6.651   3.920  1.00 20.00     0.282 C 
HETATM    8 CL8  UNL     1     -35.258   5.794   3.782  1.00 20.00    -0.102 Cl
ENDBRANCH   6   7
ENDBRANCH   2   6
TORSDOF 3
ENDMDL
MODEL 7
REMARK VINA RESULT:      -3.5     11.912     12.403
REMARK  3 active torsions:
REMARK  status: ('A' for Active; 'I' for Inactive)
REMARK    1  A    between atoms: C4_4  and  O7_7 
REMARK    2  A    between atoms: C5_5  and  C6_6 
REMARK    3  A    between atoms: C6_6  and  O7_7 
ROOT
HETATM    1  C3  UNL     1     -36.934  14.343  -5.075  1.00 20.00     0.040 C 
HETATM    2  C6  UNL     1     -35.437  14.207  -5.331  1.00 20.00     0.122 C 
ENDROOT
BRANCH   2   3
HETATM    3  C5  UNL     1     -34.575  14.428  -4.070  1.00 20.00     0.006 C 
HETATM    4  C1  UNL     1     -34.920  15.731  -3.346  1.00 20.00     0.012 C 
HETATM    5  C2  UNL     1     -33.081  14.422  -4.422  1.00 20.00     0.012 C 
ENDBRANCH   2   3
BRANCH   2   6
HETATM    6  O7  UNL     1     -35.194  12.888  -5.824  1.00 20.00    -0.371 OA
BRANCH   6   7
HETATM    7  C4  UNL     1     -35.233  12.855  -7.241  1.00 20.00     0.282 C 
HETATM    8 CL8  UNL     1     -34.104  14.070  -7.865  1.00 20.00    -0.102 Cl
ENDBRANCH   6   7
ENDBRANCH   2   6
TORSDOF 3
ENDMDL
MODEL 8
REMARK VINA RESULT:      -3.4      2.043      3.015
REMARK  3 active torsions:
REMARK  status: ('A' for Active; 'I' for Inactive)
REMARK    1  A    between atoms: C4_4  and  O7_7 
REMARK    2  A    between atoms: C5_5  and  C6_6 
REMARK    3  A    between atoms: C6_6  and  O7_7 
ROOT
HETATM    1  C3  UNL     1     -34.653   4.937   5.997  1.00 20.00     0.040 C 
HETATM    2  C6  UNL     1     -34.716   5.995   4.901  1.00 20.00     0.122 C 
ENDROOT
BRANCH   2   3
HETATM    3  C5  UNL     1     -33.479   6.918   4.866  1.00 20.00     0.006 C 
HETATM    4  C1  UNL     1     -33.398   7.836   6.088  1.00 20.00     0.012 C 
HETATM    5  C2  UNL     1     -33.470   7.769   3.589  1.00 20.00     0.012 C 
ENDBRANCH   2   3
BRANCH   2   6
HETATM    6  O7  UNL     1     -34.817   5.321   3.646  1.00 20.00    -0.371 OA
BRANCH   6   7
HETATM    7  C4  UNL     1     -33.989   4.170   3.613  1.00 20.00     0.282 C 
HETATM    8 CL8  UNL     1     -32.747   4.404   2.371  1.00 20.00    -0.102 Cl
ENDBRANCH   6   7
ENDBRANCH   2   6
TORSDOF 3
ENDMDL
MODEL 9
REMARK VINA RESULT:      -3.3      1.682      3.260
REMARK  3 active torsions:
REMARK  status: ('A' for Active; 'I' for Inactive)
REMARK    1  A    between atoms: C4_4  and  O7_7 
REMARK    2  A    between atoms: C5_5  and  C6_6 
REMARK    3  A    between atoms: C6_6  and  O7_7 
ROOT
HETATM    1  C3  UNL     1     -34.115   3.766   4.359  1.00 20.00     0.040 C 
HETATM    2  C6  UNL     1     -33.818   5.258   4.243  1.00 20.00     0.122 C 
ENDROOT
BRANCH   2   3
HETATM    3  C5  UNL     1     -33.584   5.727   2.792  1.00 20.00     0.006 C 
HETATM    4  C1  UNL     1     -32.918   4.652   1.929  1.00 20.00     0.012 C 
HETATM    5  C2  UNL     1     -32.732   7.003   2.762  1.00 20.00     0.012 C 
ENDBRANCH   2   3
BRANCH   2   6
HETATM    6  O7  UNL     1     -34.935   5.969   4.778  1.00 20.00    -0.371 OA
BRANCH   6   7
HETATM    7  C4  UNL     1     -34.691   6.376   6.115  1.00 20.00     0.282 C 
HETATM    8 CL8  UNL     1     -33.416   7.607   6.106  1.00 20.00    -0.102 Cl
ENDBRANCH   6   7
ENDBRANCH   2   6
TORSDOF 3
ENDMDL
