MODEL 1
REMARK VINA RESULT:      -5.2      0.000      0.000
REMARK  4 active torsions:
REMARK  status: ('A' for Active; 'I' for Inactive)
REMARK    1  A    between atoms: C2_2  and  C7_7 
REMARK    2  A    between atoms: C7_7  and  O11_11 
REMARK    3  A    between atoms: C8_8  and  C9_9 
REMARK    4  A    between atoms: C9_9  and  O11_11 
ROOT
HETATM    1  O11 UNL     1     -33.873   7.381   3.309  1.00 20.00    -0.383 OA
ENDROOT
BRANCH   1   2
HETATM    2  C7  UNL     1     -33.243   7.431   2.038  1.00 20.00     0.208 C 
BRANCH   2   3
HETATM    3  C2  UNL     1     -32.084   8.403   2.101  1.00 20.00     0.100 A 
HETATM    4  C1  UNL     1     -31.459   8.899   0.819  1.00 20.00     0.208 A 
HETATM    5  O10 UNL     1     -32.388   9.699   1.566  1.00 20.00    -0.373 OA
HETATM    6  C3  UNL     1     -31.295   8.444   3.369  1.00 20.00     0.050 C 
ENDBRANCH   2   3
ENDBRANCH   1   2
BRANCH   1   7
HETATM    7  C9  UNL     1     -34.445   6.095   3.553  1.00 20.00     0.120 C 
HETATM    8  C6  UNL     1     -33.480   5.043   3.014  1.00 20.00     0.040 C 
BRANCH   7   9
HETATM    9  C8  UNL     1     -34.721   5.957   5.064  1.00 20.00     0.006 C 
HETATM   10  C4  UNL     1     -33.926   6.961   5.901  1.00 20.00     0.012 C 
HETATM   11  C5  UNL     1     -34.413   4.534   5.548  1.00 20.00     0.012 C 
ENDBRANCH   7   9
ENDBRANCH   1   7
TORSDOF 4
ENDMDL
MODEL 2
REMARK VINA RESULT:      -4.8      1.194      2.172
REMARK  4 active torsions:
REMARK  status: ('A' for Active; 'I' for Inactive)
REMARK    1  A    between atoms: C2_2  and  C7_7 
REMARK    2  A    between atoms: C7_7  and  O11_11 
REMARK    3  A    between atoms: C8_8  and  C9_9 
REMARK    4  A    between atoms: C9_9  and  O11_11 
ROOT
HETATM    1  O11 UNL     1     -33.360   8.032   3.220  1.00 20.00    -0.383 OA
ENDROOT
BRANCH   1   2
HETATM    2  C7  UNL     1     -32.092   8.472   2.759  1.00 20.00     0.208 C 
BRANCH   2   3
HETATM    3  C2  UNL     1     -32.282   9.285   1.496  1.00 20.00     0.100 A 
HETATM    4  C1  UNL     1     -31.536   8.898   0.242  1.00 20.00     0.208 A 
HETATM    5  O10 UNL     1     -32.919   8.563   0.433  1.00 20.00    -0.373 OA
HETATM    6  C3  UNL     1     -32.778  10.686   1.655  1.00 20.00     0.050 C 
ENDBRANCH   2   3
ENDBRANCH   1   2
BRANCH   1   7
HETATM    7  C9  UNL     1     -33.231   6.913   4.099  1.00 20.00     0.120 C 
HETATM    8  C6  UNL     1     -33.715   7.344   5.479  1.00 20.00     0.040 C 
BRANCH   7   9
HETATM    9  C8  UNL     1     -34.027   5.730   3.510  1.00 20.00     0.006 C 
HETATM   10  C4  UNL     1     -34.683   4.868   4.591  1.00 20.00     0.012 C 
HETATM   11  C5  UNL     1     -33.127   4.849   2.633  1.00 20.00     0.012 C 
ENDBRANCH   7   9
ENDBRANCH   1   7
TORSDOF 4
ENDMDL
MODEL 3
REMARK VINA RESULT:      -4.8      0.973      1.147
REMARK  4 active torsions:
REMARK  status: ('A' for Active; 'I' for Inactive)
REMARK    1  A    between atoms: C2_2  and  C7_7 
REMARK    2  A    between atoms: C7_7  and  O11_11 
REMARK    3  A    between atoms: C8_8  and  C9_9 
REMARK    4  A    between atoms: C9_9  and  O11_11 
ROOT
HETATM    1  O11 UNL     1     -33.446   7.793   3.305  1.00 20.00    -0.383 OA
ENDROOT
BRANCH   1   2
HETATM    2  C7  UNL     1     -32.245   7.812   2.549  1.00 20.00     0.208 C 
BRANCH   2   3
HETATM    3  C2  UNL     1     -32.307   8.952   1.555  1.00 20.00     0.100 A 
HETATM    4  C1  UNL     1     -31.486   8.882   0.290  1.00 20.00     0.208 A 
HETATM    5  O10 UNL     1     -32.892   8.590   0.296  1.00 20.00    -0.373 OA
HETATM    6  C3  UNL     1     -32.756  10.282   2.068  1.00 20.00     0.050 C 
ENDBRANCH   2   3
ENDBRANCH   1   2
BRANCH   1   7
HETATM    7  C9  UNL     1     -34.061   6.504   3.265  1.00 20.00     0.120 C 
HETATM    8  C6  UNL     1     -33.018   5.501   2.784  1.00 20.00     0.040 C 
BRANCH   7   9
HETATM    9  C8  UNL     1     -34.622   6.183   4.666  1.00 20.00     0.006 C 
HETATM   10  C4  UNL     1     -33.918   6.967   5.775  1.00 20.00     0.012 C 
HETATM   11  C5  UNL     1     -34.522   4.680   4.962  1.00 20.00     0.012 C 
ENDBRANCH   7   9
ENDBRANCH   1   7
TORSDOF 4
ENDMDL
MODEL 4
REMARK VINA RESULT:      -4.8      1.451      2.388
REMARK  4 active torsions:
REMARK  status: ('A' for Active; 'I' for Inactive)
REMARK    1  A    between atoms: C2_2  and  C7_7 
REMARK    2  A    between atoms: C7_7  and  O11_11 
REMARK    3  A    between atoms: C8_8  and  C9_9 
REMARK    4  A    between atoms: C9_9  and  O11_11 
ROOT
HETATM    1  O11 UNL     1     -32.962   7.547   2.084  1.00 20.00    -0.383 OA
ENDROOT
BRANCH   1   2
HETATM    2  C7  UNL     1     -31.966   8.401   1.543  1.00 20.00     0.208 C 
BRANCH   2   3
HETATM    3  C2  UNL     1     -32.640   9.519   0.776  1.00 20.00     0.100 A 
HETATM    4  C1  UNL     1     -33.223  10.691   1.528  1.00 20.00     0.208 A 
HETATM    5  O10 UNL     1     -31.954  10.776   0.863  1.00 20.00    -0.373 OA
HETATM    6  C3  UNL     1     -33.142   9.201  -0.595  1.00 20.00     0.050 C 
ENDBRANCH   2   3
ENDBRANCH   1   2
BRANCH   1   7
HETATM    7  C9  UNL     1     -32.656   7.187   3.432  1.00 20.00     0.120 C 
HETATM    8  C6  UNL     1     -31.657   8.203   3.975  1.00 20.00     0.040 C 
BRANCH   7   9
HETATM    9  C8  UNL     1     -33.972   7.129   4.237  1.00 20.00     0.006 C 
HETATM   10  C4  UNL     1     -33.741   7.225   5.746  1.00 20.00     0.012 C 
HETATM   11  C5  UNL     1     -34.749   5.844   3.921  1.00 20.00     0.012 C 
ENDBRANCH   7   9
ENDBRANCH   1   7
TORSDOF 4
ENDMDL
MODEL 5
REMARK VINA RESULT:      -4.7      1.269      5.015
REMARK  4 active torsions:
REMARK  status: ('A' for Active; 'I' for Inactive)
REMARK    1  A    between atoms: C2_2  and  C7_7 
REMARK    2  A    between atoms: C7_7  and  O11_11 
REMARK    3  A    between atoms: C8_8  and  C9_9 
REMARK    4  A    between atoms: C9_9  and  O11_11 
ROOT
HETATM    1  O11 UNL     1     -33.352   7.320   2.670  1.00 20.00    -0.383 OA
ENDROOT
BRANCH   1   2
HETATM    2  C7  UNL     1     -33.756   7.004   3.993  1.00 20.00     0.208 C 
BRANCH   2   3
HETATM    3  C2  UNL     1     -34.100   5.532   4.065  1.00 20.00     0.100 A 
HETATM    4  C1  UNL     1     -34.620   4.952   5.358  1.00 20.00     0.208 A 
HETATM    5  O10 UNL     1     -35.496   5.274   4.267  1.00 20.00    -0.373 OA
HETATM    6  C3  UNL     1     -33.460   4.631   3.059  1.00 20.00     0.050 C 
ENDBRANCH   2   3
ENDBRANCH   1   2
BRANCH   1   7
HETATM    7  C9  UNL     1     -32.623   8.547   2.629  1.00 20.00     0.120 C 
HETATM    8  C6  UNL     1     -31.266   8.308   3.282  1.00 20.00     0.040 C 
BRANCH   7   9
HETATM    9  C8  UNL     1     -32.524   9.014   1.162  1.00 20.00     0.006 C 
HETATM   10  C4  UNL     1     -31.203   8.611   0.505  1.00 20.00     0.012 C 
HETATM   11  C5  UNL     1     -32.701  10.536   1.061  1.00 20.00     0.012 C 
ENDBRANCH   7   9
ENDBRANCH   1   7
TORSDOF 4
ENDMDL
MODEL 6
REMARK VINA RESULT:      -4.7      1.367      4.853
REMARK  4 active torsions:
REMARK  status: ('A' for Active; 'I' for Inactive)
REMARK    1  A    between atoms: C2_2  and  C7_7 
REMARK    2  A    between atoms: C7_7  and  O11_11 
REMARK    3  A    between atoms: C8_8  and  C9_9 
REMARK    4  A    between atoms: C9_9  and  O11_11 
ROOT
HETATM    1  O11 UNL     1     -33.301   7.120   2.335  1.00 20.00    -0.383 OA
ENDROOT
BRANCH   1   2
HETATM    2  C7  UNL     1     -32.928   6.265   3.404  1.00 20.00     0.208 C 
BRANCH   2   3
HETATM    3  C2  UNL     1     -34.076   6.177   4.388  1.00 20.00     0.100 A 
HETATM    4  C1  UNL     1     -35.442   5.757   3.902  1.00 20.00     0.208 A 
HETATM    5  O10 UNL     1     -34.568   4.844   4.584  1.00 20.00    -0.373 OA
HETATM    6  C3  UNL     1     -33.954   6.966   5.651  1.00 20.00     0.050 C 
ENDBRANCH   2   3
ENDBRANCH   1   2
BRANCH   1   7
HETATM    7  C9  UNL     1     -32.731   8.420   2.490  1.00 20.00     0.120 C 
HETATM    8  C6  UNL     1     -31.420   8.269   3.254  1.00 20.00     0.040 C 
BRANCH   7   9
HETATM    9  C8  UNL     1     -32.558   9.052   1.093  1.00 20.00     0.006 C 
HETATM   10  C4  UNL     1     -31.233   8.664   0.433  1.00 20.00     0.012 C 
HETATM   11  C5  UNL     1     -32.660  10.581   1.169  1.00 20.00     0.012 C 
ENDBRANCH   7   9
ENDBRANCH   1   7
TORSDOF 4
ENDMDL
MODEL 7
REMARK VINA RESULT:      -4.5      1.362      2.270
REMARK  4 active torsions:
REMARK  status: ('A' for Active; 'I' for Inactive)
REMARK    1  A    between atoms: C2_2  and  C7_7 
REMARK    2  A    between atoms: C7_7  and  O11_11 
REMARK    3  A    between atoms: C8_8  and  C9_9 
REMARK    4  A    between atoms: C9_9  and  O11_11 
ROOT
HETATM    1  O11 UNL     1     -32.178   7.996   3.083  1.00 20.00    -0.383 OA
ENDROOT
BRANCH   1   2
HETATM    2  C7  UNL     1     -33.141   8.500   2.171  1.00 20.00     0.208 C 
BRANCH   2   3
HETATM    3  C2  UNL     1     -32.426   9.080   0.969  1.00 20.00     0.100 A 
HETATM    4  C1  UNL     1     -33.231   9.612  -0.192  1.00 20.00     0.208 A 
HETATM    5  O10 UNL     1     -32.648  10.485   0.787  1.00 20.00    -0.373 OA
HETATM    6  C3  UNL     1     -31.008   8.661   0.751  1.00 20.00     0.050 C 
ENDBRANCH   2   3
ENDBRANCH   1   2
BRANCH   1   7
HETATM    7  C9  UNL     1     -32.737   6.977   3.914  1.00 20.00     0.120 C 
HETATM    8  C6  UNL     1     -33.370   7.655   5.124  1.00 20.00     0.040 C 
BRANCH   7   9
HETATM    9  C8  UNL     1     -33.738   6.153   3.078  1.00 20.00     0.006 C 
HETATM   10  C4  UNL     1     -35.015   5.821   3.852  1.00 20.00     0.012 C 
HETATM   11  C5  UNL     1     -33.092   4.853   2.579  1.00 20.00     0.012 C 
ENDBRANCH   7   9
ENDBRANCH   1   7
TORSDOF 4
ENDMDL
MODEL 8
REMARK VINA RESULT:      -4.4     10.757     11.680
REMARK  4 active torsions:
REMARK  status: ('A' for Active; 'I' for Inactive)
REMARK    1  A    between atoms: C2_2  and  C7_7 
REMARK    2  A    between atoms: C7_7  and  O11_11 
REMARK    3  A    between atoms: C8_8  and  C9_9 
REMARK    4  A    between atoms: C9_9  and  O11_11 
ROOT
HETATM    1  O11 UNL     1     -34.844  15.463  -3.334  1.00 20.00    -0.383 OA
ENDROOT
BRANCH   1   2
HETATM    2  C7  UNL     1     -34.526  14.369  -4.179  1.00 20.00     0.208 C 
BRANCH   2   3
HETATM    3  C2  UNL     1     -35.737  14.029  -5.021  1.00 20.00     0.100 A 
HETATM    4  C1  UNL     1     -35.544  13.441  -6.398  1.00 20.00     0.208 A 
HETATM    5  O10 UNL     1     -35.893  12.625  -5.269  1.00 20.00    -0.373 OA
HETATM    6  C3  UNL     1     -37.016  14.728  -4.692  1.00 20.00     0.050 C 
ENDBRANCH   2   3
ENDBRANCH   1   2
BRANCH   1   7
HETATM    7  C9  UNL     1     -33.751  16.377  -3.236  1.00 20.00     0.120 C 
HETATM    8  C6  UNL     1     -33.489  16.946  -4.627  1.00 20.00     0.040 C 
BRANCH   7   9
HETATM    9  C8  UNL     1     -34.100  17.454  -2.188  1.00 20.00     0.006 C 
HETATM   10  C4  UNL     1     -32.885  17.893  -1.370  1.00 20.00     0.012 C 
HETATM   11  C5  UNL     1     -35.200  16.957  -1.240  1.00 20.00     0.012 C 
ENDBRANCH   7   9
ENDBRANCH   1   7
TORSDOF 4
ENDMDL
MODEL 9
REMARK VINA RESULT:      -4.4     10.764     11.775
REMARK  4 active torsions:
REMARK  status: ('A' for Active; 'I' for Inactive)
REMARK    1  A    between atoms: C2_2  and  C7_7 
REMARK    2  A    between atoms: C7_7  and  O11_11 
REMARK    3  A    between atoms: C8_8  and  C9_9 
REMARK    4  A    between atoms: C9_9  and  O11_11 
ROOT
HETATM    1  O11 UNL     1     -34.810  15.490  -3.342  1.00 20.00    -0.383 OA
ENDROOT
BRANCH   1   2
HETATM    2  C7  UNL     1     -34.512  14.374  -4.167  1.00 20.00     0.208 C 
BRANCH   2   3
HETATM    3  C2  UNL     1     -35.725  14.047  -5.011  1.00 20.00     0.100 A 
HETATM    4  C1  UNL     1     -35.536  13.448  -6.384  1.00 20.00     0.208 A 
HETATM    5  O10 UNL     1     -35.901  12.645  -5.252  1.00 20.00    -0.373 OA
HETATM    6  C3  UNL     1     -36.994  14.768  -4.691  1.00 20.00     0.050 C 
ENDBRANCH   2   3
ENDBRANCH   1   2
BRANCH   1   7
HETATM    7  C9  UNL     1     -33.691  16.371  -3.239  1.00 20.00     0.120 C 
HETATM    8  C6  UNL     1     -33.777  17.374  -4.384  1.00 20.00     0.040 C 
BRANCH   7   9
HETATM    9  C8  UNL     1     -33.709  17.029  -1.843  1.00 20.00     0.006 C 
HETATM   10  C4  UNL     1     -35.115  17.096  -1.244  1.00 20.00     0.012 C 
HETATM   11  C5  UNL     1     -33.110  18.441  -1.898  1.00 20.00     0.012 C 
ENDBRANCH   7   9
ENDBRANCH   1   7
TORSDOF 4
ENDMDL
