MODEL 1
REMARK VINA RESULT:      -4.8      0.000      0.000
REMARK  3 active torsions:
REMARK  status: ('A' for Active; 'I' for Inactive)
REMARK    1  A    between atoms: C1_1  and  C6_6 
REMARK    2  A    between atoms: C1_1  and  O8_8 
REMARK    3  A    between atoms: C4_4  and  C6_6 
ROOT
HETATM    1  C1  UNL     1     -32.474   7.606   2.756  1.00 20.00     0.132 C 
HETATM    2  N7  UNL     1     -31.555   8.099   3.519  1.00 20.00    -0.282 NA
HETATM    3  H19 UNL     1     -31.371   7.468   4.305  1.00 20.00     0.189 HD
ENDROOT
BRANCH   1   4
HETATM    4  C6  UNL     1     -33.161   6.299   3.023  1.00 20.00     0.090 C 
BRANCH   4   5
HETATM    5  C4  UNL     1     -34.337   6.455   3.933  1.00 20.00    -0.007 A 
HETATM    6  C2  UNL     1     -34.735   5.336   4.855  1.00 20.00     0.005 A 
HETATM    7  C3  UNL     1     -34.134   6.595   5.415  1.00 20.00     0.005 A 
ENDBRANCH   4   5
ENDBRANCH   1   4
BRANCH   1   8
HETATM    8  O8  UNL     1     -32.952   8.217   1.641  1.00 20.00    -0.343 OA
HETATM    9  C5  UNL     1     -32.172   9.290   1.096  1.00 20.00     0.211 C 
ENDBRANCH   1   8
TORSDOF 3
ENDMDL
MODEL 2
REMARK VINA RESULT:      -4.6      2.183      3.941
REMARK  3 active torsions:
REMARK  status: ('A' for Active; 'I' for Inactive)
REMARK    1  A    between atoms: C1_1  and  C6_6 
REMARK    2  A    between atoms: C1_1  and  O8_8 
REMARK    3  A    between atoms: C4_4  and  C6_6 
ROOT
HETATM    1  C1  UNL     1     -34.015   6.759   5.036  1.00 20.00     0.132 C 
HETATM    2  N7  UNL     1     -33.345   7.285   6.007  1.00 20.00    -0.282 NA
HETATM    3  H19 UNL     1     -32.769   8.060   5.663  1.00 20.00     0.189 HD
ENDROOT
BRANCH   1   4
HETATM    4  C6  UNL     1     -33.925   7.233   3.615  1.00 20.00     0.090 C 
BRANCH   4   5
HETATM    5  C4  UNL     1     -32.524   7.201   3.096  1.00 20.00    -0.007 A 
HETATM    6  C2  UNL     1     -32.101   8.135   1.996  1.00 20.00     0.005 A 
HETATM    7  C3  UNL     1     -31.581   8.333   3.392  1.00 20.00     0.005 A 
ENDBRANCH   4   5
ENDBRANCH   1   4
BRANCH   1   8
HETATM    8  O8  UNL     1     -34.854   5.701   5.171  1.00 20.00    -0.343 OA
HETATM    9  C5  UNL     1     -34.451   4.462   4.570  1.00 20.00     0.211 C 
ENDBRANCH   1   8
TORSDOF 3
ENDMDL
MODEL 3
REMARK VINA RESULT:      -4.6      1.880      4.257
REMARK  3 active torsions:
REMARK  status: ('A' for Active; 'I' for Inactive)
REMARK    1  A    between atoms: C1_1  and  C6_6 
REMARK    2  A    between atoms: C1_1  and  O8_8 
REMARK    3  A    between atoms: C4_4  and  C6_6 
ROOT
HETATM    1  C1  UNL     1     -32.841   7.249   3.628  1.00 20.00     0.132 C 
HETATM    2  N7  UNL     1     -33.457   6.243   3.100  1.00 20.00    -0.282 NA
HETATM    3  H19 UNL     1     -33.245   6.184   2.099  1.00 20.00     0.189 HD
ENDROOT
BRANCH   1   4
HETATM    4  C6  UNL     1     -31.961   8.184   2.851  1.00 20.00     0.090 C 
BRANCH   4   5
HETATM    5  C4  UNL     1     -32.618   8.666   1.598  1.00 20.00    -0.007 A 
HETATM    6  C2  UNL     1     -32.615  10.129   1.254  1.00 20.00     0.005 A 
HETATM    7  C3  UNL     1     -31.786   9.166   0.450  1.00 20.00     0.005 A 
ENDBRANCH   4   5
ENDBRANCH   1   4
BRANCH   1   8
HETATM    8  O8  UNL     1     -32.933   7.601   4.936  1.00 20.00    -0.343 OA
HETATM    9  C5  UNL     1     -33.954   6.966   5.717  1.00 20.00     0.211 C 
ENDBRANCH   1   8
TORSDOF 3
ENDMDL
MODEL 4
REMARK VINA RESULT:      -4.4      2.270      4.095
REMARK  3 active torsions:
REMARK  status: ('A' for Active; 'I' for Inactive)
REMARK    1  A    between atoms: C1_1  and  C6_6 
REMARK    2  A    between atoms: C1_1  and  O8_8 
REMARK    3  A    between atoms: C4_4  and  C6_6 
ROOT
HETATM    1  C1  UNL     1     -33.930   5.580   3.434  1.00 20.00     0.132 C 
HETATM    2  N7  UNL     1     -33.253   4.705   2.766  1.00 20.00    -0.282 NA
HETATM    3  H19 UNL     1     -32.538   5.168   2.197  1.00 20.00     0.189 HD
ENDROOT
BRANCH   1   4
HETATM    4  C6  UNL     1     -33.683   7.058   3.351  1.00 20.00     0.090 C 
BRANCH   4   5
HETATM    5  C4  UNL     1     -32.389   7.377   2.673  1.00 20.00    -0.007 A 
HETATM    6  C2  UNL     1     -32.199   8.701   1.987  1.00 20.00     0.005 A 
HETATM    7  C3  UNL     1     -31.459   8.401   3.261  1.00 20.00     0.005 A 
ENDBRANCH   4   5
ENDBRANCH   1   4
BRANCH   1   8
HETATM    8  O8  UNL     1     -34.959   5.279   4.266  1.00 20.00    -0.343 OA
HETATM    9  C5  UNL     1     -34.643   5.055   5.647  1.00 20.00     0.211 C 
ENDBRANCH   1   8
TORSDOF 3
ENDMDL
MODEL 5
REMARK VINA RESULT:      -4.1      1.779      2.075
REMARK  3 active torsions:
REMARK  status: ('A' for Active; 'I' for Inactive)
REMARK    1  A    between atoms: C1_1  and  C6_6 
REMARK    2  A    between atoms: C1_1  and  O8_8 
REMARK    3  A    between atoms: C4_4  and  C6_6 
ROOT
HETATM    1  C1  UNL     1     -33.312   7.331   4.713  1.00 20.00     0.132 C 
HETATM    2  N7  UNL     1     -33.332   7.501   5.993  1.00 20.00    -0.282 NA
HETATM    3  H19 UNL     1     -34.250   7.247   6.371  1.00 20.00     0.189 HD
ENDROOT
BRANCH   1   4
HETATM    4  C6  UNL     1     -34.491   6.844   3.922  1.00 20.00     0.090 C 
BRANCH   4   5
HETATM    5  C4  UNL     1     -35.012   5.540   4.432  1.00 20.00    -0.007 A 
HETATM    6  C2  UNL     1     -34.234   4.273   4.211  1.00 20.00     0.005 A 
HETATM    7  C3  UNL     1     -34.341   4.857   5.591  1.00 20.00     0.005 A 
ENDBRANCH   4   5
ENDBRANCH   1   4
BRANCH   1   8
HETATM    8  O8  UNL     1     -32.241   7.598   3.922  1.00 20.00    -0.343 OA
HETATM    9  C5  UNL     1     -32.465   7.640   2.506  1.00 20.00     0.211 C 
ENDBRANCH   1   8
TORSDOF 3
ENDMDL
MODEL 6
REMARK VINA RESULT:      -4.0      1.468      1.658
REMARK  3 active torsions:
REMARK  status: ('A' for Active; 'I' for Inactive)
REMARK    1  A    between atoms: C1_1  and  C6_6 
REMARK    2  A    between atoms: C1_1  and  O8_8 
REMARK    3  A    between atoms: C4_4  and  C6_6 
ROOT
HETATM    1  C1  UNL     1     -33.113   6.973   3.091  1.00 20.00     0.132 C 
HETATM    2  N7  UNL     1     -33.603   6.284   2.114  1.00 20.00    -0.282 NA
HETATM    3  H19 UNL     1     -34.385   5.708   2.443  1.00 20.00     0.189 HD
ENDROOT
BRANCH   1   4
HETATM    4  C6  UNL     1     -33.632   6.901   4.498  1.00 20.00     0.090 C 
BRANCH   4   5
HETATM    5  C4  UNL     1     -34.688   5.856   4.658  1.00 20.00    -0.007 A 
HETATM    6  C2  UNL     1     -34.321   4.398   4.639  1.00 20.00     0.005 A 
HETATM    7  C3  UNL     1     -34.766   5.045   5.921  1.00 20.00     0.005 A 
ENDBRANCH   4   5
ENDBRANCH   1   4
BRANCH   1   8
HETATM    8  O8  UNL     1     -32.058   7.819   2.977  1.00 20.00    -0.343 OA
HETATM    9  C5  UNL     1     -32.078   8.750   1.887  1.00 20.00     0.211 C 
ENDBRANCH   1   8
TORSDOF 3
ENDMDL
MODEL 7
REMARK VINA RESULT:      -4.0      1.661      1.687
REMARK  3 active torsions:
REMARK  status: ('A' for Active; 'I' for Inactive)
REMARK    1  A    between atoms: C1_1  and  C6_6 
REMARK    2  A    between atoms: C1_1  and  O8_8 
REMARK    3  A    between atoms: C4_4  and  C6_6 
ROOT
HETATM    1  C1  UNL     1     -32.979   7.219   2.800  1.00 20.00     0.132 C 
HETATM    2  N7  UNL     1     -33.146   7.940   1.741  1.00 20.00    -0.282 NA
HETATM    3  H19 UNL     1     -33.659   7.410   1.029  1.00 20.00     0.189 HD
ENDROOT
BRANCH   1   4
HETATM    4  C6  UNL     1     -33.467   5.805   2.927  1.00 20.00     0.090 C 
BRANCH   4   5
HETATM    5  C4  UNL     1     -34.639   5.694   3.848  1.00 20.00    -0.007 A 
HETATM    6  C2  UNL     1     -34.736   4.548   4.817  1.00 20.00     0.005 A 
HETATM    7  C3  UNL     1     -34.471   5.939   5.321  1.00 20.00     0.005 A 
ENDBRANCH   4   5
ENDBRANCH   1   4
BRANCH   1   8
HETATM    8  O8  UNL     1     -32.320   7.635   3.912  1.00 20.00    -0.343 OA
HETATM    9  C5  UNL     1     -31.170   8.471   3.720  1.00 20.00     0.211 C 
ENDBRANCH   1   8
TORSDOF 3
ENDMDL
MODEL 8
REMARK VINA RESULT:      -3.9     11.017     11.581
REMARK  3 active torsions:
REMARK  status: ('A' for Active; 'I' for Inactive)
REMARK    1  A    between atoms: C1_1  and  C6_6 
REMARK    2  A    between atoms: C1_1  and  O8_8 
REMARK    3  A    between atoms: C4_4  and  C6_6 
ROOT
HETATM    1  C1  UNL     1     -36.555  13.849  -4.955  1.00 20.00     0.132 C 
HETATM    2  N7  UNL     1     -35.852  12.785  -5.162  1.00 20.00    -0.282 NA
HETATM    3  H19 UNL     1     -34.852  13.000  -5.088  1.00 20.00     0.189 HD
ENDROOT
BRANCH   1   4
HETATM    4  C6  UNL     1     -35.956  15.195  -4.665  1.00 20.00     0.090 C 
BRANCH   4   5
HETATM    5  C4  UNL     1     -34.776  15.102  -3.753  1.00 20.00    -0.007 A 
HETATM    6  C2  UNL     1     -33.548  15.930  -4.016  1.00 20.00     0.005 A 
HETATM    7  C3  UNL     1     -34.432  16.247  -2.842  1.00 20.00     0.005 A 
ENDBRANCH   4   5
ENDBRANCH   1   4
BRANCH   1   8
HETATM    8  O8  UNL     1     -37.911  13.891  -5.003  1.00 20.00    -0.343 OA
HETATM    9  C5  UNL     1     -38.542  15.123  -4.628  1.00 20.00     0.211 C 
ENDBRANCH   1   8
TORSDOF 3
ENDMDL
MODEL 9
REMARK VINA RESULT:      -3.9      1.331      1.498
REMARK  3 active torsions:
REMARK  status: ('A' for Active; 'I' for Inactive)
REMARK    1  A    between atoms: C1_1  and  C6_6 
REMARK    2  A    between atoms: C1_1  and  O8_8 
REMARK    3  A    between atoms: C4_4  and  C6_6 
ROOT
HETATM    1  C1  UNL     1     -32.126   8.416   1.846  1.00 20.00     0.132 C 
HETATM    2  N7  UNL     1     -31.212   8.357   0.935  1.00 20.00    -0.282 NA
HETATM    3  H19 UNL     1     -30.607   7.544   1.091  1.00 20.00     0.189 HD
ENDROOT
BRANCH   1   4
HETATM    4  C6  UNL     1     -32.244   7.425   2.968  1.00 20.00     0.090 C 
BRANCH   4   5
HETATM    5  C4  UNL     1     -33.602   7.437   3.591  1.00 20.00    -0.007 A 
HETATM    6  C2  UNL     1     -34.261   6.149   3.996  1.00 20.00     0.005 A 
HETATM    7  C3  UNL     1     -33.770   7.105   5.047  1.00 20.00     0.005 A 
ENDBRANCH   4   5
ENDBRANCH   1   4
BRANCH   1   8
HETATM    8  O8  UNL     1     -33.069   9.389   1.921  1.00 20.00    -0.343 OA
HETATM    9  C5  UNL     1     -32.833  10.592   1.176  1.00 20.00     0.211 C 
ENDBRANCH   1   8
TORSDOF 3
ENDMDL
