MODEL 1
REMARK VINA RESULT:      -4.6      0.000      0.000
REMARK  5 active torsions:
REMARK  status: ('A' for Active; 'I' for Inactive)
REMARK    1  A    between atoms: C1_1  and  C7_7 
REMARK    2  A    between atoms: C1_1  and  C9_9 
REMARK    3  A    between atoms: C4_4  and  C9_9 
REMARK    4  A    between atoms: C8_8  and  C9_9 
REMARK    5  A    between atoms: C8_8  and  O11_11 
ROOT
HETATM    1  C9  UNL     1     -33.500   7.389   3.531  1.00 20.00     0.083 C 
ENDROOT
BRANCH   1   2
HETATM    2  C1  UNL     1     -32.278   8.092   2.930  1.00 20.00     0.133 C 
HETATM    3  O10 UNL     1     -31.274   8.331   3.602  1.00 20.00    -0.297 OA
BRANCH   2   4
HETATM    4  C7  UNL     1     -32.381   8.507   1.471  1.00 20.00     0.074 C 
HETATM    5  C5  UNL     1     -32.561  10.006   1.305  1.00 20.00     0.013 C 
ENDBRANCH   2   4
ENDBRANCH   1   2
BRANCH   1   6
HETATM    6  C4  UNL     1     -33.234   6.920   4.939  1.00 20.00    -0.001 A 
HETATM    7  C2  UNL     1     -33.871   7.622   6.106  1.00 20.00     0.006 A 
HETATM    8  C3  UNL     1     -34.318   6.238   5.727  1.00 20.00     0.006 A 
ENDBRANCH   1   6
BRANCH   1   9
HETATM    9  C8  UNL     1     -33.918   6.215   2.642  1.00 20.00     0.179 C 
BRANCH   9  10
HETATM   10  O11 UNL     1     -32.885   5.237   2.628  1.00 20.00    -0.395 OA
HETATM   11  C6  UNL     1     -33.372   3.961   3.015  1.00 20.00     0.201 C 
ENDBRANCH   9  10
ENDBRANCH   1   9
TORSDOF 5
ENDMDL
MODEL 2
REMARK VINA RESULT:      -4.2      1.376      2.597
REMARK  5 active torsions:
REMARK  status: ('A' for Active; 'I' for Inactive)
REMARK    1  A    between atoms: C1_1  and  C7_7 
REMARK    2  A    between atoms: C1_1  and  C9_9 
REMARK    3  A    between atoms: C4_4  and  C9_9 
REMARK    4  A    between atoms: C8_8  and  C9_9 
REMARK    5  A    between atoms: C8_8  and  O11_11 
ROOT
HETATM    1  C9  UNL     1     -32.558   7.172   3.440  1.00 20.00     0.083 C 
ENDROOT
BRANCH   1   2
HETATM    2  C1  UNL     1     -31.827   8.378   2.838  1.00 20.00     0.133 C 
HETATM    3  O10 UNL     1     -31.101   9.100   3.521  1.00 20.00    -0.297 OA
BRANCH   2   4
HETATM    4  C7  UNL     1     -32.069   8.654   1.362  1.00 20.00     0.074 C 
HETATM    5  C5  UNL     1     -32.546  10.073   1.108  1.00 20.00     0.013 C 
ENDBRANCH   2   4
ENDBRANCH   1   2
BRANCH   1   6
HETATM    6  C4  UNL     1     -33.022   6.215   2.372  1.00 20.00    -0.001 A 
HETATM    7  C2  UNL     1     -32.917   4.730   2.587  1.00 20.00     0.006 A 
HETATM    8  C3  UNL     1     -34.265   5.395   2.578  1.00 20.00     0.006 A 
ENDBRANCH   1   6
BRANCH   1   9
HETATM    9  C8  UNL     1     -33.740   7.648   4.287  1.00 20.00     0.179 C 
BRANCH   9  10
HETATM   10  O11 UNL     1     -33.561   7.225   5.634  1.00 20.00    -0.395 OA
HETATM   11  C6  UNL     1     -34.418   6.140   5.957  1.00 20.00     0.201 C 
ENDBRANCH   9  10
ENDBRANCH   1   9
TORSDOF 5
ENDMDL
MODEL 3
REMARK VINA RESULT:      -4.1     11.046     12.057
REMARK  5 active torsions:
REMARK  status: ('A' for Active; 'I' for Inactive)
REMARK    1  A    between atoms: C1_1  and  C7_7 
REMARK    2  A    between atoms: C1_1  and  C9_9 
REMARK    3  A    between atoms: C4_4  and  C9_9 
REMARK    4  A    between atoms: C8_8  and  C9_9 
REMARK    5  A    between atoms: C8_8  and  O11_11 
ROOT
HETATM    1  C9  UNL     1     -35.837  14.970  -4.892  1.00 20.00     0.083 C 
ENDROOT
BRANCH   1   2
HETATM    2  C1  UNL     1     -35.813  13.674  -5.710  1.00 20.00     0.133 C 
HETATM    3  O10 UNL     1     -35.832  12.568  -5.169  1.00 20.00    -0.297 OA
BRANCH   2   4
HETATM    4  C7  UNL     1     -35.732  13.824  -7.221  1.00 20.00     0.074 C 
HETATM    5  C5  UNL     1     -34.305  14.000  -7.711  1.00 20.00     0.013 C 
ENDBRANCH   2   4
ENDBRANCH   1   2
BRANCH   1   6
HETATM    6  C4  UNL     1     -34.747  14.990  -3.850  1.00 20.00    -0.001 A 
HETATM    7  C2  UNL     1     -33.596  15.949  -3.975  1.00 20.00     0.006 A 
HETATM    8  C3  UNL     1     -34.628  16.150  -2.901  1.00 20.00     0.006 A 
ENDBRANCH   1   6
BRANCH   1   9
HETATM    9  C8  UNL     1     -37.210  15.151  -4.239  1.00 20.00     0.179 C 
BRANCH   9  10
HETATM   10  O11 UNL     1     -38.138  14.244  -4.823  1.00 20.00    -0.395 OA
HETATM   11  C6  UNL     1     -39.262  14.926  -5.360  1.00 20.00     0.201 C 
ENDBRANCH   9  10
ENDBRANCH   1   9
TORSDOF 5
ENDMDL
MODEL 4
REMARK VINA RESULT:      -4.0     11.053     12.116
REMARK  5 active torsions:
REMARK  status: ('A' for Active; 'I' for Inactive)
REMARK    1  A    between atoms: C1_1  and  C7_7 
REMARK    2  A    between atoms: C1_1  and  C9_9 
REMARK    3  A    between atoms: C4_4  and  C9_9 
REMARK    4  A    between atoms: C8_8  and  C9_9 
REMARK    5  A    between atoms: C8_8  and  O11_11 
ROOT
HETATM    1  C9  UNL     1     -34.651  14.582  -4.372  1.00 20.00     0.083 C 
ENDROOT
BRANCH   1   2
HETATM    2  C1  UNL     1     -35.920  13.860  -4.840  1.00 20.00     0.133 C 
HETATM    3  O10 UNL     1     -35.891  12.695  -5.238  1.00 20.00    -0.297 OA
BRANCH   2   4
HETATM    4  C7  UNL     1     -37.209  14.666  -4.819  1.00 20.00     0.074 C 
HETATM    5  C5  UNL     1     -37.703  15.008  -6.214  1.00 20.00     0.013 C 
ENDBRANCH   2   4
ENDBRANCH   1   2
BRANCH   1   6
HETATM    6  C4  UNL     1     -34.952  15.980  -3.894  1.00 20.00    -0.001 A 
HETATM    7  C2  UNL     1     -34.811  16.329  -2.438  1.00 20.00     0.006 A 
HETATM    8  C3  UNL     1     -33.837  16.881  -3.442  1.00 20.00     0.006 A 
ENDBRANCH   1   6
BRANCH   1   9
HETATM    9  C8  UNL     1     -33.619  14.611  -5.502  1.00 20.00     0.179 C 
BRANCH   9  10
HETATM   10  O11 UNL     1     -34.173  15.268  -6.637  1.00 20.00    -0.395 OA
HETATM   11  C6  UNL     1     -33.943  14.530  -7.828  1.00 20.00     0.201 C 
ENDBRANCH   9  10
ENDBRANCH   1   9
TORSDOF 5
ENDMDL
MODEL 5
REMARK VINA RESULT:      -3.9      1.185      3.795
REMARK  5 active torsions:
REMARK  status: ('A' for Active; 'I' for Inactive)
REMARK    1  A    between atoms: C1_1  and  C7_7 
REMARK    2  A    between atoms: C1_1  and  C9_9 
REMARK    3  A    between atoms: C4_4  and  C9_9 
REMARK    4  A    between atoms: C8_8  and  C9_9 
REMARK    5  A    between atoms: C8_8  and  O11_11 
ROOT
HETATM    1  C9  UNL     1     -32.768   6.837   3.463  1.00 20.00     0.083 C 
ENDROOT
BRANCH   1   2
HETATM    2  C1  UNL     1     -33.628   5.811   2.717  1.00 20.00     0.133 C 
HETATM    3  O10 UNL     1     -34.467   6.155   1.884  1.00 20.00    -0.297 OA
BRANCH   2   4
HETATM    4  C7  UNL     1     -33.413   4.350   3.080  1.00 20.00     0.074 C 
HETATM    5  C5  UNL     1     -34.190   3.940   4.319  1.00 20.00     0.013 C 
ENDBRANCH   2   4
ENDBRANCH   1   2
BRANCH   1   6
HETATM    6  C4  UNL     1     -33.578   7.615   4.468  1.00 20.00    -0.001 A 
HETATM    7  C2  UNL     1     -33.990   6.978   5.767  1.00 20.00     0.006 A 
HETATM    8  C3  UNL     1     -32.953   8.066   5.759  1.00 20.00     0.006 A 
ENDBRANCH   1   6
BRANCH   1   9
HETATM    9  C8  UNL     1     -32.097   7.783   2.464  1.00 20.00     0.179 C 
BRANCH   9  10
HETATM   10  O11 UNL     1     -32.930   8.916   2.249  1.00 20.00    -0.395 OA
HETATM   11  C6  UNL     1     -32.483   9.687   1.143  1.00 20.00     0.201 C 
ENDBRANCH   9  10
ENDBRANCH   1   9
TORSDOF 5
ENDMDL
MODEL 6
REMARK VINA RESULT:      -3.9      1.365      3.696
REMARK  5 active torsions:
REMARK  status: ('A' for Active; 'I' for Inactive)
REMARK    1  A    between atoms: C1_1  and  C7_7 
REMARK    2  A    between atoms: C1_1  and  C9_9 
REMARK    3  A    between atoms: C4_4  and  C9_9 
REMARK    4  A    between atoms: C8_8  and  C9_9 
REMARK    5  A    between atoms: C8_8  and  O11_11 
ROOT
HETATM    1  C9  UNL     1     -33.350   6.840   3.831  1.00 20.00     0.083 C 
ENDROOT
BRANCH   1   2
HETATM    2  C1  UNL     1     -33.797   6.894   5.296  1.00 20.00     0.133 C 
HETATM    3  O10 UNL     1     -33.293   7.683   6.096  1.00 20.00    -0.297 OA
BRANCH   2   4
HETATM    4  C7  UNL     1     -34.871   5.904   5.718  1.00 20.00     0.074 C 
HETATM    5  C5  UNL     1     -34.387   4.465   5.664  1.00 20.00     0.013 C 
ENDBRANCH   2   4
ENDBRANCH   1   2
BRANCH   1   6
HETATM    6  C4  UNL     1     -32.814   8.169   3.363  1.00 20.00    -0.001 A 
HETATM    7  C2  UNL     1     -31.338   8.357   3.143  1.00 20.00     0.006 A 
HETATM    8  C3  UNL     1     -32.275   8.320   1.968  1.00 20.00     0.006 A 
ENDBRANCH   1   6
BRANCH   1   9
HETATM    9  C8  UNL     1     -34.514   6.387   2.946  1.00 20.00     0.179 C 
BRANCH   9  10
HETATM   10  O11 UNL     1     -34.056   5.405   2.022  1.00 20.00    -0.395 OA
HETATM   11  C6  UNL     1     -32.946   4.685   2.538  1.00 20.00     0.201 C 
ENDBRANCH   9  10
ENDBRANCH   1   9
TORSDOF 5
ENDMDL
MODEL 7
REMARK VINA RESULT:      -3.9     10.754     12.183
REMARK  5 active torsions:
REMARK  status: ('A' for Active; 'I' for Inactive)
REMARK    1  A    between atoms: C1_1  and  C7_7 
REMARK    2  A    between atoms: C1_1  and  C9_9 
REMARK    3  A    between atoms: C4_4  and  C9_9 
REMARK    4  A    between atoms: C8_8  and  C9_9 
REMARK    5  A    between atoms: C8_8  and  O11_11 
ROOT
HETATM    1  C9  UNL     1     -35.706  14.098  -5.105  1.00 20.00     0.083 C 
ENDROOT
BRANCH   1   2
HETATM    2  C1  UNL     1     -34.541  14.408  -4.159  1.00 20.00     0.133 C 
HETATM    3  O10 UNL     1     -33.542  13.689  -4.107  1.00 20.00    -0.297 OA
BRANCH   2   4
HETATM    4  C7  UNL     1     -34.695  15.629  -3.265  1.00 20.00     0.074 C 
HETATM    5  C5  UNL     1     -33.599  16.655  -3.491  1.00 20.00     0.013 C 
ENDBRANCH   2   4
ENDBRANCH   1   2
BRANCH   1   6
HETATM    6  C4  UNL     1     -35.334  14.349  -6.545  1.00 20.00    -0.001 A 
HETATM    7  C2  UNL     1     -35.090  13.194  -7.477  1.00 20.00     0.006 A 
HETATM    8  C3  UNL     1     -36.316  14.048  -7.643  1.00 20.00     0.006 A 
ENDBRANCH   1   6
BRANCH   1   9
HETATM    9  C8  UNL     1     -36.932  14.926  -4.713  1.00 20.00     0.179 C 
BRANCH   9  10
HETATM   10  O11 UNL     1     -38.096  14.109  -4.769  1.00 20.00    -0.395 OA
HETATM   11  C6  UNL     1     -39.212  14.828  -5.274  1.00 20.00     0.201 C 
ENDBRANCH   9  10
ENDBRANCH   1   9
TORSDOF 5
ENDMDL
MODEL 8
REMARK VINA RESULT:      -3.9     11.080     11.850
REMARK  5 active torsions:
REMARK  status: ('A' for Active; 'I' for Inactive)
REMARK    1  A    between atoms: C1_1  and  C7_7 
REMARK    2  A    between atoms: C1_1  and  C9_9 
REMARK    3  A    between atoms: C4_4  and  C9_9 
REMARK    4  A    between atoms: C8_8  and  C9_9 
REMARK    5  A    between atoms: C8_8  and  O11_11 
ROOT
HETATM    1  C9  UNL     1     -34.665  15.980  -4.465  1.00 20.00     0.083 C 
ENDROOT
BRANCH   1   2
HETATM    2  C1  UNL     1     -33.993  14.837  -5.234  1.00 20.00     0.133 C 
HETATM    3  O10 UNL     1     -33.453  13.896  -4.652  1.00 20.00    -0.297 OA
BRANCH   2   4
HETATM    4  C7  UNL     1     -33.998  14.941  -6.752  1.00 20.00     0.074 C 
HETATM    5  C5  UNL     1     -34.473  13.663  -7.419  1.00 20.00     0.013 C 
ENDBRANCH   2   4
ENDBRANCH   1   2
BRANCH   1   6
HETATM    6  C4  UNL     1     -34.410  15.877  -2.983  1.00 20.00    -0.001 A 
HETATM    7  C2  UNL     1     -33.706  16.988  -2.255  1.00 20.00     0.006 A 
HETATM    8  C3  UNL     1     -35.171  16.747  -2.022  1.00 20.00     0.006 A 
ENDBRANCH   1   6
BRANCH   1   9
HETATM    9  C8  UNL     1     -36.168  15.991  -4.754  1.00 20.00     0.179 C 
BRANCH   9  10
HETATM   10  O11 UNL     1     -36.717  14.709  -4.471  1.00 20.00    -0.395 OA
HETATM   11  C6  UNL     1     -37.811  14.412  -5.325  1.00 20.00     0.201 C 
ENDBRANCH   9  10
ENDBRANCH   1   9
TORSDOF 5
ENDMDL
MODEL 9
REMARK VINA RESULT:      -3.8      1.368      4.321
REMARK  5 active torsions:
REMARK  status: ('A' for Active; 'I' for Inactive)
REMARK    1  A    between atoms: C1_1  and  C7_7 
REMARK    2  A    between atoms: C1_1  and  C9_9 
REMARK    3  A    between atoms: C4_4  and  C9_9 
REMARK    4  A    between atoms: C8_8  and  C9_9 
REMARK    5  A    between atoms: C8_8  and  O11_11 
ROOT
HETATM    1  C9  UNL     1     -33.294   7.284   3.056  1.00 20.00     0.083 C 
ENDROOT
BRANCH   1   2
HETATM    2  C1  UNL     1     -33.592   5.781   3.043  1.00 20.00     0.133 C 
HETATM    3  O10 UNL     1     -32.866   4.983   2.449  1.00 20.00    -0.297 OA
BRANCH   2   4
HETATM    4  C7  UNL     1     -34.846   5.329   3.775  1.00 20.00     0.074 C 
HETATM    5  C5  UNL     1     -34.555   4.277   4.831  1.00 20.00     0.013 C 
ENDBRANCH   2   4
ENDBRANCH   1   2
BRANCH   1   6
HETATM    6  C4  UNL     1     -32.453   7.693   1.873  1.00 20.00    -0.001 A 
HETATM    7  C2  UNL     1     -32.706   9.003   1.179  1.00 20.00     0.006 A 
HETATM    8  C3  UNL     1     -31.462   8.817   2.002  1.00 20.00     0.006 A 
ENDBRANCH   1   6
BRANCH   1   9
HETATM    9  C8  UNL     1     -32.604   7.670   4.367  1.00 20.00     0.179 C 
BRANCH   9  10
HETATM   10  O11 UNL     1     -33.571   8.164   5.286  1.00 20.00    -0.395 OA
HETATM   11  C6  UNL     1     -33.749   7.277   6.380  1.00 20.00     0.201 C 
ENDBRANCH   9  10
ENDBRANCH   1   9
TORSDOF 5
ENDMDL
