MODEL 1
REMARK VINA RESULT:      -6.4      0.000      0.000
REMARK  5 active torsions:
REMARK  status: ('A' for Active; 'I' for Inactive)
REMARK    1  A    between atoms: C2_2  and  C8_8 
REMARK    2  A    between atoms: C2_2  and  C9_9 
REMARK    3  A    between atoms: C3_3  and  C8_8 
REMARK    4  A    between atoms: C3_3  and  C10_10 
REMARK    5  A    between atoms: C6_6  and  C10_10 
ROOT
HETATM    1  C3  UNL     1     -32.887   6.870   2.981  1.00 20.00     0.131 C 
HETATM    2  O11 UNL     1     -32.353   5.790   2.731  1.00 20.00    -0.298 OA
ENDROOT
BRANCH   1   3
HETATM    3  C8  UNL     1     -34.231   6.973   3.692  1.00 20.00     0.111 C 
BRANCH   3   4
HETATM    4  C2  UNL     1     -34.122   6.627   5.154  1.00 20.00    -0.083 C 
HETATM    5  C1  UNL     1     -33.523   7.459   6.021  1.00 20.00     0.014 C 
BRANCH   4   6
HETATM    6  C9  UNL     1     -34.705   5.309   5.611  1.00 20.00     0.029 C 
HETATM    7  C7  UNL     1     -34.436   4.177   4.631  1.00 20.00     0.010 C 
ENDBRANCH   4   6
ENDBRANCH   3   4
ENDBRANCH   1   3
BRANCH   1   8
HETATM    8  C10 UNL     1     -32.225   8.193   2.640  1.00 20.00     0.083 C 
BRANCH   8   9
HETATM    9  C6  UNL     1     -32.821   8.876   1.450  1.00 20.00    -0.008 A 
HETATM   10  C4  UNL     1     -32.607  10.350   1.238  1.00 20.00     0.005 A 
HETATM   11  C5  UNL     1     -31.938   9.354   0.331  1.00 20.00     0.005 A 
ENDBRANCH   8   9
ENDBRANCH   1   8
TORSDOF 5
ENDMDL
MODEL 2
REMARK VINA RESULT:      -6.2      1.264      2.106
REMARK  5 active torsions:
REMARK  status: ('A' for Active; 'I' for Inactive)
REMARK    1  A    between atoms: C2_2  and  C8_8 
REMARK    2  A    between atoms: C2_2  and  C9_9 
REMARK    3  A    between atoms: C3_3  and  C8_8 
REMARK    4  A    between atoms: C3_3  and  C10_10 
REMARK    5  A    between atoms: C6_6  and  C10_10 
ROOT
HETATM    1  C3  UNL     1     -32.223   7.989   2.811  1.00 20.00     0.131 C 
HETATM    2  O11 UNL     1     -31.419   8.307   3.686  1.00 20.00    -0.298 OA
ENDROOT
BRANCH   1   3
HETATM    3  C8  UNL     1     -33.667   7.615   3.122  1.00 20.00     0.111 C 
BRANCH   3   4
HETATM    4  C2  UNL     1     -33.783   6.204   3.640  1.00 20.00    -0.083 C 
HETATM    5  C1  UNL     1     -33.374   5.160   2.902  1.00 20.00     0.014 C 
BRANCH   4   6
HETATM    6  C9  UNL     1     -34.379   6.005   5.015  1.00 20.00     0.029 C 
HETATM    7  C7  UNL     1     -33.927   7.066   6.008  1.00 20.00     0.010 C 
ENDBRANCH   4   6
ENDBRANCH   3   4
ENDBRANCH   1   3
BRANCH   1   8
HETATM    8  C10 UNL     1     -31.851   7.987   1.339  1.00 20.00     0.083 C 
BRANCH   8   9
HETATM    9  C6  UNL     1     -31.883   9.342   0.706  1.00 20.00    -0.008 A 
HETATM   10  C4  UNL     1     -33.000   9.715  -0.230  1.00 20.00     0.005 A 
HETATM   11  C5  UNL     1     -32.914  10.351   1.130  1.00 20.00     0.005 A 
ENDBRANCH   8   9
ENDBRANCH   1   8
TORSDOF 5
ENDMDL
MODEL 3
REMARK VINA RESULT:      -6.1      0.961      1.134
REMARK  5 active torsions:
REMARK  status: ('A' for Active; 'I' for Inactive)
REMARK    1  A    between atoms: C2_2  and  C8_8 
REMARK    2  A    between atoms: C2_2  and  C9_9 
REMARK    3  A    between atoms: C3_3  and  C8_8 
REMARK    4  A    between atoms: C3_3  and  C10_10 
REMARK    5  A    between atoms: C6_6  and  C10_10 
ROOT
HETATM    1  C3  UNL     1     -32.714   7.553   3.246  1.00 20.00     0.131 C 
HETATM    2  O11 UNL     1     -31.866   7.965   4.037  1.00 20.00    -0.298 OA
ENDROOT
BRANCH   1   3
HETATM    3  C8  UNL     1     -34.064   7.012   3.701  1.00 20.00     0.111 C 
BRANCH   3   4
HETATM    4  C2  UNL     1     -34.057   6.639   5.161  1.00 20.00    -0.083 C 
HETATM    5  C1  UNL     1     -33.688   7.524   6.100  1.00 20.00     0.014 C 
BRANCH   4   6
HETATM    6  C9  UNL     1     -34.475   5.234   5.531  1.00 20.00     0.029 C 
HETATM    7  C7  UNL     1     -34.381   4.267   4.360  1.00 20.00     0.010 C 
ENDBRANCH   4   6
ENDBRANCH   3   4
ENDBRANCH   1   3
BRANCH   1   8
HETATM    8  C10 UNL     1     -32.499   7.594   1.743  1.00 20.00     0.083 C 
BRANCH   8   9
HETATM    9  C6  UNL     1     -32.016   8.916   1.238  1.00 20.00    -0.008 A 
HETATM   10  C4  UNL     1     -32.639   9.533   0.016  1.00 20.00     0.005 A 
HETATM   11  C5  UNL     1     -32.880  10.139   1.371  1.00 20.00     0.005 A 
ENDBRANCH   8   9
ENDBRANCH   1   8
TORSDOF 5
ENDMDL
MODEL 4
REMARK VINA RESULT:      -5.6      1.342      5.022
REMARK  5 active torsions:
REMARK  status: ('A' for Active; 'I' for Inactive)
REMARK    1  A    between atoms: C2_2  and  C8_8 
REMARK    2  A    between atoms: C2_2  and  C9_9 
REMARK    3  A    between atoms: C3_3  and  C8_8 
REMARK    4  A    between atoms: C3_3  and  C10_10 
REMARK    5  A    between atoms: C6_6  and  C10_10 
ROOT
HETATM    1  C3  UNL     1     -31.918   8.094   2.802  1.00 20.00     0.131 C 
HETATM    2  O11 UNL     1     -31.400   8.507   3.839  1.00 20.00    -0.298 OA
ENDROOT
BRANCH   1   3
HETATM    3  C8  UNL     1     -31.572   8.665   1.431  1.00 20.00     0.111 C 
BRANCH   3   4
HETATM    4  C2  UNL     1     -32.543   9.736   1.007  1.00 20.00    -0.083 C 
HETATM    5  C1  UNL     1     -32.752  10.823   1.769  1.00 20.00     0.014 C 
BRANCH   4   6
HETATM    6  C9  UNL     1     -33.278   9.545  -0.300  1.00 20.00     0.029 C 
HETATM    7  C7  UNL     1     -32.605   8.525  -1.206  1.00 20.00     0.010 C 
ENDBRANCH   4   6
ENDBRANCH   3   4
ENDBRANCH   1   3
BRANCH   1   8
HETATM    8  C10 UNL     1     -32.914   6.948   2.799  1.00 20.00     0.083 C 
BRANCH   8   9
HETATM    9  C6  UNL     1     -34.050   7.135   3.753  1.00 20.00    -0.008 A 
HETATM   10  C4  UNL     1     -34.812   5.943   4.266  1.00 20.00     0.005 A 
HETATM   11  C5  UNL     1     -33.910   6.714   5.190  1.00 20.00     0.005 A 
ENDBRANCH   8   9
ENDBRANCH   1   8
TORSDOF 5
ENDMDL
MODEL 5
REMARK VINA RESULT:      -5.5      1.299      5.152
REMARK  5 active torsions:
REMARK  status: ('A' for Active; 'I' for Inactive)
REMARK    1  A    between atoms: C2_2  and  C8_8 
REMARK    2  A    between atoms: C2_2  and  C9_9 
REMARK    3  A    between atoms: C3_3  and  C8_8 
REMARK    4  A    between atoms: C3_3  and  C10_10 
REMARK    5  A    between atoms: C6_6  and  C10_10 
ROOT
HETATM    1  C3  UNL     1     -31.953   7.988   2.725  1.00 20.00     0.131 C 
HETATM    2  O11 UNL     1     -31.488   8.463   3.760  1.00 20.00    -0.298 OA
ENDROOT
BRANCH   1   3
HETATM    3  C8  UNL     1     -31.547   8.481   1.341  1.00 20.00     0.111 C 
BRANCH   3   4
HETATM    4  C2  UNL     1     -32.634   9.302   0.696  1.00 20.00    -0.083 C 
HETATM    5  C1  UNL     1     -33.025   9.063  -0.566  1.00 20.00     0.014 C 
BRANCH   4   6
HETATM    6  C9  UNL     1     -33.264  10.405   1.514  1.00 20.00     0.029 C 
HETATM    7  C7  UNL     1     -32.252  11.440   1.981  1.00 20.00     0.010 C 
ENDBRANCH   4   6
ENDBRANCH   3   4
ENDBRANCH   1   3
BRANCH   1   8
HETATM    8  C10 UNL     1     -32.941   6.835   2.743  1.00 20.00     0.083 C 
BRANCH   8   9
HETATM    9  C6  UNL     1     -34.089   7.038   3.680  1.00 20.00    -0.008 A 
HETATM   10  C4  UNL     1     -34.893   5.860   4.158  1.00 20.00     0.005 A 
HETATM   11  C5  UNL     1     -33.986   6.589   5.111  1.00 20.00     0.005 A 
ENDBRANCH   8   9
ENDBRANCH   1   8
TORSDOF 5
ENDMDL
MODEL 6
REMARK VINA RESULT:      -5.5      0.987      5.265
REMARK  5 active torsions:
REMARK  status: ('A' for Active; 'I' for Inactive)
REMARK    1  A    between atoms: C2_2  and  C8_8 
REMARK    2  A    between atoms: C2_2  and  C9_9 
REMARK    3  A    between atoms: C3_3  and  C8_8 
REMARK    4  A    between atoms: C3_3  and  C10_10 
REMARK    5  A    between atoms: C6_6  and  C10_10 
ROOT
HETATM    1  C3  UNL     1     -33.020   7.244   3.039  1.00 20.00     0.131 C 
HETATM    2  O11 UNL     1     -33.541   6.680   2.077  1.00 20.00    -0.298 OA
ENDROOT
BRANCH   1   3
HETATM    3  C8  UNL     1     -31.971   8.338   2.878  1.00 20.00     0.111 C 
BRANCH   3   4
HETATM    4  C2  UNL     1     -31.942   8.886   1.475  1.00 20.00    -0.083 C 
HETATM    5  C1  UNL     1     -31.067   8.423   0.568  1.00 20.00     0.014 C 
BRANCH   4   6
HETATM    6  C9  UNL     1     -32.926   9.978   1.125  1.00 20.00     0.029 C 
HETATM    7  C7  UNL     1     -33.412   9.890  -0.314  1.00 20.00     0.010 C 
ENDBRANCH   4   6
ENDBRANCH   3   4
ENDBRANCH   1   3
BRANCH   1   8
HETATM    8  C10 UNL     1     -33.416   6.925   4.470  1.00 20.00     0.083 C 
BRANCH   8   9
HETATM    9  C6  UNL     1     -34.584   5.997   4.580  1.00 20.00    -0.008 A 
HETATM   10  C4  UNL     1     -34.378   4.509   4.500  1.00 20.00     0.005 A 
HETATM   11  C5  UNL     1     -34.761   5.146   5.807  1.00 20.00     0.005 A 
ENDBRANCH   8   9
ENDBRANCH   1   8
TORSDOF 5
ENDMDL
MODEL 7
REMARK VINA RESULT:      -5.5      0.986      4.818
REMARK  5 active torsions:
REMARK  status: ('A' for Active; 'I' for Inactive)
REMARK    1  A    between atoms: C2_2  and  C8_8 
REMARK    2  A    between atoms: C2_2  and  C9_9 
REMARK    3  A    between atoms: C3_3  and  C8_8 
REMARK    4  A    between atoms: C3_3  and  C10_10 
REMARK    5  A    between atoms: C6_6  and  C10_10 
ROOT
HETATM    1  C3  UNL     1     -33.432   6.103   2.799  1.00 20.00     0.131 C 
HETATM    2  O11 UNL     1     -32.429   5.428   2.576  1.00 20.00    -0.298 OA
ENDROOT
BRANCH   1   3
HETATM    3  C8  UNL     1     -33.518   7.584   2.448  1.00 20.00     0.111 C 
BRANCH   3   4
HETATM    4  C2  UNL     1     -32.159   8.234   2.418  1.00 20.00    -0.083 C 
HETATM    5  C1  UNL     1     -31.418   8.344   3.533  1.00 20.00     0.014 C 
BRANCH   4   6
HETATM    6  C9  UNL     1     -31.660   8.763   1.092  1.00 20.00     0.029 C 
HETATM    7  C7  UNL     1     -32.415  10.002   0.634  1.00 20.00     0.010 C 
ENDBRANCH   4   6
ENDBRANCH   3   4
ENDBRANCH   1   3
BRANCH   1   8
HETATM    8  C10 UNL     1     -34.688   5.502   3.405  1.00 20.00     0.083 C 
BRANCH   8   9
HETATM    9  C6  UNL     1     -35.003   6.016   4.775  1.00 20.00    -0.008 A 
HETATM   10  C4  UNL     1     -34.595   5.230   5.990  1.00 20.00     0.005 A 
HETATM   11  C5  UNL     1     -33.902   6.524   5.664  1.00 20.00     0.005 A 
ENDBRANCH   8   9
ENDBRANCH   1   8
TORSDOF 5
ENDMDL
MODEL 8
REMARK VINA RESULT:      -5.2      1.101      2.126
REMARK  5 active torsions:
REMARK  status: ('A' for Active; 'I' for Inactive)
REMARK    1  A    between atoms: C2_2  and  C8_8 
REMARK    2  A    between atoms: C2_2  and  C9_9 
REMARK    3  A    between atoms: C3_3  and  C8_8 
REMARK    4  A    between atoms: C3_3  and  C10_10 
REMARK    5  A    between atoms: C6_6  and  C10_10 
ROOT
HETATM    1  C3  UNL     1     -33.756   6.014   2.748  1.00 20.00     0.131 C 
HETATM    2  O11 UNL     1     -32.945   5.101   2.607  1.00 20.00    -0.298 OA
ENDROOT
BRANCH   1   3
HETATM    3  C8  UNL     1     -34.979   5.891   3.650  1.00 20.00     0.111 C 
BRANCH   3   4
HETATM    4  C2  UNL     1     -34.614   5.407   5.029  1.00 20.00    -0.083 C 
HETATM    5  C1  UNL     1     -34.356   4.110   5.262  1.00 20.00     0.014 C 
BRANCH   4   6
HETATM    6  C9  UNL     1     -34.553   6.428   6.142  1.00 20.00     0.029 C 
HETATM    7  C7  UNL     1     -33.486   7.488   5.907  1.00 20.00     0.010 C 
ENDBRANCH   4   6
ENDBRANCH   3   4
ENDBRANCH   1   3
BRANCH   1   8
HETATM    8  C10 UNL     1     -33.581   7.360   2.067  1.00 20.00     0.083 C 
BRANCH   8   9
HETATM    9  C6  UNL     1     -32.158   7.816   1.989  1.00 20.00    -0.008 A 
HETATM   10  C4  UNL     1     -31.831   9.283   2.016  1.00 20.00     0.005 A 
HETATM   11  C5  UNL     1     -31.488   8.415   3.194  1.00 20.00     0.005 A 
ENDBRANCH   8   9
ENDBRANCH   1   8
TORSDOF 5
ENDMDL
MODEL 9
REMARK VINA RESULT:      -5.1      1.320      5.091
REMARK  5 active torsions:
REMARK  status: ('A' for Active; 'I' for Inactive)
REMARK    1  A    between atoms: C2_2  and  C8_8 
REMARK    2  A    between atoms: C2_2  and  C9_9 
REMARK    3  A    between atoms: C3_3  and  C8_8 
REMARK    4  A    between atoms: C3_3  and  C10_10 
REMARK    5  A    between atoms: C6_6  and  C10_10 
ROOT
HETATM    1  C3  UNL     1     -33.833   6.963   3.804  1.00 20.00     0.131 C 
HETATM    2  O11 UNL     1     -33.692   7.675   4.798  1.00 20.00    -0.298 OA
ENDROOT
BRANCH   1   3
HETATM    3  C8  UNL     1     -32.743   6.800   2.752  1.00 20.00     0.111 C 
BRANCH   3   4
HETATM    4  C2  UNL     1     -32.089   8.114   2.412  1.00 20.00    -0.083 C 
HETATM    5  C1  UNL     1     -31.193   8.677   3.240  1.00 20.00     0.014 C 
BRANCH   4   6
HETATM    6  C9  UNL     1     -32.478   8.780   1.112  1.00 20.00     0.029 C 
HETATM    7  C7  UNL     1     -32.639  10.287   1.250  1.00 20.00     0.010 C 
ENDBRANCH   4   6
ENDBRANCH   3   4
ENDBRANCH   1   3
BRANCH   1   8
HETATM    8  C10 UNL     1     -35.095   6.152   3.568  1.00 20.00     0.083 C 
BRANCH   8   9
HETATM    9  C6  UNL     1     -35.235   4.975   4.480  1.00 20.00    -0.008 A 
HETATM   10  C4  UNL     1     -34.156   3.929   4.538  1.00 20.00     0.005 A 
HETATM   11  C5  UNL     1     -34.367   4.856   5.702  1.00 20.00     0.005 A 
ENDBRANCH   8   9
ENDBRANCH   1   8
TORSDOF 5
ENDMDL
