MODEL 1
REMARK VINA RESULT:      -5.5      0.000      0.000
REMARK  3 active torsions:
REMARK  status: ('A' for Active; 'I' for Inactive)
REMARK    1  A    between atoms: C1_1  and  C6_6 
REMARK    2  A    between atoms: C2_2  and  C8_8 
REMARK    3  A    between atoms: C2_2  and  C9_9 
ROOT
HETATM    1  C1  UNL     1     -32.983   8.207   3.328  1.00 20.00    -0.018 C 
HETATM    2  C2  UNL     1     -33.545   7.119   3.889  1.00 20.00    -0.070 C 
ENDROOT
BRANCH   1   3
HETATM    3  C6  UNL     1     -32.867   8.382   1.870  1.00 20.00     0.008 C 
HETATM    4  C4  UNL     1     -33.073   9.826   1.347  1.00 20.00     0.008 C 
HETATM    5  C3  UNL     1     -31.955   9.535   0.324  1.00 20.00     0.001 C 
HETATM    6  C5  UNL     1     -31.421   8.484   1.319  1.00 20.00     0.008 C 
ENDBRANCH   1   3
BRANCH   2   7
HETATM    7  C8  UNL     1     -34.086   6.015   3.002  1.00 20.00     0.030 C 
HETATM    8  C7  UNL     1     -33.056   4.930   2.722  1.00 20.00     0.010 C 
ENDBRANCH   2   7
BRANCH   2   9
HETATM    9  C9  UNL     1     -33.685   6.911   5.375  1.00 20.00     0.148 C 
HETATM   10 CL10 UNL     1     -34.657   5.459   5.712  1.00 20.00    -0.126 Cl
ENDBRANCH   2   9
TORSDOF 3
ENDMDL
MODEL 2
REMARK VINA RESULT:      -5.4      1.423      2.319
REMARK  3 active torsions:
REMARK  status: ('A' for Active; 'I' for Inactive)
REMARK    1  A    between atoms: C1_1  and  C6_6 
REMARK    2  A    between atoms: C2_2  and  C8_8 
REMARK    3  A    between atoms: C2_2  and  C9_9 
ROOT
HETATM    1  C1  UNL     1     -32.980   7.446   2.163  1.00 20.00    -0.018 C 
HETATM    2  C2  UNL     1     -33.269   6.927   3.372  1.00 20.00    -0.070 C 
ENDROOT
BRANCH   1   3
HETATM    3  C6  UNL     1     -32.392   8.785   1.992  1.00 20.00     0.008 C 
HETATM    4  C4  UNL     1     -31.602   9.010   0.677  1.00 20.00     0.008 C 
HETATM    5  C3  UNL     1     -32.187  10.438   0.657  1.00 20.00     0.001 C 
HETATM    6  C5  UNL     1     -33.362   9.887   1.492  1.00 20.00     0.008 C 
ENDBRANCH   1   3
BRANCH   2   7
HETATM    7  C8  UNL     1     -32.986   7.737   4.621  1.00 20.00     0.030 C 
HETATM    8  C7  UNL     1     -33.765   7.239   5.831  1.00 20.00     0.010 C 
ENDBRANCH   2   7
BRANCH   2   9
HETATM    9  C9  UNL     1     -33.866   5.559   3.583  1.00 20.00     0.148 C 
HETATM   10 CL10 UNL     1     -33.025   4.352   2.582  1.00 20.00    -0.126 Cl
ENDBRANCH   2   9
TORSDOF 3
ENDMDL
MODEL 3
REMARK VINA RESULT:      -4.9      2.537      4.636
REMARK  3 active torsions:
REMARK  status: ('A' for Active; 'I' for Inactive)
REMARK    1  A    between atoms: C1_1  and  C6_6 
REMARK    2  A    between atoms: C2_2  and  C8_8 
REMARK    3  A    between atoms: C2_2  and  C9_9 
ROOT
HETATM    1  C1  UNL     1     -33.528   7.162   2.368  1.00 20.00    -0.018 C 
HETATM    2  C2  UNL     1     -32.511   8.017   2.151  1.00 20.00    -0.070 C 
ENDROOT
BRANCH   1   3
HETATM    3  C6  UNL     1     -33.581   6.267   3.536  1.00 20.00     0.008 C 
HETATM    4  C4  UNL     1     -34.999   5.938   4.068  1.00 20.00     0.008 C 
HETATM    5  C3  UNL     1     -34.484   4.510   4.342  1.00 20.00     0.001 C 
HETATM    6  C5  UNL     1     -33.442   4.753   3.231  1.00 20.00     0.008 C 
ENDBRANCH   1   3
BRANCH   2   7
HETATM    7  C8  UNL     1     -31.362   8.079   3.139  1.00 20.00     0.030 C 
HETATM    8  C7  UNL     1     -31.744   8.776   4.437  1.00 20.00     0.010 C 
ENDBRANCH   2   7
BRANCH   2   9
HETATM    9  C9  UNL     1     -32.428   8.950   0.970  1.00 20.00     0.148 C 
HETATM   10 CL10 UNL     1     -32.817  10.615   1.463  1.00 20.00    -0.126 Cl
ENDBRANCH   2   9
TORSDOF 3
ENDMDL
MODEL 4
REMARK VINA RESULT:      -4.5      2.627      4.892
REMARK  3 active torsions:
REMARK  status: ('A' for Active; 'I' for Inactive)
REMARK    1  A    between atoms: C1_1  and  C6_6 
REMARK    2  A    between atoms: C2_2  and  C8_8 
REMARK    3  A    between atoms: C2_2  and  C9_9 
ROOT
HETATM    1  C1  UNL     1     -32.758   7.391   2.610  1.00 20.00    -0.018 C 
HETATM    2  C2  UNL     1     -32.542   8.477   1.843  1.00 20.00    -0.070 C 
ENDROOT
BRANCH   1   3
HETATM    3  C6  UNL     1     -33.738   7.374   3.709  1.00 20.00     0.008 C 
HETATM    4  C4  UNL     1     -34.253   5.974   4.130  1.00 20.00     0.008 C 
HETATM    5  C3  UNL     1     -34.233   6.486   5.585  1.00 20.00     0.001 C 
HETATM    6  C5  UNL     1     -33.148   7.488   5.138  1.00 20.00     0.008 C 
ENDBRANCH   1   3
BRANCH   2   7
HETATM    7  C8  UNL     1     -33.331   9.745   2.103  1.00 20.00     0.030 C 
HETATM    8  C7  UNL     1     -32.603  10.994   1.628  1.00 20.00     0.010 C 
ENDBRANCH   2   7
BRANCH   2   9
HETATM    9  C9  UNL     1     -31.552   8.527   0.708  1.00 20.00     0.148 C 
HETATM   10 CL10 UNL     1     -32.395   8.731  -0.846  1.00 20.00    -0.126 Cl
ENDBRANCH   2   9
TORSDOF 3
ENDMDL
MODEL 5
REMARK VINA RESULT:      -4.3     10.463     11.182
REMARK  3 active torsions:
REMARK  status: ('A' for Active; 'I' for Inactive)
REMARK    1  A    between atoms: C1_1  and  C6_6 
REMARK    2  A    between atoms: C2_2  and  C8_8 
REMARK    3  A    between atoms: C2_2  and  C9_9 
ROOT
HETATM    1  C1  UNL     1     -35.104  16.419  -2.757  1.00 20.00    -0.018 C 
HETATM    2  C2  UNL     1     -35.017  15.514  -3.750  1.00 20.00    -0.070 C 
ENDROOT
BRANCH   1   3
HETATM    3  C6  UNL     1     -33.937  16.856  -1.972  1.00 20.00     0.008 C 
HETATM    4  C4  UNL     1     -33.241  18.151  -2.464  1.00 20.00     0.008 C 
HETATM    5  C3  UNL     1     -33.028  18.512  -0.980  1.00 20.00     0.001 C 
HETATM    6  C5  UNL     1     -34.255  17.630  -0.667  1.00 20.00     0.008 C 
ENDBRANCH   1   3
BRANCH   2   7
HETATM    7  C8  UNL     1     -33.671  14.906  -4.091  1.00 20.00     0.030 C 
HETATM    8  C7  UNL     1     -33.017  15.571  -5.294  1.00 20.00     0.010 C 
ENDBRANCH   2   7
BRANCH   2   9
HETATM    9  C9  UNL     1     -36.189  15.049  -4.575  1.00 20.00     0.148 C 
HETATM   10 CL10 UNL     1     -35.952  13.366  -5.102  1.00 20.00    -0.126 Cl
ENDBRANCH   2   9
TORSDOF 3
ENDMDL
MODEL 6
REMARK VINA RESULT:      -4.2     10.704     11.628
REMARK  3 active torsions:
REMARK  status: ('A' for Active; 'I' for Inactive)
REMARK    1  A    between atoms: C1_1  and  C6_6 
REMARK    2  A    between atoms: C2_2  and  C8_8 
REMARK    3  A    between atoms: C2_2  and  C9_9 
ROOT
HETATM    1  C1  UNL     1     -33.654  16.659  -3.644  1.00 20.00    -0.018 C 
HETATM    2  C2  UNL     1     -33.646  15.660  -4.548  1.00 20.00    -0.070 C 
ENDROOT
BRANCH   1   3
HETATM    3  C6  UNL     1     -34.123  16.477  -2.260  1.00 20.00     0.008 C 
HETATM    4  C4  UNL     1     -33.770  17.620  -1.274  1.00 20.00     0.008 C 
HETATM    5  C3  UNL     1     -35.158  17.399  -0.638  1.00 20.00     0.001 C 
HETATM    6  C5  UNL     1     -35.609  16.833  -2.000  1.00 20.00     0.008 C 
ENDBRANCH   1   3
BRANCH   2   7
HETATM    7  C8  UNL     1     -34.133  14.283  -4.145  1.00 20.00     0.030 C 
HETATM    8  C7  UNL     1     -35.457  13.915  -4.800  1.00 20.00     0.010 C 
ENDBRANCH   2   7
BRANCH   2   9
HETATM    9  C9  UNL     1     -33.169  15.811  -5.969  1.00 20.00     0.148 C 
HETATM   10 CL10 UNL     1     -33.995  17.173  -6.762  1.00 20.00    -0.126 Cl
ENDBRANCH   2   9
TORSDOF 3
ENDMDL
MODEL 7
REMARK VINA RESULT:      -4.1     10.428     11.154
REMARK  3 active torsions:
REMARK  status: ('A' for Active; 'I' for Inactive)
REMARK    1  A    between atoms: C1_1  and  C6_6 
REMARK    2  A    between atoms: C2_2  and  C8_8 
REMARK    3  A    between atoms: C2_2  and  C9_9 
ROOT
HETATM    1  C1  UNL     1     -33.676  16.657  -2.993  1.00 20.00    -0.018 C 
HETATM    2  C2  UNL     1     -34.055  17.392  -1.930  1.00 20.00    -0.070 C 
ENDROOT
BRANCH   1   3
HETATM    3  C6  UNL     1     -34.383  15.432  -3.407  1.00 20.00     0.008 C 
HETATM    4  C4  UNL     1     -35.341  15.584  -4.617  1.00 20.00     0.008 C 
HETATM    5  C3  UNL     1     -34.874  14.184  -5.066  1.00 20.00     0.001 C 
HETATM    6  C5  UNL     1     -33.568  14.452  -4.290  1.00 20.00     0.008 C 
ENDBRANCH   1   3
BRANCH   2   7
HETATM    7  C8  UNL     1     -35.256  16.960  -1.112  1.00 20.00     0.030 C 
HETATM    8  C7  UNL     1     -35.348  17.689   0.221  1.00 20.00     0.010 C 
ENDBRANCH   2   7
BRANCH   2   9
HETATM    9  C9  UNL     1     -33.359  18.652  -1.483  1.00 20.00     0.148 C 
HETATM   10 CL10 UNL     1     -31.896  18.258  -0.551  1.00 20.00    -0.126 Cl
ENDBRANCH   2   9
TORSDOF 3
ENDMDL
MODEL 8
REMARK VINA RESULT:      -4.0     10.623     11.577
REMARK  3 active torsions:
REMARK  status: ('A' for Active; 'I' for Inactive)
REMARK    1  A    between atoms: C1_1  and  C6_6 
REMARK    2  A    between atoms: C2_2  and  C8_8 
REMARK    3  A    between atoms: C2_2  and  C9_9 
ROOT
HETATM    1  C1  UNL     1     -34.600  15.785  -3.193  1.00 20.00    -0.018 C 
HETATM    2  C2  UNL     1     -34.133  15.666  -4.451  1.00 20.00    -0.070 C 
ENDROOT
BRANCH   1   3
HETATM    3  C6  UNL     1     -34.592  17.061  -2.458  1.00 20.00     0.008 C 
HETATM    4  C4  UNL     1     -35.297  17.047  -1.077  1.00 20.00     0.008 C 
HETATM    5  C3  UNL     1     -34.177  17.984  -0.579  1.00 20.00     0.001 C 
HETATM    6  C5  UNL     1     -33.286  17.384  -1.687  1.00 20.00     0.008 C 
ENDBRANCH   1   3
BRANCH   2   7
HETATM    7  C8  UNL     1     -33.572  16.883  -5.159  1.00 20.00     0.030 C 
HETATM    8  C7  UNL     1     -33.894  16.895  -6.647  1.00 20.00     0.010 C 
ENDBRANCH   2   7
BRANCH   2   9
HETATM    9  C9  UNL     1     -34.132  14.378  -5.234  1.00 20.00     0.148 C 
HETATM   10 CL10 UNL     1     -35.670  13.512  -5.010  1.00 20.00    -0.126 Cl
ENDBRANCH   2   9
TORSDOF 3
ENDMDL
MODEL 9
REMARK VINA RESULT:      -4.0     10.376     11.223
REMARK  3 active torsions:
REMARK  status: ('A' for Active; 'I' for Inactive)
REMARK    1  A    between atoms: C1_1  and  C6_6 
REMARK    2  A    between atoms: C2_2  and  C8_8 
REMARK    3  A    between atoms: C2_2  and  C9_9 
ROOT
HETATM    1  C1  UNL     1     -35.600  16.414  -3.008  1.00 20.00    -0.018 C 
HETATM    2  C2  UNL     1     -35.425  15.502  -3.983  1.00 20.00    -0.070 C 
ENDROOT
BRANCH   1   3
HETATM    3  C6  UNL     1     -34.649  16.584  -1.896  1.00 20.00     0.008 C 
HETATM    4  C4  UNL     1     -33.611  17.723  -2.065  1.00 20.00     0.008 C 
HETATM    5  C3  UNL     1     -33.773  17.994  -0.555  1.00 20.00     0.001 C 
HETATM    6  C5  UNL     1     -35.180  17.372  -0.671  1.00 20.00     0.008 C 
ENDBRANCH   1   3
BRANCH   2   7
HETATM    7  C8  UNL     1     -34.205  14.602  -3.955  1.00 20.00     0.030 C 
HETATM    8  C7  UNL     1     -33.072  15.125  -4.827  1.00 20.00     0.010 C 
ENDBRANCH   2   7
BRANCH   2   9
HETATM    9  C9  UNL     1     -36.374  15.305  -5.137  1.00 20.00     0.148 C 
HETATM   10 CL10 UNL     1     -38.014  14.953  -4.541  1.00 20.00    -0.126 Cl
ENDBRANCH   2   9
TORSDOF 3
ENDMDL
