MODEL 1
REMARK VINA RESULT:      -5.0      0.000      0.000
REMARK  3 active torsions:
REMARK  status: ('A' for Active; 'I' for Inactive)
REMARK    1  A    between atoms: C1_1  and  C4_4 
REMARK    2  A    between atoms: C1_1  and  C7_7 
REMARK    3  A    between atoms: C7_7  and  O9_9 
ROOT
HETATM    1  C1  UNL     1     -33.010   6.330   3.266  1.00 20.00     0.158 C 
HETATM    2  O8  UNL     1     -32.771   5.371   2.533  1.00 20.00    -0.295 OA
ENDROOT
BRANCH   1   3
HETATM    3  C4  UNL     1     -34.014   6.237   4.353  1.00 20.00     0.019 A 
HETATM    4  C2  UNL     1     -34.588   4.865   4.643  1.00 20.00     0.018 A 
HETATM    5  C3  UNL     1     -35.433   5.890   3.949  1.00 20.00     0.018 A 
HETATM    6  C5  UNL     1     -33.845   7.170   5.526  1.00 20.00     0.023 C 
ENDBRANCH   1   3
BRANCH   1   7
HETATM    7  C7  UNL     1     -32.304   7.661   3.117  1.00 20.00     0.246 C 
BRANCH   7   8
HETATM    8  O9  UNL     1     -32.822   8.379   2.018  1.00 20.00    -0.389 OA
HETATM    9  C6  UNL     1     -31.793   8.803   1.128  1.00 20.00     0.202 C 
ENDBRANCH   7   8
ENDBRANCH   1   7
TORSDOF 3
ENDMDL
MODEL 2
REMARK VINA RESULT:      -4.7      1.342      1.906
REMARK  3 active torsions:
REMARK  status: ('A' for Active; 'I' for Inactive)
REMARK    1  A    between atoms: C1_1  and  C4_4 
REMARK    2  A    between atoms: C1_1  and  C7_7 
REMARK    3  A    between atoms: C7_7  and  O9_9 
ROOT
HETATM    1  C1  UNL     1     -33.169   7.102   4.249  1.00 20.00     0.158 C 
HETATM    2  O8  UNL     1     -33.396   7.606   5.349  1.00 20.00    -0.295 OA
ENDROOT
BRANCH   1   3
HETATM    3  C4  UNL     1     -33.859   5.865   3.811  1.00 20.00     0.019 A 
HETATM    4  C2  UNL     1     -35.373   5.878   3.834  1.00 20.00     0.018 A 
HETATM    5  C3  UNL     1     -34.622   5.094   4.868  1.00 20.00     0.018 A 
HETATM    6  C5  UNL     1     -33.197   5.061   2.720  1.00 20.00     0.023 C 
ENDBRANCH   1   3
BRANCH   1   7
HETATM    7  C7  UNL     1     -32.181   7.703   3.271  1.00 20.00     0.246 C 
BRANCH   7   8
HETATM    8  O9  UNL     1     -32.851   8.476   2.298  1.00 20.00    -0.389 OA
HETATM    9  C6  UNL     1     -31.978   8.878   1.247  1.00 20.00     0.202 C 
ENDBRANCH   7   8
ENDBRANCH   1   7
TORSDOF 3
ENDMDL
MODEL 3
REMARK VINA RESULT:      -4.7      1.386      1.859
REMARK  3 active torsions:
REMARK  status: ('A' for Active; 'I' for Inactive)
REMARK    1  A    between atoms: C1_1  and  C4_4 
REMARK    2  A    between atoms: C1_1  and  C7_7 
REMARK    3  A    between atoms: C7_7  and  O9_9 
ROOT
HETATM    1  C1  UNL     1     -33.414   6.804   4.275  1.00 20.00     0.158 C 
HETATM    2  O8  UNL     1     -33.088   7.477   5.252  1.00 20.00    -0.295 OA
ENDROOT
BRANCH   1   3
HETATM    3  C4  UNL     1     -34.509   5.807   4.357  1.00 20.00     0.019 A 
HETATM    4  C2  UNL     1     -34.689   5.092   5.680  1.00 20.00     0.018 A 
HETATM    5  C3  UNL     1     -34.105   4.355   4.512  1.00 20.00     0.018 A 
HETATM    6  C5  UNL     1     -35.755   6.089   3.555  1.00 20.00     0.023 C 
ENDBRANCH   1   3
BRANCH   1   7
HETATM    7  C7  UNL     1     -32.732   6.943   2.930  1.00 20.00     0.246 C 
BRANCH   7   8
HETATM    8  O9  UNL     1     -31.893   8.078   2.913  1.00 20.00    -0.389 OA
HETATM    9  C6  UNL     1     -32.148   8.909   1.784  1.00 20.00     0.202 C 
ENDBRANCH   7   8
ENDBRANCH   1   7
TORSDOF 3
ENDMDL
MODEL 4
REMARK VINA RESULT:      -4.6      0.597      1.397
REMARK  3 active torsions:
REMARK  status: ('A' for Active; 'I' for Inactive)
REMARK    1  A    between atoms: C1_1  and  C4_4 
REMARK    2  A    between atoms: C1_1  and  C7_7 
REMARK    3  A    between atoms: C7_7  and  O9_9 
ROOT
HETATM    1  C1  UNL     1     -33.264   5.900   3.314  1.00 20.00     0.158 C 
HETATM    2  O8  UNL     1     -32.927   4.915   2.658  1.00 20.00    -0.295 OA
ENDROOT
BRANCH   1   3
HETATM    3  C4  UNL     1     -34.446   5.861   4.208  1.00 20.00     0.019 A 
HETATM    4  C2  UNL     1     -34.249   6.349   5.629  1.00 20.00     0.018 A 
HETATM    5  C3  UNL     1     -34.401   4.882   5.363  1.00 20.00     0.018 A 
HETATM    6  C5  UNL     1     -35.792   6.115   3.577  1.00 20.00     0.023 C 
ENDBRANCH   1   3
BRANCH   1   7
HETATM    7  C7  UNL     1     -32.505   7.209   3.260  1.00 20.00     0.246 C 
BRANCH   7   8
HETATM    8  O9  UNL     1     -32.938   7.991   2.167  1.00 20.00    -0.389 OA
HETATM    9  C6  UNL     1     -31.853   8.655   1.527  1.00 20.00     0.202 C 
ENDBRANCH   7   8
ENDBRANCH   1   7
TORSDOF 3
ENDMDL
MODEL 5
REMARK VINA RESULT:      -4.4      1.528      1.803
REMARK  3 active torsions:
REMARK  status: ('A' for Active; 'I' for Inactive)
REMARK    1  A    between atoms: C1_1  and  C4_4 
REMARK    2  A    between atoms: C1_1  and  C7_7 
REMARK    3  A    between atoms: C7_7  and  O9_9 
ROOT
HETATM    1  C1  UNL     1     -33.438   7.137   4.770  1.00 20.00     0.158 C 
HETATM    2  O8  UNL     1     -33.590   7.853   5.759  1.00 20.00    -0.295 OA
ENDROOT
BRANCH   1   3
HETATM    3  C4  UNL     1     -34.242   5.906   4.579  1.00 20.00     0.019 A 
HETATM    4  C2  UNL     1     -34.064   5.164   3.270  1.00 20.00     0.018 A 
HETATM    5  C3  UNL     1     -35.319   5.947   3.515  1.00 20.00     0.018 A 
HETATM    6  C5  UNL     1     -34.523   5.073   5.805  1.00 20.00     0.023 C 
ENDBRANCH   1   3
BRANCH   1   7
HETATM    7  C7  UNL     1     -32.432   7.455   3.684  1.00 20.00     0.246 C 
BRANCH   7   8
HETATM    8  O9  UNL     1     -32.986   8.341   2.736  1.00 20.00    -0.389 OA
HETATM    9  C6  UNL     1     -32.060   8.658   1.701  1.00 20.00     0.202 C 
ENDBRANCH   7   8
ENDBRANCH   1   7
TORSDOF 3
ENDMDL
MODEL 6
REMARK VINA RESULT:      -4.0      1.899      4.044
REMARK  3 active torsions:
REMARK  status: ('A' for Active; 'I' for Inactive)
REMARK    1  A    between atoms: C1_1  and  C4_4 
REMARK    2  A    between atoms: C1_1  and  C7_7 
REMARK    3  A    between atoms: C7_7  and  O9_9 
ROOT
HETATM    1  C1  UNL     1     -33.572   7.100   4.467  1.00 20.00     0.158 C 
HETATM    2  O8  UNL     1     -33.172   7.654   5.489  1.00 20.00    -0.295 OA
ENDROOT
BRANCH   1   3
HETATM    3  C4  UNL     1     -32.797   7.160   3.204  1.00 20.00     0.019 A 
HETATM    4  C2  UNL     1     -31.582   8.065   3.187  1.00 20.00     0.018 A 
HETATM    5  C3  UNL     1     -32.820   8.471   2.446  1.00 20.00     0.018 A 
HETATM    6  C5  UNL     1     -32.721   5.896   2.385  1.00 20.00     0.023 C 
ENDBRANCH   1   3
BRANCH   1   7
HETATM    7  C7  UNL     1     -34.870   6.321   4.420  1.00 20.00     0.246 C 
BRANCH   7   8
HETATM    8  O9  UNL     1     -34.844   5.254   5.344  1.00 20.00    -0.389 OA
HETATM    9  C6  UNL     1     -34.341   4.057   4.757  1.00 20.00     0.202 C 
ENDBRANCH   7   8
ENDBRANCH   1   7
TORSDOF 3
ENDMDL
MODEL 7
REMARK VINA RESULT:      -4.0     10.940     11.810
REMARK  3 active torsions:
REMARK  status: ('A' for Active; 'I' for Inactive)
REMARK    1  A    between atoms: C1_1  and  C4_4 
REMARK    2  A    between atoms: C1_1  and  C7_7 
REMARK    3  A    between atoms: C7_7  and  O9_9 
ROOT
HETATM    1  C1  UNL     1     -34.667  14.282  -4.377  1.00 20.00     0.158 C 
HETATM    2  O8  UNL     1     -33.674  13.634  -4.048  1.00 20.00    -0.295 OA
ENDROOT
BRANCH   1   3
HETATM    3  C4  UNL     1     -34.752  15.741  -4.129  1.00 20.00     0.019 A 
HETATM    4  C2  UNL     1     -33.724  16.340  -3.192  1.00 20.00     0.018 A 
HETATM    5  C3  UNL     1     -35.141  16.178  -2.732  1.00 20.00     0.018 A 
HETATM    6  C5  UNL     1     -35.221  16.605  -5.273  1.00 20.00     0.023 C 
ENDBRANCH   1   3
BRANCH   1   7
HETATM    7  C7  UNL     1     -35.863  13.645  -5.054  1.00 20.00     0.246 C 
BRANCH   7   8
HETATM    8  O9  UNL     1     -35.449  12.637  -5.951  1.00 20.00    -0.389 OA
HETATM    9  C6  UNL     1     -35.118  13.168  -7.230  1.00 20.00     0.202 C 
ENDBRANCH   7   8
ENDBRANCH   1   7
TORSDOF 3
ENDMDL
MODEL 8
REMARK VINA RESULT:      -3.9      1.468      3.726
REMARK  3 active torsions:
REMARK  status: ('A' for Active; 'I' for Inactive)
REMARK    1  A    between atoms: C1_1  and  C4_4 
REMARK    2  A    between atoms: C1_1  and  C7_7 
REMARK    3  A    between atoms: C7_7  and  O9_9 
ROOT
HETATM    1  C1  UNL     1     -33.482   6.003   3.196  1.00 20.00     0.158 C 
HETATM    2  O8  UNL     1     -32.835   5.146   2.595  1.00 20.00    -0.295 OA
ENDROOT
BRANCH   1   3
HETATM    3  C4  UNL     1     -32.898   7.328   3.514  1.00 20.00     0.019 A 
HETATM    4  C2  UNL     1     -32.927   8.373   2.418  1.00 20.00     0.018 A 
HETATM    5  C3  UNL     1     -31.630   7.713   2.779  1.00 20.00     0.018 A 
HETATM    6  C5  UNL     1     -33.043   7.819   4.932  1.00 20.00     0.023 C 
ENDBRANCH   1   3
BRANCH   1   7
HETATM    7  C7  UNL     1     -34.908   5.772   3.650  1.00 20.00     0.246 C 
BRANCH   7   8
HETATM    8  O9  UNL     1     -35.007   4.574   4.391  1.00 20.00    -0.389 OA
HETATM    9  C6  UNL     1     -34.555   4.740   5.731  1.00 20.00     0.202 C 
ENDBRANCH   7   8
ENDBRANCH   1   7
TORSDOF 3
ENDMDL
MODEL 9
REMARK VINA RESULT:      -3.9     10.965     12.194
REMARK  3 active torsions:
REMARK  status: ('A' for Active; 'I' for Inactive)
REMARK    1  A    between atoms: C1_1  and  C4_4 
REMARK    2  A    between atoms: C1_1  and  C7_7 
REMARK    3  A    between atoms: C7_7  and  O9_9 
ROOT
HETATM    1  C1  UNL     1     -35.974  13.774  -5.361  1.00 20.00     0.158 C 
HETATM    2  O8  UNL     1     -35.773  12.573  -5.187  1.00 20.00    -0.295 OA
ENDROOT
BRANCH   1   3
HETATM    3  C4  UNL     1     -34.905  14.775  -5.130  1.00 20.00     0.019 A 
HETATM    4  C2  UNL     1     -33.760  14.362  -4.229  1.00 20.00     0.018 A 
HETATM    5  C3  UNL     1     -34.782  15.338  -3.729  1.00 20.00     0.018 A 
HETATM    6  C5  UNL     1     -34.577  15.703  -6.272  1.00 20.00     0.023 C 
ENDBRANCH   1   3
BRANCH   1   7
HETATM    7  C7  UNL     1     -37.312  14.315  -5.820  1.00 20.00     0.246 C 
BRANCH   7   8
HETATM    8  O9  UNL     1     -38.283  14.166  -4.807  1.00 20.00    -0.389 OA
HETATM    9  C6  UNL     1     -38.903  15.406  -4.479  1.00 20.00     0.202 C 
ENDBRANCH   7   8
ENDBRANCH   1   7
TORSDOF 3
ENDMDL
