MODEL 1
REMARK VINA RESULT:      -4.7      0.000      0.000
REMARK  2 active torsions:
REMARK  status: ('A' for Active; 'I' for Inactive)
REMARK    1  A    between atoms: C1_1  and  C3_3 
REMARK       I    between atoms: C3_3  and  N7_7 
REMARK    2  A    between atoms: N7_7  and  O9_9 
ROOT
HETATM    1  C3  UNL     1     -32.395   7.895   3.554  1.00 20.00     0.266 C 
HETATM    2  C5  UNL     1     -33.485   7.089   5.649  1.00 20.00     0.189 C 
HETATM    3  N7  UNL     1     -33.422   7.256   4.207  1.00 20.00    -0.228 N 
HETATM    4  O8  UNL     1     -31.428   8.390   4.135  1.00 20.00    -0.266 OA
ENDROOT
BRANCH   1   5
HETATM    5  C1  UNL     1     -32.506   7.974   2.066  1.00 20.00     0.072 C 
HETATM    6  C2  UNL     1     -32.554   9.166   1.455  1.00 20.00    -0.025 C 
HETATM    7  C4  UNL     1     -32.663   9.326  -0.027  1.00 20.00     0.036 C 
ENDBRANCH   1   5
BRANCH   3   8
HETATM    8  O9  UNL     1     -34.532   6.685   3.557  1.00 20.00    -0.281 OA
HETATM    9  C6  UNL     1     -34.914   5.500   4.251  1.00 20.00     0.238 C 
ENDBRANCH   3   8
TORSDOF 2
ENDMDL
MODEL 2
REMARK VINA RESULT:      -4.5      1.771      2.499
REMARK  2 active torsions:
REMARK  status: ('A' for Active; 'I' for Inactive)
REMARK    1  A    between atoms: C1_1  and  C3_3 
REMARK       I    between atoms: C3_3  and  N7_7 
REMARK    2  A    between atoms: N7_7  and  O9_9 
ROOT
HETATM    1  C3  UNL     1     -33.446   5.606   3.016  1.00 20.00     0.266 C 
HETATM    2  C5  UNL     1     -34.397   4.356   4.955  1.00 20.00     0.189 C 
HETATM    3  N7  UNL     1     -34.148   5.570   4.197  1.00 20.00    -0.228 N 
HETATM    4  O8  UNL     1     -32.959   4.605   2.489  1.00 20.00    -0.266 OA
ENDROOT
BRANCH   1   5
HETATM    5  C1  UNL     1     -33.287   6.949   2.383  1.00 20.00     0.072 C 
HETATM    6  C2  UNL     1     -32.167   7.660   2.580  1.00 20.00    -0.025 C 
HETATM    7  C4  UNL     1     -31.934   9.009   1.980  1.00 20.00     0.036 C 
ENDBRANCH   1   5
BRANCH   3   8
HETATM    8  O9  UNL     1     -34.710   6.705   4.812  1.00 20.00    -0.281 OA
HETATM    9  C6  UNL     1     -33.881   7.097   5.903  1.00 20.00     0.238 C 
ENDBRANCH   3   8
TORSDOF 2
ENDMDL
MODEL 3
REMARK VINA RESULT:      -3.8     10.563     11.897
REMARK  2 active torsions:
REMARK  status: ('A' for Active; 'I' for Inactive)
REMARK    1  A    between atoms: C1_1  and  C3_3 
REMARK       I    between atoms: C3_3  and  N7_7 
REMARK    2  A    between atoms: N7_7  and  O9_9 
ROOT
HETATM    1  C3  UNL     1     -34.763  13.981  -5.106  1.00 20.00     0.266 C 
HETATM    2  C5  UNL     1     -34.398  13.769  -7.566  1.00 20.00     0.189 C 
HETATM    3  N7  UNL     1     -34.177  14.402  -6.277  1.00 20.00    -0.228 N 
HETATM    4  O8  UNL     1     -35.535  13.024  -5.043  1.00 20.00    -0.266 OA
ENDROOT
BRANCH   1   5
HETATM    5  C1  UNL     1     -34.421  14.761  -3.879  1.00 20.00     0.072 C 
HETATM    6  C2  UNL     1     -35.232  15.741  -3.454  1.00 20.00    -0.025 C 
HETATM    7  C4  UNL     1     -34.958  16.563  -2.236  1.00 20.00     0.036 C 
ENDBRANCH   1   5
BRANCH   3   8
HETATM    8  O9  UNL     1     -33.294  15.493  -6.365  1.00 20.00    -0.281 OA
HETATM    9  C6  UNL     1     -33.904  16.519  -7.144  1.00 20.00     0.238 C 
ENDBRANCH   3   8
TORSDOF 2
ENDMDL
MODEL 4
REMARK VINA RESULT:      -3.8     10.676     11.328
REMARK  2 active torsions:
REMARK  status: ('A' for Active; 'I' for Inactive)
REMARK    1  A    between atoms: C1_1  and  C3_3 
REMARK       I    between atoms: C3_3  and  N7_7 
REMARK    2  A    between atoms: N7_7  and  O9_9 
ROOT
HETATM    1  C3  UNL     1     -33.658  15.107  -5.195  1.00 20.00     0.266 C 
HETATM    2  C5  UNL     1     -34.423  13.688  -7.101  1.00 20.00     0.189 C 
HETATM    3  N7  UNL     1     -34.447  14.105  -5.709  1.00 20.00    -0.228 N 
HETATM    4  O8  UNL     1     -32.852  15.746  -5.872  1.00 20.00    -0.266 OA
ENDROOT
BRANCH   1   5
HETATM    5  C1  UNL     1     -33.819  15.392  -3.738  1.00 20.00     0.072 C 
HETATM    6  C2  UNL     1     -33.764  16.654  -3.287  1.00 20.00    -0.025 C 
HETATM    7  C4  UNL     1     -33.916  17.018  -1.845  1.00 20.00     0.036 C 
ENDBRANCH   1   5
BRANCH   3   8
HETATM    8  O9  UNL     1     -35.373  13.366  -4.950  1.00 20.00    -0.281 OA
HETATM    9  C6  UNL     1     -36.691  13.783  -5.296  1.00 20.00     0.238 C 
ENDBRANCH   3   8
TORSDOF 2
ENDMDL
MODEL 5
REMARK VINA RESULT:      -3.7      1.857      4.046
REMARK  2 active torsions:
REMARK  status: ('A' for Active; 'I' for Inactive)
REMARK    1  A    between atoms: C1_1  and  C3_3 
REMARK       I    between atoms: C3_3  and  N7_7 
REMARK    2  A    between atoms: N7_7  and  O9_9 
ROOT
HETATM    1  C3  UNL     1     -32.236   8.110   2.713  1.00 20.00     0.266 C 
HETATM    2  C5  UNL     1     -31.905  10.142   1.302  1.00 20.00     0.189 C 
HETATM    3  N7  UNL     1     -32.510   8.852   1.589  1.00 20.00    -0.228 N 
HETATM    4  O8  UNL     1     -31.446   8.473   3.587  1.00 20.00    -0.266 OA
ENDROOT
BRANCH   1   5
HETATM    5  C1  UNL     1     -32.951   6.805   2.834  1.00 20.00     0.072 C 
HETATM    6  C2  UNL     1     -33.845   6.612   3.815  1.00 20.00    -0.025 C 
HETATM    7  C4  UNL     1     -34.600   5.336   3.999  1.00 20.00     0.036 C 
ENDBRANCH   1   5
BRANCH   3   8
HETATM    8  O9  UNL     1     -33.409   8.452   0.583  1.00 20.00    -0.281 OA
HETATM    9  C6  UNL     1     -33.241   9.299  -0.550  1.00 20.00     0.238 C 
ENDBRANCH   3   8
TORSDOF 2
ENDMDL
MODEL 6
REMARK VINA RESULT:      -3.6     10.866     11.221
REMARK  2 active torsions:
REMARK  status: ('A' for Active; 'I' for Inactive)
REMARK    1  A    between atoms: C1_1  and  C3_3 
REMARK       I    between atoms: C3_3  and  N7_7 
REMARK    2  A    between atoms: N7_7  and  O9_9 
ROOT
HETATM    1  C3  UNL     1     -32.320  18.500   0.031  1.00 20.00     0.266 C 
HETATM    2  C5  UNL     1     -31.033  19.064   2.093  1.00 20.00     0.189 C 
HETATM    3  N7  UNL     1     -32.268  18.850   1.359  1.00 20.00    -0.228 N 
HETATM    4  O8  UNL     1     -31.316  18.335  -0.664  1.00 20.00    -0.266 OA
ENDROOT
BRANCH   1   5
HETATM    5  C1  UNL     1     -33.683  18.329  -0.555  1.00 20.00     0.072 C 
HETATM    6  C2  UNL     1     -33.986  17.223  -1.249  1.00 20.00    -0.025 C 
HETATM    7  C4  UNL     1     -35.327  16.980  -1.864  1.00 20.00     0.036 C 
ENDBRANCH   1   5
BRANCH   3   8
HETATM    8  O9  UNL     1     -33.405  19.041   2.166  1.00 20.00    -0.281 OA
HETATM    9  C6  UNL     1     -33.283  18.235   3.335  1.00 20.00     0.238 C 
ENDBRANCH   3   8
TORSDOF 2
ENDMDL
MODEL 7
REMARK VINA RESULT:      -3.6     10.740     11.287
REMARK  2 active torsions:
REMARK  status: ('A' for Active; 'I' for Inactive)
REMARK    1  A    between atoms: C1_1  and  C3_3 
REMARK       I    between atoms: C3_3  and  N7_7 
REMARK    2  A    between atoms: N7_7  and  O9_9 
ROOT
HETATM    1  C3  UNL     1     -34.652  16.350  -2.703  1.00 20.00     0.266 C 
HETATM    2  C5  UNL     1     -35.439  14.670  -4.372  1.00 20.00     0.189 C 
HETATM    3  N7  UNL     1     -34.409  15.468  -3.730  1.00 20.00    -0.228 N 
HETATM    4  O8  UNL     1     -35.773  16.546  -2.231  1.00 20.00    -0.266 OA
ENDROOT
BRANCH   1   5
HETATM    5  C1  UNL     1     -33.467  17.087  -2.172  1.00 20.00     0.072 C 
HETATM    6  C2  UNL     1     -33.577  17.833  -1.063  1.00 20.00    -0.025 C 
HETATM    7  C4  UNL     1     -32.438  18.598  -0.471  1.00 20.00     0.036 C 
ENDBRANCH   1   5
BRANCH   3   8
HETATM    8  O9  UNL     1     -33.135  15.233  -4.279  1.00 20.00    -0.281 OA
HETATM    9  C6  UNL     1     -33.121  15.694  -5.627  1.00 20.00     0.238 C 
ENDBRANCH   3   8
TORSDOF 2
ENDMDL
MODEL 8
REMARK VINA RESULT:      -3.5     10.454     11.092
REMARK  2 active torsions:
REMARK  status: ('A' for Active; 'I' for Inactive)
REMARK    1  A    between atoms: C1_1  and  C3_3 
REMARK       I    between atoms: C3_3  and  N7_7 
REMARK    2  A    between atoms: N7_7  and  O9_9 
ROOT
HETATM    1  C3  UNL     1     -34.107  14.715  -4.340  1.00 20.00     0.266 C 
HETATM    2  C5  UNL     1     -36.006  13.417  -5.308  1.00 20.00     0.189 C 
HETATM    3  N7  UNL     1     -35.387  14.644  -4.837  1.00 20.00    -0.228 N 
HETATM    4  O8  UNL     1     -33.363  13.737  -4.246  1.00 20.00    -0.266 OA
ENDROOT
BRANCH   1   5
HETATM    5  C1  UNL     1     -33.644  16.064  -3.898  1.00 20.00     0.072 C 
HETATM    6  C2  UNL     1     -33.804  16.449  -2.623  1.00 20.00    -0.025 C 
HETATM    7  C4  UNL     1     -33.366  17.781  -2.106  1.00 20.00     0.036 C 
ENDBRANCH   1   5
BRANCH   3   8
HETATM    8  O9  UNL     1     -36.247  15.751  -4.951  1.00 20.00    -0.281 OA
HETATM    9  C6  UNL     1     -37.488  15.437  -4.324  1.00 20.00     0.238 C 
ENDBRANCH   3   8
TORSDOF 2
ENDMDL
MODEL 9
REMARK VINA RESULT:      -3.5     10.860     11.258
REMARK  2 active torsions:
REMARK  status: ('A' for Active; 'I' for Inactive)
REMARK    1  A    between atoms: C1_1  and  C3_3 
REMARK       I    between atoms: C3_3  and  N7_7 
REMARK    2  A    between atoms: N7_7  and  O9_9 
ROOT
HETATM    1  C3  UNL     1     -35.589  15.490  -3.834  1.00 20.00     0.266 C 
HETATM    2  C5  UNL     1     -36.572  13.776  -5.357  1.00 20.00     0.189 C 
HETATM    3  N7  UNL     1     -35.452  14.461  -4.735  1.00 20.00    -0.228 N 
HETATM    4  O8  UNL     1     -36.681  15.929  -3.469  1.00 20.00    -0.266 OA
ENDROOT
BRANCH   1   5
HETATM    5  C1  UNL     1     -34.322  16.077  -3.304  1.00 20.00     0.072 C 
HETATM    6  C2  UNL     1     -34.351  16.916  -2.258  1.00 20.00    -0.025 C 
HETATM    7  C4  UNL     1     -33.127  17.541  -1.671  1.00 20.00     0.036 C 
ENDBRANCH   1   5
BRANCH   3   8
HETATM    8  O9  UNL     1     -34.213  13.949  -5.161  1.00 20.00    -0.281 OA
HETATM    9  C6  UNL     1     -34.150  14.016  -6.583  1.00 20.00     0.238 C 
ENDBRANCH   3   8
TORSDOF 2
ENDMDL
