MODEL 1
REMARK VINA RESULT:      -4.7      0.000      0.000
REMARK  2 active torsions:
REMARK  status: ('A' for Active; 'I' for Inactive)
REMARK    1  A    between atoms: C6_6  and  C8_8 
REMARK    2  A    between atoms: C7_7  and  C9_9 
ROOT
HETATM    1  C4  UNL     1     -33.353   7.564   4.584  1.00 20.00     0.034 C 
HETATM    2  C5  UNL     1     -32.115   8.382   4.887  1.00 20.00     0.168 C 
HETATM    3  C7  UNL     1     -32.873   6.699   3.437  1.00 20.00     0.031 C 
HETATM    4  C8  UNL     1     -31.970   7.659   2.665  1.00 20.00     0.130 C 
HETATM    5  O10 UNL     1     -31.405   8.545   3.650  1.00 20.00    -0.385 OA
ENDROOT
BRANCH   4   6
HETATM    6  C6  UNL     1     -32.698   8.516   1.635  1.00 20.00     0.015 C 
HETATM    7  C2  UNL     1     -31.948   8.791   0.306  1.00 20.00     0.007 C 
HETATM    8  C1  UNL     1     -32.568  10.203   0.335  1.00 20.00     0.001 C 
HETATM    9  C3  UNL     1     -32.674  10.048   1.867  1.00 20.00     0.007 C 
ENDBRANCH   4   6
BRANCH   3  10
HETATM   10  C9  UNL     1     -33.990   6.026   2.659  1.00 20.00     0.121 C 
HETATM   11 CL11 UNL     1     -35.422   5.817   3.687  1.00 20.00    -0.130 Cl
ENDBRANCH   3  10
TORSDOF 2
ENDMDL
MODEL 2
REMARK VINA RESULT:      -4.2     10.417     11.156
REMARK  2 active torsions:
REMARK  status: ('A' for Active; 'I' for Inactive)
REMARK    1  A    between atoms: C6_6  and  C8_8 
REMARK    2  A    between atoms: C7_7  and  C9_9 
ROOT
HETATM    1  C4  UNL     1     -33.998  14.549  -5.986  1.00 20.00     0.034 C 
HETATM    2  C5  UNL     1     -33.273  15.855  -6.238  1.00 20.00     0.168 C 
HETATM    3  C7  UNL     1     -35.380  15.035  -5.606  1.00 20.00     0.031 C 
HETATM    4  C8  UNL     1     -35.069  16.295  -4.802  1.00 20.00     0.130 C 
HETATM    5  O10 UNL     1     -33.860  16.835  -5.369  1.00 20.00    -0.385 OA
ENDROOT
BRANCH   4   6
HETATM    6  C6  UNL     1     -34.813  16.048  -3.319  1.00 20.00     0.015 C 
HETATM    7  C2  UNL     1     -35.762  16.763  -2.322  1.00 20.00     0.007 C 
HETATM    8  C1  UNL     1     -34.537  16.945  -1.402  1.00 20.00     0.001 C 
HETATM    9  C3  UNL     1     -33.661  16.857  -2.669  1.00 20.00     0.007 C 
ENDBRANCH   4   6
BRANCH   3  10
HETATM   10  C9  UNL     1     -36.243  13.983  -4.933  1.00 20.00     0.121 C 
HETATM   11 CL11 UNL     1     -37.955  14.447  -5.006  1.00 20.00    -0.130 Cl
ENDBRANCH   3  10
TORSDOF 2
ENDMDL
MODEL 3
REMARK VINA RESULT:      -4.2     10.526     11.056
REMARK  2 active torsions:
REMARK  status: ('A' for Active; 'I' for Inactive)
REMARK    1  A    between atoms: C6_6  and  C8_8 
REMARK    2  A    between atoms: C7_7  and  C9_9 
ROOT
HETATM    1  C4  UNL     1     -33.586  18.519   2.183  1.00 20.00     0.034 C 
HETATM    2  C5  UNL     1     -35.060  18.844   2.058  1.00 20.00     0.168 C 
HETATM    3  C7  UNL     1     -33.021  19.181   0.944  1.00 20.00     0.031 C 
HETATM    4  C8  UNL     1     -34.121  18.930  -0.085  1.00 20.00     0.130 C 
HETATM    5  O10 UNL     1     -35.357  18.916   0.656  1.00 20.00    -0.385 OA
ENDROOT
BRANCH   4   6
HETATM    6  C6  UNL     1     -34.007  17.598  -0.817  1.00 20.00     0.015 C 
HETATM    7  C2  UNL     1     -33.628  17.660  -2.320  1.00 20.00     0.007 C 
HETATM    8  C1  UNL     1     -34.587  16.472  -2.535  1.00 20.00     0.001 C 
HETATM    9  C3  UNL     1     -35.334  16.937  -1.268  1.00 20.00     0.007 C 
ENDBRANCH   4   6
BRANCH   3  10
HETATM   10  C9  UNL     1     -31.620  18.722   0.581  1.00 20.00     0.121 C 
HETATM   11 CL11 UNL     1     -30.568  18.751   2.011  1.00 20.00    -0.130 Cl
ENDBRANCH   3  10
TORSDOF 2
ENDMDL
MODEL 4
REMARK VINA RESULT:      -4.1      9.986     11.198
REMARK  2 active torsions:
REMARK  status: ('A' for Active; 'I' for Inactive)
REMARK    1  A    between atoms: C6_6  and  C8_8 
REMARK    2  A    between atoms: C7_7  and  C9_9 
ROOT
HETATM    1  C4  UNL     1     -33.490  16.273  -5.461  1.00 20.00     0.034 C 
HETATM    2  C5  UNL     1     -33.960  17.710  -5.554  1.00 20.00     0.168 C 
HETATM    3  C7  UNL     1     -34.672  15.609  -4.788  1.00 20.00     0.031 C 
HETATM    4  C8  UNL     1     -35.129  16.684  -3.804  1.00 20.00     0.130 C 
HETATM    5  O10 UNL     1     -34.819  17.945  -4.429  1.00 20.00    -0.385 OA
ENDROOT
BRANCH   4   6
HETATM    6  C6  UNL     1     -34.417  16.649  -2.457  1.00 20.00     0.015 C 
HETATM    7  C2  UNL     1     -35.268  17.009  -1.211  1.00 20.00     0.007 C 
HETATM    8  C1  UNL     1     -34.011  17.703  -0.646  1.00 20.00     0.001 C 
HETATM    9  C3  UNL     1     -33.537  17.875  -2.104  1.00 20.00     0.007 C 
ENDBRANCH   4   6
BRANCH   3  10
HETATM   10  C9  UNL     1     -34.367  14.236  -4.215  1.00 20.00     0.121 C 
HETATM   11 CL11 UNL     1     -32.613  13.968  -4.149  1.00 20.00    -0.130 Cl
ENDBRANCH   3  10
TORSDOF 2
ENDMDL
MODEL 5
REMARK VINA RESULT:      -4.0     10.570     11.348
REMARK  2 active torsions:
REMARK  status: ('A' for Active; 'I' for Inactive)
REMARK    1  A    between atoms: C6_6  and  C8_8 
REMARK    2  A    between atoms: C7_7  and  C9_9 
ROOT
HETATM    1  C4  UNL     1     -35.540  14.393  -6.512  1.00 20.00     0.034 C 
HETATM    2  C5  UNL     1     -35.791  13.334  -5.459  1.00 20.00     0.168 C 
HETATM    3  C7  UNL     1     -34.106  14.781  -6.219  1.00 20.00     0.031 C 
HETATM    4  C8  UNL     1     -34.058  14.710  -4.694  1.00 20.00     0.130 C 
HETATM    5  O10 UNL     1     -34.989  13.676  -4.319  1.00 20.00    -0.385 OA
ENDROOT
BRANCH   4   6
HETATM    6  C6  UNL     1     -34.487  15.994  -3.991  1.00 20.00     0.015 C 
HETATM    7  C2  UNL     1     -33.593  16.476  -2.820  1.00 20.00     0.007 C 
HETATM    8  C1  UNL     1     -34.888  16.930  -2.116  1.00 20.00     0.001 C 
HETATM    9  C3  UNL     1     -35.631  15.868  -2.953  1.00 20.00     0.007 C 
ENDBRANCH   4   6
BRANCH   3  10
HETATM   10  C9  UNL     1     -33.674  16.086  -6.863  1.00 20.00     0.121 C 
HETATM   11 CL11 UNL     1     -35.085  16.972  -7.475  1.00 20.00    -0.130 Cl
ENDBRANCH   3  10
TORSDOF 2
ENDMDL
MODEL 6
REMARK VINA RESULT:      -4.0     10.285     11.574
REMARK  2 active torsions:
REMARK  status: ('A' for Active; 'I' for Inactive)
REMARK    1  A    between atoms: C6_6  and  C8_8 
REMARK    2  A    between atoms: C7_7  and  C9_9 
ROOT
HETATM    1  C4  UNL     1     -38.092  15.362  -6.495  1.00 20.00     0.034 C 
HETATM    2  C5  UNL     1     -38.859  15.070  -5.223  1.00 20.00     0.168 C 
HETATM    3  C7  UNL     1     -36.937  14.389  -6.386  1.00 20.00     0.031 C 
HETATM    4  C8  UNL     1     -36.637  14.412  -4.889  1.00 20.00     0.130 C 
HETATM    5  O10 UNL     1     -37.899  14.658  -4.239  1.00 20.00    -0.385 OA
ENDROOT
BRANCH   4   6
HETATM    6  C6  UNL     1     -35.673  15.511  -4.457  1.00 20.00     0.015 C 
HETATM    7  C2  UNL     1     -34.337  15.052  -3.817  1.00 20.00     0.007 C 
HETATM    8  C1  UNL     1     -34.454  16.270  -2.878  1.00 20.00     0.001 C 
HETATM    9  C3  UNL     1     -35.978  16.212  -3.109  1.00 20.00     0.007 C 
ENDBRANCH   4   6
BRANCH   3  10
HETATM   10  C9  UNL     1     -35.783  14.689  -7.326  1.00 20.00     0.121 C 
HETATM   11 CL11 UNL     1     -34.557  13.408  -7.230  1.00 20.00    -0.130 Cl
ENDBRANCH   3  10
TORSDOF 2
ENDMDL
MODEL 7
REMARK VINA RESULT:      -3.9     10.795     11.716
REMARK  2 active torsions:
REMARK  status: ('A' for Active; 'I' for Inactive)
REMARK    1  A    between atoms: C6_6  and  C8_8 
REMARK    2  A    between atoms: C7_7  and  C9_9 
ROOT
HETATM    1  C4  UNL     1     -34.456  14.009  -7.553  1.00 20.00     0.034 C 
HETATM    2  C5  UNL     1     -35.045  12.677  -7.135  1.00 20.00     0.168 C 
HETATM    3  C7  UNL     1     -34.075  14.607  -6.216  1.00 20.00     0.031 C 
HETATM    4  C8  UNL     1     -35.217  14.141  -5.316  1.00 20.00     0.130 C 
HETATM    5  O10 UNL     1     -35.637  12.867  -5.842  1.00 20.00    -0.385 OA
ENDROOT
BRANCH   4   6
HETATM    6  C6  UNL     1     -36.432  15.062  -5.314  1.00 20.00     0.015 C 
HETATM    7  C2  UNL     1     -36.831  15.684  -3.950  1.00 20.00     0.007 C 
HETATM    8  C1  UNL     1     -38.300  15.518  -4.388  1.00 20.00     0.001 C 
HETATM    9  C3  UNL     1     -37.823  14.377  -5.311  1.00 20.00     0.007 C 
ENDBRANCH   4   6
BRANCH   3  10
HETATM   10  C9  UNL     1     -33.797  16.099  -6.261  1.00 20.00     0.121 C 
HETATM   11 CL11 UNL     1     -33.301  16.685  -4.660  1.00 20.00    -0.130 Cl
ENDBRANCH   3  10
TORSDOF 2
ENDMDL
MODEL 8
REMARK VINA RESULT:      -3.9     10.001     10.986
REMARK  2 active torsions:
REMARK  status: ('A' for Active; 'I' for Inactive)
REMARK    1  A    between atoms: C6_6  and  C8_8 
REMARK    2  A    between atoms: C7_7  and  C9_9 
ROOT
HETATM    1  C4  UNL     1     -33.458  15.873  -3.907  1.00 20.00     0.034 C 
HETATM    2  C5  UNL     1     -32.868  14.643  -4.566  1.00 20.00     0.168 C 
HETATM    3  C7  UNL     1     -34.790  15.347  -3.415  1.00 20.00     0.031 C 
HETATM    4  C8  UNL     1     -35.196  14.398  -4.541  1.00 20.00     0.130 C 
HETATM    5  O10 UNL     1     -33.966  13.873  -5.076  1.00 20.00    -0.385 OA
ENDROOT
BRANCH   4   6
HETATM    6  C6  UNL     1     -35.950  15.066  -5.686  1.00 20.00     0.015 C 
HETATM    7  C2  UNL     1     -37.351  14.494  -6.023  1.00 20.00     0.007 C 
HETATM    8  C1  UNL     1     -37.024  14.765  -7.505  1.00 20.00     0.001 C 
HETATM    9  C3  UNL     1     -35.533  14.659  -7.122  1.00 20.00     0.007 C 
ENDBRANCH   4   6
BRANCH   3  10
HETATM   10  C9  UNL     1     -35.782  16.432  -3.035  1.00 20.00     0.121 C 
HETATM   11 CL11 UNL     1     -35.569  16.899  -1.336  1.00 20.00    -0.130 Cl
ENDBRANCH   3  10
TORSDOF 2
ENDMDL
MODEL 9
REMARK VINA RESULT:      -3.7      9.893     11.201
REMARK  2 active torsions:
REMARK  status: ('A' for Active; 'I' for Inactive)
REMARK    1  A    between atoms: C6_6  and  C8_8 
REMARK    2  A    between atoms: C7_7  and  C9_9 
ROOT
HETATM    1  C4  UNL     1     -34.238  18.555  -3.396  1.00 20.00     0.034 C 
HETATM    2  C5  UNL     1     -33.480  18.397  -4.698  1.00 20.00     0.168 C 
HETATM    3  C7  UNL     1     -33.715  17.381  -2.595  1.00 20.00     0.031 C 
HETATM    4  C8  UNL     1     -33.573  16.299  -3.664  1.00 20.00     0.130 C 
HETATM    5  O10 UNL     1     -33.253  16.993  -4.885  1.00 20.00    -0.385 OA
ENDROOT
BRANCH   4   6
HETATM    6  C6  UNL     1     -34.841  15.489  -3.911  1.00 20.00     0.015 C 
HETATM    7  C2  UNL     1     -34.662  13.960  -4.102  1.00 20.00     0.007 C 
HETATM    8  C1  UNL     1     -35.792  14.034  -5.149  1.00 20.00     0.001 C 
HETATM    9  C3  UNL     1     -35.411  15.516  -5.352  1.00 20.00     0.007 C 
ENDBRANCH   4   6
BRANCH   3  10
HETATM   10  C9  UNL     1     -34.554  17.041  -1.376  1.00 20.00     0.121 C 
HETATM   11 CL11 UNL     1     -34.066  18.038   0.009  1.00 20.00    -0.130 Cl
ENDBRANCH   3  10
TORSDOF 2
ENDMDL
