MODEL 1
REMARK VINA RESULT:      -6.3      0.000      0.000
REMARK  2 active torsions:
REMARK  status: ('A' for Active; 'I' for Inactive)
REMARK    1  A    between atoms: C1_1  and  C5_5 
REMARK    2  A    between atoms: C1_1  and  C8_8 
ROOT
HETATM    1  C2  UNL     1     -33.173   5.896   2.754  1.00 20.00     0.017 C 
HETATM    2  C3  UNL     1     -33.570   7.364   4.668  1.00 20.00     0.017 C 
HETATM    3  C4  UNL     1     -35.391   5.548   4.122  1.00 20.00     0.010 A 
HETATM    4  C5  UNL     1     -33.292   7.377   3.155  1.00 20.00     0.057 C 
HETATM    5  C6  UNL     1     -33.984   5.147   3.771  1.00 20.00    -0.009 A 
HETATM    6  C7  UNL     1     -34.225   6.042   4.937  1.00 20.00    -0.009 A 
ENDROOT
BRANCH   4   7
HETATM    7  C1  UNL     1     -32.053   8.146   2.822  1.00 20.00     0.144 C 
HETATM    8  O9  UNL     1     -31.196   8.355   3.680  1.00 20.00    -0.296 OA
BRANCH   7   9
HETATM    9  C8  UNL     1     -31.944   8.630   1.395  1.00 20.00     0.193 C 
HETATM   10 CL10 UNL     1     -32.602  10.265   1.237  1.00 20.00    -0.123 Cl
ENDBRANCH   7   9
ENDBRANCH   4   7
TORSDOF 2
ENDMDL
MODEL 2
REMARK VINA RESULT:      -6.2      0.744      1.475
REMARK  2 active torsions:
REMARK  status: ('A' for Active; 'I' for Inactive)
REMARK    1  A    between atoms: C1_1  and  C5_5 
REMARK    2  A    between atoms: C1_1  and  C8_8 
ROOT
HETATM    1  C2  UNL     1     -33.436   7.145   5.089  1.00 20.00     0.017 C 
HETATM    2  C3  UNL     1     -34.028   6.175   2.924  1.00 20.00     0.017 C 
HETATM    3  C4  UNL     1     -34.548   4.762   5.080  1.00 20.00     0.010 A 
HETATM    4  C5  UNL     1     -32.845   6.750   3.723  1.00 20.00     0.057 C 
HETATM    5  C6  UNL     1     -34.628   6.252   5.275  1.00 20.00    -0.009 A 
HETATM    6  C7  UNL     1     -34.989   5.662   3.955  1.00 20.00    -0.009 A 
ENDROOT
BRANCH   4   7
HETATM    7  C1  UNL     1     -32.218   7.916   3.030  1.00 20.00     0.144 C 
HETATM    8  O9  UNL     1     -31.264   8.507   3.535  1.00 20.00    -0.296 OA
BRANCH   7   9
HETATM    9  C8  UNL     1     -32.831   8.298   1.703  1.00 20.00     0.193 C 
HETATM   10 CL10 UNL     1     -32.475   9.987   1.310  1.00 20.00    -0.123 Cl
ENDBRANCH   7   9
ENDBRANCH   4   7
TORSDOF 2
ENDMDL
MODEL 3
REMARK VINA RESULT:      -5.5      2.765      4.287
REMARK  2 active torsions:
REMARK  status: ('A' for Active; 'I' for Inactive)
REMARK    1  A    between atoms: C1_1  and  C5_5 
REMARK    2  A    between atoms: C1_1  and  C8_8 
ROOT
HETATM    1  C2  UNL     1     -32.374   8.089   4.424  1.00 20.00     0.017 C 
HETATM    2  C3  UNL     1     -33.347   6.759   2.618  1.00 20.00     0.017 C 
HETATM    3  C4  UNL     1     -32.109   8.986   1.967  1.00 20.00     0.010 A 
HETATM    4  C5  UNL     1     -33.697   7.472   3.936  1.00 20.00     0.057 C 
HETATM    5  C6  UNL     1     -31.555   8.295   3.184  1.00 20.00    -0.009 A 
HETATM    6  C7  UNL     1     -32.148   7.484   2.083  1.00 20.00    -0.009 A 
ENDROOT
BRANCH   4   7
HETATM    7  C1  UNL     1     -34.278   6.531   4.942  1.00 20.00     0.144 C 
HETATM    8  O9  UNL     1     -34.103   6.714   6.146  1.00 20.00    -0.296 OA
BRANCH   7   9
HETATM    9  C8  UNL     1     -35.069   5.374   4.378  1.00 20.00     0.193 C 
HETATM   10 CL10 UNL     1     -34.137   3.873   4.470  1.00 20.00    -0.123 Cl
ENDBRANCH   7   9
ENDBRANCH   4   7
TORSDOF 2
ENDMDL
MODEL 4
REMARK VINA RESULT:      -4.9      2.219      4.438
REMARK  2 active torsions:
REMARK  status: ('A' for Active; 'I' for Inactive)
REMARK    1  A    between atoms: C1_1  and  C5_5 
REMARK    2  A    between atoms: C1_1  and  C8_8 
ROOT
HETATM    1  C2  UNL     1     -33.373   9.657   2.041  1.00 20.00     0.017 C 
HETATM    2  C3  UNL     1     -31.538   8.258   1.235  1.00 20.00     0.017 C 
HETATM    3  C4  UNL     1     -33.040   9.457  -0.559  1.00 20.00     0.010 A 
HETATM    4  C5  UNL     1     -32.803   8.229   2.111  1.00 20.00     0.057 C 
HETATM    5  C6  UNL     1     -32.888  10.212   0.734  1.00 20.00    -0.009 A 
HETATM    6  C7  UNL     1     -31.769   9.359   0.244  1.00 20.00    -0.009 A 
ENDROOT
BRANCH   4   7
HETATM    7  C1  UNL     1     -32.501   7.817   3.516  1.00 20.00     0.144 C 
HETATM    8  O9  UNL     1     -31.457   8.173   4.062  1.00 20.00    -0.296 OA
BRANCH   7   9
HETATM    9  C8  UNL     1     -33.545   6.956   4.186  1.00 20.00     0.193 C 
HETATM   10 CL10 UNL     1     -33.668   7.346   5.908  1.00 20.00    -0.123 Cl
ENDBRANCH   7   9
ENDBRANCH   4   7
TORSDOF 2
ENDMDL
MODEL 5
REMARK VINA RESULT:      -4.7      2.604      4.260
REMARK  2 active torsions:
REMARK  status: ('A' for Active; 'I' for Inactive)
REMARK    1  A    between atoms: C1_1  and  C5_5 
REMARK    2  A    between atoms: C1_1  and  C8_8 
ROOT
HETATM    1  C2  UNL     1     -33.695   8.087   2.143  1.00 20.00     0.017 C 
HETATM    2  C3  UNL     1     -31.686   8.063   3.535  1.00 20.00     0.017 C 
HETATM    3  C4  UNL     1     -31.385   8.520   0.963  1.00 20.00     0.010 A 
HETATM    4  C5  UNL     1     -32.900   7.211   3.127  1.00 20.00     0.057 C 
HETATM    5  C6  UNL     1     -32.684   9.018   1.538  1.00 20.00    -0.009 A 
HETATM    6  C7  UNL     1     -31.460   9.003   2.388  1.00 20.00    -0.009 A 
ENDROOT
BRANCH   4   7
HETATM    7  C1  UNL     1     -33.724   6.813   4.309  1.00 20.00     0.144 C 
HETATM    8  O9  UNL     1     -33.483   7.271   5.424  1.00 20.00    -0.296 OA
BRANCH   7   9
HETATM    9  C8  UNL     1     -34.839   5.831   4.030  1.00 20.00     0.193 C 
HETATM   10 CL10 UNL     1     -34.450   4.237   4.691  1.00 20.00    -0.123 Cl
ENDBRANCH   7   9
ENDBRANCH   4   7
TORSDOF 2
ENDMDL
MODEL 6
REMARK VINA RESULT:      -4.6      2.625      4.319
REMARK  2 active torsions:
REMARK  status: ('A' for Active; 'I' for Inactive)
REMARK    1  A    between atoms: C1_1  and  C5_5 
REMARK    2  A    between atoms: C1_1  and  C8_8 
ROOT
HETATM    1  C2  UNL     1     -32.251   7.701   3.732  1.00 20.00     0.017 C 
HETATM    2  C3  UNL     1     -32.956   7.268   1.432  1.00 20.00     0.017 C 
HETATM    3  C4  UNL     1     -32.243   9.722   2.050  1.00 20.00     0.010 A 
HETATM    4  C5  UNL     1     -33.421   7.154   2.894  1.00 20.00     0.057 C 
HETATM    5  C6  UNL     1     -31.525   8.649   2.823  1.00 20.00    -0.009 A 
HETATM    6  C7  UNL     1     -31.954   8.384   1.421  1.00 20.00    -0.009 A 
ENDROOT
BRANCH   4   7
HETATM    7  C1  UNL     1     -33.761   5.746   3.264  1.00 20.00     0.144 C 
HETATM    8  O9  UNL     1     -33.101   4.806   2.824  1.00 20.00    -0.296 OA
BRANCH   7   9
HETATM    9  C8  UNL     1     -34.944   5.579   4.189  1.00 20.00     0.193 C 
HETATM   10 CL10 UNL     1     -34.460   5.818   5.874  1.00 20.00    -0.123 Cl
ENDBRANCH   7   9
ENDBRANCH   4   7
TORSDOF 2
ENDMDL
MODEL 7
REMARK VINA RESULT:      -4.5     11.035     11.680
REMARK  2 active torsions:
REMARK  status: ('A' for Active; 'I' for Inactive)
REMARK    1  A    between atoms: C1_1  and  C5_5 
REMARK    2  A    between atoms: C1_1  and  C8_8 
ROOT
HETATM    1  C2  UNL     1     -33.764  15.023  -4.015  1.00 20.00     0.017 C 
HETATM    2  C3  UNL     1     -35.993  16.022  -4.124  1.00 20.00     0.017 C 
HETATM    3  C4  UNL     1     -34.465  16.662  -2.082  1.00 20.00     0.010 A 
HETATM    4  C5  UNL     1     -35.259  14.669  -4.105  1.00 20.00     0.057 C 
HETATM    5  C6  UNL     1     -33.717  16.370  -3.355  1.00 20.00    -0.009 A 
HETATM    6  C7  UNL     1     -35.075  16.979  -3.422  1.00 20.00    -0.009 A 
ENDROOT
BRANCH   4   7
HETATM    7  C1  UNL     1     -35.567  13.850  -5.317  1.00 20.00     0.144 C 
HETATM    8  O9  UNL     1     -35.889  12.668  -5.209  1.00 20.00    -0.296 OA
BRANCH   7   9
HETATM    9  C8  UNL     1     -35.451  14.569  -6.641  1.00 20.00     0.193 C 
HETATM   10 CL10 UNL     1     -34.194  13.833  -7.646  1.00 20.00    -0.123 Cl
ENDBRANCH   7   9
ENDBRANCH   4   7
TORSDOF 2
ENDMDL
MODEL 8
REMARK VINA RESULT:      -4.2     10.805     11.836
REMARK  2 active torsions:
REMARK  status: ('A' for Active; 'I' for Inactive)
REMARK    1  A    between atoms: C1_1  and  C5_5 
REMARK    2  A    between atoms: C1_1  and  C8_8 
ROOT
HETATM    1  C2  UNL     1     -34.077  14.367  -4.070  1.00 20.00     0.017 C 
HETATM    2  C3  UNL     1     -35.539  16.182  -4.808  1.00 20.00     0.017 C 
HETATM    3  C4  UNL     1     -33.895  16.670  -2.815  1.00 20.00     0.010 A 
HETATM    4  C5  UNL     1     -35.555  14.733  -4.291  1.00 20.00     0.057 C 
HETATM    5  C6  UNL     1     -33.381  15.673  -3.819  1.00 20.00    -0.009 A 
HETATM    6  C7  UNL     1     -34.273  16.779  -4.269  1.00 20.00    -0.009 A 
ENDROOT
BRANCH   4   7
HETATM    7  C1  UNL     1     -36.221  13.804  -5.255  1.00 20.00     0.144 C 
HETATM    8  O9  UNL     1     -35.881  12.624  -5.324  1.00 20.00    -0.296 OA
BRANCH   7   9
HETATM    9  C8  UNL     1     -37.308  14.414  -6.109  1.00 20.00     0.193 C 
HETATM   10 CL10 UNL     1     -38.789  14.645  -5.168  1.00 20.00    -0.123 Cl
ENDBRANCH   7   9
ENDBRANCH   4   7
TORSDOF 2
ENDMDL
MODEL 9
REMARK VINA RESULT:      -4.2     11.226     11.782
REMARK  2 active torsions:
REMARK  status: ('A' for Active; 'I' for Inactive)
REMARK    1  A    between atoms: C1_1  and  C5_5 
REMARK    2  A    between atoms: C1_1  and  C8_8 
ROOT
HETATM    1  C2  UNL     1     -35.901  15.376  -4.217  1.00 20.00     0.017 C 
HETATM    2  C3  UNL     1     -33.549  14.753  -4.453  1.00 20.00     0.017 C 
HETATM    3  C4  UNL     1     -34.090  17.162  -3.552  1.00 20.00     0.010 A 
HETATM    4  C5  UNL     1     -34.866  14.873  -5.239  1.00 20.00     0.057 C 
HETATM    5  C6  UNL     1     -35.105  16.114  -3.181  1.00 20.00    -0.009 A 
HETATM    6  C7  UNL     1     -33.671  15.733  -3.325  1.00 20.00    -0.009 A 
ENDROOT
BRANCH   4   7
HETATM    7  C1  UNL     1     -35.272  13.570  -5.850  1.00 20.00     0.144 C 
HETATM    8  O9  UNL     1     -35.953  12.766  -5.215  1.00 20.00    -0.296 OA
BRANCH   7   9
HETATM    9  C8  UNL     1     -34.793  13.330  -7.262  1.00 20.00     0.193 C 
HETATM   10 CL10 UNL     1     -34.021  14.781  -7.918  1.00 20.00    -0.123 Cl
ENDBRANCH   7   9
ENDBRANCH   4   7
TORSDOF 2
ENDMDL
