MODEL 1
REMARK VINA RESULT:      -5.1      0.000      0.000
REMARK  3 active torsions:
REMARK  status: ('A' for Active; 'I' for Inactive)
REMARK    1  A    between atoms: C3_3  and  C7_7 
REMARK    2  A    between atoms: C6_6  and  C7_7 
REMARK    3  A    between atoms: C7_7  and  O8_8 
ROOT
HETATM    1  C7  UNL     1     -34.087   7.064   4.252  1.00 20.00     0.126 C 
ENDROOT
BRANCH   1   2
HETATM    2  C3  UNL     1     -33.036   6.944   3.183  1.00 20.00    -0.018 A 
HETATM    3  C1  UNL     1     -31.803   7.809   3.301  1.00 20.00     0.012 A 
HETATM    4  C2  UNL     1     -32.834   8.118   2.254  1.00 20.00     0.012 A 
HETATM    5  C4  UNL     1     -32.874   5.560   2.617  1.00 20.00     0.018 C 
ENDBRANCH   1   2
BRANCH   1   6
HETATM    6  C6  UNL     1     -34.907   5.772   4.397  1.00 20.00     0.028 C 
HETATM    7  C5  UNL     1     -34.630   5.037   5.701  1.00 20.00     0.007 C 
ENDBRANCH   1   6
BRANCH   1   8
HETATM    8  O8  UNL     1     -33.463   7.347   5.508  1.00 20.00    -0.395 OA
HETATM    9  H22 UNL     1     -34.120   7.142   6.188  1.00 20.00     0.210 HD
ENDBRANCH   1   8
TORSDOF 3
ENDMDL
MODEL 2
REMARK VINA RESULT:      -5.1      1.532      3.666
REMARK  3 active torsions:
REMARK  status: ('A' for Active; 'I' for Inactive)
REMARK    1  A    between atoms: C3_3  and  C7_7 
REMARK    2  A    between atoms: C6_6  and  C7_7 
REMARK    3  A    between atoms: C7_7  and  O8_8 
ROOT
HETATM    1  C7  UNL     1     -33.273   6.475   2.968  1.00 20.00     0.126 C 
ENDROOT
BRANCH   1   2
HETATM    2  C3  UNL     1     -34.113   6.246   4.193  1.00 20.00    -0.018 A 
HETATM    3  C1  UNL     1     -34.540   4.830   4.505  1.00 20.00     0.012 A 
HETATM    4  C2  UNL     1     -35.549   5.820   3.998  1.00 20.00     0.012 A 
HETATM    5  C4  UNL     1     -33.798   7.156   5.347  1.00 20.00     0.018 C 
ENDBRANCH   1   2
BRANCH   1   6
HETATM    6  C6  UNL     1     -32.211   7.562   3.196  1.00 20.00     0.028 C 
HETATM    7  C5  UNL     1     -32.005   8.456   1.981  1.00 20.00     0.007 C 
ENDBRANCH   1   6
BRANCH   1   8
HETATM    8  O8  UNL     1     -32.607   5.260   2.609  1.00 20.00    -0.395 OA
HETATM    9  H22 UNL     1     -33.206   4.541   2.857  1.00 20.00     0.210 HD
ENDBRANCH   1   8
TORSDOF 3
ENDMDL
MODEL 3
REMARK VINA RESULT:      -4.7      0.951      3.383
REMARK  3 active torsions:
REMARK  status: ('A' for Active; 'I' for Inactive)
REMARK    1  A    between atoms: C3_3  and  C7_7 
REMARK    2  A    between atoms: C6_6  and  C7_7 
REMARK    3  A    between atoms: C7_7  and  O8_8 
ROOT
HETATM    1  C7  UNL     1     -33.278   6.637   4.440  1.00 20.00     0.126 C 
ENDROOT
BRANCH   1   2
HETATM    2  C3  UNL     1     -34.437   5.679   4.416  1.00 20.00    -0.018 A 
HETATM    3  C1  UNL     1     -34.726   4.887   5.670  1.00 20.00     0.012 A 
HETATM    4  C2  UNL     1     -34.133   4.200   4.473  1.00 20.00     0.012 A 
HETATM    5  C4  UNL     1     -35.604   6.129   3.582  1.00 20.00     0.018 C 
ENDBRANCH   1   2
BRANCH   1   6
HETATM    6  C6  UNL     1     -33.216   7.491   3.163  1.00 20.00     0.028 C 
HETATM    7  C5  UNL     1     -31.842   8.101   2.924  1.00 20.00     0.007 C 
ENDBRANCH   1   6
BRANCH   1   8
HETATM    8  O8  UNL     1     -33.402   7.512   5.564  1.00 20.00    -0.395 OA
HETATM    9  H22 UNL     1     -34.328   7.795   5.586  1.00 20.00     0.210 HD
ENDBRANCH   1   8
TORSDOF 3
ENDMDL
MODEL 4
REMARK VINA RESULT:      -4.2      1.815      2.534
REMARK  3 active torsions:
REMARK  status: ('A' for Active; 'I' for Inactive)
REMARK    1  A    between atoms: C3_3  and  C7_7 
REMARK    2  A    between atoms: C6_6  and  C7_7 
REMARK    3  A    between atoms: C7_7  and  O8_8 
ROOT
HETATM    1  C7  UNL     1     -34.063   5.199   4.932  1.00 20.00     0.126 C 
ENDROOT
BRANCH   1   2
HETATM    2  C3  UNL     1     -34.052   5.688   3.510  1.00 20.00    -0.018 A 
HETATM    3  C1  UNL     1     -33.234   4.915   2.501  1.00 20.00     0.012 A 
HETATM    4  C2  UNL     1     -32.763   6.263   2.969  1.00 20.00     0.012 A 
HETATM    5  C4  UNL     1     -35.346   6.298   3.048  1.00 20.00     0.018 C 
ENDBRANCH   1   2
BRANCH   1   6
HETATM    6  C6  UNL     1     -34.544   6.285   5.907  1.00 20.00     0.028 C 
HETATM    7  C5  UNL     1     -33.570   7.449   6.026  1.00 20.00     0.007 C 
ENDBRANCH   1   6
BRANCH   1   8
HETATM    8  O8  UNL     1     -34.936   4.071   5.044  1.00 20.00    -0.395 OA
HETATM    9  H22 UNL     1     -35.535   4.117   4.285  1.00 20.00     0.210 HD
ENDBRANCH   1   8
TORSDOF 3
ENDMDL
MODEL 5
REMARK VINA RESULT:      -4.2      0.832      3.209
REMARK  3 active torsions:
REMARK  status: ('A' for Active; 'I' for Inactive)
REMARK    1  A    between atoms: C3_3  and  C7_7 
REMARK    2  A    between atoms: C6_6  and  C7_7 
REMARK    3  A    between atoms: C7_7  and  O8_8 
ROOT
HETATM    1  C7  UNL     1     -33.146   6.845   4.254  1.00 20.00     0.126 C 
ENDROOT
BRANCH   1   2
HETATM    2  C3  UNL     1     -33.902   5.610   3.853  1.00 20.00    -0.018 A 
HETATM    3  C1  UNL     1     -35.405   5.618   4.010  1.00 20.00     0.012 A 
HETATM    4  C2  UNL     1     -34.562   4.799   4.945  1.00 20.00     0.012 A 
HETATM    5  C4  UNL     1     -33.321   4.872   2.680  1.00 20.00     0.018 C 
ENDBRANCH   1   2
BRANCH   1   6
HETATM    6  C6  UNL     1     -32.849   7.751   3.048  1.00 20.00     0.028 C 
HETATM    7  C5  UNL     1     -31.462   8.379   3.104  1.00 20.00     0.007 C 
ENDBRANCH   1   6
BRANCH   1   8
HETATM    8  O8  UNL     1     -33.915   7.592   5.202  1.00 20.00    -0.395 OA
HETATM    9  H22 UNL     1     -34.827   7.581   4.878  1.00 20.00     0.210 HD
ENDBRANCH   1   8
TORSDOF 3
ENDMDL
MODEL 6
REMARK VINA RESULT:      -4.2      1.648      3.676
REMARK  3 active torsions:
REMARK  status: ('A' for Active; 'I' for Inactive)
REMARK    1  A    between atoms: C3_3  and  C7_7 
REMARK    2  A    between atoms: C6_6  and  C7_7 
REMARK    3  A    between atoms: C7_7  and  O8_8 
ROOT
HETATM    1  C7  UNL     1     -32.125   7.686   2.638  1.00 20.00     0.126 C 
ENDROOT
BRANCH   1   2
HETATM    2  C3  UNL     1     -33.170   6.804   3.261  1.00 20.00    -0.018 A 
HETATM    3  C1  UNL     1     -33.107   5.321   2.976  1.00 20.00     0.012 A 
HETATM    4  C2  UNL     1     -34.186   6.157   2.349  1.00 20.00     0.012 A 
HETATM    5  C4  UNL     1     -33.624   7.239   4.627  1.00 20.00     0.018 C 
ENDBRANCH   1   2
BRANCH   1   6
HETATM    6  C6  UNL     1     -32.753   8.848   1.851  1.00 20.00     0.028 C 
HETATM    7  C5  UNL     1     -31.952   9.228   0.613  1.00 20.00     0.007 C 
ENDBRANCH   1   6
BRANCH   1   8
HETATM    8  O8  UNL     1     -31.287   8.234   3.660  1.00 20.00    -0.395 OA
HETATM    9  H22 UNL     1     -31.394   7.660   4.433  1.00 20.00     0.210 HD
ENDBRANCH   1   8
TORSDOF 3
ENDMDL
MODEL 7
REMARK VINA RESULT:      -4.1      1.543      2.042
REMARK  3 active torsions:
REMARK  status: ('A' for Active; 'I' for Inactive)
REMARK    1  A    between atoms: C3_3  and  C7_7 
REMARK    2  A    between atoms: C6_6  and  C7_7 
REMARK    3  A    between atoms: C7_7  and  O8_8 
ROOT
HETATM    1  C7  UNL     1     -33.688   5.948   3.365  1.00 20.00     0.126 C 
ENDROOT
BRANCH   1   2
HETATM    2  C3  UNL     1     -33.075   7.272   3.727  1.00 20.00    -0.018 A 
HETATM    3  C1  UNL     1     -32.973   8.324   2.648  1.00 20.00     0.012 A 
HETATM    4  C2  UNL     1     -31.734   7.620   3.123  1.00 20.00     0.012 A 
HETATM    5  C4  UNL     1     -33.356   7.729   5.132  1.00 20.00     0.018 C 
ENDBRANCH   1   2
BRANCH   1   6
HETATM    6  C6  UNL     1     -34.839   5.572   4.311  1.00 20.00     0.028 C 
HETATM    7  C5  UNL     1     -34.525   4.358   5.176  1.00 20.00     0.007 C 
ENDBRANCH   1   6
BRANCH   1   8
HETATM    8  O8  UNL     1     -34.200   6.006   2.030  1.00 20.00    -0.395 OA
HETATM    9  H22 UNL     1     -33.447   5.840   1.445  1.00 20.00     0.210 HD
ENDBRANCH   1   8
TORSDOF 3
ENDMDL
MODEL 8
REMARK VINA RESULT:      -4.0      1.513      2.027
REMARK  3 active torsions:
REMARK  status: ('A' for Active; 'I' for Inactive)
REMARK    1  A    between atoms: C3_3  and  C7_7 
REMARK    2  A    between atoms: C6_6  and  C7_7 
REMARK    3  A    between atoms: C7_7  and  O8_8 
ROOT
HETATM    1  C7  UNL     1     -34.123   6.027   2.989  1.00 20.00     0.126 C 
ENDROOT
BRANCH   1   2
HETATM    2  C3  UNL     1     -33.297   7.166   3.518  1.00 20.00    -0.018 A 
HETATM    3  C1  UNL     1     -33.043   8.342   2.602  1.00 20.00     0.012 A 
HETATM    4  C2  UNL     1     -31.927   7.386   2.917  1.00 20.00     0.012 A 
HETATM    5  C4  UNL     1     -33.476   7.442   4.985  1.00 20.00     0.018 C 
ENDBRANCH   1   2
BRANCH   1   6
HETATM    6  C6  UNL     1     -33.511   4.663   3.347  1.00 20.00     0.028 C 
HETATM    7  C5  UNL     1     -34.230   3.974   4.499  1.00 20.00     0.007 C 
ENDBRANCH   1   6
BRANCH   1   8
HETATM    8  O8  UNL     1     -35.440   6.092   3.544  1.00 20.00    -0.395 OA
HETATM    9  H22 UNL     1     -35.790   5.190   3.514  1.00 20.00     0.210 HD
ENDBRANCH   1   8
TORSDOF 3
ENDMDL
MODEL 9
REMARK VINA RESULT:      -3.9      2.028      3.089
REMARK  3 active torsions:
REMARK  status: ('A' for Active; 'I' for Inactive)
REMARK    1  A    between atoms: C3_3  and  C7_7 
REMARK    2  A    between atoms: C6_6  and  C7_7 
REMARK    3  A    between atoms: C7_7  and  O8_8 
ROOT
HETATM    1  C7  UNL     1     -32.560   8.361   2.575  1.00 20.00     0.126 C 
ENDROOT
BRANCH   1   2
HETATM    2  C3  UNL     1     -32.253   9.054   1.277  1.00 20.00    -0.018 A 
HETATM    3  C1  UNL     1     -32.480  10.546   1.199  1.00 20.00     0.012 A 
HETATM    4  C2  UNL     1     -33.411   9.611   0.481  1.00 20.00     0.012 A 
HETATM    5  C4  UNL     1     -31.089   8.478   0.519  1.00 20.00     0.018 C 
ENDBRANCH   1   2
BRANCH   1   6
HETATM    6  C6  UNL     1     -32.908   6.878   2.364  1.00 20.00     0.028 C 
HETATM    7  C5  UNL     1     -33.922   6.357   3.373  1.00 20.00     0.007 C 
ENDBRANCH   1   6
BRANCH   1   8
HETATM    8  O8  UNL     1     -31.424   8.440   3.441  1.00 20.00    -0.395 OA
HETATM    9  H22 UNL     1     -31.692   8.030   4.276  1.00 20.00     0.210 HD
ENDBRANCH   1   8
TORSDOF 3
ENDMDL
