MODEL 1
REMARK VINA RESULT:      -6.4      0.000      0.000
REMARK  6 active torsions:
REMARK  status: ('A' for Active; 'I' for Inactive)
REMARK    1  A    between atoms: C5_5  and  C10_10 
REMARK    2  A    between atoms: C6_6  and  C7_7 
REMARK    3  A    between atoms: C6_6  and  C10_10 
REMARK    4  A    between atoms: C7_7  and  C11_11 
REMARK    5  A    between atoms: C8_8  and  C9_9 
REMARK    6  A    between atoms: C8_8  and  C11_11 
ROOT
HETATM    1  C7  UNL     1     -32.875   6.547   2.416  1.00 20.00     0.020 C 
ENDROOT
BRANCH   1   2
HETATM    2  C6  UNL     1     -34.150   6.266   3.226  1.00 20.00     0.005 C 
BRANCH   2   3
HETATM    3  C10 UNL     1     -33.881   5.452   4.510  1.00 20.00    -0.019 C 
HETATM    4  C4  UNL     1     -34.397   4.014   4.398  1.00 20.00     0.010 C 
BRANCH   3   5
HETATM    5  C5  UNL     1     -34.450   6.159   5.759  1.00 20.00    -0.000 C 
HETATM    6  C1  UNL     1     -33.773   7.472   6.131  1.00 20.00     0.005 C 
ENDBRANCH   3   5
ENDBRANCH   2   3
ENDBRANCH   1   2
BRANCH   1   7
HETATM    7  C11 UNL     1     -32.437   8.021   2.457  1.00 20.00     0.082 C 
HETATM    8 CL12 UNL     1     -31.346   8.313   3.858  1.00 20.00    -0.125 Cl
BRANCH   7   9
HETATM    9  C8  UNL     1     -31.692   8.469   1.187  1.00 20.00     0.024 C 
BRANCH   9  10
HETATM   10  C9  UNL     1     -32.222   9.750   0.511  1.00 20.00    -0.021 C 
HETATM   11  C2  UNL     1     -32.880  10.708   1.505  1.00 20.00     0.009 C 
HETATM   12  C3  UNL     1     -33.223   9.377  -0.587  1.00 20.00     0.009 C 
ENDBRANCH   9  10
ENDBRANCH   7   9
ENDBRANCH   1   7
TORSDOF 6
ENDMDL
MODEL 2
REMARK VINA RESULT:      -6.2      0.533      1.671
REMARK  6 active torsions:
REMARK  status: ('A' for Active; 'I' for Inactive)
REMARK    1  A    between atoms: C5_5  and  C10_10 
REMARK    2  A    between atoms: C6_6  and  C7_7 
REMARK    3  A    between atoms: C6_6  and  C10_10 
REMARK    4  A    between atoms: C7_7  and  C11_11 
REMARK    5  A    between atoms: C8_8  and  C9_9 
REMARK    6  A    between atoms: C8_8  and  C11_11 
ROOT
HETATM    1  C7  UNL     1     -32.859   6.687   3.058  1.00 20.00     0.020 C 
ENDROOT
BRANCH   1   2
HETATM    2  C6  UNL     1     -34.343   6.552   3.435  1.00 20.00     0.005 C 
BRANCH   2   3
HETATM    3  C10 UNL     1     -34.569   6.415   4.955  1.00 20.00    -0.019 C 
HETATM    4  C4  UNL     1     -33.605   7.291   5.761  1.00 20.00     0.010 C 
BRANCH   3   5
HETATM    5  C5  UNL     1     -34.503   4.941   5.408  1.00 20.00    -0.000 C 
HETATM    6  C1  UNL     1     -34.228   3.930   4.303  1.00 20.00     0.005 C 
ENDBRANCH   3   5
ENDBRANCH   2   3
ENDBRANCH   1   2
BRANCH   1   7
HETATM    7  C11 UNL     1     -32.435   8.132   2.748  1.00 20.00     0.082 C 
HETATM    8 CL12 UNL     1     -31.201   8.693   3.931  1.00 20.00    -0.125 Cl
BRANCH   7   9
HETATM    9  C8  UNL     1     -31.838   8.301   1.339  1.00 20.00     0.024 C 
BRANCH   9  10
HETATM   10  C9  UNL     1     -32.211   9.603   0.600  1.00 20.00    -0.021 C 
HETATM   11  C2  UNL     1     -32.846  10.640   1.526  1.00 20.00     0.009 C 
HETATM   12  C3  UNL     1     -33.167   9.285  -0.553  1.00 20.00     0.009 C 
ENDBRANCH   9  10
ENDBRANCH   7   9
ENDBRANCH   1   7
TORSDOF 6
ENDMDL
MODEL 3
REMARK VINA RESULT:      -5.8      1.488      5.533
REMARK  6 active torsions:
REMARK  status: ('A' for Active; 'I' for Inactive)
REMARK    1  A    between atoms: C5_5  and  C10_10 
REMARK    2  A    between atoms: C6_6  and  C7_7 
REMARK    3  A    between atoms: C6_6  and  C10_10 
REMARK    4  A    between atoms: C7_7  and  C11_11 
REMARK    5  A    between atoms: C8_8  and  C9_9 
REMARK    6  A    between atoms: C8_8  and  C11_11 
ROOT
HETATM    1  C7  UNL     1     -32.230   7.152   2.581  1.00 20.00     0.020 C 
ENDROOT
BRANCH   1   2
HETATM    2  C6  UNL     1     -32.564   8.633   2.819  1.00 20.00     0.005 C 
BRANCH   2   3
HETATM    3  C10 UNL     1     -32.053   9.555   1.692  1.00 20.00    -0.019 C 
HETATM    4  C4  UNL     1     -32.860  10.855   1.603  1.00 20.00     0.010 C 
BRANCH   3   5
HETATM    5  C5  UNL     1     -32.013   8.823   0.334  1.00 20.00    -0.000 C 
HETATM    6  C1  UNL     1     -33.089   9.235  -0.662  1.00 20.00     0.005 C 
ENDBRANCH   3   5
ENDBRANCH   2   3
ENDBRANCH   1   2
BRANCH   1   7
HETATM    7  C11 UNL     1     -33.471   6.245   2.537  1.00 20.00     0.082 C 
HETATM    8 CL12 UNL     1     -32.985   4.513   2.551  1.00 20.00    -0.125 Cl
BRANCH   7   9
HETATM    9  C8  UNL     1     -34.429   6.468   3.721  1.00 20.00     0.024 C 
BRANCH   9  10
HETATM   10  C9  UNL     1     -33.883   6.083   5.111  1.00 20.00    -0.021 C 
HETATM   11  C2  UNL     1     -34.694   4.968   5.771  1.00 20.00     0.009 C 
HETATM   12  C3  UNL     1     -33.868   7.317   6.018  1.00 20.00     0.009 C 
ENDBRANCH   9  10
ENDBRANCH   7   9
ENDBRANCH   1   7
TORSDOF 6
ENDMDL
MODEL 4
REMARK VINA RESULT:      -5.6      1.566      5.354
REMARK  6 active torsions:
REMARK  status: ('A' for Active; 'I' for Inactive)
REMARK    1  A    between atoms: C5_5  and  C10_10 
REMARK    2  A    between atoms: C6_6  and  C7_7 
REMARK    3  A    between atoms: C6_6  and  C10_10 
REMARK    4  A    between atoms: C7_7  and  C11_11 
REMARK    5  A    between atoms: C8_8  and  C9_9 
REMARK    6  A    between atoms: C8_8  and  C11_11 
ROOT
HETATM    1  C7  UNL     1     -32.018   7.143   2.991  1.00 20.00     0.020 C 
ENDROOT
BRANCH   1   2
HETATM    2  C6  UNL     1     -32.075   8.631   2.613  1.00 20.00     0.005 C 
BRANCH   2   3
HETATM    3  C10 UNL     1     -32.389   8.863   1.120  1.00 20.00    -0.019 C 
HETATM    4  C4  UNL     1     -31.200   8.511   0.221  1.00 20.00     0.010 C 
BRANCH   3   5
HETATM    5  C5  UNL     1     -32.884  10.303   0.862  1.00 20.00    -0.000 C 
HETATM    6  C1  UNL     1     -32.543  11.315   1.947  1.00 20.00     0.005 C 
ENDBRANCH   3   5
ENDBRANCH   2   3
ENDBRANCH   1   2
BRANCH   1   7
HETATM    7  C11 UNL     1     -33.317   6.382   2.676  1.00 20.00     0.082 C 
HETATM    8 CL12 UNL     1     -32.976   4.633   2.427  1.00 20.00    -0.125 Cl
BRANCH   7   9
HETATM    9  C8  UNL     1     -34.373   6.495   3.791  1.00 20.00     0.024 C 
BRANCH   9  10
HETATM   10  C9  UNL     1     -33.895   6.125   5.211  1.00 20.00    -0.021 C 
HETATM   11  C2  UNL     1     -34.737   5.015   5.841  1.00 20.00     0.009 C 
HETATM   12  C3  UNL     1     -33.927   7.368   6.105  1.00 20.00     0.009 C 
ENDBRANCH   9  10
ENDBRANCH   7   9
ENDBRANCH   1   7
TORSDOF 6
ENDMDL
MODEL 5
REMARK VINA RESULT:      -5.6      1.243      5.616
REMARK  6 active torsions:
REMARK  status: ('A' for Active; 'I' for Inactive)
REMARK    1  A    between atoms: C5_5  and  C10_10 
REMARK    2  A    between atoms: C6_6  and  C7_7 
REMARK    3  A    between atoms: C6_6  and  C10_10 
REMARK    4  A    between atoms: C7_7  and  C11_11 
REMARK    5  A    between atoms: C8_8  and  C9_9 
REMARK    6  A    between atoms: C8_8  and  C11_11 
ROOT
HETATM    1  C7  UNL     1     -32.894   7.428   2.426  1.00 20.00     0.020 C 
ENDROOT
BRANCH   1   2
HETATM    2  C6  UNL     1     -31.847   8.542   2.581  1.00 20.00     0.005 C 
BRANCH   2   3
HETATM    3  C10 UNL     1     -31.900   9.582   1.442  1.00 20.00    -0.019 C 
HETATM    4  C4  UNL     1     -32.961  10.658   1.696  1.00 20.00     0.010 C 
BRANCH   3   5
HETATM    5  C5  UNL     1     -32.098   8.909   0.067  1.00 20.00    -0.000 C 
HETATM    6  C1  UNL     1     -33.287   9.411  -0.740  1.00 20.00     0.005 C 
ENDBRANCH   3   5
ENDBRANCH   2   3
ENDBRANCH   1   2
BRANCH   1   7
HETATM    7  C11 UNL     1     -33.229   6.716   3.748  1.00 20.00     0.082 C 
HETATM    8 CL12 UNL     1     -32.986   7.830   5.140  1.00 20.00    -0.125 Cl
BRANCH   7   9
HETATM    9  C8  UNL     1     -34.679   6.204   3.811  1.00 20.00     0.024 C 
BRANCH   9  10
HETATM   10  C9  UNL     1     -34.896   4.887   4.584  1.00 20.00    -0.021 C 
HETATM   11  C2  UNL     1     -34.709   5.055   6.092  1.00 20.00     0.009 C 
HETATM   12  C3  UNL     1     -33.932   3.818   4.061  1.00 20.00     0.009 C 
ENDBRANCH   9  10
ENDBRANCH   7   9
ENDBRANCH   1   7
TORSDOF 6
ENDMDL
MODEL 6
REMARK VINA RESULT:      -5.0      1.660      5.048
REMARK  6 active torsions:
REMARK  status: ('A' for Active; 'I' for Inactive)
REMARK    1  A    between atoms: C5_5  and  C10_10 
REMARK    2  A    between atoms: C6_6  and  C7_7 
REMARK    3  A    between atoms: C6_6  and  C10_10 
REMARK    4  A    between atoms: C7_7  and  C11_11 
REMARK    5  A    between atoms: C8_8  and  C9_9 
REMARK    6  A    between atoms: C8_8  and  C11_11 
ROOT
HETATM    1  C7  UNL     1     -32.410   8.364   4.088  1.00 20.00     0.020 C 
ENDROOT
BRANCH   1   2
HETATM    2  C6  UNL     1     -31.484   8.061   2.899  1.00 20.00     0.005 C 
BRANCH   2   3
HETATM    3  C10 UNL     1     -32.141   8.352   1.533  1.00 20.00    -0.019 C 
HETATM    4  C4  UNL     1     -31.101   8.592   0.434  1.00 20.00     0.010 C 
BRANCH   3   5
HETATM    5  C5  UNL     1     -33.144   9.522   1.624  1.00 20.00    -0.000 C 
HETATM    6  C1  UNL     1     -32.580  10.894   1.281  1.00 20.00     0.005 C 
ENDBRANCH   3   5
ENDBRANCH   2   3
ENDBRANCH   1   2
BRANCH   1   7
HETATM    7  C11 UNL     1     -33.132   7.120   4.633  1.00 20.00     0.082 C 
HETATM    8 CL12 UNL     1     -33.822   7.458   6.260  1.00 20.00    -0.125 Cl
BRANCH   7   9
HETATM    9  C8  UNL     1     -34.283   6.642   3.731  1.00 20.00     0.024 C 
BRANCH   9  10
HETATM   10  C9  UNL     1     -34.284   5.140   3.379  1.00 20.00    -0.021 C 
HETATM   11  C2  UNL     1     -34.449   4.250   4.611  1.00 20.00     0.009 C 
HETATM   12  C3  UNL     1     -32.985   4.780   2.652  1.00 20.00     0.009 C 
ENDBRANCH   9  10
ENDBRANCH   7   9
ENDBRANCH   1   7
TORSDOF 6
ENDMDL
MODEL 7
REMARK VINA RESULT:      -4.4     10.140     11.119
REMARK  6 active torsions:
REMARK  status: ('A' for Active; 'I' for Inactive)
REMARK    1  A    between atoms: C5_5  and  C10_10 
REMARK    2  A    between atoms: C6_6  and  C7_7 
REMARK    3  A    between atoms: C6_6  and  C10_10 
REMARK    4  A    between atoms: C7_7  and  C11_11 
REMARK    5  A    between atoms: C8_8  and  C9_9 
REMARK    6  A    between atoms: C8_8  and  C11_11 
ROOT
HETATM    1  C7  UNL     1     -33.677  16.208  -3.872  1.00 20.00     0.020 C 
ENDROOT
BRANCH   1   2
HETATM    2  C6  UNL     1     -34.753  16.341  -2.783  1.00 20.00     0.005 C 
BRANCH   2   3
HETATM    3  C10 UNL     1     -34.216  16.962  -1.477  1.00 20.00    -0.019 C 
HETATM    4  C4  UNL     1     -35.346  17.441  -0.560  1.00 20.00     0.010 C 
BRANCH   3   5
HETATM    5  C5  UNL     1     -33.203  18.093  -1.760  1.00 20.00    -0.000 C 
HETATM    6  C1  UNL     1     -32.350  18.518  -0.572  1.00 20.00     0.005 C 
ENDBRANCH   3   5
ENDBRANCH   2   3
ENDBRANCH   1   2
BRANCH   1   7
HETATM    7  C11 UNL     1     -33.685  14.841  -4.577  1.00 20.00     0.082 C 
HETATM    8 CL12 UNL     1     -32.211  13.903  -4.145  1.00 20.00    -0.125 Cl
BRANCH   7   9
HETATM    9  C8  UNL     1     -34.907  13.979  -4.214  1.00 20.00     0.024 C 
BRANCH   9  10
HETATM   10  C9  UNL     1     -35.761  13.486  -5.400  1.00 20.00    -0.021 C 
HETATM   11  C2  UNL     1     -35.037  13.625  -6.740  1.00 20.00     0.009 C 
HETATM   12  C3  UNL     1     -37.081  14.261  -5.443  1.00 20.00     0.009 C 
ENDBRANCH   9  10
ENDBRANCH   7   9
ENDBRANCH   1   7
TORSDOF 6
ENDMDL
MODEL 8
REMARK VINA RESULT:      -4.3     10.506     11.475
REMARK  6 active torsions:
REMARK  status: ('A' for Active; 'I' for Inactive)
REMARK    1  A    between atoms: C5_5  and  C10_10 
REMARK    2  A    between atoms: C6_6  and  C7_7 
REMARK    3  A    between atoms: C6_6  and  C10_10 
REMARK    4  A    between atoms: C7_7  and  C11_11 
REMARK    5  A    between atoms: C8_8  and  C9_9 
REMARK    6  A    between atoms: C8_8  and  C11_11 
ROOT
HETATM    1  C7  UNL     1     -33.627  14.449  -4.487  1.00 20.00     0.020 C 
ENDROOT
BRANCH   1   2
HETATM    2  C6  UNL     1     -35.040  13.844  -4.454  1.00 20.00     0.005 C 
BRANCH   2   3
HETATM    3  C10 UNL     1     -35.592  13.524  -5.859  1.00 20.00    -0.019 C 
HETATM    4  C4  UNL     1     -34.544  13.747  -6.953  1.00 20.00     0.010 C 
BRANCH   3   5
HETATM    5  C5  UNL     1     -36.889  14.310  -6.152  1.00 20.00    -0.000 C 
HETATM    6  C1  UNL     1     -37.745  14.634  -4.934  1.00 20.00     0.005 C 
ENDBRANCH   3   5
ENDBRANCH   2   3
ENDBRANCH   1   2
BRANCH   1   7
HETATM    7  C11 UNL     1     -33.577  15.911  -4.013  1.00 20.00     0.082 C 
HETATM    8 CL12 UNL     1     -33.591  17.030  -5.422  1.00 20.00    -0.125 Cl
BRANCH   7   9
HETATM    9  C8  UNL     1     -34.759  16.295  -3.103  1.00 20.00     0.024 C 
BRANCH   9  10
HETATM   10  C9  UNL     1     -34.390  16.753  -1.677  1.00 20.00    -0.021 C 
HETATM   11  C2  UNL     1     -35.574  17.377  -0.939  1.00 20.00     0.009 C 
HETATM   12  C3  UNL     1     -33.234  17.756  -1.741  1.00 20.00     0.009 C 
ENDBRANCH   9  10
ENDBRANCH   7   9
ENDBRANCH   1   7
TORSDOF 6
ENDMDL
MODEL 9
REMARK VINA RESULT:      -4.3     10.388     11.310
REMARK  6 active torsions:
REMARK  status: ('A' for Active; 'I' for Inactive)
REMARK    1  A    between atoms: C5_5  and  C10_10 
REMARK    2  A    between atoms: C6_6  and  C7_7 
REMARK    3  A    between atoms: C6_6  and  C10_10 
REMARK    4  A    between atoms: C7_7  and  C11_11 
REMARK    5  A    between atoms: C8_8  and  C9_9 
REMARK    6  A    between atoms: C8_8  and  C11_11 
ROOT
HETATM    1  C7  UNL     1     -34.744  16.186  -2.758  1.00 20.00     0.020 C 
ENDROOT
BRANCH   1   2
HETATM    2  C6  UNL     1     -33.455  16.937  -2.387  1.00 20.00     0.005 C 
BRANCH   2   3
HETATM    3  C10 UNL     1     -33.686  18.052  -1.344  1.00 20.00    -0.019 C 
HETATM    4  C4  UNL     1     -32.396  18.425  -0.607  1.00 20.00     0.010 C 
BRANCH   3   5
HETATM    5  C5  UNL     1     -34.812  17.680  -0.356  1.00 20.00    -0.000 C 
HETATM    6  C1  UNL     1     -34.663  18.252   1.048  1.00 20.00     0.005 C 
ENDBRANCH   3   5
ENDBRANCH   2   3
ENDBRANCH   1   2
BRANCH   1   7
HETATM    7  C11 UNL     1     -34.736  15.631  -4.192  1.00 20.00     0.082 C 
HETATM    8 CL12 UNL     1     -33.247  16.150  -5.058  1.00 20.00    -0.125 Cl
BRANCH   7   9
HETATM    9  C8  UNL     1     -34.795  14.094  -4.250  1.00 20.00     0.024 C 
BRANCH   9  10
HETATM   10  C9  UNL     1     -35.856  13.495  -5.196  1.00 20.00    -0.021 C 
HETATM   11  C2  UNL     1     -35.376  13.428  -6.646  1.00 20.00     0.009 C 
HETATM   12  C3  UNL     1     -37.143  14.321  -5.116  1.00 20.00     0.009 C 
ENDBRANCH   9  10
ENDBRANCH   7   9
ENDBRANCH   1   7
TORSDOF 6
ENDMDL
