MODEL 1
REMARK VINA RESULT:      -5.1      0.000      0.000
REMARK  2 active torsions:
REMARK  status: ('A' for Active; 'I' for Inactive)
REMARK    1  A    between atoms: C6_6  and  C8_8 
REMARK    2  A    between atoms: C7_7  and  C9_9 
ROOT
HETATM    1  C4  UNL     1     -33.399   7.191   5.136  1.00 20.00     0.034 C 
HETATM    2  C5  UNL     1     -32.413   8.337   5.136  1.00 20.00     0.168 C 
HETATM    3  C7  UNL     1     -33.809   7.143   3.680  1.00 20.00     0.031 C 
HETATM    4  C8  UNL     1     -32.488   7.448   2.979  1.00 20.00     0.130 C 
HETATM    5  O10 UNL     1     -31.734   8.288   3.874  1.00 20.00    -0.385 OA
ENDROOT
BRANCH   4   6
HETATM    6  C6  UNL     1     -32.698   8.192   1.670  1.00 20.00     0.015 C 
HETATM    7  C2  UNL     1     -31.421   8.594   0.887  1.00 20.00     0.007 C 
HETATM    8  C1  UNL     1     -32.158   9.894   0.500  1.00 20.00     0.001 C 
HETATM    9  C3  UNL     1     -33.007   9.708   1.774  1.00 20.00     0.007 C 
ENDBRANCH   4   6
BRANCH   3  10
HETATM   10  C9  UNL     1     -34.432   5.820   3.266  1.00 20.00     0.121 C 
HETATM   11 CL11 UNL     1     -34.671   4.780   4.684  1.00 20.00    -0.130 Cl
ENDBRANCH   3  10
TORSDOF 2
ENDMDL
MODEL 2
REMARK VINA RESULT:      -4.9      2.500      4.226
REMARK  2 active torsions:
REMARK  status: ('A' for Active; 'I' for Inactive)
REMARK    1  A    between atoms: C6_6  and  C8_8 
REMARK    2  A    between atoms: C7_7  and  C9_9 
ROOT
HETATM    1  C4  UNL     1     -31.470   8.768   2.587  1.00 20.00     0.034 C 
HETATM    2  C5  UNL     1     -31.321   8.172   3.969  1.00 20.00     0.168 C 
HETATM    3  C7  UNL     1     -32.543   7.884   1.989  1.00 20.00     0.031 C 
HETATM    4  C8  UNL     1     -33.461   7.661   3.189  1.00 20.00     0.130 C 
HETATM    5  O10 UNL     1     -32.625   7.724   4.361  1.00 20.00    -0.385 OA
ENDROOT
BRANCH   4   6
HETATM    6  C6  UNL     1     -34.137   6.300   3.142  1.00 20.00     0.015 C 
HETATM    7  C2  UNL     1     -34.560   5.687   4.503  1.00 20.00     0.007 C 
HETATM    8  C1  UNL     1     -34.162   4.313   3.923  1.00 20.00     0.001 C 
HETATM    9  C3  UNL     1     -33.208   5.069   2.975  1.00 20.00     0.007 C 
ENDBRANCH   4   6
BRANCH   3  10
HETATM   10  C9  UNL     1     -33.241   8.501   0.789  1.00 20.00     0.121 C 
HETATM   11 CL11 UNL     1     -32.714  10.181   0.564  1.00 20.00    -0.130 Cl
ENDBRANCH   3  10
TORSDOF 2
ENDMDL
MODEL 3
REMARK VINA RESULT:      -4.4     10.716     11.430
REMARK  2 active torsions:
REMARK  status: ('A' for Active; 'I' for Inactive)
REMARK    1  A    between atoms: C6_6  and  C8_8 
REMARK    2  A    between atoms: C7_7  and  C9_9 
ROOT
HETATM    1  C4  UNL     1     -34.173  14.659  -6.540  1.00 20.00     0.034 C 
HETATM    2  C5  UNL     1     -33.336  15.898  -6.315  1.00 20.00     0.168 C 
HETATM    3  C7  UNL     1     -34.655  14.358  -5.137  1.00 20.00     0.031 C 
HETATM    4  C8  UNL     1     -34.904  15.762  -4.591  1.00 20.00     0.130 C 
HETATM    5  O10 UNL     1     -33.976  16.634  -5.264  1.00 20.00    -0.385 OA
ENDROOT
BRANCH   4   6
HETATM    6  C6  UNL     1     -34.654  15.842  -3.093  1.00 20.00     0.015 C 
HETATM    7  C2  UNL     1     -35.669  16.670  -2.262  1.00 20.00     0.007 C 
HETATM    8  C1  UNL     1     -34.475  17.129  -1.399  1.00 20.00     0.001 C 
HETATM    9  C3  UNL     1     -33.576  16.853  -2.622  1.00 20.00     0.007 C 
ENDBRANCH   4   6
BRANCH   3  10
HETATM   10  C9  UNL     1     -35.877  13.457  -5.092  1.00 20.00     0.121 C 
HETATM   11 CL11 UNL     1     -37.358  14.428  -4.980  1.00 20.00    -0.130 Cl
ENDBRANCH   3  10
TORSDOF 2
ENDMDL
MODEL 4
REMARK VINA RESULT:      -4.3     10.516     11.634
REMARK  2 active torsions:
REMARK  status: ('A' for Active; 'I' for Inactive)
REMARK    1  A    between atoms: C6_6  and  C8_8 
REMARK    2  A    between atoms: C7_7  and  C9_9 
ROOT
HETATM    1  C4  UNL     1     -33.556  16.601  -5.830  1.00 20.00     0.034 C 
HETATM    2  C5  UNL     1     -33.929  18.004  -5.407  1.00 20.00     0.168 C 
HETATM    3  C7  UNL     1     -33.347  15.926  -4.492  1.00 20.00     0.031 C 
HETATM    4  C8  UNL     1     -34.456  16.557  -3.653  1.00 20.00     0.130 C 
HETATM    5  O10 UNL     1     -34.674  17.876  -4.188  1.00 20.00    -0.385 OA
ENDROOT
BRANCH   4   6
HETATM    6  C6  UNL     1     -34.061  16.680  -2.190  1.00 20.00     0.015 C 
HETATM    7  C2  UNL     1     -35.182  17.093  -1.200  1.00 20.00     0.007 C 
HETATM    8  C1  UNL     1     -34.112  17.909  -0.445  1.00 20.00     0.001 C 
HETATM    9  C3  UNL     1     -33.334  17.985  -1.775  1.00 20.00     0.007 C 
ENDBRANCH   4   6
BRANCH   3  10
HETATM   10  C9  UNL     1     -33.415  14.409  -4.558  1.00 20.00     0.121 C 
HETATM   11 CL11 UNL     1     -35.103  13.863  -4.486  1.00 20.00    -0.130 Cl
ENDBRANCH   3  10
TORSDOF 2
ENDMDL
MODEL 5
REMARK VINA RESULT:      -4.3      1.957      2.840
REMARK  2 active torsions:
REMARK  status: ('A' for Active; 'I' for Inactive)
REMARK    1  A    between atoms: C6_6  and  C8_8 
REMARK    2  A    between atoms: C7_7  and  C9_9 
ROOT
HETATM    1  C4  UNL     1     -33.865   4.315   3.991  1.00 20.00     0.034 C 
HETATM    2  C5  UNL     1     -33.329   4.402   2.579  1.00 20.00     0.168 C 
HETATM    3  C7  UNL     1     -33.695   5.740   4.470  1.00 20.00     0.031 C 
HETATM    4  C8  UNL     1     -34.048   6.531   3.212  1.00 20.00     0.130 C 
HETATM    5  O10 UNL     1     -33.681   5.704   2.092  1.00 20.00    -0.385 OA
ENDROOT
BRANCH   4   6
HETATM    6  C6  UNL     1     -33.279   7.839   3.128  1.00 20.00     0.015 C 
HETATM    7  C2  UNL     1     -32.697   8.216   1.741  1.00 20.00     0.007 C 
HETATM    8  C1  UNL     1     -31.477   8.790   2.491  1.00 20.00     0.001 C 
HETATM    9  C3  UNL     1     -31.815   7.818   3.639  1.00 20.00     0.007 C 
ENDBRANCH   4   6
BRANCH   3  10
HETATM   10  C9  UNL     1     -34.554   6.085   5.674  1.00 20.00     0.121 C 
HETATM   11 CL11 UNL     1     -33.974   7.577   6.440  1.00 20.00    -0.130 Cl
ENDBRANCH   3  10
TORSDOF 2
ENDMDL
MODEL 6
REMARK VINA RESULT:      -4.3     10.403     11.220
REMARK  2 active torsions:
REMARK  status: ('A' for Active; 'I' for Inactive)
REMARK    1  A    between atoms: C6_6  and  C8_8 
REMARK    2  A    between atoms: C7_7  and  C9_9 
ROOT
HETATM    1  C4  UNL     1     -33.685  15.796  -3.681  1.00 20.00     0.034 C 
HETATM    2  C5  UNL     1     -32.880  14.810  -4.498  1.00 20.00     0.168 C 
HETATM    3  C7  UNL     1     -35.065  15.632  -4.281  1.00 20.00     0.031 C 
HETATM    4  C8  UNL     1     -35.112  14.128  -4.536  1.00 20.00     0.130 C 
HETATM    5  O10 UNL     1     -33.756  13.712  -4.787  1.00 20.00    -0.385 OA
ENDROOT
BRANCH   4   6
HETATM    6  C6  UNL     1     -35.962  13.784  -5.748  1.00 20.00     0.015 C 
HETATM    7  C2  UNL     1     -35.224  13.155  -6.959  1.00 20.00     0.007 C 
HETATM    8  C1  UNL     1     -36.175  13.965  -7.865  1.00 20.00     0.001 C 
HETATM    9  C3  UNL     1     -36.332  14.956  -6.693  1.00 20.00     0.007 C 
ENDBRANCH   4   6
BRANCH   3  10
HETATM   10  C9  UNL     1     -36.182  16.138  -3.384  1.00 20.00     0.121 C 
HETATM   11 CL11 UNL     1     -35.530  16.652  -1.815  1.00 20.00    -0.130 Cl
ENDBRANCH   3  10
TORSDOF 2
ENDMDL
MODEL 7
REMARK VINA RESULT:      -4.2     10.345     11.076
REMARK  2 active torsions:
REMARK  status: ('A' for Active; 'I' for Inactive)
REMARK    1  A    between atoms: C6_6  and  C8_8 
REMARK    2  A    between atoms: C7_7  and  C9_9 
ROOT
HETATM    1  C4  UNL     1     -35.000  14.238  -4.605  1.00 20.00     0.034 C 
HETATM    2  C5  UNL     1     -33.546  14.446  -4.244  1.00 20.00     0.168 C 
HETATM    3  C7  UNL     1     -35.668  15.355  -3.831  1.00 20.00     0.031 C 
HETATM    4  C8  UNL     1     -34.653  16.486  -3.987  1.00 20.00     0.130 C 
HETATM    5  O10 UNL     1     -33.360  15.862  -4.108  1.00 20.00    -0.385 OA
ENDROOT
BRANCH   4   6
HETATM    6  C6  UNL     1     -34.640  17.408  -2.779  1.00 20.00     0.015 C 
HETATM    7  C2  UNL     1     -33.302  17.518  -2.003  1.00 20.00     0.007 C 
HETATM    8  C1  UNL     1     -34.144  17.604  -0.712  1.00 20.00     0.001 C 
HETATM    9  C3  UNL     1     -35.254  16.847  -1.470  1.00 20.00     0.007 C 
ENDBRANCH   4   6
BRANCH   3  10
HETATM   10  C9  UNL     1     -37.056  15.703  -4.339  1.00 20.00     0.121 C 
HETATM   11 CL11 UNL     1     -37.806  14.287  -5.103  1.00 20.00    -0.130 Cl
ENDBRANCH   3  10
TORSDOF 2
ENDMDL
MODEL 8
REMARK VINA RESULT:      -4.1     10.649     11.337
REMARK  2 active torsions:
REMARK  status: ('A' for Active; 'I' for Inactive)
REMARK    1  A    between atoms: C6_6  and  C8_8 
REMARK    2  A    between atoms: C7_7  and  C9_9 
ROOT
HETATM    1  C4  UNL     1     -35.503  15.071  -5.707  1.00 20.00     0.034 C 
HETATM    2  C5  UNL     1     -36.793  15.291  -4.949  1.00 20.00     0.168 C 
HETATM    3  C7  UNL     1     -34.546  15.960  -4.942  1.00 20.00     0.031 C 
HETATM    4  C8  UNL     1     -35.018  15.754  -3.505  1.00 20.00     0.130 C 
HETATM    5  O10 UNL     1     -36.429  15.473  -3.574  1.00 20.00    -0.385 OA
ENDROOT
BRANCH   4   6
HETATM    6  C6  UNL     1     -34.807  16.996  -2.654  1.00 20.00     0.015 C 
HETATM    7  C2  UNL     1     -33.415  17.155  -1.989  1.00 20.00     0.007 C 
HETATM    8  C1  UNL     1     -34.147  17.755  -0.771  1.00 20.00     0.001 C 
HETATM    9  C3  UNL     1     -35.392  16.962  -1.218  1.00 20.00     0.007 C 
ENDBRANCH   4   6
BRANCH   3  10
HETATM   10  C9  UNL     1     -33.084  15.612  -5.163  1.00 20.00     0.121 C 
HETATM   11 CL11 UNL     1     -32.650  14.155  -4.247  1.00 20.00    -0.130 Cl
ENDBRANCH   3  10
TORSDOF 2
ENDMDL
MODEL 9
REMARK VINA RESULT:      -4.1     11.060     12.321
REMARK  2 active torsions:
REMARK  status: ('A' for Active; 'I' for Inactive)
REMARK    1  A    between atoms: C6_6  and  C8_8 
REMARK    2  A    between atoms: C7_7  and  C9_9 
ROOT
HETATM    1  C4  UNL     1     -34.663  14.751  -7.823  1.00 20.00     0.034 C 
HETATM    2  C5  UNL     1     -35.020  13.392  -7.264  1.00 20.00     0.168 C 
HETATM    3  C7  UNL     1     -34.596  15.589  -6.564  1.00 20.00     0.031 C 
HETATM    4  C8  UNL     1     -33.962  14.612  -5.578  1.00 20.00     0.130 C 
HETATM    5  O10 UNL     1     -34.367  13.292  -5.992  1.00 20.00    -0.385 OA
ENDROOT
BRANCH   4   6
HETATM    6  C6  UNL     1     -34.442  14.848  -4.155  1.00 20.00     0.015 C 
HETATM    7  C2  UNL     1     -35.809  15.563  -3.993  1.00 20.00     0.007 C 
HETATM    8  C1  UNL     1     -35.206  16.275  -2.764  1.00 20.00     0.001 C 
HETATM    9  C3  UNL     1     -33.820  16.052  -3.403  1.00 20.00     0.007 C 
ENDBRANCH   4   6
BRANCH   3  10
HETATM   10  C9  UNL     1     -33.816  16.882  -6.734  1.00 20.00     0.121 C 
HETATM   11 CL11 UNL     1     -34.788  18.265  -6.193  1.00 20.00    -0.130 Cl
ENDBRANCH   3  10
TORSDOF 2
ENDMDL
