MODEL 1
REMARK VINA RESULT:      -5.0      0.000      0.000
REMARK  3 active torsions:
REMARK  status: ('A' for Active; 'I' for Inactive)
REMARK    1  A    between atoms: C5_5  and  C8_8 
REMARK    2  A    between atoms: C6_6  and  C8_8 
REMARK    3  A    between atoms: C8_8  and  O9_9 
ROOT
HETATM    1  C8  UNL     1     -33.431   6.713   4.805  1.00 20.00     0.130 C 
ENDROOT
BRANCH   1   2
HETATM    2  C5  UNL     1     -33.204   7.649   3.619  1.00 20.00     0.015 A 
HETATM    3  C1  UNL     1     -31.817   8.123   3.282  1.00 20.00     0.007 A 
HETATM    4  C2  UNL     1     -32.519   7.147   2.379  1.00 20.00     0.007 A 
ENDBRANCH   1   2
BRANCH   1   5
HETATM    5  C6  UNL     1     -34.473   5.667   4.522  1.00 20.00    -0.018 A 
HETATM    6  C3  UNL     1     -34.788   4.668   5.609  1.00 20.00     0.012 A 
HETATM    7  C4  UNL     1     -34.020   4.231   4.394  1.00 20.00     0.012 A 
HETATM    8  C7  UNL     1     -35.601   6.131   3.641  1.00 20.00     0.018 C 
ENDBRANCH   1   5
BRANCH   1   9
HETATM    9  O9  UNL     1     -33.824   7.497   5.935  1.00 20.00    -0.394 OA
HETATM   10  H23 UNL     1     -33.064   7.510   6.534  1.00 20.00     0.210 HD
ENDBRANCH   1   9
TORSDOF 3
ENDMDL
MODEL 2
REMARK VINA RESULT:      -4.7      1.710      2.184
REMARK  3 active torsions:
REMARK  status: ('A' for Active; 'I' for Inactive)
REMARK    1  A    between atoms: C5_5  and  C8_8 
REMARK    2  A    between atoms: C6_6  and  C8_8 
REMARK    3  A    between atoms: C8_8  and  O9_9 
ROOT
HETATM    1  C8  UNL     1     -33.307   6.445   2.865  1.00 20.00     0.130 C 
ENDROOT
BRANCH   1   2
HETATM    2  C5  UNL     1     -32.366   7.646   2.944  1.00 20.00     0.015 A 
HETATM    3  C1  UNL     1     -31.662   8.140   1.710  1.00 20.00     0.007 A 
HETATM    4  C2  UNL     1     -32.760   8.960   2.328  1.00 20.00     0.007 A 
ENDBRANCH   1   2
BRANCH   1   5
HETATM    5  C6  UNL     1     -34.108   6.258   4.124  1.00 20.00    -0.018 A 
HETATM    6  C3  UNL     1     -34.553   4.860   4.479  1.00 20.00     0.012 A 
HETATM    7  C4  UNL     1     -35.560   5.861   3.989  1.00 20.00     0.012 A 
HETATM    8  C7  UNL     1     -33.732   7.186   5.247  1.00 20.00     0.018 C 
ENDBRANCH   1   5
BRANCH   1   9
HETATM    9  O9  UNL     1     -32.530   5.273   2.605  1.00 20.00    -0.394 OA
HETATM   10  H23 UNL     1     -32.350   4.871   3.467  1.00 20.00     0.210 HD
ENDBRANCH   1   9
TORSDOF 3
ENDMDL
MODEL 3
REMARK VINA RESULT:      -4.4      1.021      3.606
REMARK  3 active torsions:
REMARK  status: ('A' for Active; 'I' for Inactive)
REMARK    1  A    between atoms: C5_5  and  C8_8 
REMARK    2  A    between atoms: C6_6  and  C8_8 
REMARK    3  A    between atoms: C8_8  and  O9_9 
ROOT
HETATM    1  C8  UNL     1     -33.469   7.249   4.436  1.00 20.00     0.130 C 
ENDROOT
BRANCH   1   2
HETATM    2  C5  UNL     1     -33.823   5.836   4.896  1.00 20.00     0.015 A 
HETATM    3  C1  UNL     1     -34.839   5.625   5.984  1.00 20.00     0.007 A 
HETATM    4  C2  UNL     1     -35.167   5.247   4.567  1.00 20.00     0.007 A 
ENDBRANCH   1   2
BRANCH   1   5
HETATM    5  C6  UNL     1     -32.731   7.260   3.125  1.00 20.00    -0.018 A 
HETATM    6  C3  UNL     1     -31.541   8.179   2.989  1.00 20.00     0.012 A 
HETATM    7  C4  UNL     1     -32.820   8.504   2.272  1.00 20.00     0.012 A 
HETATM    8  C7  UNL     1     -32.678   5.928   2.427  1.00 20.00     0.018 C 
ENDBRANCH   1   5
BRANCH   1   9
HETATM    9  O9  UNL     1     -32.671   7.871   5.447  1.00 20.00    -0.394 OA
HETATM   10  H23 UNL     1     -32.907   7.439   6.281  1.00 20.00     0.210 HD
ENDBRANCH   1   9
TORSDOF 3
ENDMDL
MODEL 4
REMARK VINA RESULT:      -4.2      2.190      2.866
REMARK  3 active torsions:
REMARK  status: ('A' for Active; 'I' for Inactive)
REMARK    1  A    between atoms: C5_5  and  C8_8 
REMARK    2  A    between atoms: C6_6  and  C8_8 
REMARK    3  A    between atoms: C8_8  and  O9_9 
ROOT
HETATM    1  C8  UNL     1     -32.208   7.802   2.462  1.00 20.00     0.130 C 
ENDROOT
BRANCH   1   2
HETATM    2  C5  UNL     1     -32.942   8.936   1.748  1.00 20.00     0.015 A 
HETATM    3  C1  UNL     1     -32.169  10.065   1.124  1.00 20.00     0.007 A 
HETATM    4  C2  UNL     1     -32.869   9.061   0.251  1.00 20.00     0.007 A 
ENDBRANCH   1   2
BRANCH   1   5
HETATM    5  C6  UNL     1     -33.149   6.843   3.137  1.00 20.00    -0.018 A 
HETATM    6  C3  UNL     1     -32.962   5.367   2.880  1.00 20.00     0.012 A 
HETATM    7  C4  UNL     1     -34.132   6.087   2.273  1.00 20.00     0.012 A 
HETATM    8  C7  UNL     1     -33.598   7.269   4.508  1.00 20.00     0.018 C 
ENDBRANCH   1   5
BRANCH   1   9
HETATM    9  O9  UNL     1     -31.320   8.371   3.427  1.00 20.00    -0.394 OA
HETATM   10  H23 UNL     1     -31.790   8.349   4.273  1.00 20.00     0.210 HD
ENDBRANCH   1   9
TORSDOF 3
ENDMDL
MODEL 5
REMARK VINA RESULT:      -4.1      1.179      1.677
REMARK  3 active torsions:
REMARK  status: ('A' for Active; 'I' for Inactive)
REMARK    1  A    between atoms: C5_5  and  C8_8 
REMARK    2  A    between atoms: C6_6  and  C8_8 
REMARK    3  A    between atoms: C8_8  and  O9_9 
ROOT
HETATM    1  C8  UNL     1     -33.271   6.950   4.028  1.00 20.00     0.130 C 
ENDROOT
BRANCH   1   2
HETATM    2  C5  UNL     1     -32.253   7.270   2.935  1.00 20.00     0.015 A 
HETATM    3  C1  UNL     1     -32.481   8.427   2.002  1.00 20.00     0.007 A 
HETATM    4  C2  UNL     1     -31.393   8.499   3.037  1.00 20.00     0.007 A 
ENDBRANCH   1   2
BRANCH   1   5
HETATM    5  C6  UNL     1     -33.936   5.617   3.822  1.00 20.00    -0.018 A 
HETATM    6  C3  UNL     1     -35.430   5.531   4.024  1.00 20.00     0.012 A 
HETATM    7  C4  UNL     1     -34.504   4.914   5.033  1.00 20.00     0.012 A 
HETATM    8  C7  UNL     1     -33.321   4.771   2.740  1.00 20.00     0.018 C 
ENDBRANCH   1   5
BRANCH   1   9
HETATM    9  O9  UNL     1     -34.257   7.986   4.050  1.00 20.00    -0.394 OA
HETATM   10  H23 UNL     1     -33.777   8.813   4.202  1.00 20.00     0.210 HD
ENDBRANCH   1   9
TORSDOF 3
ENDMDL
MODEL 6
REMARK VINA RESULT:      -4.0      1.685      3.872
REMARK  3 active torsions:
REMARK  status: ('A' for Active; 'I' for Inactive)
REMARK    1  A    between atoms: C5_5  and  C8_8 
REMARK    2  A    between atoms: C6_6  and  C8_8 
REMARK    3  A    between atoms: C8_8  and  O9_9 
ROOT
HETATM    1  C8  UNL     1     -33.468   6.072   3.328  1.00 20.00     0.130 C 
ENDROOT
BRANCH   1   2
HETATM    2  C5  UNL     1     -34.625   5.694   4.251  1.00 20.00     0.015 A 
HETATM    3  C1  UNL     1     -34.735   4.296   4.795  1.00 20.00     0.007 A 
HETATM    4  C2  UNL     1     -34.375   5.433   5.711  1.00 20.00     0.007 A 
ENDBRANCH   1   2
BRANCH   1   5
HETATM    5  C6  UNL     1     -32.902   7.429   3.642  1.00 20.00    -0.018 A 
HETATM    6  C3  UNL     1     -32.805   8.434   2.519  1.00 20.00     0.012 A 
HETATM    7  C4  UNL     1     -31.558   7.790   3.053  1.00 20.00     0.012 A 
HETATM    8  C7  UNL     1     -33.227   7.939   5.019  1.00 20.00     0.018 C 
ENDBRANCH   1   5
BRANCH   1   9
HETATM    9  O9  UNL     1     -33.935   6.042   1.977  1.00 20.00    -0.394 OA
HETATM   10  H23 UNL     1     -34.445   5.224   1.885  1.00 20.00     0.210 HD
ENDBRANCH   1   9
TORSDOF 3
ENDMDL
MODEL 7
REMARK VINA RESULT:      -4.0      1.830      4.070
REMARK  3 active torsions:
REMARK  status: ('A' for Active; 'I' for Inactive)
REMARK    1  A    between atoms: C5_5  and  C8_8 
REMARK    2  A    between atoms: C6_6  and  C8_8 
REMARK    3  A    between atoms: C8_8  and  O9_9 
ROOT
HETATM    1  C8  UNL     1     -33.038   6.737   3.293  1.00 20.00     0.130 C 
ENDROOT
BRANCH   1   2
HETATM    2  C5  UNL     1     -34.070   7.072   4.368  1.00 20.00     0.015 A 
HETATM    3  C1  UNL     1     -34.463   6.040   5.389  1.00 20.00     0.007 A 
HETATM    4  C2  UNL     1     -33.645   7.233   5.802  1.00 20.00     0.007 A 
ENDBRANCH   1   2
BRANCH   1   5
HETATM    5  C6  UNL     1     -32.252   7.942   2.855  1.00 20.00    -0.018 A 
HETATM    6  C3  UNL     1     -32.931   8.939   1.946  1.00 20.00     0.012 A 
HETATM    7  C4  UNL     1     -31.859   8.041   1.399  1.00 20.00     0.012 A 
HETATM    8  C7  UNL     1     -31.288   8.467   3.883  1.00 20.00     0.018 C 
ENDBRANCH   1   5
BRANCH   1   9
HETATM    9  O9  UNL     1     -33.718   6.167   2.171  1.00 20.00    -0.394 OA
HETATM   10  H23 UNL     1     -33.628   5.207   2.259  1.00 20.00     0.210 HD
ENDBRANCH   1   9
TORSDOF 3
ENDMDL
MODEL 8
REMARK VINA RESULT:      -3.9      2.365      4.663
REMARK  3 active torsions:
REMARK  status: ('A' for Active; 'I' for Inactive)
REMARK    1  A    between atoms: C5_5  and  C8_8 
REMARK    2  A    between atoms: C6_6  and  C8_8 
REMARK    3  A    between atoms: C8_8  and  O9_9 
ROOT
HETATM    1  C8  UNL     1     -32.528   8.376   2.683  1.00 20.00     0.130 C 
ENDROOT
BRANCH   1   2
HETATM    2  C5  UNL     1     -32.766   6.870   2.580  1.00 20.00     0.015 A 
HETATM    3  C1  UNL     1     -33.588   6.159   3.619  1.00 20.00     0.007 A 
HETATM    4  C2  UNL     1     -34.128   6.341   2.227  1.00 20.00     0.007 A 
ENDBRANCH   1   2
BRANCH   1   5
HETATM    5  C6  UNL     1     -32.265   9.010   1.345  1.00 20.00    -0.018 A 
HETATM    6  C3  UNL     1     -32.432  10.506   1.224  1.00 20.00     0.012 A 
HETATM    7  C4  UNL     1     -33.440   9.589   0.591  1.00 20.00     0.012 A 
HETATM    8  C7  UNL     1     -31.170   8.355   0.548  1.00 20.00     0.018 C 
ENDBRANCH   1   5
BRANCH   1   9
HETATM    9  O9  UNL     1     -31.418   8.603   3.554  1.00 20.00    -0.394 OA
HETATM   10  H23 UNL     1     -31.666   9.349   4.120  1.00 20.00     0.210 HD
ENDBRANCH   1   9
TORSDOF 3
ENDMDL
MODEL 9
REMARK VINA RESULT:      -3.9     11.964     12.820
REMARK  3 active torsions:
REMARK  status: ('A' for Active; 'I' for Inactive)
REMARK    1  A    between atoms: C5_5  and  C8_8 
REMARK    2  A    between atoms: C6_6  and  C8_8 
REMARK    3  A    between atoms: C8_8  and  O9_9 
ROOT
HETATM    1  C8  UNL     1     -33.794  14.700  -4.992  1.00 20.00     0.130 C 
ENDROOT
BRANCH   1   2
HETATM    2  C5  UNL     1     -34.406  15.217  -3.692  1.00 20.00     0.015 A 
HETATM    3  C1  UNL     1     -33.815  16.413  -2.997  1.00 20.00     0.007 A 
HETATM    4  C2  UNL     1     -35.154  16.522  -3.672  1.00 20.00     0.007 A 
ENDBRANCH   1   2
BRANCH   1   5
HETATM    5  C6  UNL     1     -34.827  14.151  -5.936  1.00 20.00    -0.018 A 
HETATM    6  C3  UNL     1     -34.365  13.671  -7.291  1.00 20.00     0.012 A 
HETATM    7  C4  UNL     1     -35.146  14.949  -7.180  1.00 20.00     0.012 A 
HETATM    8  C7  UNL     1     -35.951  13.406  -5.269  1.00 20.00     0.018 C 
ENDBRANCH   1   5
BRANCH   1   9
HETATM    9  O9  UNL     1     -32.839  13.684  -4.673  1.00 20.00    -0.394 OA
HETATM   10  H23 UNL     1     -32.383  13.982  -3.873  1.00 20.00     0.210 HD
ENDBRANCH   1   9
TORSDOF 3
ENDMDL
