MODEL 1
REMARK VINA RESULT:      -6.0      0.000      0.000
REMARK  1 active torsions:
REMARK  status: ('A' for Active; 'I' for Inactive)
REMARK    1  A    between atoms: C8_8  and  C9_9 
ROOT
HETATM    1  C1  UNL     1     -34.403   5.982   5.799  1.00 20.00     0.074 C 
HETATM    2  C2  UNL     1     -33.675   7.101   5.743  1.00 20.00     0.139 C 
HETATM    3  C3  UNL     1     -34.481   5.149   4.580  1.00 20.00     0.153 C 
HETATM    4  C4  UNL     1     -33.625   5.577   3.414  1.00 20.00     0.116 C 
HETATM    5  C9  UNL     1     -33.541   7.101   3.399  1.00 20.00     0.139 C 
HETATM    6  O10 UNL     1     -35.156   4.124   4.563  1.00 20.00    -0.293 OA
HETATM    7  O11 UNL     1     -33.048   7.621   4.642  1.00 20.00    -0.357 OA
ENDROOT
BRANCH   5   8
HETATM    8  C8  UNL     1     -32.598   7.552   2.303  1.00 20.00     0.015 C 
HETATM    9  C6  UNL     1     -31.538   8.615   2.692  1.00 20.00     0.007 C 
HETATM   10  C5  UNL     1     -31.742   9.224   1.289  1.00 20.00     0.001 C 
HETATM   11  C7  UNL     1     -33.151   8.597   1.298  1.00 20.00     0.007 C 
ENDBRANCH   5   8
TORSDOF 1
ENDMDL
MODEL 2
REMARK VINA RESULT:      -5.5      1.452      2.151
REMARK  1 active torsions:
REMARK  status: ('A' for Active; 'I' for Inactive)
REMARK    1  A    between atoms: C8_8  and  C9_9 
ROOT
HETATM    1  C1  UNL     1     -34.346   5.665   4.186  1.00 20.00     0.074 C 
HETATM    2  C2  UNL     1     -34.033   5.708   2.888  1.00 20.00     0.139 C 
HETATM    3  C3  UNL     1     -33.930   6.802   5.033  1.00 20.00     0.153 C 
HETATM    4  C4  UNL     1     -33.294   7.973   4.327  1.00 20.00     0.116 C 
HETATM    5  C9  UNL     1     -32.482   7.452   3.145  1.00 20.00     0.139 C 
HETATM    6  O10 UNL     1     -34.166   6.806   6.238  1.00 20.00    -0.293 OA
HETATM    7  O11 UNL     1     -33.282   6.663   2.253  1.00 20.00    -0.357 OA
ENDROOT
BRANCH   5   8
HETATM    8  C8  UNL     1     -31.922   8.616   2.354  1.00 20.00     0.015 C 
HETATM    9  C6  UNL     1     -32.944   9.660   1.834  1.00 20.00     0.007 C 
HETATM   10  C5  UNL     1     -32.073   9.772   0.565  1.00 20.00     0.001 C 
HETATM   11  C7  UNL     1     -31.575   8.343   0.867  1.00 20.00     0.007 C 
ENDBRANCH   5   8
TORSDOF 1
ENDMDL
MODEL 3
REMARK VINA RESULT:      -5.3      1.561      4.466
REMARK  1 active torsions:
REMARK  status: ('A' for Active; 'I' for Inactive)
REMARK    1  A    between atoms: C8_8  and  C9_9 
ROOT
HETATM    1  C1  UNL     1     -31.417   8.932   2.486  1.00 20.00     0.074 C 
HETATM    2  C2  UNL     1     -31.438   8.388   3.706  1.00 20.00     0.139 C 
HETATM    3  C3  UNL     1     -32.543   8.626   1.577  1.00 20.00     0.153 C 
HETATM    4  C4  UNL     1     -33.680   7.824   2.157  1.00 20.00     0.116 C 
HETATM    5  C9  UNL     1     -33.116   6.836   3.174  1.00 20.00     0.139 C 
HETATM    6  O10 UNL     1     -32.565   9.075   0.435  1.00 20.00    -0.293 OA
HETATM    7  O11 UNL     1     -32.355   7.495   4.195  1.00 20.00    -0.357 OA
ENDROOT
BRANCH   5   8
HETATM    8  C8  UNL     1     -34.249   6.092   3.850  1.00 20.00     0.015 C 
HETATM    9  C6  UNL     1     -34.347   6.227   5.392  1.00 20.00     0.007 C 
HETATM   10  C5  UNL     1     -34.793   4.750   5.419  1.00 20.00     0.001 C 
HETATM   11  C7  UNL     1     -34.043   4.572   4.082  1.00 20.00     0.007 C 
ENDBRANCH   5   8
TORSDOF 1
ENDMDL
MODEL 4
REMARK VINA RESULT:      -5.1     11.059     11.764
REMARK  1 active torsions:
REMARK  status: ('A' for Active; 'I' for Inactive)
REMARK    1  A    between atoms: C8_8  and  C9_9 
ROOT
HETATM    1  C1  UNL     1     -37.103  14.181  -5.222  1.00 20.00     0.074 C 
HETATM    2  C2  UNL     1     -37.351  15.197  -4.390  1.00 20.00     0.139 C 
HETATM    3  C3  UNL     1     -35.743  13.600  -5.213  1.00 20.00     0.153 C 
HETATM    4  C4  UNL     1     -34.790  14.129  -4.171  1.00 20.00     0.116 C 
HETATM    5  C9  UNL     1     -35.084  15.609  -3.942  1.00 20.00     0.139 C 
HETATM    6  O10 UNL     1     -35.449  12.683  -5.974  1.00 20.00    -0.293 OA
HETATM    7  O11 UNL     1     -36.452  15.831  -3.573  1.00 20.00    -0.357 OA
ENDROOT
BRANCH   5   8
HETATM    8  C8  UNL     1     -34.212  16.137  -2.822  1.00 20.00     0.015 C 
HETATM    9  C6  UNL     1     -34.943  16.798  -1.625  1.00 20.00     0.007 C 
HETATM   10  C5  UNL     1     -33.775  17.804  -1.561  1.00 20.00     0.001 C 
HETATM   11  C7  UNL     1     -33.537  17.514  -3.058  1.00 20.00     0.007 C 
ENDBRANCH   5   8
TORSDOF 1
ENDMDL
MODEL 5
REMARK VINA RESULT:      -5.0     11.305     12.039
REMARK  1 active torsions:
REMARK  status: ('A' for Active; 'I' for Inactive)
REMARK    1  A    between atoms: C8_8  and  C9_9 
ROOT
HETATM    1  C1  UNL     1     -34.086  14.395  -6.104  1.00 20.00     0.074 C 
HETATM    2  C2  UNL     1     -33.455  15.568  -6.004  1.00 20.00     0.139 C 
HETATM    3  C3  UNL     1     -35.057  14.043  -5.046  1.00 20.00     0.153 C 
HETATM    4  C4  UNL     1     -35.340  15.102  -4.011  1.00 20.00     0.116 C 
HETATM    5  C9  UNL     1     -34.063  15.900  -3.762  1.00 20.00     0.139 C 
HETATM    6  O10 UNL     1     -35.647  12.967  -5.070  1.00 20.00    -0.293 OA
HETATM    7  O11 UNL     1     -33.541  16.465  -4.972  1.00 20.00    -0.357 OA
ENDROOT
BRANCH   5   8
HETATM    8  C8  UNL     1     -34.348  17.040  -2.806  1.00 20.00     0.015 C 
HETATM    9  C6  UNL     1     -33.238  17.380  -1.778  1.00 20.00     0.007 C 
HETATM   10  C5  UNL     1     -34.366  17.672  -0.766  1.00 20.00     0.001 C 
HETATM   11  C7  UNL     1     -35.255  16.716  -1.590  1.00 20.00     0.007 C 
ENDBRANCH   5   8
TORSDOF 1
ENDMDL
MODEL 6
REMARK VINA RESULT:      -4.6     11.408     12.025
REMARK  1 active torsions:
REMARK  status: ('A' for Active; 'I' for Inactive)
REMARK    1  A    between atoms: C8_8  and  C9_9 
ROOT
HETATM    1  C1  UNL     1     -36.092  13.609  -6.195  1.00 20.00     0.074 C 
HETATM    2  C2  UNL     1     -34.790  13.888  -6.309  1.00 20.00     0.139 C 
HETATM    3  C3  UNL     1     -36.829  14.217  -5.067  1.00 20.00     0.153 C 
HETATM    4  C4  UNL     1     -36.068  15.201  -4.214  1.00 20.00     0.116 C 
HETATM    5  C9  UNL     1     -34.609  14.759  -4.137  1.00 20.00     0.139 C 
HETATM    6  O10 UNL     1     -38.020  13.976  -4.895  1.00 20.00    -0.293 OA
HETATM    7  O11 UNL     1     -34.024  14.618  -5.439  1.00 20.00    -0.357 OA
ENDROOT
BRANCH   5   8
HETATM    8  C8  UNL     1     -33.800  15.789  -3.377  1.00 20.00     0.015 C 
HETATM    9  C6  UNL     1     -34.529  16.538  -2.231  1.00 20.00     0.007 C 
HETATM   10  C5  UNL     1     -33.735  17.794  -2.646  1.00 20.00     0.001 C 
HETATM   11  C7  UNL     1     -33.625  17.174  -4.055  1.00 20.00     0.007 C 
ENDBRANCH   5   8
TORSDOF 1
ENDMDL
MODEL 7
REMARK VINA RESULT:      -4.6     11.094     11.964
REMARK  1 active torsions:
REMARK  status: ('A' for Active; 'I' for Inactive)
REMARK    1  A    between atoms: C8_8  and  C9_9 
ROOT
HETATM    1  C1  UNL     1     -34.213  17.913  -0.400  1.00 20.00     0.074 C 
HETATM    2  C2  UNL     1     -35.364  17.314  -0.720  1.00 20.00     0.139 C 
HETATM    3  C3  UNL     1     -33.135  17.916  -1.412  1.00 20.00     0.153 C 
HETATM    4  C4  UNL     1     -33.478  17.348  -2.766  1.00 20.00     0.116 C 
HETATM    5  C9  UNL     1     -34.467  16.201  -2.581  1.00 20.00     0.139 C 
HETATM    6  O10 UNL     1     -32.047  18.427  -1.165  1.00 20.00    -0.293 OA
HETATM    7  O11 UNL     1     -35.639  16.615  -1.866  1.00 20.00    -0.357 OA
ENDROOT
BRANCH   5   8
HETATM    8  C8  UNL     1     -34.911  15.683  -3.934  1.00 20.00     0.015 C 
HETATM    9  C6  UNL     1     -36.415  15.342  -4.088  1.00 20.00     0.007 C 
HETATM   10  C5  UNL     1     -35.980  14.158  -4.977  1.00 20.00     0.001 C 
HETATM   11  C7  UNL     1     -34.629  14.187  -4.232  1.00 20.00     0.007 C 
ENDBRANCH   5   8
TORSDOF 1
ENDMDL
MODEL 8
REMARK VINA RESULT:      -4.6     11.313     11.887
REMARK  1 active torsions:
REMARK  status: ('A' for Active; 'I' for Inactive)
REMARK    1  A    between atoms: C8_8  and  C9_9 
ROOT
HETATM    1  C1  UNL     1     -36.204  14.239  -4.959  1.00 20.00     0.074 C 
HETATM    2  C2  UNL     1     -37.023  15.085  -4.326  1.00 20.00     0.139 C 
HETATM    3  C3  UNL     1     -34.755  14.352  -4.689  1.00 20.00     0.153 C 
HETATM    4  C4  UNL     1     -34.342  15.334  -3.623  1.00 20.00     0.116 C 
HETATM    5  C9  UNL     1     -35.295  16.525  -3.655  1.00 20.00     0.139 C 
HETATM    6  O10 UNL     1     -33.953  13.620  -5.262  1.00 20.00    -0.293 OA
HETATM    7  O11 UNL     1     -36.663  16.119  -3.503  1.00 20.00    -0.357 OA
ENDROOT
BRANCH   5   8
HETATM    8  C8  UNL     1     -34.968  17.476  -2.522  1.00 20.00     0.015 C 
HETATM    9  C6  UNL     1     -33.532  17.397  -1.941  1.00 20.00     0.007 C 
HETATM   10  C5  UNL     1     -34.157  17.668  -0.557  1.00 20.00     0.001 C 
HETATM   11  C7  UNL     1     -35.468  17.073  -1.110  1.00 20.00     0.007 C 
ENDBRANCH   5   8
TORSDOF 1
ENDMDL
MODEL 9
REMARK VINA RESULT:      -4.3     11.624     12.182
REMARK  1 active torsions:
REMARK  status: ('A' for Active; 'I' for Inactive)
REMARK    1  A    between atoms: C8_8  and  C9_9 
ROOT
HETATM    1  C1  UNL     1     -31.933  18.897   1.402  1.00 20.00     0.074 C 
HETATM    2  C2  UNL     1     -31.465  18.608   0.184  1.00 20.00     0.139 C 
HETATM    3  C3  UNL     1     -33.385  18.745   1.635  1.00 20.00     0.153 C 
HETATM    4  C4  UNL     1     -34.192  18.155   0.506  1.00 20.00     0.116 C 
HETATM    5  C9  UNL     1     -33.586  18.608  -0.820  1.00 20.00     0.139 C 
HETATM    6  O10 UNL     1     -33.877  19.022   2.725  1.00 20.00    -0.293 OA
HETATM    7  O11 UNL     1     -32.198  18.261  -0.920  1.00 20.00    -0.357 OA
ENDROOT
BRANCH   5   8
HETATM    8  C8  UNL     1     -34.312  17.942  -1.970  1.00 20.00     0.015 C 
HETATM    9  C6  UNL     1     -35.339  16.840  -1.600  1.00 20.00     0.007 C 
HETATM   10  C5  UNL     1     -34.876  16.087  -2.865  1.00 20.00     0.001 C 
HETATM   11  C7  UNL     1     -33.535  16.839  -2.737  1.00 20.00     0.007 C 
ENDBRANCH   5   8
TORSDOF 1
ENDMDL
