MODEL 1
REMARK VINA RESULT:      -4.3      0.000      0.000
REMARK  4 active torsions:
REMARK  status: ('A' for Active; 'I' for Inactive)
REMARK    1  A    between atoms: C3_3  and  C7_7 
REMARK    2  A    between atoms: C6_6  and  C7_7 
REMARK    3  A    between atoms: C6_6  and  O9_9 
REMARK    4  A    between atoms: C7_7  and  C8_8 
ROOT
HETATM    1  C7  UNL     1     -32.722   6.906   3.623  1.00 20.00     0.032 C 
ENDROOT
BRANCH   1   2
HETATM    2  C3  UNL     1     -33.857   7.243   4.568  1.00 20.00    -0.007 A 
HETATM    3  C1  UNL     1     -34.379   6.210   5.526  1.00 20.00     0.005 A 
HETATM    4  C2  UNL     1     -33.596   7.384   6.042  1.00 20.00     0.005 A 
ENDBRANCH   1   2
BRANCH   1   5
HETATM    5  C6  UNL     1     -32.047   8.190   3.114  1.00 20.00     0.173 C 
BRANCH   5   6
HETATM    6  O9  UNL     1     -32.096   8.220   1.691  1.00 20.00    -0.396 OA
HETATM    7  C5  UNL     1     -32.294   9.540   1.206  1.00 20.00     0.201 C 
ENDBRANCH   5   6
ENDBRANCH   1   5
BRANCH   1   8
HETATM    8  C8  UNL     1     -33.152   6.000   2.442  1.00 20.00     0.084 C 
HETATM    9  C4  UNL     1     -32.870   4.519   2.675  1.00 20.00     0.027 C 
HETATM   10 CL10 UNL     1     -34.881   6.208   2.019  1.00 20.00    -0.125 Cl
ENDBRANCH   1   8
TORSDOF 4
ENDMDL
MODEL 2
REMARK VINA RESULT:      -3.9     11.375     12.118
REMARK  4 active torsions:
REMARK  status: ('A' for Active; 'I' for Inactive)
REMARK    1  A    between atoms: C3_3  and  C7_7 
REMARK    2  A    between atoms: C6_6  and  C7_7 
REMARK    3  A    between atoms: C6_6  and  O9_9 
REMARK    4  A    between atoms: C7_7  and  C8_8 
ROOT
HETATM    1  C7  UNL     1     -35.197  14.693  -5.242  1.00 20.00     0.032 C 
ENDROOT
BRANCH   1   2
HETATM    2  C3  UNL     1     -34.595  14.885  -3.865  1.00 20.00    -0.007 A 
HETATM    3  C1  UNL     1     -33.611  15.993  -3.615  1.00 20.00     0.005 A 
HETATM    4  C2  UNL     1     -34.991  16.066  -3.024  1.00 20.00     0.005 A 
ENDBRANCH   1   2
BRANCH   1   5
HETATM    5  C6  UNL     1     -36.024  13.397  -5.291  1.00 20.00     0.173 C 
BRANCH   5   6
HETATM    6  O9  UNL     1     -37.376  13.684  -4.947  1.00 20.00    -0.396 OA
HETATM    7  C5  UNL     1     -37.887  14.767  -5.710  1.00 20.00     0.201 C 
ENDBRANCH   5   6
ENDBRANCH   1   5
BRANCH   1   8
HETATM    8  C8  UNL     1     -34.151  14.727  -6.383  1.00 20.00     0.084 C 
HETATM    9  C4  UNL     1     -34.400  13.687  -7.471  1.00 20.00     0.027 C 
HETATM   10 CL10 UNL     1     -34.020  16.346  -7.140  1.00 20.00    -0.125 Cl
ENDBRANCH   1   8
TORSDOF 4
ENDMDL
MODEL 3
REMARK VINA RESULT:      -3.8      1.534      3.522
REMARK  4 active torsions:
REMARK  status: ('A' for Active; 'I' for Inactive)
REMARK    1  A    between atoms: C3_3  and  C7_7 
REMARK    2  A    between atoms: C6_6  and  C7_7 
REMARK    3  A    between atoms: C6_6  and  O9_9 
REMARK    4  A    between atoms: C7_7  and  C8_8 
ROOT
HETATM    1  C7  UNL     1     -33.142   7.691   2.943  1.00 20.00     0.032 C 
ENDROOT
BRANCH   1   2
HETATM    2  C3  UNL     1     -32.251   8.297   1.879  1.00 20.00    -0.007 A 
HETATM    3  C1  UNL     1     -32.831   8.738   0.564  1.00 20.00     0.005 A 
HETATM    4  C2  UNL     1     -32.350   9.762   1.553  1.00 20.00     0.005 A 
ENDBRANCH   1   2
BRANCH   1   5
HETATM    5  C6  UNL     1     -32.363   7.510   4.257  1.00 20.00     0.173 C 
BRANCH   5   6
HETATM    6  O9  UNL     1     -33.113   8.064   5.334  1.00 20.00    -0.396 OA
HETATM    7  C5  UNL     1     -33.813   7.056   6.050  1.00 20.00     0.201 C 
ENDBRANCH   5   6
ENDBRANCH   1   5
BRANCH   1   8
HETATM    8  C8  UNL     1     -33.810   6.364   2.506  1.00 20.00     0.084 C 
HETATM    9  C4  UNL     1     -32.919   5.141   2.699  1.00 20.00     0.027 C 
HETATM   10 CL10 UNL     1     -35.375   6.085   3.333  1.00 20.00    -0.125 Cl
ENDBRANCH   1   8
TORSDOF 4
ENDMDL
MODEL 4
REMARK VINA RESULT:      -3.7      2.121      3.442
REMARK  4 active torsions:
REMARK  status: ('A' for Active; 'I' for Inactive)
REMARK    1  A    between atoms: C3_3  and  C7_7 
REMARK    2  A    between atoms: C6_6  and  C7_7 
REMARK    3  A    between atoms: C6_6  and  O9_9 
REMARK    4  A    between atoms: C7_7  and  C8_8 
ROOT
HETATM    1  C7  UNL     1     -33.589   7.120   3.481  1.00 20.00     0.032 C 
ENDROOT
BRANCH   1   2
HETATM    2  C3  UNL     1     -33.263   6.828   4.931  1.00 20.00    -0.007 A 
HETATM    3  C1  UNL     1     -33.609   7.825   6.002  1.00 20.00     0.005 A 
HETATM    4  C2  UNL     1     -34.366   6.530   5.909  1.00 20.00     0.005 A 
ENDBRANCH   1   2
BRANCH   1   5
HETATM    5  C6  UNL     1     -34.179   5.873   2.802  1.00 20.00     0.173 C 
BRANCH   5   6
HETATM    6  O9  UNL     1     -33.326   4.756   3.038  1.00 20.00    -0.396 OA
HETATM    7  C5  UNL     1     -33.959   3.786   3.861  1.00 20.00     0.201 C 
ENDBRANCH   5   6
ENDBRANCH   1   5
BRANCH   1   8
HETATM    8  C8  UNL     1     -32.385   7.672   2.678  1.00 20.00     0.084 C 
HETATM    9  C4  UNL     1     -32.773   8.723   1.642  1.00 20.00     0.027 C 
HETATM   10 CL10 UNL     1     -31.107   8.341   3.741  1.00 20.00    -0.125 Cl
ENDBRANCH   1   8
TORSDOF 4
ENDMDL
MODEL 5
REMARK VINA RESULT:      -3.7      1.516      2.943
REMARK  4 active torsions:
REMARK  status: ('A' for Active; 'I' for Inactive)
REMARK    1  A    between atoms: C3_3  and  C7_7 
REMARK    2  A    between atoms: C6_6  and  C7_7 
REMARK    3  A    between atoms: C6_6  and  O9_9 
REMARK    4  A    between atoms: C7_7  and  C8_8 
ROOT
HETATM    1  C7  UNL     1     -33.748   6.896   3.796  1.00 20.00     0.032 C 
ENDROOT
BRANCH   1   2
HETATM    2  C3  UNL     1     -34.066   5.666   2.970  1.00 20.00    -0.007 A 
HETATM    3  C1  UNL     1     -32.957   4.838   2.385  1.00 20.00     0.005 A 
HETATM    4  C2  UNL     1     -33.783   4.294   3.517  1.00 20.00     0.005 A 
ENDBRANCH   1   2
BRANCH   1   5
HETATM    5  C6  UNL     1     -32.495   7.601   3.249  1.00 20.00     0.173 C 
BRANCH   5   6
HETATM    6  O9  UNL     1     -32.865   8.456   2.171  1.00 20.00    -0.396 OA
HETATM    7  C5  UNL     1     -31.767   8.702   1.304  1.00 20.00     0.201 C 
ENDBRANCH   5   6
ENDBRANCH   1   5
BRANCH   1   8
HETATM    8  C8  UNL     1     -33.601   6.601   5.310  1.00 20.00     0.084 C 
HETATM    9  C4  UNL     1     -33.487   7.857   6.168  1.00 20.00     0.027 C 
HETATM   10 CL10 UNL     1     -34.935   5.582   5.937  1.00 20.00    -0.125 Cl
ENDBRANCH   1   8
TORSDOF 4
ENDMDL
MODEL 6
REMARK VINA RESULT:      -3.6     11.327     12.282
REMARK  4 active torsions:
REMARK  status: ('A' for Active; 'I' for Inactive)
REMARK    1  A    between atoms: C3_3  and  C7_7 
REMARK    2  A    between atoms: C6_6  and  C7_7 
REMARK    3  A    between atoms: C6_6  and  O9_9 
REMARK    4  A    between atoms: C7_7  and  C8_8 
ROOT
HETATM    1  C7  UNL     1     -35.363  14.346  -5.056  1.00 20.00     0.032 C 
ENDROOT
BRANCH   1   2
HETATM    2  C3  UNL     1     -35.436  14.339  -6.569  1.00 20.00    -0.007 A 
HETATM    3  C1  UNL     1     -34.188  14.166  -7.388  1.00 20.00     0.005 A 
HETATM    4  C2  UNL     1     -35.207  13.063  -7.330  1.00 20.00     0.005 A 
ENDBRANCH   1   2
BRANCH   1   5
HETATM    5  C6  UNL     1     -36.688  14.845  -4.456  1.00 20.00     0.173 C 
BRANCH   5   6
HETATM    6  O9  UNL     1     -37.746  13.980  -4.857  1.00 20.00    -0.396 OA
HETATM    7  C5  UNL     1     -38.905  14.714  -5.224  1.00 20.00     0.201 C 
ENDBRANCH   5   6
ENDBRANCH   1   5
BRANCH   1   8
HETATM    8  C8  UNL     1     -34.164  15.155  -4.501  1.00 20.00     0.084 C 
HETATM    9  C4  UNL     1     -34.500  15.966  -3.253  1.00 20.00     0.027 C 
HETATM   10 CL10 UNL     1     -32.742  14.118  -4.161  1.00 20.00    -0.125 Cl
ENDBRANCH   1   8
TORSDOF 4
ENDMDL
MODEL 7
REMARK VINA RESULT:      -3.6      1.983      2.704
REMARK  4 active torsions:
REMARK  status: ('A' for Active; 'I' for Inactive)
REMARK    1  A    between atoms: C3_3  and  C7_7 
REMARK    2  A    between atoms: C6_6  and  C7_7 
REMARK    3  A    between atoms: C6_6  and  O9_9 
REMARK    4  A    between atoms: C7_7  and  C8_8 
ROOT
HETATM    1  C7  UNL     1     -33.364   7.515   2.954  1.00 20.00     0.032 C 
ENDROOT
BRANCH   1   2
HETATM    2  C3  UNL     1     -34.068   6.196   2.705  1.00 20.00    -0.007 A 
HETATM    3  C1  UNL     1     -33.855   5.035   3.636  1.00 20.00     0.005 A 
HETATM    4  C2  UNL     1     -35.178   5.748   3.615  1.00 20.00     0.005 A 
ENDBRANCH   1   2
BRANCH   1   5
HETATM    5  C6  UNL     1     -32.599   7.961   1.696  1.00 20.00     0.173 C 
BRANCH   5   6
HETATM    6  O9  UNL     1     -32.943   9.307   1.385  1.00 20.00    -0.396 OA
HETATM    7  C5  UNL     1     -32.896   9.544  -0.015  1.00 20.00     0.201 C 
ENDBRANCH   5   6
ENDBRANCH   1   5
BRANCH   1   8
HETATM    8  C8  UNL     1     -32.433   7.493   4.191  1.00 20.00     0.084 C 
HETATM    9  C4  UNL     1     -31.304   8.516   4.123  1.00 20.00     0.027 C 
HETATM   10 CL10 UNL     1     -33.333   7.713   5.725  1.00 20.00    -0.125 Cl
ENDBRANCH   1   8
TORSDOF 4
ENDMDL
MODEL 8
REMARK VINA RESULT:      -3.6      2.103      3.660
REMARK  4 active torsions:
REMARK  status: ('A' for Active; 'I' for Inactive)
REMARK    1  A    between atoms: C3_3  and  C7_7 
REMARK    2  A    between atoms: C6_6  and  C7_7 
REMARK    3  A    between atoms: C6_6  and  O9_9 
REMARK    4  A    between atoms: C7_7  and  C8_8 
ROOT
HETATM    1  C7  UNL     1     -33.564   6.591   3.708  1.00 20.00     0.032 C 
ENDROOT
BRANCH   1   2
HETATM    2  C3  UNL     1     -33.012   7.943   3.306  1.00 20.00    -0.007 A 
HETATM    3  C1  UNL     1     -31.545   8.238   3.451  1.00 20.00     0.005 A 
HETATM    4  C2  UNL     1     -32.146   8.073   2.083  1.00 20.00     0.005 A 
ENDBRANCH   1   2
BRANCH   1   5
HETATM    5  C6  UNL     1     -34.448   6.017   2.588  1.00 20.00     0.173 C 
BRANCH   5   6
HETATM    6  O9  UNL     1     -33.722   5.023   1.872  1.00 20.00    -0.396 OA
HETATM    7  C5  UNL     1     -32.764   4.382   2.703  1.00 20.00     0.201 C 
ENDBRANCH   5   6
ENDBRANCH   1   5
BRANCH   1   8
HETATM    8  C8  UNL     1     -34.322   6.611   5.059  1.00 20.00     0.084 C 
HETATM    9  C4  UNL     1     -34.578   5.222   5.635  1.00 20.00     0.027 C 
HETATM   10 CL10 UNL     1     -33.491   7.613   6.290  1.00 20.00    -0.125 Cl
ENDBRANCH   1   8
TORSDOF 4
ENDMDL
MODEL 9
REMARK VINA RESULT:      -3.6     11.394     11.938
REMARK  4 active torsions:
REMARK  status: ('A' for Active; 'I' for Inactive)
REMARK    1  A    between atoms: C3_3  and  C7_7 
REMARK    2  A    between atoms: C6_6  and  C7_7 
REMARK    3  A    between atoms: C6_6  and  O9_9 
REMARK    4  A    between atoms: C7_7  and  C8_8 
ROOT
HETATM    1  C7  UNL     1     -34.720  16.547  -4.236  1.00 20.00     0.032 C 
ENDROOT
BRANCH   1   2
HETATM    2  C3  UNL     1     -34.795  16.185  -2.767  1.00 20.00    -0.007 A 
HETATM    3  C1  UNL     1     -34.048  16.997  -1.746  1.00 20.00     0.005 A 
HETATM    4  C2  UNL     1     -35.549  17.065  -1.809  1.00 20.00     0.005 A 
ENDBRANCH   1   2
BRANCH   1   5
HETATM    5  C6  UNL     1     -35.926  15.967  -4.995  1.00 20.00     0.173 C 
BRANCH   5   6
HETATM    6  O9  UNL     1     -36.328  14.745  -4.383  1.00 20.00    -0.396 OA
HETATM    7  C5  UNL     1     -36.305  13.669  -5.310  1.00 20.00     0.201 C 
ENDBRANCH   5   6
ENDBRANCH   1   5
BRANCH   1   8
HETATM    8  C8  UNL     1     -33.389  16.128  -4.908  1.00 20.00     0.084 C 
HETATM    9  C4  UNL     1     -32.876  14.767  -4.449  1.00 20.00     0.027 C 
HETATM   10 CL10 UNL     1     -33.494  16.144  -6.697  1.00 20.00    -0.125 Cl
ENDBRANCH   1   8
TORSDOF 4
ENDMDL
