MODEL 1
REMARK VINA RESULT:      -5.9      0.000      0.000
REMARK  2 active torsions:
REMARK  status: ('A' for Active; 'I' for Inactive)
REMARK    1  A    between atoms: C7_7  and  C9_9 
REMARK    2  A    between atoms: C9_9  and  O11_11 
ROOT
HETATM    1  C1  UNL     1     -35.020   4.610   5.813  1.00 20.00     0.010 A 
HETATM    2  C2  UNL     1     -33.953   7.005   5.731  1.00 20.00     0.012 C 
HETATM    3  C3  UNL     1     -34.866   6.100   3.659  1.00 20.00     0.012 C 
HETATM    4  C5  UNL     1     -33.816   5.508   5.770  1.00 20.00    -0.010 A 
HETATM    5  C6  UNL     1     -34.377   4.953   4.499  1.00 20.00    -0.010 A 
HETATM    6  C7  UNL     1     -34.149   7.336   4.238  1.00 20.00     0.021 C 
ENDROOT
BRANCH   6   7
HETATM    7  C9  UNL     1     -32.829   7.582   3.549  1.00 20.00     0.065 A 
HETATM    8  C4  UNL     1     -32.350   6.613   2.510  1.00 20.00     0.045 A 
HETATM    9  C8  UNL     1     -32.817   7.986   2.102  1.00 20.00     0.019 A 
HETATM   10  C10 UNL     1     -31.838   8.988   1.592  1.00 20.00     0.013 C 
BRANCH   7  11
HETATM   11  O11 UNL     1     -31.836   8.138   4.418  1.00 20.00    -0.389 OA
HETATM   12  H27 UNL     1     -31.901   7.647   5.250  1.00 20.00     0.210 HD
ENDBRANCH   7  11
ENDBRANCH   6   7
TORSDOF 2
ENDMDL
MODEL 2
REMARK VINA RESULT:      -5.1      1.023      4.231
REMARK  2 active torsions:
REMARK  status: ('A' for Active; 'I' for Inactive)
REMARK    1  A    between atoms: C7_7  and  C9_9 
REMARK    2  A    between atoms: C9_9  and  O11_11 
ROOT
HETATM    1  C1  UNL     1     -31.894   9.241   1.057  1.00 20.00     0.010 A 
HETATM    2  C2  UNL     1     -31.631   8.010   3.358  1.00 20.00     0.012 C 
HETATM    3  C3  UNL     1     -32.985   6.929   1.643  1.00 20.00     0.012 C 
HETATM    4  C5  UNL     1     -32.255   9.080   2.507  1.00 20.00    -0.010 A 
HETATM    5  C6  UNL     1     -33.086   8.416   1.454  1.00 20.00    -0.010 A 
HETATM    6  C7  UNL     1     -32.488   6.756   3.092  1.00 20.00     0.021 C 
ENDROOT
BRANCH   6   7
HETATM    7  C9  UNL     1     -33.638   6.657   4.063  1.00 20.00     0.065 A 
HETATM    8  C4  UNL     1     -35.010   6.337   3.548  1.00 20.00     0.045 A 
HETATM    9  C8  UNL     1     -34.247   5.314   4.349  1.00 20.00     0.019 A 
HETATM   10  C10 UNL     1     -34.700   4.951   5.722  1.00 20.00     0.013 C 
BRANCH   7  11
HETATM   11  O11 UNL     1     -33.556   7.607   5.131  1.00 20.00    -0.389 OA
HETATM   12  H27 UNL     1     -34.258   7.371   5.756  1.00 20.00     0.210 HD
ENDBRANCH   7  11
ENDBRANCH   6   7
TORSDOF 2
ENDMDL
MODEL 3
REMARK VINA RESULT:      -4.7      1.320      2.320
REMARK  2 active torsions:
REMARK  status: ('A' for Active; 'I' for Inactive)
REMARK    1  A    between atoms: C7_7  and  C9_9 
REMARK    2  A    between atoms: C9_9  and  O11_11 
ROOT
HETATM    1  C1  UNL     1     -35.014   5.780   4.088  1.00 20.00     0.010 A 
HETATM    2  C2  UNL     1     -33.018   6.136   2.424  1.00 20.00     0.012 C 
HETATM    3  C3  UNL     1     -32.943   7.322   4.553  1.00 20.00     0.012 C 
HETATM    4  C5  UNL     1     -34.430   6.415   2.857  1.00 20.00    -0.010 A 
HETATM    5  C6  UNL     1     -34.384   7.143   4.164  1.00 20.00    -0.010 A 
HETATM    6  C7  UNL     1     -32.161   7.126   3.239  1.00 20.00     0.021 C 
ENDROOT
BRANCH   6   7
HETATM    7  C9  UNL     1     -31.976   8.431   2.505  1.00 20.00     0.065 A 
HETATM    8  C4  UNL     1     -31.363   8.424   1.136  1.00 20.00     0.045 A 
HETATM    9  C8  UNL     1     -32.829   8.728   1.305  1.00 20.00     0.019 A 
HETATM   10  C10 UNL     1     -33.343  10.104   1.047  1.00 20.00     0.013 C 
BRANCH   7  11
HETATM   11  O11 UNL     1     -31.616   9.515   3.367  1.00 20.00    -0.389 OA
HETATM   12  H27 UNL     1     -31.716  10.323   2.841  1.00 20.00     0.210 HD
ENDBRANCH   7  11
ENDBRANCH   6   7
TORSDOF 2
ENDMDL
MODEL 4
REMARK VINA RESULT:      -4.7      1.331      1.653
REMARK  2 active torsions:
REMARK  status: ('A' for Active; 'I' for Inactive)
REMARK    1  A    between atoms: C7_7  and  C9_9 
REMARK    2  A    between atoms: C9_9  and  O11_11 
ROOT
HETATM    1  C1  UNL     1     -34.450   3.865   4.611  1.00 20.00     0.010 A 
HETATM    2  C2  UNL     1     -35.126   6.123   3.460  1.00 20.00     0.012 C 
HETATM    3  C3  UNL     1     -33.051   5.062   2.743  1.00 20.00     0.012 C 
HETATM    4  C5  UNL     1     -34.557   5.364   4.626  1.00 20.00    -0.010 A 
HETATM    5  C6  UNL     1     -33.284   4.713   4.186  1.00 20.00    -0.010 A 
HETATM    6  C7  UNL     1     -33.934   6.302   2.498  1.00 20.00     0.021 C 
ENDROOT
BRANCH   6   7
HETATM    7  C9  UNL     1     -33.184   7.580   2.780  1.00 20.00     0.065 A 
HETATM    8  C4  UNL     1     -31.685   7.576   2.743  1.00 20.00     0.045 A 
HETATM    9  C8  UNL     1     -32.464   8.274   1.659  1.00 20.00     0.019 A 
HETATM   10  C10 UNL     1     -32.443   9.762   1.562  1.00 20.00     0.013 C 
BRANCH   7  11
HETATM   11  O11 UNL     1     -33.802   8.384   3.790  1.00 20.00    -0.389 OA
HETATM   12  H27 UNL     1     -34.681   8.004   3.937  1.00 20.00     0.210 HD
ENDBRANCH   7  11
ENDBRANCH   6   7
TORSDOF 2
ENDMDL
MODEL 5
REMARK VINA RESULT:      -4.5     11.658     12.482
REMARK  2 active torsions:
REMARK  status: ('A' for Active; 'I' for Inactive)
REMARK    1  A    between atoms: C7_7  and  C9_9 
REMARK    2  A    between atoms: C9_9  and  O11_11 
ROOT
HETATM    1  C1  UNL     1     -34.370  17.340  -2.001  1.00 20.00     0.010 A 
HETATM    2  C2  UNL     1     -33.528  16.598  -4.372  1.00 20.00     0.012 C 
HETATM    3  C3  UNL     1     -35.890  16.277  -3.856  1.00 20.00     0.012 C 
HETATM    4  C5  UNL     1     -33.659  16.362  -2.893  1.00 20.00    -0.010 A 
HETATM    5  C6  UNL     1     -35.109  16.165  -2.577  1.00 20.00    -0.010 A 
HETATM    6  C7  UNL     1     -34.844  16.058  -4.968  1.00 20.00     0.021 C 
ENDROOT
BRANCH   6   7
HETATM    7  C9  UNL     1     -34.725  14.599  -5.336  1.00 20.00     0.065 A 
HETATM    8  C4  UNL     1     -35.818  13.651  -4.943  1.00 20.00     0.045 A 
HETATM    9  C8  UNL     1     -35.631  14.029  -6.389  1.00 20.00     0.019 A 
HETATM   10  C10 UNL     1     -35.134  13.021  -7.368  1.00 20.00     0.013 C 
BRANCH   7  11
HETATM   11  O11 UNL     1     -33.383  14.106  -5.254  1.00 20.00    -0.389 OA
HETATM   12  H27 UNL     1     -33.406  13.204  -5.606  1.00 20.00     0.210 HD
ENDBRANCH   7  11
ENDBRANCH   6   7
TORSDOF 2
ENDMDL
MODEL 6
REMARK VINA RESULT:      -4.4     11.568     12.657
REMARK  2 active torsions:
REMARK  status: ('A' for Active; 'I' for Inactive)
REMARK    1  A    between atoms: C7_7  and  C9_9 
REMARK    2  A    between atoms: C9_9  and  O11_11 
ROOT
HETATM    1  C1  UNL     1     -34.417  13.939  -6.821  1.00 20.00     0.010 A 
HETATM    2  C2  UNL     1     -32.919  15.508  -5.346  1.00 20.00     0.012 C 
HETATM    3  C3  UNL     1     -34.692  14.257  -4.232  1.00 20.00     0.012 C 
HETATM    4  C5  UNL     1     -34.042  15.307  -6.326  1.00 20.00    -0.010 A 
HETATM    5  C6  UNL     1     -35.130  14.539  -5.642  1.00 20.00    -0.010 A 
HETATM    6  C7  UNL     1     -33.566  15.276  -3.965  1.00 20.00     0.021 C 
ENDROOT
BRANCH   6   7
HETATM    7  C9  UNL     1     -34.108  16.560  -3.388  1.00 20.00     0.065 A 
HETATM    8  C4  UNL     1     -35.532  16.612  -2.920  1.00 20.00     0.045 A 
HETATM    9  C8  UNL     1     -34.407  16.638  -1.918  1.00 20.00     0.019 A 
HETATM   10  C10 UNL     1     -34.127  17.879  -1.140  1.00 20.00     0.013 C 
BRANCH   7  11
HETATM   11  O11 UNL     1     -33.601  17.729  -4.040  1.00 20.00    -0.389 OA
HETATM   12  H27 UNL     1     -33.926  17.691  -4.952  1.00 20.00     0.210 HD
ENDBRANCH   7  11
ENDBRANCH   6   7
TORSDOF 2
ENDMDL
MODEL 7
REMARK VINA RESULT:      -4.4     11.506     12.664
REMARK  2 active torsions:
REMARK  status: ('A' for Active; 'I' for Inactive)
REMARK    1  A    between atoms: C7_7  and  C9_9 
REMARK    2  A    between atoms: C9_9  and  O11_11 
ROOT
HETATM    1  C1  UNL     1     -34.395  13.605  -7.217  1.00 20.00     0.010 A 
HETATM    2  C2  UNL     1     -33.537  14.720  -5.003  1.00 20.00     0.012 C 
HETATM    3  C3  UNL     1     -35.734  13.664  -4.962  1.00 20.00     0.012 C 
HETATM    4  C5  UNL     1     -34.135  14.825  -6.378  1.00 20.00    -0.010 A 
HETATM    5  C6  UNL     1     -35.484  14.176  -6.353  1.00 20.00    -0.010 A 
HETATM    6  C7  UNL     1     -34.739  14.443  -4.078  1.00 20.00     0.021 C 
ENDROOT
BRANCH   6   7
HETATM    7  C9  UNL     1     -35.345  15.725  -3.561  1.00 20.00     0.065 A 
HETATM    8  C4  UNL     1     -34.671  16.454  -2.437  1.00 20.00     0.045 A 
HETATM    9  C8  UNL     1     -34.649  17.029  -3.830  1.00 20.00     0.019 A 
HETATM   10  C10 UNL     1     -35.424  18.264  -4.142  1.00 20.00     0.013 C 
BRANCH   7  11
HETATM   11  O11 UNL     1     -36.776  15.707  -3.552  1.00 20.00    -0.389 OA
HETATM   12  H27 UNL     1     -37.042  15.063  -4.225  1.00 20.00     0.210 HD
ENDBRANCH   7  11
ENDBRANCH   6   7
TORSDOF 2
ENDMDL
MODEL 8
REMARK VINA RESULT:      -4.3     11.289     12.739
REMARK  2 active torsions:
REMARK  status: ('A' for Active; 'I' for Inactive)
REMARK    1  A    between atoms: C7_7  and  C9_9 
REMARK    2  A    between atoms: C9_9  and  O11_11 
ROOT
HETATM    1  C1  UNL     1     -34.357  16.574  -2.385  1.00 20.00     0.010 A 
HETATM    2  C2  UNL     1     -36.055  15.469  -4.050  1.00 20.00     0.012 C 
HETATM    3  C3  UNL     1     -33.873  14.413  -3.791  1.00 20.00     0.012 C 
HETATM    4  C5  UNL     1     -35.051  16.538  -3.717  1.00 20.00    -0.010 A 
HETATM    5  C6  UNL     1     -33.712  15.889  -3.557  1.00 20.00    -0.010 A 
HETATM    6  C7  UNL     1     -35.206  14.285  -4.555  1.00 20.00     0.021 C 
ENDROOT
BRANCH   6   7
HETATM    7  C9  UNL     1     -34.996  14.353  -6.048  1.00 20.00     0.065 A 
HETATM    8  C4  UNL     1     -36.187  14.331  -6.959  1.00 20.00     0.045 A 
HETATM    9  C8  UNL     1     -35.389  15.598  -6.791  1.00 20.00     0.019 A 
HETATM   10  C10 UNL     1     -34.560  16.115  -7.918  1.00 20.00     0.013 C 
BRANCH   7  11
HETATM   11  O11 UNL     1     -33.836  13.638  -6.486  1.00 20.00    -0.389 OA
HETATM   12  H27 UNL     1     -33.559  13.089  -5.737  1.00 20.00     0.210 HD
ENDBRANCH   7  11
ENDBRANCH   6   7
TORSDOF 2
ENDMDL
MODEL 9
REMARK VINA RESULT:      -4.3     11.881     13.011
REMARK  2 active torsions:
REMARK  status: ('A' for Active; 'I' for Inactive)
REMARK    1  A    between atoms: C7_7  and  C9_9 
REMARK    2  A    between atoms: C9_9  and  O11_11 
ROOT
HETATM    1  C1  UNL     1     -35.498  16.989  -1.072  1.00 20.00     0.010 A 
HETATM    2  C2  UNL     1     -34.974  15.571  -3.215  1.00 20.00     0.012 C 
HETATM    3  C3  UNL     1     -33.294  17.179  -2.481  1.00 20.00     0.012 C 
HETATM    4  C5  UNL     1     -35.679  16.713  -2.537  1.00 20.00    -0.010 A 
HETATM    5  C6  UNL     1     -34.647  17.699  -2.087  1.00 20.00    -0.010 A 
HETATM    6  C7  UNL     1     -33.585  16.135  -3.578  1.00 20.00     0.021 C 
ENDROOT
BRANCH   6   7
HETATM    7  C9  UNL     1     -33.585  16.762  -4.951  1.00 20.00     0.065 A 
HETATM    8  C4  UNL     1     -33.304  15.905  -6.150  1.00 20.00     0.045 A 
HETATM    9  C8  UNL     1     -34.694  16.435  -5.910  1.00 20.00     0.019 A 
HETATM   10  C10 UNL     1     -35.264  17.476  -6.811  1.00 20.00     0.013 C 
BRANCH   7  11
HETATM   11  O11 UNL     1     -33.044  18.087  -4.965  1.00 20.00    -0.389 OA
HETATM   12  H27 UNL     1     -32.096  17.989  -5.136  1.00 20.00     0.210 HD
ENDBRANCH   7  11
ENDBRANCH   6   7
TORSDOF 2
ENDMDL
