MODEL 1
REMARK VINA RESULT:      -5.7      0.000      0.000
REMARK  3 active torsions:
REMARK  status: ('A' for Active; 'I' for Inactive)
REMARK    1  A    between atoms: C1_1  and  C7_7 
REMARK    2  A    between atoms: C2_2  and  C3_3 
REMARK    3  A    between atoms: C3_3  and  C10_10 
ROOT
HETATM    1  C1  UNL     1     -32.709   8.275   3.231  1.00 20.00    -0.012 C 
HETATM    2  C3  UNL     1     -33.286   7.218   3.830  1.00 20.00    -0.020 C 
ENDROOT
BRANCH   2   3
HETATM    3  C2  UNL     1     -33.118   7.197   5.312  1.00 20.00     0.265 C 
HETATM    4  O11 UNL     1     -33.965   7.596   6.101  1.00 20.00    -0.302 OA
ENDBRANCH   2   3
BRANCH   2   5
HETATM    5  C10 UNL     1     -34.054   6.107   3.138  1.00 20.00     0.013 C 
HETATM    6  C8  UNL     1     -35.245   5.623   3.967  1.00 20.00     0.015 C 
HETATM    7  C9  UNL     1     -33.147   4.940   2.738  1.00 20.00     0.015 C 
ENDBRANCH   2   5
BRANCH   1   8
HETATM    8  C7  UNL     1     -32.759   8.482   1.772  1.00 20.00     0.009 C 
HETATM    9  C5  UNL     1     -33.061   9.930   1.309  1.00 20.00     0.008 C 
HETATM   10  C4  UNL     1     -32.057   9.691   0.161  1.00 20.00     0.001 C 
HETATM   11  C6  UNL     1     -31.387   8.637   1.068  1.00 20.00     0.008 C 
ENDBRANCH   1   8
TORSDOF 3
ENDMDL
MODEL 2
REMARK VINA RESULT:      -5.0      1.897      2.533
REMARK  3 active torsions:
REMARK  status: ('A' for Active; 'I' for Inactive)
REMARK    1  A    between atoms: C1_1  and  C7_7 
REMARK    2  A    between atoms: C2_2  and  C3_3 
REMARK    3  A    between atoms: C3_3  and  C10_10 
ROOT
HETATM    1  C1  UNL     1     -32.744   7.043   2.054  1.00 20.00    -0.012 C 
HETATM    2  C3  UNL     1     -33.278   6.257   3.005  1.00 20.00    -0.020 C 
ENDROOT
BRANCH   2   3
HETATM    3  C2  UNL     1     -32.844   4.832   2.926  1.00 20.00     0.265 C 
HETATM    4  O11 UNL     1     -32.847   4.173   1.894  1.00 20.00    -0.302 OA
ENDBRANCH   2   3
BRANCH   2   5
HETATM    5  C10 UNL     1     -34.240   6.697   4.094  1.00 20.00     0.013 C 
HETATM    6  C8  UNL     1     -33.518   7.352   5.274  1.00 20.00     0.015 C 
HETATM    7  C9  UNL     1     -35.143   5.554   4.564  1.00 20.00     0.015 C 
ENDBRANCH   2   5
BRANCH   1   8
HETATM    8  C7  UNL     1     -33.046   8.483   1.957  1.00 20.00     0.009 C 
HETATM    9  C5  UNL     1     -31.872   9.440   2.287  1.00 20.00     0.008 C 
HETATM   10  C4  UNL     1     -32.392  10.348   1.152  1.00 20.00     0.001 C 
HETATM   11  C6  UNL     1     -33.016   9.081   0.528  1.00 20.00     0.008 C 
ENDBRANCH   1   8
TORSDOF 3
ENDMDL
MODEL 3
REMARK VINA RESULT:      -4.9      1.768      2.647
REMARK  3 active torsions:
REMARK  status: ('A' for Active; 'I' for Inactive)
REMARK    1  A    between atoms: C1_1  and  C7_7 
REMARK    2  A    between atoms: C2_2  and  C3_3 
REMARK    3  A    between atoms: C3_3  and  C10_10 
ROOT
HETATM    1  C1  UNL     1     -32.742   7.171   2.130  1.00 20.00    -0.012 C 
HETATM    2  C3  UNL     1     -33.309   6.638   3.227  1.00 20.00    -0.020 C 
ENDROOT
BRANCH   2   3
HETATM    3  C2  UNL     1     -33.577   5.175   3.118  1.00 20.00     0.265 C 
HETATM    4  O11 UNL     1     -32.875   4.396   2.486  1.00 20.00    -0.302 OA
ENDBRANCH   2   3
BRANCH   2   5
HETATM    5  C10 UNL     1     -33.674   7.383   4.497  1.00 20.00     0.013 C 
HETATM    6  C8  UNL     1     -32.490   8.165   5.071  1.00 20.00     0.015 C 
HETATM    7  C9  UNL     1     -34.290   6.461   5.552  1.00 20.00     0.015 C 
ENDBRANCH   2   5
BRANCH   1   8
HETATM    8  C7  UNL     1     -32.397   8.601   2.034  1.00 20.00     0.009 C 
HETATM    9  C5  UNL     1     -31.560   9.009   0.795  1.00 20.00     0.008 C 
HETATM   10  C4  UNL     1     -32.393  10.308   0.754  1.00 20.00     0.001 C 
HETATM   11  C6  UNL     1     -33.509   9.525   1.477  1.00 20.00     0.008 C 
ENDBRANCH   1   8
TORSDOF 3
ENDMDL
MODEL 4
REMARK VINA RESULT:      -4.6     10.675     11.616
REMARK  3 active torsions:
REMARK  status: ('A' for Active; 'I' for Inactive)
REMARK    1  A    between atoms: C1_1  and  C7_7 
REMARK    2  A    between atoms: C2_2  and  C3_3 
REMARK    3  A    between atoms: C3_3  and  C10_10 
ROOT
HETATM    1  C1  UNL     1     -35.674  15.448  -3.483  1.00 20.00    -0.012 C 
HETATM    2  C3  UNL     1     -35.607  15.167  -4.796  1.00 20.00    -0.020 C 
ENDROOT
BRANCH   2   3
HETATM    3  C2  UNL     1     -36.227  13.862  -5.168  1.00 20.00     0.265 C 
HETATM    4  O11 UNL     1     -35.607  12.809  -5.249  1.00 20.00    -0.302 OA
ENDBRANCH   2   3
BRANCH   2   5
HETATM    5  C10 UNL     1     -34.978  16.039  -5.866  1.00 20.00     0.013 C 
HETATM    6  C8  UNL     1     -35.849  16.136  -7.121  1.00 20.00     0.015 C 
HETATM    7  C9  UNL     1     -33.555  15.592  -6.215  1.00 20.00     0.015 C 
ENDBRANCH   2   5
BRANCH   1   8
HETATM    8  C7  UNL     1     -35.120  16.688  -2.910  1.00 20.00     0.009 C 
HETATM    9  C5  UNL     1     -35.346  16.886  -1.390  1.00 20.00     0.008 C 
HETATM   10  C4  UNL     1     -33.930  17.497  -1.335  1.00 20.00     0.001 C 
HETATM   11  C6  UNL     1     -33.603  16.662  -2.591  1.00 20.00     0.008 C 
ENDBRANCH   1   8
TORSDOF 3
ENDMDL
MODEL 5
REMARK VINA RESULT:      -4.5     10.342     11.417
REMARK  3 active torsions:
REMARK  status: ('A' for Active; 'I' for Inactive)
REMARK    1  A    between atoms: C1_1  and  C7_7 
REMARK    2  A    between atoms: C2_2  and  C3_3 
REMARK    3  A    between atoms: C3_3  and  C10_10 
ROOT
HETATM    1  C1  UNL     1     -35.219  17.004  -2.110  1.00 20.00    -0.012 C 
HETATM    2  C3  UNL     1     -35.285  16.188  -3.177  1.00 20.00    -0.020 C 
ENDROOT
BRANCH   2   3
HETATM    3  C2  UNL     1     -36.629  16.145  -3.823  1.00 20.00     0.265 C 
HETATM    4  O11 UNL     1     -36.927  16.782  -4.826  1.00 20.00    -0.302 OA
ENDBRANCH   2   3
BRANCH   2   5
HETATM    5  C10 UNL     1     -34.148  15.354  -3.737  1.00 20.00     0.013 C 
HETATM    6  C8  UNL     1     -33.361  16.100  -4.817  1.00 20.00     0.015 C 
HETATM    7  C9  UNL     1     -34.626  13.991  -4.244  1.00 20.00     0.015 C 
ENDBRANCH   2   5
BRANCH   1   8
HETATM    8  C7  UNL     1     -33.982  17.187  -1.330  1.00 20.00     0.009 C 
HETATM    9  C5  UNL     1     -32.997  18.254  -1.873  1.00 20.00     0.008 C 
HETATM   10  C4  UNL     1     -32.706  18.624  -0.403  1.00 20.00     0.001 C 
HETATM   11  C6  UNL     1     -34.109  18.075  -0.067  1.00 20.00     0.008 C 
ENDBRANCH   1   8
TORSDOF 3
ENDMDL
MODEL 6
REMARK VINA RESULT:      -4.5     10.285     11.136
REMARK  3 active torsions:
REMARK  status: ('A' for Active; 'I' for Inactive)
REMARK    1  A    between atoms: C1_1  and  C7_7 
REMARK    2  A    between atoms: C2_2  and  C3_3 
REMARK    3  A    between atoms: C3_3  and  C10_10 
ROOT
HETATM    1  C1  UNL     1     -33.660  16.621  -2.866  1.00 20.00    -0.012 C 
HETATM    2  C3  UNL     1     -33.988  17.393  -1.815  1.00 20.00    -0.020 C 
ENDROOT
BRANCH   2   3
HETATM    3  C2  UNL     1     -32.987  18.458  -1.512  1.00 20.00     0.265 C 
HETATM    4  O11 UNL     1     -31.894  18.243  -1.003  1.00 20.00    -0.302 OA
ENDBRANCH   2   3
BRANCH   2   5
HETATM    5  C10 UNL     1     -35.237  17.263  -0.964  1.00 20.00     0.013 C 
HETATM    6  C8  UNL     1     -36.450  17.937  -1.610  1.00 20.00     0.015 C 
HETATM    7  C9  UNL     1     -35.019  17.769   0.464  1.00 20.00     0.015 C 
ENDBRANCH   2   5
BRANCH   1   8
HETATM    8  C7  UNL     1     -34.513  15.512  -3.328  1.00 20.00     0.009 C 
HETATM    9  C5  UNL     1     -35.400  15.816  -4.563  1.00 20.00     0.008 C 
HETATM   10  C4  UNL     1     -35.116  14.372  -5.028  1.00 20.00     0.001 C 
HETATM   11  C6  UNL     1     -33.812  14.444  -4.205  1.00 20.00     0.008 C 
ENDBRANCH   1   8
TORSDOF 3
ENDMDL
MODEL 7
REMARK VINA RESULT:      -4.4     10.526     11.362
REMARK  3 active torsions:
REMARK  status: ('A' for Active; 'I' for Inactive)
REMARK    1  A    between atoms: C1_1  and  C7_7 
REMARK    2  A    between atoms: C2_2  and  C3_3 
REMARK    3  A    between atoms: C3_3  and  C10_10 
ROOT
HETATM    1  C1  UNL     1     -33.764  16.135  -3.180  1.00 20.00    -0.012 C 
HETATM    2  C3  UNL     1     -34.555  15.651  -4.154  1.00 20.00    -0.020 C 
ENDROOT
BRANCH   2   3
HETATM    3  C2  UNL     1     -33.988  14.464  -4.858  1.00 20.00     0.265 C 
HETATM    4  O11 UNL     1     -33.185  13.689  -4.354  1.00 20.00    -0.302 OA
ENDBRANCH   2   3
BRANCH   2   5
HETATM    5  C10 UNL     1     -35.908  16.200  -4.564  1.00 20.00     0.013 C 
HETATM    6  C8  UNL     1     -37.039  15.200  -4.314  1.00 20.00     0.015 C 
HETATM    7  C9  UNL     1     -35.918  16.694  -6.013  1.00 20.00     0.015 C 
ENDBRANCH   2   5
BRANCH   1   8
HETATM    8  C7  UNL     1     -34.140  17.305  -2.365  1.00 20.00     0.009 C 
HETATM    9  C5  UNL     1     -35.024  17.006  -1.128  1.00 20.00     0.008 C 
HETATM   10  C4  UNL     1     -34.219  18.093  -0.384  1.00 20.00     0.001 C 
HETATM   11  C6  UNL     1     -33.064  17.802  -1.366  1.00 20.00     0.008 C 
ENDBRANCH   1   8
TORSDOF 3
ENDMDL
MODEL 8
REMARK VINA RESULT:      -4.2      2.308      4.862
REMARK  3 active torsions:
REMARK  status: ('A' for Active; 'I' for Inactive)
REMARK    1  A    between atoms: C1_1  and  C7_7 
REMARK    2  A    between atoms: C2_2  and  C3_3 
REMARK    3  A    between atoms: C3_3  and  C10_10 
ROOT
HETATM    1  C1  UNL     1     -32.353   7.544   2.595  1.00 20.00    -0.012 C 
HETATM    2  C3  UNL     1     -32.187   8.526   1.692  1.00 20.00    -0.020 C 
ENDROOT
BRANCH   2   3
HETATM    3  C2  UNL     1     -30.820   8.577   1.097  1.00 20.00     0.265 C 
HETATM    4  O11 UNL     1     -30.570   8.287  -0.067  1.00 20.00    -0.302 OA
ENDBRANCH   2   3
BRANCH   2   5
HETATM    5  C10 UNL     1     -33.239   9.531   1.261  1.00 20.00     0.013 C 
HETATM    6  C8  UNL     1     -33.496   9.489  -0.247  1.00 20.00     0.015 C 
HETATM    7  C9  UNL     1     -32.906  10.952   1.725  1.00 20.00     0.015 C 
ENDBRANCH   2   5
BRANCH   1   8
HETATM    8  C7  UNL     1     -33.629   7.324   3.300  1.00 20.00     0.009 C 
HETATM    9  C5  UNL     1     -34.139   5.861   3.325  1.00 20.00     0.008 C 
HETATM   10  C4  UNL     1     -34.626   6.135   4.764  1.00 20.00     0.001 C 
HETATM   11  C6  UNL     1     -33.536   7.226   4.843  1.00 20.00     0.008 C 
ENDBRANCH   1   8
TORSDOF 3
ENDMDL
MODEL 9
REMARK VINA RESULT:      -4.2     10.243     11.393
REMARK  3 active torsions:
REMARK  status: ('A' for Active; 'I' for Inactive)
REMARK    1  A    between atoms: C1_1  and  C7_7 
REMARK    2  A    between atoms: C2_2  and  C3_3 
REMARK    3  A    between atoms: C3_3  and  C10_10 
ROOT
HETATM    1  C1  UNL     1     -34.772  16.161  -2.549  1.00 20.00    -0.012 C 
HETATM    2  C3  UNL     1     -34.404  17.138  -1.700  1.00 20.00    -0.020 C 
ENDROOT
BRANCH   2   3
HETATM    3  C2  UNL     1     -35.393  17.398  -0.613  1.00 20.00     0.265 C 
HETATM    4  O11 UNL     1     -36.343  18.163  -0.723  1.00 20.00    -0.302 OA
ENDBRANCH   2   3
BRANCH   2   5
HETATM    5  C10 UNL     1     -33.123  17.947  -1.769  1.00 20.00     0.013 C 
HETATM    6  C8  UNL     1     -32.661  18.419  -0.388  1.00 20.00     0.015 C 
HETATM    7  C9  UNL     1     -33.232  19.121  -2.746  1.00 20.00     0.015 C 
ENDBRANCH   2   5
BRANCH   1   8
HETATM    8  C7  UNL     1     -33.936  15.751  -3.691  1.00 20.00     0.009 C 
HETATM    9  C5  UNL     1     -34.173  14.312  -4.215  1.00 20.00     0.008 C 
HETATM   10  C4  UNL     1     -33.956  14.874  -5.636  1.00 20.00     0.001 C 
HETATM   11  C6  UNL     1     -34.411  16.241  -5.083  1.00 20.00     0.008 C 
ENDBRANCH   1   8
TORSDOF 3
ENDMDL
