MODEL 1
REMARK VINA RESULT:      -6.5      0.000      0.000
REMARK  4 active torsions:
REMARK  status: ('A' for Active; 'I' for Inactive)
REMARK    1  A    between atoms: C1_1  and  C4_4 
REMARK    2  A    between atoms: C1_1  and  C9_9 
REMARK    3  A    between atoms: C9_9  and  C10_10 
REMARK    4  A    between atoms: C10_10  and  C11_11 
ROOT
HETATM    1  C1  UNL     1     -33.031   6.207   3.129  1.00 20.00     0.135 C 
HETATM    2  O12 UNL     1     -32.782   5.167   2.536  1.00 20.00    -0.297 OA
ENDROOT
BRANCH   1   3
HETATM    3  C4  UNL     1     -34.009   6.206   4.257  1.00 20.00     0.017 A 
HETATM    4  C2  UNL     1     -34.620   4.874   4.621  1.00 20.00     0.018 A 
HETATM    5  C3  UNL     1     -35.446   5.899   3.906  1.00 20.00     0.018 A 
HETATM    6  C5  UNL     1     -33.758   7.185   5.371  1.00 20.00     0.023 C 
ENDBRANCH   1   3
BRANCH   1   7
HETATM    7  C9  UNL     1     -32.411   7.553   2.811  1.00 20.00     0.080 C 
BRANCH   7   8
HETATM    8  C10 UNL     1     -33.291   8.382   1.871  1.00 20.00     0.015 C 
BRANCH   8   9
HETATM    9  C11 UNL     1     -32.533   9.268   0.848  1.00 20.00    -0.051 C 
HETATM   10  C6  UNL     1     -32.499  10.709   1.392  1.00 20.00     0.014 C 
HETATM   11  C7  UNL     1     -33.248   9.278  -0.514  1.00 20.00     0.014 C 
HETATM   12  C8  UNL     1     -31.087   8.784   0.656  1.00 20.00     0.014 C 
ENDBRANCH   8   9
ENDBRANCH   7   8
ENDBRANCH   1   7
TORSDOF 4
ENDMDL
MODEL 2
REMARK VINA RESULT:      -6.1      1.200      1.635
REMARK  4 active torsions:
REMARK  status: ('A' for Active; 'I' for Inactive)
REMARK    1  A    between atoms: C1_1  and  C4_4 
REMARK    2  A    between atoms: C1_1  and  C9_9 
REMARK    3  A    between atoms: C9_9  and  C10_10 
REMARK    4  A    between atoms: C10_10  and  C11_11 
ROOT
HETATM    1  C1  UNL     1     -33.134   7.114   4.092  1.00 20.00     0.135 C 
HETATM    2  O12 UNL     1     -33.214   7.591   5.216  1.00 20.00    -0.297 OA
ENDROOT
BRANCH   1   3
HETATM    3  C4  UNL     1     -33.853   5.846   3.768  1.00 20.00     0.017 A 
HETATM    4  C2  UNL     1     -35.362   5.898   3.800  1.00 20.00     0.018 A 
HETATM    5  C3  UNL     1     -34.620   5.197   4.896  1.00 20.00     0.018 A 
HETATM    6  C5  UNL     1     -33.209   4.943   2.753  1.00 20.00     0.023 C 
ENDBRANCH   1   3
BRANCH   1   7
HETATM    7  C9  UNL     1     -32.341   7.718   2.951  1.00 20.00     0.080 C 
BRANCH   7   8
HETATM    8  C10 UNL     1     -33.245   8.403   1.923  1.00 20.00     0.015 C 
BRANCH   8   9
HETATM    9  C11 UNL     1     -32.520   9.275   0.864  1.00 20.00    -0.051 C 
HETATM   10  C6  UNL     1     -32.455  10.720   1.395  1.00 20.00     0.014 C 
HETATM   11  C7  UNL     1     -33.286   9.279  -0.469  1.00 20.00     0.014 C 
HETATM   12  C8  UNL     1     -31.085   8.778   0.622  1.00 20.00     0.014 C 
ENDBRANCH   8   9
ENDBRANCH   7   8
ENDBRANCH   1   7
TORSDOF 4
ENDMDL
MODEL 3
REMARK VINA RESULT:      -6.1      1.202      2.055
REMARK  4 active torsions:
REMARK  status: ('A' for Active; 'I' for Inactive)
REMARK    1  A    between atoms: C1_1  and  C4_4 
REMARK    2  A    between atoms: C1_1  and  C9_9 
REMARK    3  A    between atoms: C9_9  and  C10_10 
REMARK    4  A    between atoms: C10_10  and  C11_11 
ROOT
HETATM    1  C1  UNL     1     -33.151   7.118   4.097  1.00 20.00     0.135 C 
HETATM    2  O12 UNL     1     -33.257   7.603   5.215  1.00 20.00    -0.297 OA
ENDROOT
BRANCH   1   3
HETATM    3  C4  UNL     1     -33.851   5.842   3.768  1.00 20.00     0.017 A 
HETATM    4  C2  UNL     1     -35.361   5.873   3.795  1.00 20.00     0.018 A 
HETATM    5  C3  UNL     1     -34.614   5.180   4.893  1.00 20.00     0.018 A 
HETATM    6  C5  UNL     1     -33.191   4.949   2.754  1.00 20.00     0.023 C 
ENDBRANCH   1   3
BRANCH   1   7
HETATM    7  C9  UNL     1     -32.341   7.721   2.967  1.00 20.00     0.080 C 
BRANCH   7   8
HETATM    8  C10 UNL     1     -33.233   8.381   1.911  1.00 20.00     0.015 C 
BRANCH   8   9
HETATM    9  C11 UNL     1     -32.504   9.297   0.893  1.00 20.00    -0.051 C 
HETATM   10  C6  UNL     1     -33.292   9.267  -0.430  1.00 20.00     0.014 C 
HETATM   11  C7  UNL     1     -31.075   8.796   0.620  1.00 20.00     0.014 C 
HETATM   12  C8  UNL     1     -32.444  10.749   1.393  1.00 20.00     0.014 C 
ENDBRANCH   8   9
ENDBRANCH   7   8
ENDBRANCH   1   7
TORSDOF 4
ENDMDL
MODEL 4
REMARK VINA RESULT:      -5.9      1.213      5.084
REMARK  4 active torsions:
REMARK  status: ('A' for Active; 'I' for Inactive)
REMARK    1  A    between atoms: C1_1  and  C4_4 
REMARK    2  A    between atoms: C1_1  and  C9_9 
REMARK    3  A    between atoms: C9_9  and  C10_10 
REMARK    4  A    between atoms: C10_10  and  C11_11 
ROOT
HETATM    1  C1  UNL     1     -32.354   8.303   2.443  1.00 20.00     0.135 C 
HETATM    2  O12 UNL     1     -31.513   8.391   3.327  1.00 20.00    -0.297 OA
ENDROOT
BRANCH   1   3
HETATM    3  C4  UNL     1     -32.401   9.324   1.355  1.00 20.00     0.017 A 
HETATM    4  C2  UNL     1     -32.955   8.870   0.025  1.00 20.00     0.018 A 
HETATM    5  C3  UNL     1     -31.482   9.098   0.176  1.00 20.00     0.018 A 
HETATM    6  C5  UNL     1     -32.663  10.745   1.771  1.00 20.00     0.023 C 
ENDBRANCH   1   3
BRANCH   1   7
HETATM    7  C9  UNL     1     -33.395   7.206   2.346  1.00 20.00     0.080 C 
BRANCH   7   8
HETATM    8  C10 UNL     1     -33.115   6.062   3.325  1.00 20.00     0.015 C 
BRANCH   8   9
HETATM    9  C11 UNL     1     -34.253   5.744   4.331  1.00 20.00    -0.051 C 
HETATM   10  C6  UNL     1     -35.597   6.091   3.662  1.00 20.00     0.014 C 
HETATM   11  C7  UNL     1     -34.114   6.587   5.610  1.00 20.00     0.014 C 
HETATM   12  C8  UNL     1     -34.264   4.253   4.705  1.00 20.00     0.014 C 
ENDBRANCH   8   9
ENDBRANCH   7   8
ENDBRANCH   1   7
TORSDOF 4
ENDMDL
MODEL 5
REMARK VINA RESULT:      -5.7      1.225      5.126
REMARK  4 active torsions:
REMARK  status: ('A' for Active; 'I' for Inactive)
REMARK    1  A    between atoms: C1_1  and  C4_4 
REMARK    2  A    between atoms: C1_1  and  C9_9 
REMARK    3  A    between atoms: C9_9  and  C10_10 
REMARK    4  A    between atoms: C10_10  and  C11_11 
ROOT
HETATM    1  C1  UNL     1     -32.311   8.160   2.434  1.00 20.00     0.135 C 
HETATM    2  O12 UNL     1     -31.676   8.402   3.451  1.00 20.00    -0.297 OA
ENDROOT
BRANCH   1   3
HETATM    3  C4  UNL     1     -32.127   9.010   1.221  1.00 20.00     0.017 A 
HETATM    4  C2  UNL     1     -32.344  10.494   1.395  1.00 20.00     0.018 A 
HETATM    5  C3  UNL     1     -33.366   9.676   0.667  1.00 20.00     0.018 A 
HETATM    6  C5  UNL     1     -31.076   8.571   0.240  1.00 20.00     0.023 C 
ENDBRANCH   1   3
BRANCH   1   7
HETATM    7  C9  UNL     1     -33.308   7.028   2.286  1.00 20.00     0.080 C 
BRANCH   7   8
HETATM    8  C10 UNL     1     -33.096   5.936   3.338  1.00 20.00     0.015 C 
BRANCH   8   9
HETATM    9  C11 UNL     1     -34.254   5.746   4.353  1.00 20.00    -0.051 C 
HETATM   10  C6  UNL     1     -35.573   6.129   3.654  1.00 20.00     0.014 C 
HETATM   11  C7  UNL     1     -34.071   6.655   5.580  1.00 20.00     0.014 C 
HETATM   12  C8  UNL     1     -34.354   4.284   4.817  1.00 20.00     0.014 C 
ENDBRANCH   8   9
ENDBRANCH   7   8
ENDBRANCH   1   7
TORSDOF 4
ENDMDL
MODEL 6
REMARK VINA RESULT:      -4.7      1.385      1.764
REMARK  4 active torsions:
REMARK  status: ('A' for Active; 'I' for Inactive)
REMARK    1  A    between atoms: C1_1  and  C4_4 
REMARK    2  A    between atoms: C1_1  and  C9_9 
REMARK    3  A    between atoms: C9_9  and  C10_10 
REMARK    4  A    between atoms: C10_10  and  C11_11 
ROOT
HETATM    1  C1  UNL     1     -34.387   6.224   3.659  1.00 20.00     0.135 C 
HETATM    2  O12 UNL     1     -35.523   6.137   3.214  1.00 20.00    -0.297 OA
ENDROOT
BRANCH   1   3
HETATM    3  C4  UNL     1     -34.146   6.073   5.124  1.00 20.00     0.017 A 
HETATM    4  C2  UNL     1     -33.595   4.745   5.585  1.00 20.00     0.018 A 
HETATM    5  C3  UNL     1     -35.028   5.087   5.856  1.00 20.00     0.018 A 
HETATM    6  C5  UNL     1     -33.711   7.304   5.869  1.00 20.00     0.023 C 
ENDBRANCH   1   3
BRANCH   1   7
HETATM    7  C9  UNL     1     -33.149   6.481   2.823  1.00 20.00     0.080 C 
BRANCH   7   8
HETATM    8  C10 UNL     1     -33.349   7.643   1.845  1.00 20.00     0.015 C 
BRANCH   8   9
HETATM    9  C11 UNL     1     -32.221   8.708   1.828  1.00 20.00    -0.051 C 
HETATM   10  C6  UNL     1     -31.409   8.570   3.130  1.00 20.00     0.014 C 
HETATM   11  C7  UNL     1     -32.803  10.131   1.765  1.00 20.00     0.014 C 
HETATM   12  C8  UNL     1     -31.273   8.496   0.636  1.00 20.00     0.014 C 
ENDBRANCH   8   9
ENDBRANCH   7   8
ENDBRANCH   1   7
TORSDOF 4
ENDMDL
MODEL 7
REMARK VINA RESULT:      -4.6     10.312     11.762
REMARK  4 active torsions:
REMARK  status: ('A' for Active; 'I' for Inactive)
REMARK    1  A    between atoms: C1_1  and  C4_4 
REMARK    2  A    between atoms: C1_1  and  C9_9 
REMARK    3  A    between atoms: C9_9  and  C10_10 
REMARK    4  A    between atoms: C10_10  and  C11_11 
ROOT
HETATM    1  C1  UNL     1     -35.847  13.804  -5.493  1.00 20.00     0.135 C 
HETATM    2  O12 UNL     1     -35.890  12.596  -5.308  1.00 20.00    -0.297 OA
ENDROOT
BRANCH   1   3
HETATM    3  C4  UNL     1     -35.568  14.340  -6.858  1.00 20.00     0.017 A 
HETATM    4  C2  UNL     1     -36.097  15.721  -7.163  1.00 20.00     0.018 A 
HETATM    5  C3  UNL     1     -36.760  14.522  -7.769  1.00 20.00     0.018 A 
HETATM    6  C5  UNL     1     -34.264  13.938  -7.488  1.00 20.00     0.023 C 
ENDBRANCH   1   3
BRANCH   1   7
HETATM    7  C9  UNL     1     -36.063  14.851  -4.418  1.00 20.00     0.080 C 
BRANCH   7   8
HETATM    8  C10 UNL     1     -34.774  15.159  -3.651  1.00 20.00     0.015 C 
BRANCH   8   9
HETATM    9  C11 UNL     1     -34.297  16.634  -3.700  1.00 20.00    -0.051 C 
HETATM   10  C6  UNL     1     -35.537  17.534  -3.868  1.00 20.00     0.014 C 
HETATM   11  C7  UNL     1     -33.356  16.874  -4.893  1.00 20.00     0.014 C 
HETATM   12  C8  UNL     1     -33.578  17.031  -2.401  1.00 20.00     0.014 C 
ENDBRANCH   8   9
ENDBRANCH   7   8
ENDBRANCH   1   7
TORSDOF 4
ENDMDL
MODEL 8
REMARK VINA RESULT:      -4.5     10.343     11.703
REMARK  4 active torsions:
REMARK  status: ('A' for Active; 'I' for Inactive)
REMARK    1  A    between atoms: C1_1  and  C4_4 
REMARK    2  A    between atoms: C1_1  and  C9_9 
REMARK    3  A    between atoms: C9_9  and  C10_10 
REMARK    4  A    between atoms: C10_10  and  C11_11 
ROOT
HETATM    1  C1  UNL     1     -35.879  13.829  -5.423  1.00 20.00     0.135 C 
HETATM    2  O12 UNL     1     -35.899  12.614  -5.278  1.00 20.00    -0.297 OA
ENDROOT
BRANCH   1   3
HETATM    3  C4  UNL     1     -35.684  14.415  -6.782  1.00 20.00     0.017 A 
HETATM    4  C2  UNL     1     -35.469  13.438  -7.915  1.00 20.00     0.018 A 
HETATM    5  C3  UNL     1     -34.316  14.245  -7.402  1.00 20.00     0.018 A 
HETATM    6  C5  UNL     1     -36.434  15.681  -7.088  1.00 20.00     0.023 C 
ENDBRANCH   1   3
BRANCH   1   7
HETATM    7  C9  UNL     1     -36.043  14.836  -4.303  1.00 20.00     0.080 C 
BRANCH   7   8
HETATM    8  C10 UNL     1     -34.702  15.208  -3.665  1.00 20.00     0.015 C 
BRANCH   8   9
HETATM    9  C11 UNL     1     -34.325  16.712  -3.720  1.00 20.00    -0.051 C 
HETATM   10  C6  UNL     1     -33.552  17.061  -2.433  1.00 20.00     0.014 C 
HETATM   11  C7  UNL     1     -35.581  17.596  -3.789  1.00 20.00     0.014 C 
HETATM   12  C8  UNL     1     -33.425  17.017  -4.928  1.00 20.00     0.014 C 
ENDBRANCH   8   9
ENDBRANCH   7   8
ENDBRANCH   1   7
TORSDOF 4
ENDMDL
MODEL 9
REMARK VINA RESULT:      -4.5     10.119     11.586
REMARK  4 active torsions:
REMARK  status: ('A' for Active; 'I' for Inactive)
REMARK    1  A    between atoms: C1_1  and  C4_4 
REMARK    2  A    between atoms: C1_1  and  C9_9 
REMARK    3  A    between atoms: C9_9  and  C10_10 
REMARK    4  A    between atoms: C10_10  and  C11_11 
ROOT
HETATM    1  C1  UNL     1     -34.926  14.012  -5.139  1.00 20.00     0.135 C 
HETATM    2  O12 UNL     1     -35.649  13.025  -5.122  1.00 20.00    -0.297 OA
ENDROOT
BRANCH   1   3
HETATM    3  C4  UNL     1     -34.523  14.618  -6.442  1.00 20.00     0.017 A 
HETATM    4  C2  UNL     1     -33.604  15.815  -6.376  1.00 20.00     0.018 A 
HETATM    5  C3  UNL     1     -35.046  16.006  -6.733  1.00 20.00     0.018 A 
HETATM    6  C5  UNL     1     -34.359  13.678  -7.604  1.00 20.00     0.023 C 
ENDBRANCH   1   3
BRANCH   1   7
HETATM    7  C9  UNL     1     -34.382  14.706  -3.907  1.00 20.00     0.080 C 
BRANCH   7   8
HETATM    8  C10 UNL     1     -35.449  15.550  -3.205  1.00 20.00     0.015 C 
BRANCH   8   9
HETATM    9  C11 UNL     1     -34.948  16.870  -2.562  1.00 20.00    -0.051 C 
HETATM   10  C6  UNL     1     -35.497  18.047  -3.390  1.00 20.00     0.014 C 
HETATM   11  C7  UNL     1     -33.412  16.942  -2.570  1.00 20.00     0.014 C 
HETATM   12  C8  UNL     1     -35.453  17.011  -1.116  1.00 20.00     0.014 C 
ENDBRANCH   8   9
ENDBRANCH   7   8
ENDBRANCH   1   7
TORSDOF 4
ENDMDL
