MODEL 1
REMARK VINA RESULT:      -5.8      0.000      0.000
REMARK  1 active torsions:
REMARK  status: ('A' for Active; 'I' for Inactive)
REMARK    1  A    between atoms: C3_3  and  C7_7 
ROOT
HETATM    1  C1  UNL     1     -32.195   8.101   2.159  1.00 20.00     0.087 C 
HETATM    2  C2  UNL     1     -32.936   7.489   3.205  1.00 20.00     0.090 C 
HETATM    3  C3  UNL     1     -33.913   6.608   2.951  1.00 20.00    -0.011 C 
HETATM    4  N8  UNL     1     -31.586   8.602   1.308  1.00 20.00    -0.192 NA
ENDROOT
BRANCH   3   5
HETATM    5  C7  UNL     1     -34.709   5.948   4.000  1.00 20.00     0.009 C 
HETATM    6  C5  UNL     1     -34.319   4.481   4.317  1.00 20.00     0.008 C 
HETATM    7  C4  UNL     1     -34.610   4.802   5.798  1.00 20.00     0.001 C 
HETATM    8  C6  UNL     1     -34.304   6.276   5.459  1.00 20.00     0.008 C 
ENDBRANCH   3   5
TORSDOF 1
ENDMDL
MODEL 2
REMARK VINA RESULT:      -5.7      0.921      1.516
REMARK  1 active torsions:
REMARK  status: ('A' for Active; 'I' for Inactive)
REMARK    1  A    between atoms: C3_3  and  C7_7 
ROOT
HETATM    1  C1  UNL     1     -32.182   8.896   1.547  1.00 20.00     0.087 C 
HETATM    2  C2  UNL     1     -32.221   7.922   2.580  1.00 20.00     0.090 C 
HETATM    3  C3  UNL     1     -33.379   7.504   3.108  1.00 20.00    -0.011 C 
HETATM    4  N8  UNL     1     -32.147   9.691   0.702  1.00 20.00    -0.192 NA
ENDROOT
BRANCH   3   5
HETATM    5  C7  UNL     1     -33.470   6.497   4.179  1.00 20.00     0.009 C 
HETATM    6  C5  UNL     1     -33.795   7.047   5.592  1.00 20.00     0.008 C 
HETATM    7  C4  UNL     1     -34.661   5.786   5.801  1.00 20.00     0.001 C 
HETATM    8  C6  UNL     1     -34.814   5.729   4.267  1.00 20.00     0.008 C 
ENDBRANCH   3   5
TORSDOF 1
ENDMDL
MODEL 3
REMARK VINA RESULT:      -4.7      2.393      4.878
REMARK  1 active torsions:
REMARK  status: ('A' for Active; 'I' for Inactive)
REMARK    1  A    between atoms: C3_3  and  C7_7 
ROOT
HETATM    1  C1  UNL     1     -34.074   5.976   3.896  1.00 20.00     0.087 C 
HETATM    2  C2  UNL     1     -33.599   7.255   3.501  1.00 20.00     0.090 C 
HETATM    3  C3  UNL     1     -32.654   7.395   2.562  1.00 20.00    -0.011 C 
HETATM    4  N8  UNL     1     -34.465   4.933   4.221  1.00 20.00    -0.192 NA
ENDROOT
BRANCH   3   5
HETATM    5  C7  UNL     1     -32.130   8.698   2.119  1.00 20.00     0.009 C 
HETATM    6  C5  UNL     1     -31.597   8.749   0.664  1.00 20.00     0.008 C 
HETATM    7  C4  UNL     1     -32.199  10.167   0.572  1.00 20.00     0.001 C 
HETATM    8  C6  UNL     1     -33.192   9.733   1.671  1.00 20.00     0.008 C 
ENDBRANCH   3   5
TORSDOF 1
ENDMDL
MODEL 4
REMARK VINA RESULT:      -4.4     11.496     11.992
REMARK  1 active torsions:
REMARK  status: ('A' for Active; 'I' for Inactive)
REMARK    1  A    between atoms: C3_3  and  C7_7 
ROOT
HETATM    1  C1  UNL     1     -35.426  13.810  -4.766  1.00 20.00     0.087 C 
HETATM    2  C2  UNL     1     -34.880  14.943  -4.106  1.00 20.00     0.090 C 
HETATM    3  C3  UNL     1     -35.643  15.767  -3.376  1.00 20.00    -0.011 C 
HETATM    4  N8  UNL     1     -35.868  12.883  -5.305  1.00 20.00    -0.192 NA
ENDROOT
BRANCH   3   5
HETATM    5  C7  UNL     1     -35.124  16.953  -2.674  1.00 20.00     0.009 C 
HETATM    6  C5  UNL     1     -35.350  16.979  -1.140  1.00 20.00     0.008 C 
HETATM    7  C4  UNL     1     -33.952  17.622  -1.020  1.00 20.00     0.001 C 
HETATM    8  C6  UNL     1     -33.606  16.938  -2.360  1.00 20.00     0.008 C 
ENDBRANCH   3   5
TORSDOF 1
ENDMDL
MODEL 5
REMARK VINA RESULT:      -4.1     11.380     12.280
REMARK  1 active torsions:
REMARK  status: ('A' for Active; 'I' for Inactive)
REMARK    1  A    between atoms: C3_3  and  C7_7 
ROOT
HETATM    1  C1  UNL     1     -35.228  13.672  -4.750  1.00 20.00     0.087 C 
HETATM    2  C2  UNL     1     -34.270  14.507  -4.117  1.00 20.00     0.090 C 
HETATM    3  C3  UNL     1     -34.633  15.594  -3.424  1.00 20.00    -0.011 C 
HETATM    4  N8  UNL     1     -36.009  12.986  -5.267  1.00 20.00    -0.192 NA
ENDROOT
BRANCH   3   5
HETATM    5  C7  UNL     1     -33.678  16.490  -2.751  1.00 20.00     0.009 C 
HETATM    6  C5  UNL     1     -33.570  17.921  -3.338  1.00 20.00     0.008 C 
HETATM    7  C4  UNL     1     -33.418  18.424  -1.887  1.00 20.00     0.001 C 
HETATM    8  C6  UNL     1     -34.186  17.159  -1.449  1.00 20.00     0.008 C 
ENDBRANCH   3   5
TORSDOF 1
ENDMDL
MODEL 6
REMARK VINA RESULT:      -4.0     12.001     12.505
REMARK  1 active torsions:
REMARK  status: ('A' for Active; 'I' for Inactive)
REMARK    1  A    between atoms: C3_3  and  C7_7 
ROOT
HETATM    1  C1  UNL     1     -31.494  18.842   0.849  1.00 20.00     0.087 C 
HETATM    2  C2  UNL     1     -32.673  18.581   0.102  1.00 20.00     0.090 C 
HETATM    3  C3  UNL     1     -32.621  18.107  -1.149  1.00 20.00    -0.011 C 
HETATM    4  N8  UNL     1     -30.532  19.056   1.463  1.00 20.00    -0.192 NA
ENDROOT
BRANCH   3   5
HETATM    5  C7  UNL     1     -33.815  17.820  -1.963  1.00 20.00     0.009 C 
HETATM    6  C5  UNL     1     -33.734  16.551  -2.850  1.00 20.00     0.008 C 
HETATM    7  C4  UNL     1     -35.223  16.315  -2.517  1.00 20.00     0.001 C 
HETATM    8  C6  UNL     1     -34.982  17.120  -1.222  1.00 20.00     0.008 C 
ENDBRANCH   3   5
TORSDOF 1
ENDMDL
MODEL 7
REMARK VINA RESULT:      -3.7     11.347     12.200
REMARK  1 active torsions:
REMARK  status: ('A' for Active; 'I' for Inactive)
REMARK    1  A    between atoms: C3_3  and  C7_7 
ROOT
HETATM    1  C1  UNL     1     -32.924  17.851  -1.416  1.00 20.00     0.087 C 
HETATM    2  C2  UNL     1     -33.966  16.992  -1.855  1.00 20.00     0.090 C 
HETATM    3  C3  UNL     1     -33.923  16.386  -3.049  1.00 20.00    -0.011 C 
HETATM    4  N8  UNL     1     -32.073  18.552  -1.054  1.00 20.00    -0.192 NA
ENDROOT
BRANCH   3   5
HETATM    5  C7  UNL     1     -34.978  15.488  -3.547  1.00 20.00     0.009 C 
HETATM    6  C5  UNL     1     -35.510  15.801  -4.970  1.00 20.00     0.008 C 
HETATM    7  C4  UNL     1     -35.598  14.276  -5.190  1.00 20.00     0.001 C 
HETATM    8  C6  UNL     1     -34.492  14.134  -4.124  1.00 20.00     0.008 C 
ENDBRANCH   3   5
TORSDOF 1
ENDMDL
MODEL 8
REMARK VINA RESULT:      -3.6     12.032     12.648
REMARK  1 active torsions:
REMARK  status: ('A' for Active; 'I' for Inactive)
REMARK    1  A    between atoms: C3_3  and  C7_7 
ROOT
HETATM    1  C1  UNL     1     -33.507  15.609  -6.229  1.00 20.00     0.087 C 
HETATM    2  C2  UNL     1     -33.205  15.756  -4.849  1.00 20.00     0.090 C 
HETATM    3  C3  UNL     1     -34.081  16.295  -3.991  1.00 20.00    -0.011 C 
HETATM    4  N8  UNL     1     -33.751  15.486  -7.357  1.00 20.00    -0.192 NA
ENDROOT
BRANCH   3   5
HETATM    5  C7  UNL     1     -33.814  16.468  -2.553  1.00 20.00     0.009 C 
HETATM    6  C5  UNL     1     -33.296  17.867  -2.129  1.00 20.00     0.008 C 
HETATM    7  C4  UNL     1     -34.159  17.718  -0.858  1.00 20.00     0.001 C 
HETATM    8  C6  UNL     1     -35.054  16.759  -1.669  1.00 20.00     0.008 C 
ENDBRANCH   3   5
TORSDOF 1
ENDMDL
MODEL 9
REMARK VINA RESULT:      -3.5     11.268     11.948
REMARK  1 active torsions:
REMARK  status: ('A' for Active; 'I' for Inactive)
REMARK    1  A    between atoms: C3_3  and  C7_7 
ROOT
HETATM    1  C1  UNL     1     -34.794  17.409  -0.757  1.00 20.00     0.087 C 
HETATM    2  C2  UNL     1     -35.167  16.703  -1.931  1.00 20.00     0.090 C 
HETATM    3  C3  UNL     1     -34.267  16.360  -2.861  1.00 20.00    -0.011 C 
HETATM    4  N8  UNL     1     -34.492  17.986   0.204  1.00 20.00    -0.192 NA
ENDROOT
BRANCH   3   5
HETATM    5  C7  UNL     1     -34.605  15.628  -4.093  1.00 20.00     0.009 C 
HETATM    6  C5  UNL     1     -34.261  14.116  -4.093  1.00 20.00     0.008 C 
HETATM    7  C4  UNL     1     -35.571  13.894  -4.878  1.00 20.00     0.001 C 
HETATM    8  C6  UNL     1     -36.088  15.199  -4.236  1.00 20.00     0.008 C 
ENDBRANCH   3   5
TORSDOF 1
ENDMDL
