MODEL 1
REMARK VINA RESULT:      -5.5      0.000      0.000
REMARK  3 active torsions:
REMARK  status: ('A' for Active; 'I' for Inactive)
REMARK    1  A    between atoms: C1_1  and  C7_7 
REMARK    2  A    between atoms: C2_2  and  C3_3 
REMARK    3  A    between atoms: C3_3  and  C9_9 
ROOT
HETATM    1  C1  UNL     1     -32.827   7.417   2.241  1.00 20.00    -0.012 C 
HETATM    2  C3  UNL     1     -33.230   6.914   3.421  1.00 20.00    -0.024 C 
ENDROOT
BRANCH   1   3
HETATM    3  C7  UNL     1     -32.276   8.761   1.991  1.00 20.00     0.009 C 
HETATM    4  C5  UNL     1     -31.653   8.983   0.590  1.00 20.00     0.008 C 
HETATM    5  C4  UNL     1     -32.249  10.405   0.631  1.00 20.00     0.001 C 
HETATM    6  C6  UNL     1     -33.311   9.849   1.604  1.00 20.00     0.008 C 
ENDBRANCH   1   3
BRANCH   2   7
HETATM    7  C2  UNL     1     -33.760   5.524   3.400  1.00 20.00     0.265 C 
HETATM    8  O10 UNL     1     -33.208   4.606   2.807  1.00 20.00    -0.302 OA
ENDBRANCH   2   7
BRANCH   2   9
HETATM    9  C9  UNL     1     -33.219   7.652   4.731  1.00 20.00     0.037 C 
HETATM   10  C8  UNL     1     -33.977   6.902   5.818  1.00 20.00     0.010 C 
ENDBRANCH   2   9
TORSDOF 3
ENDMDL
MODEL 2
REMARK VINA RESULT:      -5.3      1.438      2.308
REMARK  3 active torsions:
REMARK  status: ('A' for Active; 'I' for Inactive)
REMARK    1  A    between atoms: C1_1  and  C7_7 
REMARK    2  A    between atoms: C2_2  and  C3_3 
REMARK    3  A    between atoms: C3_3  and  C9_9 
ROOT
HETATM    1  C1  UNL     1     -33.003   8.210   3.242  1.00 20.00    -0.012 C 
HETATM    2  C3  UNL     1     -33.581   7.158   3.849  1.00 20.00    -0.024 C 
ENDROOT
BRANCH   1   3
HETATM    3  C7  UNL     1     -32.879   8.437   1.791  1.00 20.00     0.009 C 
HETATM    4  C5  UNL     1     -33.071   9.901   1.320  1.00 20.00     0.008 C 
HETATM    5  C4  UNL     1     -31.952   9.640   0.292  1.00 20.00     0.001 C 
HETATM    6  C6  UNL     1     -31.430   8.549   1.251  1.00 20.00     0.008 C 
ENDBRANCH   1   3
BRANCH   2   7
HETATM    7  C2  UNL     1     -33.565   7.164   5.337  1.00 20.00     0.265 C 
HETATM    8  O10 UNL     1     -34.256   6.415   6.017  1.00 20.00    -0.302 OA
ENDBRANCH   2   7
BRANCH   2   9
HETATM    9  C9  UNL     1     -34.197   5.978   3.149  1.00 20.00     0.037 C 
HETATM   10  C8  UNL     1     -33.161   4.927   2.779  1.00 20.00     0.010 C 
ENDBRANCH   2   9
TORSDOF 3
ENDMDL
MODEL 3
REMARK VINA RESULT:      -4.6      2.077      4.439
REMARK  3 active torsions:
REMARK  status: ('A' for Active; 'I' for Inactive)
REMARK    1  A    between atoms: C1_1  and  C7_7 
REMARK    2  A    between atoms: C2_2  and  C3_3 
REMARK    3  A    between atoms: C3_3  and  C9_9 
ROOT
HETATM    1  C1  UNL     1     -33.551   7.061   2.849  1.00 20.00    -0.012 C 
HETATM    2  C3  UNL     1     -32.570   7.924   2.529  1.00 20.00    -0.024 C 
ENDROOT
BRANCH   1   3
HETATM    3  C7  UNL     1     -33.579   6.135   3.995  1.00 20.00     0.009 C 
HETATM    4  C5  UNL     1     -33.983   6.760   5.355  1.00 20.00     0.008 C 
HETATM    5  C4  UNL     1     -34.739   5.448   5.649  1.00 20.00     0.001 C 
HETATM    6  C6  UNL     1     -34.852   5.260   4.121  1.00 20.00     0.008 C 
ENDBRANCH   1   3
BRANCH   2   7
HETATM    7  C2  UNL     1     -32.786   8.744   1.307  1.00 20.00     0.265 C 
HETATM    8  O10 UNL     1     -31.868   9.220   0.649  1.00 20.00    -0.302 OA
ENDBRANCH   2   7
BRANCH   2   9
HETATM    9  C9  UNL     1     -31.279   8.091   3.280  1.00 20.00     0.037 C 
HETATM   10  C8  UNL     1     -31.423   9.037   4.464  1.00 20.00     0.010 C 
ENDBRANCH   2   9
TORSDOF 3
ENDMDL
MODEL 4
REMARK VINA RESULT:      -4.5      1.814      4.532
REMARK  3 active torsions:
REMARK  status: ('A' for Active; 'I' for Inactive)
REMARK    1  A    between atoms: C1_1  and  C7_7 
REMARK    2  A    between atoms: C2_2  and  C3_3 
REMARK    3  A    between atoms: C3_3  and  C9_9 
ROOT
HETATM    1  C1  UNL     1     -32.647   7.410   2.966  1.00 20.00    -0.012 C 
HETATM    2  C3  UNL     1     -32.481   8.428   2.102  1.00 20.00    -0.024 C 
ENDROOT
BRANCH   1   3
HETATM    3  C7  UNL     1     -33.840   7.126   3.783  1.00 20.00     0.009 C 
HETATM    4  C5  UNL     1     -34.210   5.628   3.935  1.00 20.00     0.008 C 
HETATM    5  C4  UNL     1     -34.608   5.951   5.390  1.00 20.00     0.001 C 
HETATM    6  C6  UNL     1     -33.620   7.134   5.317  1.00 20.00     0.008 C 
ENDBRANCH   1   3
BRANCH   2   7
HETATM    7  C2  UNL     1     -31.169   8.495   1.405  1.00 20.00     0.265 C 
HETATM    8  O10 UNL     1     -31.059   8.502   0.185  1.00 20.00    -0.302 OA
ENDBRANCH   2   7
BRANCH   2   9
HETATM    9  C9  UNL     1     -33.492   9.506   1.823  1.00 20.00     0.037 C 
HETATM   10  C8  UNL     1     -32.833  10.839   1.497  1.00 20.00     0.010 C 
ENDBRANCH   2   9
TORSDOF 3
ENDMDL
MODEL 5
REMARK VINA RESULT:      -4.4     10.125     10.807
REMARK  3 active torsions:
REMARK  status: ('A' for Active; 'I' for Inactive)
REMARK    1  A    between atoms: C1_1  and  C7_7 
REMARK    2  A    between atoms: C2_2  and  C3_3 
REMARK    3  A    between atoms: C3_3  and  C9_9 
ROOT
HETATM    1  C1  UNL     1     -35.379  15.600  -3.251  1.00 20.00    -0.012 C 
HETATM    2  C3  UNL     1     -34.940  14.768  -4.212  1.00 20.00    -0.024 C 
ENDROOT
BRANCH   1   3
HETATM    3  C7  UNL     1     -34.558  16.465  -2.385  1.00 20.00     0.009 C 
HETATM    4  C5  UNL     1     -34.429  17.942  -2.838  1.00 20.00     0.008 C 
HETATM    5  C4  UNL     1     -34.494  18.327  -1.346  1.00 20.00     0.001 C 
HETATM    6  C6  UNL     1     -35.264  17.009  -1.117  1.00 20.00     0.008 C 
ENDBRANCH   1   3
BRANCH   2   7
HETATM    7  C2  UNL     1     -35.981  13.993  -4.940  1.00 20.00     0.265 C 
HETATM    8  O10 UNL     1     -35.879  12.796  -5.181  1.00 20.00    -0.302 OA
ENDBRANCH   2   7
BRANCH   2   9
HETATM    9  C9  UNL     1     -33.499  14.538  -4.574  1.00 20.00     0.037 C 
HETATM   10  C8  UNL     1     -32.978  15.588  -5.546  1.00 20.00     0.010 C 
ENDBRANCH   2   9
TORSDOF 3
ENDMDL
MODEL 6
REMARK VINA RESULT:      -4.3     10.096     10.932
REMARK  3 active torsions:
REMARK  status: ('A' for Active; 'I' for Inactive)
REMARK    1  A    between atoms: C1_1  and  C7_7 
REMARK    2  A    between atoms: C2_2  and  C3_3 
REMARK    3  A    between atoms: C3_3  and  C9_9 
ROOT
HETATM    1  C1  UNL     1     -34.537  15.586  -3.492  1.00 20.00    -0.012 C 
HETATM    2  C3  UNL     1     -35.517  14.987  -4.192  1.00 20.00    -0.024 C 
ENDROOT
BRANCH   1   3
HETATM    3  C7  UNL     1     -34.628  16.853  -2.745  1.00 20.00     0.009 C 
HETATM    4  C5  UNL     1     -35.325  16.771  -1.363  1.00 20.00     0.008 C 
HETATM    5  C4  UNL     1     -34.283  17.789  -0.859  1.00 20.00     0.001 C 
HETATM    6  C6  UNL     1     -33.350  17.271  -1.974  1.00 20.00     0.008 C 
ENDBRANCH   1   3
BRANCH   2   7
HETATM    7  C2  UNL     1     -35.161  13.711  -4.867  1.00 20.00     0.265 C 
HETATM    8  O10 UNL     1     -35.984  12.845  -5.140  1.00 20.00    -0.302 OA
ENDBRANCH   2   7
BRANCH   2   9
HETATM    9  C9  UNL     1     -36.912  15.521  -4.369  1.00 20.00     0.037 C 
HETATM   10  C8  UNL     1     -37.081  16.253  -5.693  1.00 20.00     0.010 C 
ENDBRANCH   2   9
TORSDOF 3
ENDMDL
MODEL 7
REMARK VINA RESULT:      -4.3     10.254     10.974
REMARK  3 active torsions:
REMARK  status: ('A' for Active; 'I' for Inactive)
REMARK    1  A    between atoms: C1_1  and  C7_7 
REMARK    2  A    between atoms: C2_2  and  C3_3 
REMARK    3  A    between atoms: C3_3  and  C9_9 
ROOT
HETATM    1  C1  UNL     1     -35.729  16.059  -3.306  1.00 20.00    -0.012 C 
HETATM    2  C3  UNL     1     -36.029  15.055  -4.149  1.00 20.00    -0.024 C 
ENDROOT
BRANCH   1   3
HETATM    3  C7  UNL     1     -34.430  16.315  -2.658  1.00 20.00     0.009 C 
HETATM    4  C5  UNL     1     -33.599  17.479  -3.254  1.00 20.00     0.008 C 
HETATM    5  C4  UNL     1     -33.175  17.817  -1.810  1.00 20.00     0.001 C 
HETATM    6  C6  UNL     1     -34.485  17.143  -1.349  1.00 20.00     0.008 C 
ENDBRANCH   1   3
BRANCH   2   7
HETATM    7  C2  UNL     1     -37.426  15.017  -4.659  1.00 20.00     0.265 C 
HETATM    8  O10 UNL     1     -38.020  13.974  -4.908  1.00 20.00    -0.302 OA
ENDBRANCH   2   7
BRANCH   2   9
HETATM    9  C9  UNL     1     -35.085  13.966  -4.577  1.00 20.00     0.037 C 
HETATM   10  C8  UNL     1     -34.288  14.353  -5.815  1.00 20.00     0.010 C 
ENDBRANCH   2   9
TORSDOF 3
ENDMDL
MODEL 8
REMARK VINA RESULT:      -4.2     10.385     11.003
REMARK  3 active torsions:
REMARK  status: ('A' for Active; 'I' for Inactive)
REMARK    1  A    between atoms: C1_1  and  C7_7 
REMARK    2  A    between atoms: C2_2  and  C3_3 
REMARK    3  A    between atoms: C3_3  and  C9_9 
ROOT
HETATM    1  C1  UNL     1     -33.698  16.393  -2.915  1.00 20.00    -0.012 C 
HETATM    2  C3  UNL     1     -33.999  17.110  -1.818  1.00 20.00    -0.024 C 
ENDROOT
BRANCH   1   3
HETATM    3  C7  UNL     1     -34.567  15.423  -3.607  1.00 20.00     0.009 C 
HETATM    4  C5  UNL     1     -35.120  15.877  -4.982  1.00 20.00     0.008 C 
HETATM    5  C4  UNL     1     -34.929  14.421  -5.455  1.00 20.00     0.001 C 
HETATM    6  C6  UNL     1     -33.834  14.294  -4.375  1.00 20.00     0.008 C 
ENDBRANCH   1   3
BRANCH   2   7
HETATM    7  C2  UNL     1     -32.935  18.017  -1.310  1.00 20.00     0.265 C 
HETATM    8  O10 UNL     1     -32.463  18.932  -1.974  1.00 20.00    -0.302 OA
ENDBRANCH   2   7
BRANCH   2   9
HETATM    9  C9  UNL     1     -35.295  17.036  -1.058  1.00 20.00     0.037 C 
HETATM   10  C8  UNL     1     -35.210  17.741   0.289  1.00 20.00     0.010 C 
ENDBRANCH   2   9
TORSDOF 3
ENDMDL
MODEL 9
REMARK VINA RESULT:      -4.2     10.311     11.217
REMARK  3 active torsions:
REMARK  status: ('A' for Active; 'I' for Inactive)
REMARK    1  A    between atoms: C1_1  and  C7_7 
REMARK    2  A    between atoms: C2_2  and  C3_3 
REMARK    3  A    between atoms: C3_3  and  C9_9 
ROOT
HETATM    1  C1  UNL     1     -33.743  16.850  -3.415  1.00 20.00    -0.012 C 
HETATM    2  C3  UNL     1     -33.757  15.898  -4.365  1.00 20.00    -0.024 C 
ENDROOT
BRANCH   1   3
HETATM    3  C7  UNL     1     -34.069  16.682  -1.987  1.00 20.00     0.009 C 
HETATM    4  C5  UNL     1     -33.724  17.884  -1.072  1.00 20.00     0.008 C 
HETATM    5  C4  UNL     1     -35.027  17.579  -0.305  1.00 20.00     0.001 C 
HETATM    6  C6  UNL     1     -35.551  16.931  -1.604  1.00 20.00     0.008 C 
ENDBRANCH   1   3
BRANCH   2   7
HETATM    7  C2  UNL     1     -33.393  16.333  -5.740  1.00 20.00     0.265 C 
HETATM    8  O10 UNL     1     -33.270  15.554  -6.678  1.00 20.00    -0.302 OA
ENDBRANCH   2   7
BRANCH   2   9
HETATM    9  C9  UNL     1     -34.142  14.460  -4.152  1.00 20.00     0.037 C 
HETATM   10  C8  UNL     1     -35.551  14.165  -4.646  1.00 20.00     0.010 C 
ENDBRANCH   2   9
TORSDOF 3
ENDMDL
