MODEL 1
REMARK VINA RESULT:      -6.0      0.000      0.000
REMARK  4 active torsions:
REMARK  status: ('A' for Active; 'I' for Inactive)
REMARK    1  A    between atoms: C2_2  and  C8_8 
REMARK    2  A    between atoms: C3_3  and  C8_8 
REMARK    3  A    between atoms: C3_3  and  C9_9 
REMARK    4  A    between atoms: C6_6  and  C9_9 
ROOT
HETATM    1  C1  UNL     1     -32.583   9.226   0.742  1.00 20.00    -0.111 C 
HETATM    2  C2  UNL     1     -32.303   8.698   1.785  1.00 20.00    -0.100 C 
HETATM    3  C7  UNL     1     -32.923   9.868  -0.526  1.00 20.00     0.112 C 
ENDROOT
BRANCH   2   4
HETATM    4  C8  UNL     1     -31.966   8.049   3.057  1.00 20.00     0.172 C 
BRANCH   4   5
HETATM    5  C3  UNL     1     -32.832   6.834   3.339  1.00 20.00     0.138 C 
HETATM    6  O10 UNL     1     -32.853   5.850   2.601  1.00 20.00    -0.297 OA
BRANCH   5   7
HETATM    7  C9  UNL     1     -33.677   6.915   4.597  1.00 20.00     0.083 C 
BRANCH   7   8
HETATM    8  C6  UNL     1     -34.716   5.843   4.696  1.00 20.00    -0.007 A 
HETATM    9  C4  UNL     1     -34.324   4.395   4.585  1.00 20.00     0.005 A 
HETATM   10  C5  UNL     1     -34.773   4.953   5.907  1.00 20.00     0.005 A 
ENDBRANCH   7   8
ENDBRANCH   5   7
ENDBRANCH   4   5
ENDBRANCH   2   4
TORSDOF 4
ENDMDL
MODEL 2
REMARK VINA RESULT:      -5.9      1.202      1.231
REMARK  4 active torsions:
REMARK  status: ('A' for Active; 'I' for Inactive)
REMARK    1  A    between atoms: C2_2  and  C8_8 
REMARK    2  A    between atoms: C3_3  and  C8_8 
REMARK    3  A    between atoms: C3_3  and  C9_9 
REMARK    4  A    between atoms: C6_6  and  C9_9 
ROOT
HETATM    1  C1  UNL     1     -32.514   9.076   0.946  1.00 20.00    -0.111 C 
HETATM    2  C2  UNL     1     -32.134   8.672   2.012  1.00 20.00    -0.100 C 
HETATM    3  C7  UNL     1     -32.977   9.567  -0.350  1.00 20.00     0.112 C 
ENDROOT
BRANCH   2   4
HETATM    4  C8  UNL     1     -31.663   8.180   3.312  1.00 20.00     0.172 C 
BRANCH   4   5
HETATM    5  C3  UNL     1     -32.765   7.516   4.118  1.00 20.00     0.138 C 
HETATM    6  O10 UNL     1     -33.036   7.849   5.270  1.00 20.00    -0.297 OA
BRANCH   5   7
HETATM    7  C9  UNL     1     -33.515   6.405   3.404  1.00 20.00     0.083 C 
BRANCH   7   8
HETATM    8  C6  UNL     1     -34.650   5.837   4.196  1.00 20.00    -0.007 A 
HETATM    9  C4  UNL     1     -34.705   4.363   4.492  1.00 20.00     0.005 A 
HETATM   10  C5  UNL     1     -34.422   5.341   5.598  1.00 20.00     0.005 A 
ENDBRANCH   7   8
ENDBRANCH   5   7
ENDBRANCH   4   5
ENDBRANCH   2   4
TORSDOF 4
ENDMDL
MODEL 3
REMARK VINA RESULT:      -5.6      1.127      5.468
REMARK  4 active torsions:
REMARK  status: ('A' for Active; 'I' for Inactive)
REMARK    1  A    between atoms: C2_2  and  C8_8 
REMARK    2  A    between atoms: C3_3  and  C8_8 
REMARK    3  A    between atoms: C3_3  and  C9_9 
REMARK    4  A    between atoms: C6_6  and  C9_9 
ROOT
HETATM    1  C1  UNL     1     -34.356   5.459   4.880  1.00 20.00    -0.111 C 
HETATM    2  C2  UNL     1     -33.908   5.960   3.883  1.00 20.00    -0.100 C 
HETATM    3  C7  UNL     1     -34.902   4.850   6.091  1.00 20.00     0.112 C 
ENDROOT
BRANCH   2   4
HETATM    4  C8  UNL     1     -33.357   6.567   2.666  1.00 20.00     0.172 C 
BRANCH   4   5
HETATM    5  C3  UNL     1     -32.340   7.653   2.966  1.00 20.00     0.138 C 
HETATM    6  O10 UNL     1     -31.963   7.911   4.107  1.00 20.00    -0.297 OA
BRANCH   5   7
HETATM    7  C9  UNL     1     -31.816   8.407   1.756  1.00 20.00     0.083 C 
BRANCH   7   8
HETATM    8  C6  UNL     1     -32.812   9.344   1.150  1.00 20.00    -0.007 A 
HETATM    9  C4  UNL     1     -32.350  10.600   0.464  1.00 20.00     0.005 A 
HETATM   10  C5  UNL     1     -32.922   9.469  -0.345  1.00 20.00     0.005 A 
ENDBRANCH   7   8
ENDBRANCH   5   7
ENDBRANCH   4   5
ENDBRANCH   2   4
TORSDOF 4
ENDMDL
MODEL 4
REMARK VINA RESULT:      -5.3      1.767      2.653
REMARK  4 active torsions:
REMARK  status: ('A' for Active; 'I' for Inactive)
REMARK    1  A    between atoms: C2_2  and  C8_8 
REMARK    2  A    between atoms: C3_3  and  C8_8 
REMARK    3  A    between atoms: C3_3  and  C9_9 
REMARK    4  A    between atoms: C6_6  and  C9_9 
ROOT
HETATM    1  C1  UNL     1     -32.434   7.420   2.491  1.00 20.00    -0.111 C 
HETATM    2  C2  UNL     1     -32.757   6.265   2.566  1.00 20.00    -0.100 C 
HETATM    3  C7  UNL     1     -32.042   8.825   2.399  1.00 20.00     0.112 C 
ENDROOT
BRANCH   2   4
HETATM    4  C8  UNL     1     -33.157   4.856   2.658  1.00 20.00     0.172 C 
BRANCH   4   5
HETATM    5  C3  UNL     1     -34.144   4.603   3.783  1.00 20.00     0.138 C 
HETATM    6  O10 UNL     1     -34.248   3.511   4.340  1.00 20.00    -0.297 OA
BRANCH   5   7
HETATM    7  C9  UNL     1     -35.002   5.792   4.177  1.00 20.00     0.083 C 
BRANCH   7   8
HETATM    8  C6  UNL     1     -34.769   6.268   5.576  1.00 20.00    -0.007 A 
HETATM    9  C4  UNL     1     -33.411   6.129   6.207  1.00 20.00     0.005 A 
HETATM   10  C5  UNL     1     -33.928   7.490   5.830  1.00 20.00     0.005 A 
ENDBRANCH   7   8
ENDBRANCH   5   7
ENDBRANCH   4   5
ENDBRANCH   2   4
TORSDOF 4
ENDMDL
MODEL 5
REMARK VINA RESULT:      -4.6     10.733     11.648
REMARK  4 active torsions:
REMARK  status: ('A' for Active; 'I' for Inactive)
REMARK    1  A    between atoms: C2_2  and  C8_8 
REMARK    2  A    between atoms: C3_3  and  C8_8 
REMARK    3  A    between atoms: C3_3  and  C9_9 
REMARK    4  A    between atoms: C6_6  and  C9_9 
ROOT
HETATM    1  C1  UNL     1     -34.753  16.738  -1.908  1.00 20.00    -0.111 C 
HETATM    2  C2  UNL     1     -34.173  16.366  -2.893  1.00 20.00    -0.100 C 
HETATM    3  C7  UNL     1     -35.457  17.190  -0.710  1.00 20.00     0.112 C 
ENDROOT
BRANCH   2   4
HETATM    4  C8  UNL     1     -33.471  15.913  -4.100  1.00 20.00     0.172 C 
BRANCH   4   5
HETATM    5  C3  UNL     1     -33.639  14.425  -4.347  1.00 20.00     0.138 C 
HETATM    6  O10 UNL     1     -32.722  13.620  -4.190  1.00 20.00    -0.297 OA
BRANCH   5   7
HETATM    7  C9  UNL     1     -35.020  13.992  -4.807  1.00 20.00     0.083 C 
BRANCH   7   8
HETATM    8  C6  UNL     1     -35.289  14.268  -6.253  1.00 20.00    -0.007 A 
HETATM    9  C4  UNL     1     -34.218  14.033  -7.281  1.00 20.00     0.005 A 
HETATM   10  C5  UNL     1     -35.420  13.131  -7.229  1.00 20.00     0.005 A 
ENDBRANCH   7   8
ENDBRANCH   5   7
ENDBRANCH   4   5
ENDBRANCH   2   4
TORSDOF 4
ENDMDL
MODEL 6
REMARK VINA RESULT:      -4.5      1.405      4.635
REMARK  4 active torsions:
REMARK  status: ('A' for Active; 'I' for Inactive)
REMARK    1  A    between atoms: C2_2  and  C8_8 
REMARK    2  A    between atoms: C3_3  and  C8_8 
REMARK    3  A    between atoms: C3_3  and  C9_9 
REMARK    4  A    between atoms: C6_6  and  C9_9 
ROOT
HETATM    1  C1  UNL     1     -34.087   6.855   5.873  1.00 20.00    -0.111 C 
HETATM    2  C2  UNL     1     -34.182   5.953   5.084  1.00 20.00    -0.100 C 
HETATM    3  C7  UNL     1     -33.972   7.951   6.833  1.00 20.00     0.112 C 
ENDROOT
BRANCH   2   4
HETATM    4  C8  UNL     1     -34.296   4.856   4.116  1.00 20.00     0.172 C 
BRANCH   4   5
HETATM    5  C3  UNL     1     -33.503   5.114   2.848  1.00 20.00     0.138 C 
HETATM    6  O10 UNL     1     -32.931   4.217   2.230  1.00 20.00    -0.297 OA
BRANCH   5   7
HETATM    7  C9  UNL     1     -33.458   6.561   2.390  1.00 20.00     0.083 C 
BRANCH   7   8
HETATM    8  C6  UNL     1     -32.086   7.158   2.408  1.00 20.00    -0.007 A 
HETATM    9  C4  UNL     1     -31.853   8.537   1.854  1.00 20.00     0.005 A 
HETATM   10  C5  UNL     1     -31.769   8.298   3.336  1.00 20.00     0.005 A 
ENDBRANCH   7   8
ENDBRANCH   5   7
ENDBRANCH   4   5
ENDBRANCH   2   4
TORSDOF 4
ENDMDL
MODEL 7
REMARK VINA RESULT:      -4.5     11.160     12.396
REMARK  4 active torsions:
REMARK  status: ('A' for Active; 'I' for Inactive)
REMARK    1  A    between atoms: C2_2  and  C8_8 
REMARK    2  A    between atoms: C3_3  and  C8_8 
REMARK    3  A    between atoms: C3_3  and  C9_9 
REMARK    4  A    between atoms: C6_6  and  C9_9 
ROOT
HETATM    1  C1  UNL     1     -34.516  16.376  -2.851  1.00 20.00    -0.111 C 
HETATM    2  C2  UNL     1     -35.269  15.734  -3.532  1.00 20.00    -0.100 C 
HETATM    3  C7  UNL     1     -33.599  17.157  -2.023  1.00 20.00     0.112 C 
ENDROOT
BRANCH   2   4
HETATM    4  C8  UNL     1     -36.185  14.948  -4.367  1.00 20.00     0.172 C 
BRANCH   4   5
HETATM    5  C3  UNL     1     -35.471  13.859  -5.148  1.00 20.00     0.138 C 
HETATM    6  O10 UNL     1     -35.921  12.719  -5.258  1.00 20.00    -0.297 OA
BRANCH   5   7
HETATM    7  C9  UNL     1     -34.155  14.269  -5.785  1.00 20.00     0.083 C 
BRANCH   7   8
HETATM    8  C6  UNL     1     -34.230  14.436  -7.270  1.00 20.00    -0.007 A 
HETATM    9  C4  UNL     1     -35.427  15.094  -7.899  1.00 20.00     0.005 A 
HETATM   10  C5  UNL     1     -34.100  15.802  -7.886  1.00 20.00     0.005 A 
ENDBRANCH   7   8
ENDBRANCH   5   7
ENDBRANCH   4   5
ENDBRANCH   2   4
TORSDOF 4
ENDMDL
MODEL 8
REMARK VINA RESULT:      -4.5      1.984      5.032
REMARK  4 active torsions:
REMARK  status: ('A' for Active; 'I' for Inactive)
REMARK    1  A    between atoms: C2_2  and  C8_8 
REMARK    2  A    between atoms: C3_3  and  C8_8 
REMARK    3  A    between atoms: C3_3  and  C9_9 
REMARK    4  A    between atoms: C6_6  and  C9_9 
ROOT
HETATM    1  C1  UNL     1     -33.093   4.936   2.529  1.00 20.00    -0.111 C 
HETATM    2  C2  UNL     1     -33.129   6.027   3.031  1.00 20.00    -0.100 C 
HETATM    3  C7  UNL     1     -33.050   3.609   1.918  1.00 20.00     0.112 C 
ENDROOT
BRANCH   2   4
HETATM    4  C8  UNL     1     -33.169   7.361   3.640  1.00 20.00     0.172 C 
BRANCH   4   5
HETATM    5  C3  UNL     1     -31.932   8.183   3.323  1.00 20.00     0.138 C 
HETATM    6  O10 UNL     1     -31.169   8.596   4.195  1.00 20.00    -0.297 OA
BRANCH   5   7
HETATM    7  C9  UNL     1     -31.698   8.467   1.850  1.00 20.00     0.083 C 
BRANCH   7   8
HETATM    8  C6  UNL     1     -32.839   9.166   1.180  1.00 20.00    -0.007 A 
HETATM    9  C4  UNL     1     -32.645  10.532   0.583  1.00 20.00     0.005 A 
HETATM   10  C5  UNL     1     -32.848   9.343  -0.313  1.00 20.00     0.005 A 
ENDBRANCH   7   8
ENDBRANCH   5   7
ENDBRANCH   4   5
ENDBRANCH   2   4
TORSDOF 4
ENDMDL
MODEL 9
REMARK VINA RESULT:      -4.4     10.873     11.741
REMARK  4 active torsions:
REMARK  status: ('A' for Active; 'I' for Inactive)
REMARK    1  A    between atoms: C2_2  and  C8_8 
REMARK    2  A    between atoms: C3_3  and  C8_8 
REMARK    3  A    between atoms: C3_3  and  C9_9 
REMARK    4  A    between atoms: C6_6  and  C9_9 
ROOT
HETATM    1  C1  UNL     1     -36.763  14.417  -4.913  1.00 20.00    -0.111 C 
HETATM    2  C2  UNL     1     -35.608  14.385  -4.585  1.00 20.00    -0.100 C 
HETATM    3  C7  UNL     1     -38.169  14.456  -5.312  1.00 20.00     0.112 C 
ENDROOT
BRANCH   2   4
HETATM    4  C8  UNL     1     -34.197  14.351  -4.182  1.00 20.00     0.172 C 
BRANCH   4   5
HETATM    5  C3  UNL     1     -33.457  15.627  -4.544  1.00 20.00     0.138 C 
HETATM    6  O10 UNL     1     -32.572  15.660  -5.396  1.00 20.00    -0.297 OA
BRANCH   5   7
HETATM    7  C9  UNL     1     -33.883  16.867  -3.778  1.00 20.00     0.083 C 
BRANCH   7   8
HETATM    8  C6  UNL     1     -33.890  16.687  -2.292  1.00 20.00    -0.007 A 
HETATM    9  C4  UNL     1     -34.112  17.867  -1.388  1.00 20.00     0.005 A 
HETATM   10  C5  UNL     1     -35.176  16.813  -1.521  1.00 20.00     0.005 A 
ENDBRANCH   7   8
ENDBRANCH   5   7
ENDBRANCH   4   5
ENDBRANCH   2   4
TORSDOF 4
ENDMDL
