MODEL 1
REMARK VINA RESULT:      -4.7      0.000      0.000
REMARK  5 active torsions:
REMARK  status: ('A' for Active; 'I' for Inactive)
REMARK    1  A    between atoms: C3_3  and  C9_9 
REMARK    2  A    between atoms: C7_7  and  C10_10 
REMARK    3  A    between atoms: C8_8  and  C10_10 
REMARK    4  A    between atoms: C9_9  and  C10_10 
REMARK    5  A    between atoms: C9_9  and  O11_11 
ROOT
HETATM    1  C9  UNL     1     -32.371   8.580   2.921  1.00 20.00     0.130 C 
ENDROOT
BRANCH   1   2
HETATM    2  C3  UNL     1     -32.262   9.243   1.552  1.00 20.00    -0.018 A 
HETATM    3  C1  UNL     1     -32.488  10.735   1.467  1.00 20.00     0.012 A 
HETATM    4  C2  UNL     1     -33.523   9.790   0.926  1.00 20.00     0.012 A 
HETATM    5  C4  UNL     1     -31.230   8.634   0.643  1.00 20.00     0.018 C 
ENDBRANCH   1   2
BRANCH   1   6
HETATM    6  C10 UNL     1     -33.341   7.372   2.959  1.00 20.00     0.014 C 
BRANCH   6   7
HETATM    7  C7  UNL     1     -34.235   7.342   4.219  1.00 20.00     0.002 C 
HETATM    8  C5  UNL     1     -33.481   7.362   5.542  1.00 20.00     0.005 C 
ENDBRANCH   6   7
BRANCH   6   9
HETATM    9  C8  UNL     1     -32.552   6.055   2.746  1.00 20.00     0.002 C 
HETATM   10  C6  UNL     1     -33.402   4.795   2.842  1.00 20.00     0.005 C 
ENDBRANCH   6   9
ENDBRANCH   1   6
BRANCH   1  11
HETATM   11  O11 UNL     1     -31.063   8.125   3.284  1.00 20.00    -0.394 OA
HETATM   12  H31 UNL     1     -31.060   8.057   4.250  1.00 20.00     0.210 HD
ENDBRANCH   1  11
TORSDOF 5
ENDMDL
MODEL 2
REMARK VINA RESULT:      -4.3      9.711     11.094
REMARK  5 active torsions:
REMARK  status: ('A' for Active; 'I' for Inactive)
REMARK    1  A    between atoms: C3_3  and  C9_9 
REMARK    2  A    between atoms: C7_7  and  C10_10 
REMARK    3  A    between atoms: C8_8  and  C10_10 
REMARK    4  A    between atoms: C9_9  and  C10_10 
REMARK    5  A    between atoms: C9_9  and  O11_11 
ROOT
HETATM    1  C9  UNL     1     -35.711  14.299  -4.750  1.00 20.00     0.130 C 
ENDROOT
BRANCH   1   2
HETATM    2  C3  UNL     1     -34.508  15.067  -4.213  1.00 20.00    -0.018 A 
HETATM    3  C1  UNL     1     -34.721  15.983  -3.031  1.00 20.00     0.012 A 
HETATM    4  C2  UNL     1     -34.485  16.567  -4.394  1.00 20.00     0.012 A 
HETATM    5  C4  UNL     1     -33.202  14.326  -4.305  1.00 20.00     0.018 C 
ENDBRANCH   1   2
BRANCH   1   6
HETATM    6  C10 UNL     1     -36.095  14.668  -6.205  1.00 20.00     0.014 C 
BRANCH   6   7
HETATM    7  C7  UNL     1     -37.609  14.910  -6.399  1.00 20.00     0.002 C 
HETATM    8  C5  UNL     1     -38.461  14.666  -5.161  1.00 20.00     0.005 C 
ENDBRANCH   6   7
BRANCH   6   9
HETATM    9  C8  UNL     1     -35.521  13.612  -7.185  1.00 20.00     0.002 C 
HETATM   10  C6  UNL     1     -34.245  14.046  -7.893  1.00 20.00     0.005 C 
ENDBRANCH   6   9
ENDBRANCH   1   6
BRANCH   1  11
HETATM   11  O11 UNL     1     -35.388  12.905  -4.703  1.00 20.00    -0.394 OA
HETATM   12  H31 UNL     1     -35.799  12.506  -5.483  1.00 20.00     0.210 HD
ENDBRANCH   1  11
TORSDOF 5
ENDMDL
MODEL 3
REMARK VINA RESULT:      -4.2      9.767     11.287
REMARK  5 active torsions:
REMARK  status: ('A' for Active; 'I' for Inactive)
REMARK    1  A    between atoms: C3_3  and  C9_9 
REMARK    2  A    between atoms: C7_7  and  C10_10 
REMARK    3  A    between atoms: C8_8  and  C10_10 
REMARK    4  A    between atoms: C9_9  and  C10_10 
REMARK    5  A    between atoms: C9_9  and  O11_11 
ROOT
HETATM    1  C9  UNL     1     -33.271  16.177  -5.358  1.00 20.00     0.130 C 
ENDROOT
BRANCH   1   2
HETATM    2  C3  UNL     1     -33.943  16.345  -6.718  1.00 20.00    -0.018 A 
HETATM    3  C1  UNL     1     -33.998  17.733  -7.313  1.00 20.00     0.012 A 
HETATM    4  C2  UNL     1     -35.250  17.101  -6.774  1.00 20.00     0.012 A 
HETATM    5  C4  UNL     1     -33.758  15.183  -7.654  1.00 20.00     0.018 C 
ENDBRANCH   1   2
BRANCH   1   6
HETATM    6  C10 UNL     1     -34.250  15.803  -4.216  1.00 20.00     0.014 C 
BRANCH   6   7
HETATM    7  C7  UNL     1     -33.889  16.452  -2.860  1.00 20.00     0.002 C 
HETATM    8  C5  UNL     1     -35.068  16.689  -1.927  1.00 20.00     0.005 C 
ENDBRANCH   6   7
BRANCH   6   9
HETATM    9  C8  UNL     1     -34.395  14.261  -4.129  1.00 20.00     0.002 C 
HETATM   10  C6  UNL     1     -35.643  13.713  -4.807  1.00 20.00     0.005 C 
ENDBRANCH   6   9
ENDBRANCH   1   6
BRANCH   1  11
HETATM   11  O11 UNL     1     -32.299  15.134  -5.484  1.00 20.00    -0.394 OA
HETATM   12  H31 UNL     1     -32.795  14.304  -5.510  1.00 20.00     0.210 HD
ENDBRANCH   1  11
TORSDOF 5
ENDMDL
MODEL 4
REMARK VINA RESULT:      -4.0      1.285      4.309
REMARK  5 active torsions:
REMARK  status: ('A' for Active; 'I' for Inactive)
REMARK    1  A    between atoms: C3_3  and  C9_9 
REMARK    2  A    between atoms: C7_7  and  C10_10 
REMARK    3  A    between atoms: C8_8  and  C10_10 
REMARK    4  A    between atoms: C9_9  and  C10_10 
REMARK    5  A    between atoms: C9_9  and  O11_11 
ROOT
HETATM    1  C9  UNL     1     -32.746   6.936   4.238  1.00 20.00     0.130 C 
ENDROOT
BRANCH   1   2
HETATM    2  C3  UNL     1     -33.891   6.682   5.213  1.00 20.00    -0.018 A 
HETATM    3  C1  UNL     1     -34.244   5.248   5.534  1.00 20.00     0.012 A 
HETATM    4  C2  UNL     1     -35.161   6.069   4.672  1.00 20.00     0.012 A 
HETATM    5  C4  UNL     1     -34.012   7.701   6.313  1.00 20.00     0.018 C 
ENDBRANCH   1   2
BRANCH   1   6
HETATM    6  C10 UNL     1     -33.209   7.244   2.791  1.00 20.00     0.014 C 
BRANCH   6   7
HETATM    7  C7  UNL     1     -33.620   5.984   1.996  1.00 20.00     0.002 C 
HETATM    8  C5  UNL     1     -32.847   4.721   2.351  1.00 20.00     0.005 C 
ENDBRANCH   6   7
BRANCH   6   9
HETATM    9  C8  UNL     1     -32.136   8.095   2.064  1.00 20.00     0.002 C 
HETATM   10  C6  UNL     1     -32.676   9.366   1.423  1.00 20.00     0.005 C 
ENDBRANCH   6   9
ENDBRANCH   1   6
BRANCH   1  11
HETATM   11  O11 UNL     1     -32.004   8.057   4.727  1.00 20.00    -0.394 OA
HETATM   12  H31 UNL     1     -32.312   8.825   4.225  1.00 20.00     0.210 HD
ENDBRANCH   1  11
TORSDOF 5
ENDMDL
MODEL 5
REMARK VINA RESULT:      -4.0      1.303      2.626
REMARK  5 active torsions:
REMARK  status: ('A' for Active; 'I' for Inactive)
REMARK    1  A    between atoms: C3_3  and  C9_9 
REMARK    2  A    between atoms: C7_7  and  C10_10 
REMARK    3  A    between atoms: C8_8  and  C10_10 
REMARK    4  A    between atoms: C9_9  and  C10_10 
REMARK    5  A    between atoms: C9_9  and  O11_11 
ROOT
HETATM    1  C9  UNL     1     -33.376   7.561   2.448  1.00 20.00     0.130 C 
ENDROOT
BRANCH   1   2
HETATM    2  C3  UNL     1     -32.125   8.411   2.245  1.00 20.00    -0.018 A 
HETATM    3  C1  UNL     1     -32.250   9.666   1.413  1.00 20.00     0.012 A 
HETATM    4  C2  UNL     1     -31.527   8.472   0.859  1.00 20.00     0.012 A 
HETATM    5  C4  UNL     1     -31.188   8.434   3.421  1.00 20.00     0.018 C 
ENDBRANCH   1   2
BRANCH   1   6
HETATM    6  C10 UNL     1     -33.226   6.473   3.543  1.00 20.00     0.014 C 
BRANCH   6   7
HETATM    7  C7  UNL     1     -33.300   5.032   2.990  1.00 20.00     0.002 C 
HETATM    8  C5  UNL     1     -33.993   4.029   3.902  1.00 20.00     0.005 C 
ENDBRANCH   6   7
BRANCH   6   9
HETATM    9  C8  UNL     1     -34.237   6.735   4.688  1.00 20.00     0.002 C 
HETATM   10  C6  UNL     1     -33.609   7.282   5.963  1.00 20.00     0.005 C 
ENDBRANCH   6   9
ENDBRANCH   1   6
BRANCH   1  11
HETATM   11  O11 UNL     1     -34.439   8.442   2.825  1.00 20.00    -0.394 OA
HETATM   12  H31 UNL     1     -34.043   9.321   2.915  1.00 20.00     0.210 HD
ENDBRANCH   1  11
TORSDOF 5
ENDMDL
MODEL 6
REMARK VINA RESULT:      -4.0     10.255     11.211
REMARK  5 active torsions:
REMARK  status: ('A' for Active; 'I' for Inactive)
REMARK    1  A    between atoms: C3_3  and  C9_9 
REMARK    2  A    between atoms: C7_7  and  C10_10 
REMARK    3  A    between atoms: C8_8  and  C10_10 
REMARK    4  A    between atoms: C9_9  and  C10_10 
REMARK    5  A    between atoms: C9_9  and  O11_11 
ROOT
HETATM    1  C9  UNL     1     -35.313  14.125  -5.088  1.00 20.00     0.130 C 
ENDROOT
BRANCH   1   2
HETATM    2  C3  UNL     1     -34.872  14.268  -6.541  1.00 20.00    -0.018 A 
HETATM    3  C1  UNL     1     -33.641  15.095  -6.830  1.00 20.00     0.012 A 
HETATM    4  C2  UNL     1     -34.999  15.626  -7.190  1.00 20.00     0.012 A 
HETATM    5  C4  UNL     1     -35.121  13.053  -7.392  1.00 20.00     0.018 C 
ENDBRANCH   1   2
BRANCH   1   6
HETATM    6  C10 UNL     1     -36.286  15.234  -4.614  1.00 20.00     0.014 C 
BRANCH   6   7
HETATM    7  C7  UNL     1     -35.904  15.843  -3.246  1.00 20.00     0.002 C 
HETATM    8  C5  UNL     1     -34.419  16.118  -3.058  1.00 20.00     0.005 C 
ENDBRANCH   6   7
BRANCH   6   9
HETATM    9  C8  UNL     1     -37.745  14.708  -4.656  1.00 20.00     0.002 C 
HETATM   10  C6  UNL     1     -38.541  15.173  -5.867  1.00 20.00     0.005 C 
ENDBRANCH   6   9
ENDBRANCH   1   6
BRANCH   1  11
HETATM   11  O11 UNL     1     -35.967  12.858  -4.959  1.00 20.00    -0.394 OA
HETATM   12  H31 UNL     1     -36.708  12.997  -4.353  1.00 20.00     0.210 HD
ENDBRANCH   1  11
TORSDOF 5
ENDMDL
MODEL 7
REMARK VINA RESULT:      -4.0      1.057      4.395
REMARK  5 active torsions:
REMARK  status: ('A' for Active; 'I' for Inactive)
REMARK    1  A    between atoms: C3_3  and  C9_9 
REMARK    2  A    between atoms: C7_7  and  C10_10 
REMARK    3  A    between atoms: C8_8  and  C10_10 
REMARK    4  A    between atoms: C9_9  and  C10_10 
REMARK    5  A    between atoms: C9_9  and  O11_11 
ROOT
HETATM    1  C9  UNL     1     -32.052   7.536   2.690  1.00 20.00     0.130 C 
ENDROOT
BRANCH   1   2
HETATM    2  C3  UNL     1     -33.193   6.715   3.284  1.00 20.00    -0.018 A 
HETATM    3  C1  UNL     1     -33.250   5.241   2.957  1.00 20.00     0.012 A 
HETATM    4  C2  UNL     1     -34.247   6.182   2.343  1.00 20.00     0.012 A 
HETATM    5  C4  UNL     1     -33.627   7.151   4.656  1.00 20.00     0.018 C 
ENDBRANCH   1   2
BRANCH   1   6
HETATM    6  C10 UNL     1     -32.522   8.727   1.816  1.00 20.00     0.014 C 
BRANCH   6   7
HETATM    7  C7  UNL     1     -31.952   8.697   0.380  1.00 20.00     0.002 C 
HETATM    8  C5  UNL     1     -32.962   9.002  -0.718  1.00 20.00     0.005 C 
ENDBRANCH   6   7
BRANCH   6   9
HETATM    9  C8  UNL     1     -32.242  10.063   2.552  1.00 20.00     0.002 C 
HETATM   10  C6  UNL     1     -32.626  11.304   1.759  1.00 20.00     0.005 C 
ENDBRANCH   6   9
ENDBRANCH   1   6
BRANCH   1  11
HETATM   11  O11 UNL     1     -31.277   8.048   3.779  1.00 20.00    -0.394 OA
HETATM   12  H31 UNL     1     -30.459   7.531   3.795  1.00 20.00     0.210 HD
ENDBRANCH   1  11
TORSDOF 5
ENDMDL
MODEL 8
REMARK VINA RESULT:      -3.8     10.116     11.773
REMARK  5 active torsions:
REMARK  status: ('A' for Active; 'I' for Inactive)
REMARK    1  A    between atoms: C3_3  and  C9_9 
REMARK    2  A    between atoms: C7_7  and  C10_10 
REMARK    3  A    between atoms: C8_8  and  C10_10 
REMARK    4  A    between atoms: C9_9  and  C10_10 
REMARK    5  A    between atoms: C9_9  and  O11_11 
ROOT
HETATM    1  C9  UNL     1     -34.071  14.771  -5.997  1.00 20.00     0.130 C 
ENDROOT
BRANCH   1   2
HETATM    2  C3  UNL     1     -35.356  14.025  -6.344  1.00 20.00    -0.018 A 
HETATM    3  C1  UNL     1     -35.448  13.364  -7.700  1.00 20.00     0.012 A 
HETATM    4  C2  UNL     1     -36.245  14.606  -7.419  1.00 20.00     0.012 A 
HETATM    5  C4  UNL     1     -36.014  13.339  -5.179  1.00 20.00     0.018 C 
ENDBRANCH   1   2
BRANCH   1   6
HETATM    6  C10 UNL     1     -34.300  16.083  -5.205  1.00 20.00     0.014 C 
BRANCH   6   7
HETATM    7  C7  UNL     1     -33.763  17.339  -5.929  1.00 20.00     0.002 C 
HETATM    8  C5  UNL     1     -33.880  17.304  -7.446  1.00 20.00     0.005 C 
ENDBRANCH   6   7
BRANCH   6   9
HETATM    9  C8  UNL     1     -33.746  15.932  -3.764  1.00 20.00     0.002 C 
HETATM   10  C6  UNL     1     -34.743  16.293  -2.672  1.00 20.00     0.005 C 
ENDBRANCH   6   9
ENDBRANCH   1   6
BRANCH   1  11
HETATM   11  O11 UNL     1     -33.266  13.893  -5.203  1.00 20.00    -0.394 OA
HETATM   12  H31 UNL     1     -32.663  13.451  -5.817  1.00 20.00     0.210 HD
ENDBRANCH   1  11
TORSDOF 5
ENDMDL
MODEL 9
REMARK VINA RESULT:      -3.8      9.978     11.037
REMARK  5 active torsions:
REMARK  status: ('A' for Active; 'I' for Inactive)
REMARK    1  A    between atoms: C3_3  and  C9_9 
REMARK    2  A    between atoms: C7_7  and  C10_10 
REMARK    3  A    between atoms: C8_8  and  C10_10 
REMARK    4  A    between atoms: C9_9  and  C10_10 
REMARK    5  A    between atoms: C9_9  and  O11_11 
ROOT
HETATM    1  C9  UNL     1     -34.344  17.132  -3.621  1.00 20.00     0.130 C 
ENDROOT
BRANCH   1   2
HETATM    2  C3  UNL     1     -34.230  15.885  -4.493  1.00 20.00    -0.018 A 
HETATM    3  C1  UNL     1     -35.507  15.203  -4.924  1.00 20.00     0.012 A 
HETATM    4  C2  UNL     1     -34.628  14.559  -3.890  1.00 20.00     0.012 A 
HETATM    5  C4  UNL     1     -33.079  15.903  -5.461  1.00 20.00     0.018 C 
ENDBRANCH   1   2
BRANCH   1   6
HETATM    6  C10 UNL     1     -34.058  16.877  -2.119  1.00 20.00     0.014 C 
BRANCH   6   7
HETATM    7  C7  UNL     1     -35.314  16.992  -1.227  1.00 20.00     0.002 C 
HETATM    8  C5  UNL     1     -36.481  17.742  -1.855  1.00 20.00     0.005 C 
ENDBRANCH   6   7
BRANCH   6   9
HETATM    9  C8  UNL     1     -32.892  17.783  -1.644  1.00 20.00     0.002 C 
HETATM   10  C6  UNL     1     -33.138  18.463  -0.304  1.00 20.00     0.005 C 
ENDBRANCH   6   9
ENDBRANCH   1   6
BRANCH   1  11
HETATM   11  O11 UNL     1     -33.396  18.087  -4.110  1.00 20.00    -0.394 OA
HETATM   12  H31 UNL     1     -32.522  17.747  -3.871  1.00 20.00     0.210 HD
ENDBRANCH   1  11
TORSDOF 5
ENDMDL
