MODEL 1
REMARK VINA RESULT:      -6.4      0.000      0.000
REMARK  6 active torsions:
REMARK  status: ('A' for Active; 'I' for Inactive)
REMARK    1  A    between atoms: C1_1  and  C6_6 
REMARK    2  A    between atoms: C1_1  and  C7_7 
REMARK    3  A    between atoms: C6_6  and  C8_8 
REMARK    4  A    between atoms: C7_7  and  C10_10 
REMARK    5  A    between atoms: C8_8  and  C9_9 
REMARK    6  A    between atoms: C9_9  and  C11_11 
ROOT
HETATM    1  C1  UNL     1     -31.773   7.976   2.757  1.00 20.00     0.127 C 
HETATM    2  O12 UNL     1     -31.164   8.426   3.727  1.00 20.00    -0.298 OA
ENDROOT
BRANCH   1   3
HETATM    3  C6  UNL     1     -32.736   6.806   2.876  1.00 20.00     0.078 C 
BRANCH   3   4
HETATM    4  C8  UNL     1     -34.017   7.172   3.625  1.00 20.00     0.008 C 
BRANCH   4   5
HETATM    5  C9  UNL     1     -35.039   6.034   3.563  1.00 20.00     0.004 C 
BRANCH   5   6
HETATM    6  C11 UNL     1     -34.978   5.087   4.775  1.00 20.00    -0.023 C 
HETATM    7  C4  UNL     1     -34.126   3.862   4.434  1.00 20.00     0.009 C 
HETATM    8  C5  UNL     1     -34.419   5.771   6.024  1.00 20.00     0.009 C 
ENDBRANCH   5   6
ENDBRANCH   4   5
ENDBRANCH   3   4
ENDBRANCH   1   3
BRANCH   1   9
HETATM    9  C7  UNL     1     -31.649   8.584   1.365  1.00 20.00     0.082 C 
BRANCH   9  10
HETATM   10  C10 UNL     1     -32.840   9.471   0.967  1.00 20.00    -0.016 C 
HETATM   11  C2  UNL     1     -33.040   9.429  -0.548  1.00 20.00     0.010 C 
HETATM   12  C3  UNL     1     -32.634  10.918   1.422  1.00 20.00     0.010 C 
ENDBRANCH   9  10
ENDBRANCH   1   9
TORSDOF 6
ENDMDL
MODEL 2
REMARK VINA RESULT:      -6.4      1.520      5.559
REMARK  6 active torsions:
REMARK  status: ('A' for Active; 'I' for Inactive)
REMARK    1  A    between atoms: C1_1  and  C6_6 
REMARK    2  A    between atoms: C1_1  and  C7_7 
REMARK    3  A    between atoms: C6_6  and  C8_8 
REMARK    4  A    between atoms: C7_7  and  C10_10 
REMARK    5  A    between atoms: C8_8  and  C9_9 
REMARK    6  A    between atoms: C9_9  and  C11_11 
ROOT
HETATM    1  C1  UNL     1     -33.352   5.690   2.993  1.00 20.00     0.127 C 
HETATM    2  O12 UNL     1     -33.141   4.573   2.521  1.00 20.00    -0.298 OA
ENDROOT
BRANCH   1   3
HETATM    3  C6  UNL     1     -32.287   6.775   3.010  1.00 20.00     0.078 C 
BRANCH   3   4
HETATM    4  C8  UNL     1     -32.753   8.067   2.339  1.00 20.00     0.008 C 
BRANCH   4   5
HETATM    5  C9  UNL     1     -31.739   8.547   1.298  1.00 20.00     0.004 C 
BRANCH   5   6
HETATM    6  C11 UNL     1     -32.184   9.813   0.545  1.00 20.00    -0.023 C 
HETATM    7  C4  UNL     1     -33.189   9.440  -0.548  1.00 20.00     0.009 C 
HETATM    8  C5  UNL     1     -32.800  10.861   1.474  1.00 20.00     0.009 C 
ENDBRANCH   5   6
ENDBRANCH   4   5
ENDBRANCH   3   4
ENDBRANCH   1   3
BRANCH   1   9
HETATM    9  C7  UNL     1     -34.708   6.093   3.555  1.00 20.00     0.082 C 
BRANCH   9  10
HETATM   10  C10 UNL     1     -34.830   5.908   5.076  1.00 20.00    -0.016 C 
HETATM   11  C2  UNL     1     -33.974   6.948   5.801  1.00 20.00     0.010 C 
HETATM   12  C3  UNL     1     -34.405   4.501   5.503  1.00 20.00     0.010 C 
ENDBRANCH   9  10
ENDBRANCH   1   9
TORSDOF 6
ENDMDL
MODEL 3
REMARK VINA RESULT:      -6.2      1.247      5.458
REMARK  6 active torsions:
REMARK  status: ('A' for Active; 'I' for Inactive)
REMARK    1  A    between atoms: C1_1  and  C6_6 
REMARK    2  A    between atoms: C1_1  and  C7_7 
REMARK    3  A    between atoms: C6_6  and  C8_8 
REMARK    4  A    between atoms: C7_7  and  C10_10 
REMARK    5  A    between atoms: C8_8  and  C9_9 
REMARK    6  A    between atoms: C9_9  and  C11_11 
ROOT
HETATM    1  C1  UNL     1     -33.457   7.301   4.594  1.00 20.00     0.127 C 
HETATM    2  O12 UNL     1     -33.395   7.512   5.804  1.00 20.00    -0.298 OA
ENDROOT
BRANCH   1   3
HETATM    3  C6  UNL     1     -32.319   7.658   3.650  1.00 20.00     0.078 C 
BRANCH   3   4
HETATM    4  C8  UNL     1     -32.795   7.892   2.216  1.00 20.00     0.008 C 
BRANCH   4   5
HETATM    5  C9  UNL     1     -31.693   8.527   1.364  1.00 20.00     0.004 C 
BRANCH   5   6
HETATM    6  C11 UNL     1     -32.155   9.779   0.597  1.00 20.00    -0.023 C 
HETATM    7  C4  UNL     1     -33.147   9.378  -0.499  1.00 20.00     0.009 C 
HETATM    8  C5  UNL     1     -32.794  10.824   1.513  1.00 20.00     0.009 C 
ENDBRANCH   5   6
ENDBRANCH   4   5
ENDBRANCH   3   4
ENDBRANCH   1   3
BRANCH   1   9
HETATM    9  C7  UNL     1     -34.657   6.623   3.946  1.00 20.00     0.082 C 
BRANCH   9  10
HETATM   10  C10 UNL     1     -34.689   5.099   4.141  1.00 20.00    -0.016 C 
HETATM   11  C2  UNL     1     -34.539   4.758   5.624  1.00 20.00     0.010 C 
HETATM   12  C3  UNL     1     -33.583   4.410   3.338  1.00 20.00     0.010 C 
ENDBRANCH   9  10
ENDBRANCH   1   9
TORSDOF 6
ENDMDL
MODEL 4
REMARK VINA RESULT:      -5.8      1.112      1.614
REMARK  6 active torsions:
REMARK  status: ('A' for Active; 'I' for Inactive)
REMARK    1  A    between atoms: C1_1  and  C6_6 
REMARK    2  A    between atoms: C1_1  and  C7_7 
REMARK    3  A    between atoms: C6_6  and  C8_8 
REMARK    4  A    between atoms: C7_7  and  C10_10 
REMARK    5  A    between atoms: C8_8  and  C9_9 
REMARK    6  A    between atoms: C9_9  and  C11_11 
ROOT
HETATM    1  C1  UNL     1     -32.299   7.449   2.732  1.00 20.00     0.127 C 
HETATM    2  O12 UNL     1     -32.593   6.305   2.386  1.00 20.00    -0.298 OA
ENDROOT
BRANCH   1   3
HETATM    3  C6  UNL     1     -32.385   7.904   4.180  1.00 20.00     0.078 C 
BRANCH   3   4
HETATM    4  C8  UNL     1     -33.784   7.726   4.771  1.00 20.00     0.008 C 
BRANCH   4   5
HETATM    5  C9  UNL     1     -33.867   6.456   5.621  1.00 20.00     0.004 C 
BRANCH   5   6
HETATM    6  C11 UNL     1     -34.823   5.394   5.047  1.00 20.00    -0.023 C 
HETATM    7  C4  UNL     1     -35.515   5.943   3.796  1.00 20.00     0.009 C 
HETATM    8  C5  UNL     1     -34.108   4.085   4.707  1.00 20.00     0.009 C 
ENDBRANCH   5   6
ENDBRANCH   4   5
ENDBRANCH   3   4
ENDBRANCH   1   3
BRANCH   1   9
HETATM    9  C7  UNL     1     -31.781   8.489   1.748  1.00 20.00     0.082 C 
BRANCH   9  10
HETATM   10  C10 UNL     1     -32.875   9.412   1.187  1.00 20.00    -0.016 C 
HETATM   11  C2  UNL     1     -32.936   9.286  -0.336  1.00 20.00     0.010 C 
HETATM   12  C3  UNL     1     -32.627  10.872   1.575  1.00 20.00     0.010 C 
ENDBRANCH   9  10
ENDBRANCH   1   9
TORSDOF 6
ENDMDL
MODEL 5
REMARK VINA RESULT:      -4.5     10.367     11.618
REMARK  6 active torsions:
REMARK  status: ('A' for Active; 'I' for Inactive)
REMARK    1  A    between atoms: C1_1  and  C6_6 
REMARK    2  A    between atoms: C1_1  and  C7_7 
REMARK    3  A    between atoms: C6_6  and  C8_8 
REMARK    4  A    between atoms: C7_7  and  C10_10 
REMARK    5  A    between atoms: C8_8  and  C9_9 
REMARK    6  A    between atoms: C9_9  and  C11_11 
ROOT
HETATM    1  C1  UNL     1     -35.475  13.870  -5.168  1.00 20.00     0.127 C 
HETATM    2  O12 UNL     1     -35.901  12.718  -5.242  1.00 20.00    -0.298 OA
ENDROOT
BRANCH   1   3
HETATM    3  C6  UNL     1     -34.454  14.290  -4.122  1.00 20.00     0.078 C 
BRANCH   3   4
HETATM    4  C8  UNL     1     -34.889  15.530  -3.340  1.00 20.00     0.008 C 
BRANCH   4   5
HETATM    5  C9  UNL     1     -33.705  16.465  -3.084  1.00 20.00     0.004 C 
BRANCH   5   6
HETATM    6  C11 UNL     1     -34.006  17.569  -2.054  1.00 20.00    -0.023 C 
HETATM    7  C4  UNL     1     -35.087  17.090  -1.081  1.00 20.00     0.009 C 
HETATM    8  C5  UNL     1     -32.761  17.994  -1.272  1.00 20.00     0.009 C 
ENDBRANCH   5   6
ENDBRANCH   4   5
ENDBRANCH   3   4
ENDBRANCH   1   3
BRANCH   1   9
HETATM    9  C7  UNL     1     -35.898  14.959  -6.145  1.00 20.00     0.082 C 
BRANCH   9  10
HETATM   10  C10 UNL     1     -34.892  15.198  -7.281  1.00 20.00    -0.016 C 
HETATM   11  C2  UNL     1     -34.244  13.876  -7.694  1.00 20.00     0.010 C 
HETATM   12  C3  UNL     1     -33.808  16.197  -6.866  1.00 20.00     0.010 C 
ENDBRANCH   9  10
ENDBRANCH   1   9
TORSDOF 6
ENDMDL
MODEL 6
REMARK VINA RESULT:      -4.4     10.258     11.720
REMARK  6 active torsions:
REMARK  status: ('A' for Active; 'I' for Inactive)
REMARK    1  A    between atoms: C1_1  and  C6_6 
REMARK    2  A    between atoms: C1_1  and  C7_7 
REMARK    3  A    between atoms: C6_6  and  C8_8 
REMARK    4  A    between atoms: C7_7  and  C10_10 
REMARK    5  A    between atoms: C8_8  and  C9_9 
REMARK    6  A    between atoms: C9_9  and  C11_11 
ROOT
HETATM    1  C1  UNL     1     -35.553  13.800  -5.075  1.00 20.00     0.127 C 
HETATM    2  O12 UNL     1     -35.879  12.629  -5.265  1.00 20.00    -0.298 OA
ENDROOT
BRANCH   1   3
HETATM    3  C6  UNL     1     -34.519  14.195  -4.032  1.00 20.00     0.078 C 
BRANCH   3   4
HETATM    4  C8  UNL     1     -33.933  15.585  -4.281  1.00 20.00     0.008 C 
BRANCH   4   5
HETATM    5  C9  UNL     1     -33.964  16.434  -3.008  1.00 20.00     0.004 C 
BRANCH   5   6
HETATM    6  C11 UNL     1     -35.369  16.568  -2.394  1.00 20.00    -0.023 C 
HETATM    7  C4  UNL     1     -35.258  17.064  -0.949  1.00 20.00     0.009 C 
HETATM    8  C5  UNL     1     -36.270  17.512  -3.194  1.00 20.00     0.009 C 
ENDBRANCH   5   6
ENDBRANCH   4   5
ENDBRANCH   3   4
ENDBRANCH   1   3
BRANCH   1   9
HETATM    9  C7  UNL     1     -36.122  14.947  -5.900  1.00 20.00     0.082 C 
BRANCH   9  10
HETATM   10  C10 UNL     1     -37.648  14.890  -6.074  1.00 20.00    -0.016 C 
HETATM   11  C2  UNL     1     -38.122  16.066  -6.929  1.00 20.00     0.010 C 
HETATM   12  C3  UNL     1     -38.365  14.912  -4.722  1.00 20.00     0.010 C 
ENDBRANCH   9  10
ENDBRANCH   1   9
TORSDOF 6
ENDMDL
MODEL 7
REMARK VINA RESULT:      -4.4     10.317     11.660
REMARK  6 active torsions:
REMARK  status: ('A' for Active; 'I' for Inactive)
REMARK    1  A    between atoms: C1_1  and  C6_6 
REMARK    2  A    between atoms: C1_1  and  C7_7 
REMARK    3  A    between atoms: C6_6  and  C8_8 
REMARK    4  A    between atoms: C7_7  and  C10_10 
REMARK    5  A    between atoms: C8_8  and  C9_9 
REMARK    6  A    between atoms: C9_9  and  C11_11 
ROOT
HETATM    1  C1  UNL     1     -32.269  18.514  -0.572  1.00 20.00     0.127 C 
HETATM    2  O12 UNL     1     -31.082  18.254  -0.380  1.00 20.00    -0.298 OA
ENDROOT
BRANCH   1   3
HETATM    3  C6  UNL     1     -32.996  18.092  -1.839  1.00 20.00     0.078 C 
BRANCH   3   4
HETATM    4  C8  UNL     1     -34.081  17.048  -1.573  1.00 20.00     0.008 C 
BRANCH   4   5
HETATM    5  C9  UNL     1     -34.704  16.554  -2.881  1.00 20.00     0.004 C 
BRANCH   5   6
HETATM    6  C11 UNL     1     -33.743  15.712  -3.740  1.00 20.00    -0.023 C 
HETATM    7  C4  UNL     1     -34.375  14.350  -4.042  1.00 20.00     0.009 C 
HETATM    8  C5  UNL     1     -33.367  16.408  -5.050  1.00 20.00     0.009 C 
ENDBRANCH   5   6
ENDBRANCH   4   5
ENDBRANCH   3   4
ENDBRANCH   1   3
BRANCH   1   9
HETATM    9  C7  UNL     1     -33.121  19.239   0.462  1.00 20.00     0.082 C 
BRANCH   9  10
HETATM   10  C10 UNL     1     -33.180  18.531   1.824  1.00 20.00    -0.016 C 
HETATM   11  C2  UNL     1     -34.626  18.462   2.316  1.00 20.00     0.010 C 
HETATM   12  C3  UNL     1     -32.314  19.247   2.864  1.00 20.00     0.010 C 
ENDBRANCH   9  10
ENDBRANCH   1   9
TORSDOF 6
ENDMDL
MODEL 8
REMARK VINA RESULT:      -4.3     10.708     11.736
REMARK  6 active torsions:
REMARK  status: ('A' for Active; 'I' for Inactive)
REMARK    1  A    between atoms: C1_1  and  C6_6 
REMARK    2  A    between atoms: C1_1  and  C7_7 
REMARK    3  A    between atoms: C6_6  and  C8_8 
REMARK    4  A    between atoms: C7_7  and  C10_10 
REMARK    5  A    between atoms: C8_8  and  C9_9 
REMARK    6  A    between atoms: C9_9  and  C11_11 
ROOT
HETATM    1  C1  UNL     1     -33.897  16.884  -4.958  1.00 20.00     0.127 C 
HETATM    2  O12 UNL     1     -34.592  17.194  -5.924  1.00 20.00    -0.298 OA
ENDROOT
BRANCH   1   3
HETATM    3  C6  UNL     1     -33.112  15.582  -4.910  1.00 20.00     0.078 C 
BRANCH   3   4
HETATM    4  C8  UNL     1     -33.909  14.394  -5.448  1.00 20.00     0.008 C 
BRANCH   4   5
HETATM    5  C9  UNL     1     -35.013  13.981  -4.472  1.00 20.00     0.004 C 
BRANCH   5   6
HETATM    6  C11 UNL     1     -36.419  13.981  -5.099  1.00 20.00    -0.023 C 
HETATM    7  C4  UNL     1     -37.269  15.086  -4.466  1.00 20.00     0.009 C 
HETATM    8  C5  UNL     1     -36.382  14.167  -6.618  1.00 20.00     0.009 C 
ENDBRANCH   5   6
ENDBRANCH   4   5
ENDBRANCH   3   4
ENDBRANCH   1   3
BRANCH   1   9
HETATM    9  C7  UNL     1     -33.726  17.796  -3.750  1.00 20.00     0.082 C 
BRANCH   9  10
HETATM   10  C10 UNL     1     -33.633  17.045  -2.412  1.00 20.00    -0.016 C 
HETATM   11  C2  UNL     1     -35.035  16.711  -1.901  1.00 20.00     0.010 C 
HETATM   12  C3  UNL     1     -32.882  17.867  -1.362  1.00 20.00     0.010 C 
ENDBRANCH   9  10
ENDBRANCH   1   9
TORSDOF 6
ENDMDL
MODEL 9
REMARK VINA RESULT:      -4.3     10.856     11.765
REMARK  6 active torsions:
REMARK  status: ('A' for Active; 'I' for Inactive)
REMARK    1  A    between atoms: C1_1  and  C6_6 
REMARK    2  A    between atoms: C1_1  and  C7_7 
REMARK    3  A    between atoms: C6_6  and  C8_8 
REMARK    4  A    between atoms: C7_7  and  C10_10 
REMARK    5  A    between atoms: C8_8  and  C9_9 
REMARK    6  A    between atoms: C9_9  and  C11_11 
ROOT
HETATM    1  C1  UNL     1     -36.777  14.206  -4.972  1.00 20.00     0.127 C 
HETATM    2  O12 UNL     1     -37.972  13.930  -4.875  1.00 20.00    -0.298 OA
ENDROOT
BRANCH   1   3
HETATM    3  C6  UNL     1     -36.191  15.486  -4.398  1.00 20.00     0.078 C 
BRANCH   3   4
HETATM    4  C8  UNL     1     -34.852  15.258  -3.698  1.00 20.00     0.008 C 
BRANCH   4   5
HETATM    5  C9  UNL     1     -34.146  16.585  -3.409  1.00 20.00     0.004 C 
BRANCH   5   6
HETATM    6  C11 UNL     1     -33.936  16.855  -1.908  1.00 20.00    -0.023 C 
HETATM    7  C4  UNL     1     -33.026  18.072  -1.722  1.00 20.00     0.009 C 
HETATM    8  C5  UNL     1     -35.255  17.080  -1.164  1.00 20.00     0.009 C 
ENDBRANCH   5   6
ENDBRANCH   4   5
ENDBRANCH   3   4
ENDBRANCH   1   3
BRANCH   1   9
HETATM    9  C7  UNL     1     -35.776  13.268  -5.635  1.00 20.00     0.082 C 
BRANCH   9  10
HETATM   10  C10 UNL     1     -35.537  13.566  -7.123  1.00 20.00    -0.016 C 
HETATM   11  C2  UNL     1     -34.228  14.338  -7.298  1.00 20.00     0.010 C 
HETATM   12  C3  UNL     1     -36.693  14.367  -7.725  1.00 20.00     0.010 C 
ENDBRANCH   9  10
ENDBRANCH   1   9
TORSDOF 6
ENDMDL
