MODEL 1
REMARK VINA RESULT:      -5.8      0.000      0.000
REMARK  3 active torsions:
REMARK  status: ('A' for Active; 'I' for Inactive)
REMARK    1  A    between atoms: C3_3  and  C7_7 
REMARK    2  A    between atoms: C3_3  and  C8_8 
REMARK    3  A    between atoms: C6_6  and  C8_8 
ROOT
HETATM    1  C1  UNL     1     -34.732   5.030   5.578  1.00 20.00     0.012 C 
HETATM    2  C2  UNL     1     -34.229   6.027   5.139  1.00 20.00    -0.110 C 
HETATM    3  C7  UNL     1     -33.616   7.251   4.608  1.00 20.00     0.171 C 
ENDROOT
BRANCH   3   4
HETATM    4  C3  UNL     1     -32.857   7.010   3.316  1.00 20.00     0.138 C 
HETATM    5  O9  UNL     1     -32.849   5.918   2.748  1.00 20.00    -0.297 OA
BRANCH   4   6
HETATM    6  C8  UNL     1     -32.102   8.208   2.769  1.00 20.00     0.083 C 
BRANCH   6   7
HETATM    7  C6  UNL     1     -32.687   8.768   1.512  1.00 20.00    -0.007 A 
HETATM    8  C4  UNL     1     -32.590  10.240   1.220  1.00 20.00     0.005 A 
HETATM    9  C5  UNL     1     -31.787   9.260   0.411  1.00 20.00     0.005 A 
ENDBRANCH   6   7
ENDBRANCH   4   6
ENDBRANCH   3   4
TORSDOF 3
ENDMDL
MODEL 2
REMARK VINA RESULT:      -5.8      0.699      4.893
REMARK  3 active torsions:
REMARK  status: ('A' for Active; 'I' for Inactive)
REMARK    1  A    between atoms: C3_3  and  C7_7 
REMARK    2  A    between atoms: C3_3  and  C8_8 
REMARK    3  A    between atoms: C6_6  and  C8_8 
ROOT
HETATM    1  C1  UNL     1     -32.232   9.508   0.664  1.00 20.00     0.012 C 
HETATM    2  C2  UNL     1     -32.130   8.860   1.670  1.00 20.00    -0.110 C 
HETATM    3  C7  UNL     1     -31.997   8.072   2.901  1.00 20.00     0.171 C 
ENDROOT
BRANCH   3   4
HETATM    4  C3  UNL     1     -33.132   7.081   3.084  1.00 20.00     0.138 C 
HETATM    5  O9  UNL     1     -33.599   6.432   2.149  1.00 20.00    -0.297 OA
BRANCH   4   6
HETATM    6  C8  UNL     1     -33.657   6.943   4.502  1.00 20.00     0.083 C 
BRANCH   6   7
HETATM    7  C6  UNL     1     -34.704   5.888   4.659  1.00 20.00    -0.007 A 
HETATM    8  C4  UNL     1     -34.352   4.437   4.479  1.00 20.00     0.005 A 
HETATM    9  C5  UNL     1     -34.680   4.967   5.847  1.00 20.00     0.005 A 
ENDBRANCH   6   7
ENDBRANCH   4   6
ENDBRANCH   3   4
TORSDOF 3
ENDMDL
MODEL 3
REMARK VINA RESULT:      -5.6      1.253      4.763
REMARK  3 active torsions:
REMARK  status: ('A' for Active; 'I' for Inactive)
REMARK    1  A    between atoms: C3_3  and  C7_7 
REMARK    2  A    between atoms: C3_3  and  C8_8 
REMARK    3  A    between atoms: C6_6  and  C8_8 
ROOT
HETATM    1  C1  UNL     1     -32.614  10.800   1.242  1.00 20.00     0.012 C 
HETATM    2  C2  UNL     1     -32.354   9.634   1.357  1.00 20.00    -0.110 C 
HETATM    3  C7  UNL     1     -32.036   8.208   1.489  1.00 20.00     0.171 C 
ENDROOT
BRANCH   3   4
HETATM    4  C3  UNL     1     -32.121   7.721   2.924  1.00 20.00     0.138 C 
HETATM    5  O9  UNL     1     -31.546   8.292   3.851  1.00 20.00    -0.297 OA
BRANCH   4   6
HETATM    6  C8  UNL     1     -32.965   6.478   3.143  1.00 20.00     0.083 C 
BRANCH   6   7
HETATM    7  C6  UNL     1     -34.181   6.713   3.981  1.00 20.00    -0.007 A 
HETATM    8  C4  UNL     1     -34.901   5.553   4.613  1.00 20.00     0.005 A 
HETATM    9  C5  UNL     1     -34.125   6.513   5.471  1.00 20.00     0.005 A 
ENDBRANCH   6   7
ENDBRANCH   4   6
ENDBRANCH   3   4
TORSDOF 3
ENDMDL
MODEL 4
REMARK VINA RESULT:      -5.6      1.249      1.995
REMARK  3 active torsions:
REMARK  status: ('A' for Active; 'I' for Inactive)
REMARK    1  A    between atoms: C3_3  and  C7_7 
REMARK    2  A    between atoms: C3_3  and  C8_8 
REMARK    3  A    between atoms: C6_6  and  C8_8 
ROOT
HETATM    1  C1  UNL     1     -34.006   7.167   6.196  1.00 20.00     0.012 C 
HETATM    2  C2  UNL     1     -34.208   6.304   5.387  1.00 20.00    -0.110 C 
HETATM    3  C7  UNL     1     -34.459   5.245   4.403  1.00 20.00     0.171 C 
ENDROOT
BRANCH   3   4
HETATM    4  C3  UNL     1     -33.636   5.415   3.139  1.00 20.00     0.138 C 
HETATM    5  O9  UNL     1     -33.045   4.477   2.605  1.00 20.00    -0.297 OA
BRANCH   4   6
HETATM    6  C8  UNL     1     -33.587   6.824   2.577  1.00 20.00     0.083 C 
BRANCH   6   7
HETATM    7  C6  UNL     1     -32.201   7.359   2.408  1.00 20.00    -0.007 A 
HETATM    8  C4  UNL     1     -31.985   8.795   2.016  1.00 20.00     0.005 A 
HETATM    9  C5  UNL     1     -31.639   8.335   3.406  1.00 20.00     0.005 A 
ENDBRANCH   6   7
ENDBRANCH   4   6
ENDBRANCH   3   4
TORSDOF 3
ENDMDL
MODEL 5
REMARK VINA RESULT:      -5.4      1.753      2.497
REMARK  3 active torsions:
REMARK  status: ('A' for Active; 'I' for Inactive)
REMARK    1  A    between atoms: C3_3  and  C7_7 
REMARK    2  A    between atoms: C3_3  and  C8_8 
REMARK    3  A    between atoms: C6_6  and  C8_8 
ROOT
HETATM    1  C1  UNL     1     -34.039   3.658   4.088  1.00 20.00     0.012 C 
HETATM    2  C2  UNL     1     -34.349   4.596   4.770  1.00 20.00    -0.110 C 
HETATM    3  C7  UNL     1     -34.734   5.738   5.608  1.00 20.00     0.171 C 
ENDROOT
BRANCH   3   4
HETATM    4  C3  UNL     1     -33.909   6.979   5.317  1.00 20.00     0.138 C 
HETATM    5  O9  UNL     1     -33.301   7.589   6.196  1.00 20.00    -0.297 OA
BRANCH   4   6
HETATM    6  C8  UNL     1     -33.885   7.421   3.865  1.00 20.00     0.083 C 
BRANCH   6   7
HETATM    7  C6  UNL     1     -32.548   7.275   3.211  1.00 20.00    -0.007 A 
HETATM    8  C4  UNL     1     -32.197   8.108   2.009  1.00 20.00     0.005 A 
HETATM    9  C5  UNL     1     -31.524   8.370   3.327  1.00 20.00     0.005 A 
ENDBRANCH   6   7
ENDBRANCH   4   6
ENDBRANCH   3   4
TORSDOF 3
ENDMDL
MODEL 6
REMARK VINA RESULT:      -4.6      1.965      4.538
REMARK  3 active torsions:
REMARK  status: ('A' for Active; 'I' for Inactive)
REMARK    1  A    between atoms: C3_3  and  C7_7 
REMARK    2  A    between atoms: C3_3  and  C8_8 
REMARK    3  A    between atoms: C6_6  and  C8_8 
ROOT
HETATM    1  C1  UNL     1     -32.609   7.606   2.594  1.00 20.00     0.012 C 
HETATM    2  C2  UNL     1     -32.808   6.423   2.635  1.00 20.00    -0.110 C 
HETATM    3  C7  UNL     1     -33.048   4.976   2.678  1.00 20.00     0.171 C 
ENDROOT
BRANCH   3   4
HETATM    4  C3  UNL     1     -34.055   4.582   3.743  1.00 20.00     0.138 C 
HETATM    5  O9  UNL     1     -34.121   3.441   4.201  1.00 20.00    -0.297 OA
BRANCH   4   6
HETATM    6  C8  UNL     1     -34.980   5.692   4.209  1.00 20.00     0.083 C 
BRANCH   6   7
HETATM    7  C6  UNL     1     -34.803   6.063   5.647  1.00 20.00    -0.007 A 
HETATM    8  C4  UNL     1     -33.440   6.009   6.281  1.00 20.00     0.005 A 
HETATM    9  C5  UNL     1     -34.095   7.337   6.018  1.00 20.00     0.005 A 
ENDBRANCH   6   7
ENDBRANCH   4   6
ENDBRANCH   3   4
TORSDOF 3
ENDMDL
MODEL 7
REMARK VINA RESULT:      -4.4      1.999      4.628
REMARK  3 active torsions:
REMARK  status: ('A' for Active; 'I' for Inactive)
REMARK    1  A    between atoms: C3_3  and  C7_7 
REMARK    2  A    between atoms: C3_3  and  C8_8 
REMARK    3  A    between atoms: C6_6  and  C8_8 
ROOT
HETATM    1  C1  UNL     1     -31.453   8.277   2.849  1.00 20.00     0.012 C 
HETATM    2  C2  UNL     1     -32.527   7.969   3.289  1.00 20.00    -0.110 C 
HETATM    3  C7  UNL     1     -33.843   7.596   3.819  1.00 20.00     0.171 C 
ENDROOT
BRANCH   3   4
HETATM    4  C3  UNL     1     -33.776   7.100   5.252  1.00 20.00     0.138 C 
HETATM    5  O9  UNL     1     -33.160   7.702   6.131  1.00 20.00    -0.297 OA
BRANCH   4   6
HETATM    6  C8  UNL     1     -34.519   5.806   5.531  1.00 20.00     0.083 C 
BRANCH   6   7
HETATM    7  C6  UNL     1     -34.709   4.946   4.323  1.00 20.00    -0.007 A 
HETATM    8  C4  UNL     1     -33.570   4.718   3.367  1.00 20.00     0.005 A 
HETATM    9  C5  UNL     1     -34.052   3.595   4.243  1.00 20.00     0.005 A 
ENDBRANCH   6   7
ENDBRANCH   4   6
ENDBRANCH   3   4
TORSDOF 3
ENDMDL
MODEL 8
REMARK VINA RESULT:      -4.1      2.026      3.450
REMARK  3 active torsions:
REMARK  status: ('A' for Active; 'I' for Inactive)
REMARK    1  A    between atoms: C3_3  and  C7_7 
REMARK    2  A    between atoms: C3_3  and  C8_8 
REMARK    3  A    between atoms: C6_6  and  C8_8 
ROOT
HETATM    1  C1  UNL     1     -33.932   7.192   6.234  1.00 20.00     0.012 C 
HETATM    2  C2  UNL     1     -33.182   7.556   5.369  1.00 20.00    -0.110 C 
HETATM    3  C7  UNL     1     -32.261   8.005   4.319  1.00 20.00     0.171 C 
ENDROOT
BRANCH   3   4
HETATM    4  C3  UNL     1     -32.769   7.689   2.924  1.00 20.00     0.138 C 
HETATM    5  O9  UNL     1     -32.124   7.956   1.910  1.00 20.00    -0.297 OA
BRANCH   4   6
HETATM    6  C8  UNL     1     -34.130   7.020   2.860  1.00 20.00     0.083 C 
BRANCH   6   7
HETATM    7  C6  UNL     1     -34.072   5.559   2.548  1.00 20.00    -0.007 A 
HETATM    8  C4  UNL     1     -32.825   4.771   2.841  1.00 20.00     0.005 A 
HETATM    9  C5  UNL     1     -34.065   4.547   3.661  1.00 20.00     0.005 A 
ENDBRANCH   6   7
ENDBRANCH   4   6
ENDBRANCH   3   4
TORSDOF 3
ENDMDL
MODEL 9
REMARK VINA RESULT:      -4.1     10.911     11.399
REMARK  3 active torsions:
REMARK  status: ('A' for Active; 'I' for Inactive)
REMARK    1  A    between atoms: C3_3  and  C7_7 
REMARK    2  A    between atoms: C3_3  and  C8_8 
REMARK    3  A    between atoms: C6_6  and  C8_8 
ROOT
HETATM    1  C1  UNL     1     -35.212  18.028   1.400  1.00 20.00     0.012 C 
HETATM    2  C2  UNL     1     -34.194  18.581   1.085  1.00 20.00    -0.110 C 
HETATM    3  C7  UNL     1     -32.951  19.263   0.705  1.00 20.00     0.171 C 
ENDROOT
BRANCH   3   4
HETATM    4  C3  UNL     1     -32.247  18.587  -0.458  1.00 20.00     0.138 C 
HETATM    5  O9  UNL     1     -31.078  18.209  -0.392  1.00 20.00    -0.297 OA
BRANCH   4   6
HETATM    6  C8  UNL     1     -33.082  18.410  -1.713  1.00 20.00     0.083 C 
BRANCH   6   7
HETATM    7  C6  UNL     1     -33.495  16.996  -1.969  1.00 20.00    -0.007 A 
HETATM    8  C4  UNL     1     -34.953  16.638  -2.071  1.00 20.00     0.005 A 
HETATM    9  C5  UNL     1     -34.084  16.607  -3.298  1.00 20.00     0.005 A 
ENDBRANCH   6   7
ENDBRANCH   4   6
ENDBRANCH   3   4
TORSDOF 3
ENDMDL
