MODEL 1
REMARK VINA RESULT:      -4.4      0.000      0.000
REMARK  3 active torsions:
REMARK  status: ('A' for Active; 'I' for Inactive)
REMARK    1  A    between atoms: C3_3  and  C8_8 
REMARK    2  A    between atoms: C8_8  and  C9_9 
REMARK    3  A    between atoms: C8_8  and  O10_10 
ROOT
HETATM    1  C8  UNL     1     -33.691   7.384   4.493  1.00 20.00     0.133 C 
ENDROOT
BRANCH   1   2
HETATM    2  C3  UNL     1     -34.536   6.118   4.618  1.00 20.00    -0.017 A 
HETATM    3  C1  UNL     1     -34.796   5.574   6.004  1.00 20.00     0.012 A 
HETATM    4  C2  UNL     1     -33.851   4.854   5.085  1.00 20.00     0.012 A 
HETATM    5  C4  UNL     1     -35.630   5.991   3.594  1.00 20.00     0.018 C 
ENDBRANCH   1   2
BRANCH   1   6
HETATM    6  C9  UNL     1     -32.757   7.451   3.247  1.00 20.00    -0.025 C 
HETATM    7  C5  UNL     1     -33.360   8.371   2.170  1.00 20.00     0.017 C 
HETATM    8  C6  UNL     1     -31.391   8.032   3.670  1.00 20.00     0.017 C 
HETATM    9  C7  UNL     1     -32.510   6.062   2.628  1.00 20.00     0.017 C 
ENDBRANCH   1   6
BRANCH   1  10
HETATM   10  O10 UNL     1     -32.935   7.530   5.699  1.00 20.00    -0.394 OA
HETATM   11  H28 UNL     1     -32.234   8.168   5.503  1.00 20.00     0.210 HD
ENDBRANCH   1  10
TORSDOF 3
ENDMDL
MODEL 2
REMARK VINA RESULT:      -4.4     11.624     12.941
REMARK  3 active torsions:
REMARK  status: ('A' for Active; 'I' for Inactive)
REMARK    1  A    between atoms: C3_3  and  C8_8 
REMARK    2  A    between atoms: C8_8  and  C9_9 
REMARK    3  A    between atoms: C8_8  and  O10_10 
ROOT
HETATM    1  C8  UNL     1     -35.161  13.977  -5.617  1.00 20.00     0.133 C 
ENDROOT
BRANCH   1   2
HETATM    2  C3  UNL     1     -34.322  14.841  -4.676  1.00 20.00    -0.017 A 
HETATM    3  C1  UNL     1     -33.141  15.583  -5.261  1.00 20.00     0.012 A 
HETATM    4  C2  UNL     1     -32.911  14.392  -4.374  1.00 20.00     0.012 A 
HETATM    5  C4  UNL     1     -35.101  15.509  -3.577  1.00 20.00     0.018 C 
ENDBRANCH   1   2
BRANCH   1   6
HETATM    6  C9  UNL     1     -36.331  14.710  -6.340  1.00 20.00    -0.025 C 
HETATM    7  C5  UNL     1     -36.483  14.192  -7.781  1.00 20.00     0.017 C 
HETATM    8  C6  UNL     1     -37.647  14.429  -5.584  1.00 20.00     0.017 C 
HETATM    9  C7  UNL     1     -36.125  16.237  -6.382  1.00 20.00     0.017 C 
ENDBRANCH   1   6
BRANCH   1  10
HETATM   10  O10 UNL     1     -35.650  12.860  -4.869  1.00 20.00    -0.394 OA
HETATM   11  H28 UNL     1     -34.997  12.694  -4.173  1.00 20.00     0.210 HD
ENDBRANCH   1  10
TORSDOF 3
ENDMDL
MODEL 3
REMARK VINA RESULT:      -4.3      0.035      1.363
REMARK  3 active torsions:
REMARK  status: ('A' for Active; 'I' for Inactive)
REMARK    1  A    between atoms: C3_3  and  C8_8 
REMARK    2  A    between atoms: C8_8  and  C9_9 
REMARK    3  A    between atoms: C8_8  and  O10_10 
ROOT
HETATM    1  C8  UNL     1     -33.698   7.374   4.509  1.00 20.00     0.133 C 
ENDROOT
BRANCH   1   2
HETATM    2  C3  UNL     1     -34.541   6.105   4.618  1.00 20.00    -0.017 A 
HETATM    3  C1  UNL     1     -34.806   5.548   5.998  1.00 20.00     0.012 A 
HETATM    4  C2  UNL     1     -33.856   4.839   5.076  1.00 20.00     0.012 A 
HETATM    5  C4  UNL     1     -35.630   5.986   3.588  1.00 20.00     0.018 C 
ENDBRANCH   1   2
BRANCH   1   6
HETATM    6  C9  UNL     1     -32.767   7.460   3.262  1.00 20.00    -0.025 C 
HETATM    7  C5  UNL     1     -31.393   8.034   3.654  1.00 20.00     0.017 C 
HETATM    8  C6  UNL     1     -32.554   6.042   2.693  1.00 20.00     0.017 C 
HETATM    9  C7  UNL     1     -33.368   8.334   2.145  1.00 20.00     0.017 C 
ENDBRANCH   1   6
BRANCH   1  10
HETATM   10  O10 UNL     1     -32.940   7.504   5.716  1.00 20.00    -0.394 OA
HETATM   11  H28 UNL     1     -33.354   8.219   6.220  1.00 20.00     0.210 HD
ENDBRANCH   1  10
TORSDOF 3
ENDMDL
MODEL 4
REMARK VINA RESULT:      -4.3      1.468      3.836
REMARK  3 active torsions:
REMARK  status: ('A' for Active; 'I' for Inactive)
REMARK    1  A    between atoms: C3_3  and  C8_8 
REMARK    2  A    between atoms: C8_8  and  C9_9 
REMARK    3  A    between atoms: C8_8  and  O10_10 
ROOT
HETATM    1  C8  UNL     1     -33.411   6.223   2.828  1.00 20.00     0.133 C 
ENDROOT
BRANCH   1   2
HETATM    2  C3  UNL     1     -32.671   7.558   2.889  1.00 20.00    -0.017 A 
HETATM    3  C1  UNL     1     -33.195   8.697   2.045  1.00 20.00     0.012 A 
HETATM    4  C2  UNL     1     -31.919   8.007   1.658  1.00 20.00     0.012 A 
HETATM    5  C4  UNL     1     -32.086   7.888   4.234  1.00 20.00     0.018 C 
ENDBRANCH   1   2
BRANCH   1   6
HETATM    6  C9  UNL     1     -34.399   5.946   4.001  1.00 20.00    -0.025 C 
HETATM    7  C5  UNL     1     -35.847   6.240   3.566  1.00 20.00     0.017 C 
HETATM    8  C6  UNL     1     -34.307   4.458   4.398  1.00 20.00     0.017 C 
HETATM    9  C7  UNL     1     -34.076   6.791   5.248  1.00 20.00     0.017 C 
ENDBRANCH   1   6
BRANCH   1  10
HETATM   10  O10 UNL     1     -32.434   5.182   2.735  1.00 20.00    -0.394 OA
HETATM   11  H28 UNL     1     -31.757   5.387   3.397  1.00 20.00     0.210 HD
ENDBRANCH   1  10
TORSDOF 3
ENDMDL
MODEL 5
REMARK VINA RESULT:      -4.3     11.327     12.968
REMARK  3 active torsions:
REMARK  status: ('A' for Active; 'I' for Inactive)
REMARK    1  A    between atoms: C3_3  and  C8_8 
REMARK    2  A    between atoms: C8_8  and  C9_9 
REMARK    3  A    between atoms: C8_8  and  O10_10 
ROOT
HETATM    1  C8  UNL     1     -35.378  14.396  -5.141  1.00 20.00     0.133 C 
ENDROOT
BRANCH   1   2
HETATM    2  C3  UNL     1     -35.469  14.426  -6.665  1.00 20.00    -0.017 A 
HETATM    3  C1  UNL     1     -36.012  15.677  -7.317  1.00 20.00     0.012 A 
HETATM    4  C2  UNL     1     -36.844  14.427  -7.291  1.00 20.00     0.012 A 
HETATM    5  C4  UNL     1     -34.371  13.681  -7.373  1.00 20.00     0.018 C 
ENDBRANCH   1   2
BRANCH   1   6
HETATM    6  C9  UNL     1     -34.156  15.142  -4.524  1.00 20.00    -0.025 C 
HETATM    7  C5  UNL     1     -34.560  15.849  -3.217  1.00 20.00     0.017 C 
HETATM    8  C6  UNL     1     -33.050  14.117  -4.197  1.00 20.00     0.017 C 
HETATM    9  C7  UNL     1     -33.564  16.187  -5.489  1.00 20.00     0.017 C 
ENDBRANCH   1   6
BRANCH   1  10
HETATM   10  O10 UNL     1     -35.395  13.027  -4.726  1.00 20.00    -0.394 OA
HETATM   11  H28 UNL     1     -35.921  12.551  -5.385  1.00 20.00     0.210 HD
ENDBRANCH   1  10
TORSDOF 3
ENDMDL
MODEL 6
REMARK VINA RESULT:      -4.2      1.475      1.967
REMARK  3 active torsions:
REMARK  status: ('A' for Active; 'I' for Inactive)
REMARK    1  A    between atoms: C3_3  and  C8_8 
REMARK    2  A    between atoms: C8_8  and  C9_9 
REMARK    3  A    between atoms: C8_8  and  O10_10 
ROOT
HETATM    1  C8  UNL     1     -33.067   6.009   3.635  1.00 20.00     0.133 C 
ENDROOT
BRANCH   1   2
HETATM    2  C3  UNL     1     -34.361   5.412   4.183  1.00 20.00    -0.017 A 
HETATM    3  C1  UNL     1     -34.384   4.976   5.630  1.00 20.00     0.012 A 
HETATM    4  C2  UNL     1     -34.368   3.944   4.539  1.00 20.00     0.012 A 
HETATM    5  C4  UNL     1     -35.617   6.004   3.605  1.00 20.00     0.018 C 
ENDBRANCH   1   2
BRANCH   1   6
HETATM    6  C9  UNL     1     -32.891   7.544   3.843  1.00 20.00    -0.025 C 
HETATM    7  C5  UNL     1     -33.193   7.927   5.303  1.00 20.00     0.017 C 
HETATM    8  C6  UNL     1     -31.430   7.932   3.534  1.00 20.00     0.017 C 
HETATM    9  C7  UNL     1     -33.807   8.366   2.916  1.00 20.00     0.017 C 
ENDBRANCH   1   6
BRANCH   1  10
HETATM   10  O10 UNL     1     -32.981   5.675   2.247  1.00 20.00    -0.394 OA
HETATM   11  H28 UNL     1     -32.063   5.408   2.089  1.00 20.00     0.210 HD
ENDBRANCH   1  10
TORSDOF 3
ENDMDL
MODEL 7
REMARK VINA RESULT:      -4.2     11.818     12.895
REMARK  3 active torsions:
REMARK  status: ('A' for Active; 'I' for Inactive)
REMARK    1  A    between atoms: C3_3  and  C8_8 
REMARK    2  A    between atoms: C8_8  and  C9_9 
REMARK    3  A    between atoms: C8_8  and  O10_10 
ROOT
HETATM    1  C8  UNL     1     -35.168  14.015  -5.253  1.00 20.00     0.133 C 
ENDROOT
BRANCH   1   2
HETATM    2  C3  UNL     1     -35.692  15.180  -4.416  1.00 20.00    -0.017 A 
HETATM    3  C1  UNL     1     -34.956  16.498  -4.499  1.00 20.00     0.012 A 
HETATM    4  C2  UNL     1     -34.843  15.657  -3.259  1.00 20.00     0.012 A 
HETATM    5  C4  UNL     1     -37.186  15.215  -4.256  1.00 20.00     0.018 C 
ENDBRANCH   1   2
BRANCH   1   6
HETATM    6  C9  UNL     1     -35.216  14.221  -6.798  1.00 20.00    -0.025 C 
HETATM    7  C5  UNL     1     -33.962  14.971  -7.280  1.00 20.00     0.017 C 
HETATM    8  C6  UNL     1     -35.251  12.842  -7.490  1.00 20.00     0.017 C 
HETATM    9  C7  UNL     1     -36.464  15.007  -7.243  1.00 20.00     0.017 C 
ENDBRANCH   1   6
BRANCH   1  10
HETATM   10  O10 UNL     1     -35.896  12.841  -4.878  1.00 20.00    -0.394 OA
HETATM   11  H28 UNL     1     -35.888  12.259  -5.652  1.00 20.00     0.210 HD
ENDBRANCH   1  10
TORSDOF 3
ENDMDL
MODEL 8
REMARK VINA RESULT:      -4.2      1.474      1.843
REMARK  3 active torsions:
REMARK  status: ('A' for Active; 'I' for Inactive)
REMARK    1  A    between atoms: C3_3  and  C8_8 
REMARK    2  A    between atoms: C8_8  and  C9_9 
REMARK    3  A    between atoms: C8_8  and  O10_10 
ROOT
HETATM    1  C8  UNL     1     -33.057   5.993   3.650  1.00 20.00     0.133 C 
ENDROOT
BRANCH   1   2
HETATM    2  C3  UNL     1     -34.361   5.412   4.192  1.00 20.00    -0.017 A 
HETATM    3  C1  UNL     1     -34.398   4.984   5.642  1.00 20.00     0.012 A 
HETATM    4  C2  UNL     1     -34.386   3.946   4.556  1.00 20.00     0.012 A 
HETATM    5  C4  UNL     1     -35.607   6.014   3.604  1.00 20.00     0.018 C 
ENDBRANCH   1   2
BRANCH   1   6
HETATM    6  C9  UNL     1     -32.873   7.529   3.839  1.00 20.00    -0.025 C 
HETATM    7  C5  UNL     1     -33.826   8.304   2.911  1.00 20.00     0.017 C 
HETATM    8  C6  UNL     1     -33.210   7.903   5.298  1.00 20.00     0.017 C 
HETATM    9  C7  UNL     1     -31.429   7.983   3.554  1.00 20.00     0.017 C 
ENDBRANCH   1   6
BRANCH   1  10
HETATM   10  O10 UNL     1     -32.959   5.639   2.267  1.00 20.00    -0.394 OA
HETATM   11  H28 UNL     1     -32.284   6.220   1.887  1.00 20.00     0.210 HD
ENDBRANCH   1  10
TORSDOF 3
ENDMDL
MODEL 9
REMARK VINA RESULT:      -4.2      0.735      3.562
REMARK  3 active torsions:
REMARK  status: ('A' for Active; 'I' for Inactive)
REMARK    1  A    between atoms: C3_3  and  C8_8 
REMARK    2  A    between atoms: C8_8  and  C9_9 
REMARK    3  A    between atoms: C8_8  and  O10_10 
ROOT
HETATM    1  C8  UNL     1     -33.171   6.444   4.482  1.00 20.00     0.133 C 
ENDROOT
BRANCH   1   2
HETATM    2  C3  UNL     1     -32.823   6.808   3.040  1.00 20.00    -0.017 A 
HETATM    3  C1  UNL     1     -31.700   7.794   2.811  1.00 20.00     0.012 A 
HETATM    4  C2  UNL     1     -33.123   8.213   2.574  1.00 20.00     0.012 A 
HETATM    5  C4  UNL     1     -32.988   5.686   2.053  1.00 20.00     0.018 C 
ENDBRANCH   1   2
BRANCH   1   6
HETATM    6  C9  UNL     1     -34.440   5.556   4.665  1.00 20.00    -0.025 C 
HETATM    7  C5  UNL     1     -34.115   4.083   4.360  1.00 20.00     0.017 C 
HETATM    8  C6  UNL     1     -34.917   5.653   6.129  1.00 20.00     0.017 C 
HETATM    9  C7  UNL     1     -35.601   6.006   3.757  1.00 20.00     0.017 C 
ENDBRANCH   1   6
BRANCH   1  10
HETATM   10  O10 UNL     1     -33.294   7.660   5.226  1.00 20.00    -0.394 OA
HETATM   11  H28 UNL     1     -34.200   7.676   5.569  1.00 20.00     0.210 HD
ENDBRANCH   1  10
TORSDOF 3
ENDMDL
