MODEL 1
REMARK VINA RESULT:      -5.8      0.000      0.000
REMARK  3 active torsions:
REMARK  status: ('A' for Active; 'I' for Inactive)
REMARK    1  A    between atoms: C5_5  and  C8_8 
REMARK    2  A    between atoms: C7_7  and  C8_8 
REMARK    3  A    between atoms: C8_8  and  O9_9 
ROOT
HETATM    1  C1  UNL     1     -32.106   9.218   1.022  1.00 20.00     0.012 C 
HETATM    2  C2  UNL     1     -32.161   8.474   1.963  1.00 20.00    -0.115 C 
HETATM    3  C7  UNL     1     -32.225   7.566   3.120  1.00 20.00     0.125 C 
ENDROOT
BRANCH   3   4
HETATM    4  C8  UNL     1     -33.276   6.461   2.927  1.00 20.00     0.137 C 
BRANCH   4   5
HETATM    5  C5  UNL     1     -34.103   6.252   4.167  1.00 20.00    -0.017 A 
HETATM    6  C3  UNL     1     -34.534   4.843   4.502  1.00 20.00     0.012 A 
HETATM    7  C4  UNL     1     -35.544   5.833   3.995  1.00 20.00     0.012 A 
HETATM    8  C6  UNL     1     -33.767   7.177   5.304  1.00 20.00     0.018 C 
ENDBRANCH   4   5
BRANCH   4   9
HETATM    9  O9  UNL     1     -32.589   5.245   2.605  1.00 20.00    -0.394 OA
HETATM   10  H21 UNL     1     -32.512   5.228   1.641  1.00 20.00     0.210 HD
ENDBRANCH   4   9
ENDBRANCH   3   4
TORSDOF 3
ENDMDL
MODEL 2
REMARK VINA RESULT:      -4.9      1.574      2.024
REMARK  3 active torsions:
REMARK  status: ('A' for Active; 'I' for Inactive)
REMARK    1  A    between atoms: C5_5  and  C8_8 
REMARK    2  A    between atoms: C7_7  and  C8_8 
REMARK    3  A    between atoms: C8_8  and  O9_9 
ROOT
HETATM    1  C1  UNL     1     -31.720   8.296   1.756  1.00 20.00     0.012 C 
HETATM    2  C2  UNL     1     -32.601   8.111   2.551  1.00 20.00    -0.115 C 
HETATM    3  C7  UNL     1     -33.684   7.888   3.523  1.00 20.00     0.125 C 
ENDROOT
BRANCH   3   4
HETATM    4  C8  UNL     1     -33.362   6.738   4.491  1.00 20.00     0.137 C 
BRANCH   4   5
HETATM    5  C5  UNL     1     -34.443   5.691   4.495  1.00 20.00    -0.017 A 
HETATM    6  C3  UNL     1     -34.666   4.909   5.768  1.00 20.00     0.012 A 
HETATM    7  C4  UNL     1     -34.025   4.242   4.585  1.00 20.00     0.012 A 
HETATM    8  C6  UNL     1     -35.643   6.029   3.654  1.00 20.00     0.018 C 
ENDBRANCH   4   5
BRANCH   4   9
HETATM    9  O9  UNL     1     -33.230   7.289   5.807  1.00 20.00    -0.394 OA
HETATM   10  H21 UNL     1     -34.130   7.473   6.112  1.00 20.00     0.210 HD
ENDBRANCH   4   9
ENDBRANCH   3   4
TORSDOF 3
ENDMDL
MODEL 3
REMARK VINA RESULT:      -4.8      1.490      4.209
REMARK  3 active torsions:
REMARK  status: ('A' for Active; 'I' for Inactive)
REMARK    1  A    between atoms: C5_5  and  C8_8 
REMARK    2  A    between atoms: C7_7  and  C8_8 
REMARK    3  A    between atoms: C8_8  and  O9_9 
ROOT
HETATM    1  C1  UNL     1     -34.629   4.610   5.949  1.00 20.00     0.012 C 
HETATM    2  C2  UNL     1     -34.743   5.363   5.021  1.00 20.00    -0.115 C 
HETATM    3  C7  UNL     1     -34.888   6.284   3.881  1.00 20.00     0.125 C 
ENDROOT
BRANCH   3   4
HETATM    4  C8  UNL     1     -33.890   7.451   3.953  1.00 20.00     0.137 C 
BRANCH   4   5
HETATM    5  C5  UNL     1     -32.774   7.296   2.956  1.00 20.00    -0.017 A 
HETATM    6  C3  UNL     1     -31.533   8.137   3.144  1.00 20.00     0.012 A 
HETATM    7  C4  UNL     1     -32.487   8.452   2.028  1.00 20.00     0.012 A 
HETATM    8  C6  UNL     1     -32.606   5.901   2.419  1.00 20.00     0.018 C 
ENDBRANCH   4   5
BRANCH   4   9
HETATM    9  O9  UNL     1     -33.341   7.486   5.277  1.00 20.00    -0.394 OA
HETATM   10  H21 UNL     1     -32.721   6.745   5.329  1.00 20.00     0.210 HD
ENDBRANCH   4   9
ENDBRANCH   3   4
TORSDOF 3
ENDMDL
MODEL 4
REMARK VINA RESULT:      -4.8      1.393      1.856
REMARK  3 active torsions:
REMARK  status: ('A' for Active; 'I' for Inactive)
REMARK    1  A    between atoms: C5_5  and  C8_8 
REMARK    2  A    between atoms: C7_7  and  C8_8 
REMARK    3  A    between atoms: C8_8  and  O9_9 
ROOT
HETATM    1  C1  UNL     1     -32.499   9.385   1.193  1.00 20.00     0.012 C 
HETATM    2  C2  UNL     1     -32.295   8.477   1.953  1.00 20.00    -0.115 C 
HETATM    3  C7  UNL     1     -32.041   7.364   2.883  1.00 20.00     0.125 C 
ENDROOT
BRANCH   3   4
HETATM    4  C8  UNL     1     -33.190   7.179   3.887  1.00 20.00     0.137 C 
BRANCH   4   5
HETATM    5  C5  UNL     1     -33.869   5.846   3.721  1.00 20.00    -0.017 A 
HETATM    6  C3  UNL     1     -35.374   5.799   3.836  1.00 20.00     0.012 A 
HETATM    7  C4  UNL     1     -34.523   5.229   4.935  1.00 20.00     0.012 A 
HETATM    8  C6  UNL     1     -33.206   4.927   2.732  1.00 20.00     0.018 C 
ENDBRANCH   4   5
BRANCH   4   9
HETATM    9  O9  UNL     1     -34.143   8.226   3.671  1.00 20.00    -0.394 OA
HETATM   10  H21 UNL     1     -34.943   7.796   3.337  1.00 20.00     0.210 HD
ENDBRANCH   4   9
ENDBRANCH   3   4
TORSDOF 3
ENDMDL
MODEL 5
REMARK VINA RESULT:      -4.7      1.535      4.507
REMARK  3 active torsions:
REMARK  status: ('A' for Active; 'I' for Inactive)
REMARK    1  A    between atoms: C5_5  and  C8_8 
REMARK    2  A    between atoms: C7_7  and  C8_8 
REMARK    3  A    between atoms: C8_8  and  O9_9 
ROOT
HETATM    1  C1  UNL     1     -34.757   5.902   4.043  1.00 20.00     0.012 C 
HETATM    2  C2  UNL     1     -33.920   6.324   3.292  1.00 20.00    -0.115 C 
HETATM    3  C7  UNL     1     -32.895   6.837   2.368  1.00 20.00     0.125 C 
ENDROOT
BRANCH   3   4
HETATM    4  C8  UNL     1     -32.598   8.327   2.606  1.00 20.00     0.137 C 
BRANCH   4   5
HETATM    5  C5  UNL     1     -32.268   9.043   1.325  1.00 20.00    -0.017 A 
HETATM    6  C3  UNL     1     -32.483  10.537   1.272  1.00 20.00     0.012 A 
HETATM    7  C4  UNL     1     -33.410   9.623   0.523  1.00 20.00     0.012 A 
HETATM    8  C6  UNL     1     -31.097   8.471   0.574  1.00 20.00     0.018 C 
ENDBRANCH   4   5
BRANCH   4   9
HETATM    9  O9  UNL     1     -31.484   8.421   3.502  1.00 20.00    -0.394 OA
HETATM   10  H21 UNL     1     -31.789   8.062   4.347  1.00 20.00     0.210 HD
ENDBRANCH   4   9
ENDBRANCH   3   4
TORSDOF 3
ENDMDL
MODEL 6
REMARK VINA RESULT:      -4.7      1.653      4.156
REMARK  3 active torsions:
REMARK  status: ('A' for Active; 'I' for Inactive)
REMARK    1  A    between atoms: C5_5  and  C8_8 
REMARK    2  A    between atoms: C7_7  and  C8_8 
REMARK    3  A    between atoms: C8_8  and  O9_9 
ROOT
HETATM    1  C1  UNL     1     -34.460   4.348   4.424  1.00 20.00     0.012 C 
HETATM    2  C2  UNL     1     -33.788   4.995   3.668  1.00 20.00    -0.115 C 
HETATM    3  C7  UNL     1     -32.961   5.783   2.739  1.00 20.00     0.125 C 
ENDROOT
BRANCH   3   4
HETATM    4  C8  UNL     1     -33.421   7.248   2.659  1.00 20.00     0.137 C 
BRANCH   4   5
HETATM    5  C5  UNL     1     -32.262   8.188   2.464  1.00 20.00    -0.017 A 
HETATM    6  C3  UNL     1     -32.505   9.460   1.687  1.00 20.00     0.012 A 
HETATM    7  C4  UNL     1     -31.707   8.348   1.068  1.00 20.00     0.012 A 
HETATM    8  C6  UNL     1     -31.298   8.239   3.618  1.00 20.00     0.018 C 
ENDBRANCH   4   5
BRANCH   4   9
HETATM    9  O9  UNL     1     -34.092   7.570   3.883  1.00 20.00    -0.394 OA
HETATM   10  H21 UNL     1     -33.444   8.035   4.430  1.00 20.00     0.210 HD
ENDBRANCH   4   9
ENDBRANCH   3   4
TORSDOF 3
ENDMDL
MODEL 7
REMARK VINA RESULT:      -4.2      1.907      3.546
REMARK  3 active torsions:
REMARK  status: ('A' for Active; 'I' for Inactive)
REMARK    1  A    between atoms: C5_5  and  C8_8 
REMARK    2  A    between atoms: C7_7  and  C8_8 
REMARK    3  A    between atoms: C8_8  and  O9_9 
ROOT
HETATM    1  C1  UNL     1     -33.505   7.897   6.292  1.00 20.00     0.012 C 
HETATM    2  C2  UNL     1     -34.000   6.835   6.030  1.00 20.00    -0.115 C 
HETATM    3  C7  UNL     1     -34.612   5.534   5.711  1.00 20.00     0.125 C 
ENDROOT
BRANCH   3   4
HETATM    4  C8  UNL     1     -33.882   4.820   4.562  1.00 20.00     0.137 C 
BRANCH   4   5
HETATM    5  C5  UNL     1     -33.935   5.614   3.285  1.00 20.00    -0.017 A 
HETATM    6  C3  UNL     1     -33.111   5.132   2.115  1.00 20.00     0.012 A 
HETATM    7  C4  UNL     1     -32.693   6.364   2.865  1.00 20.00     0.012 A 
HETATM    8  C6  UNL     1     -35.271   6.243   2.997  1.00 20.00     0.018 C 
ENDBRANCH   4   5
BRANCH   4   9
HETATM    9  O9  UNL     1     -34.512   3.549   4.356  1.00 20.00    -0.394 OA
HETATM   10  H21 UNL     1     -34.766   3.231   5.233  1.00 20.00     0.210 HD
ENDBRANCH   4   9
ENDBRANCH   3   4
TORSDOF 3
ENDMDL
MODEL 8
REMARK VINA RESULT:      -4.1     11.293     12.326
REMARK  3 active torsions:
REMARK  status: ('A' for Active; 'I' for Inactive)
REMARK    1  A    between atoms: C5_5  and  C8_8 
REMARK    2  A    between atoms: C7_7  and  C8_8 
REMARK    3  A    between atoms: C8_8  and  O9_9 
ROOT
HETATM    1  C1  UNL     1     -33.826  16.435  -2.983  1.00 20.00     0.012 C 
HETATM    2  C2  UNL     1     -34.678  15.765  -3.498  1.00 20.00    -0.115 C 
HETATM    3  C7  UNL     1     -35.727  14.945  -4.128  1.00 20.00     0.125 C 
ENDROOT
BRANCH   3   4
HETATM    4  C8  UNL     1     -35.145  13.932  -5.127  1.00 20.00     0.137 C 
BRANCH   4   5
HETATM    5  C5  UNL     1     -35.203  14.445  -6.541  1.00 20.00    -0.017 A 
HETATM    6  C3  UNL     1     -34.418  13.703  -7.597  1.00 20.00     0.012 A 
HETATM    7  C4  UNL     1     -33.949  15.050  -7.127  1.00 20.00     0.012 A 
HETATM    8  C6  UNL     1     -36.526  15.042  -6.935  1.00 20.00     0.018 C 
ENDBRANCH   4   5
BRANCH   4   9
HETATM    9  O9  UNL     1     -35.908  12.723  -5.030  1.00 20.00    -0.394 OA
HETATM   10  H21 UNL     1     -36.476  12.826  -4.254  1.00 20.00     0.210 HD
ENDBRANCH   4   9
ENDBRANCH   3   4
TORSDOF 3
ENDMDL
MODEL 9
REMARK VINA RESULT:      -4.0     11.067     11.966
REMARK  3 active torsions:
REMARK  status: ('A' for Active; 'I' for Inactive)
REMARK    1  A    between atoms: C5_5  and  C8_8 
REMARK    2  A    between atoms: C7_7  and  C8_8 
REMARK    3  A    between atoms: C8_8  and  O9_9 
ROOT
HETATM    1  C1  UNL     1     -33.511  17.071  -2.344  1.00 20.00     0.012 C 
HETATM    2  C2  UNL     1     -34.037  16.176  -2.948  1.00 20.00    -0.115 C 
HETATM    3  C7  UNL     1     -34.685  15.079  -3.686  1.00 20.00     0.125 C 
ENDROOT
BRANCH   3   4
HETATM    4  C8  UNL     1     -33.962  14.765  -5.006  1.00 20.00     0.137 C 
BRANCH   4   5
HETATM    5  C5  UNL     1     -34.899  14.193  -6.035  1.00 20.00    -0.017 A 
HETATM    6  C3  UNL     1     -34.305  13.674  -7.323  1.00 20.00     0.012 A 
HETATM    7  C4  UNL     1     -35.085  14.957  -7.325  1.00 20.00     0.012 A 
HETATM    8  C6  UNL     1     -36.089  13.472  -5.464  1.00 20.00     0.018 C 
ENDBRANCH   4   5
BRANCH   4   9
HETATM    9  O9  UNL     1     -32.925  13.815  -4.729  1.00 20.00    -0.394 OA
HETATM   10  H21 UNL     1     -32.701  13.409  -5.578  1.00 20.00     0.210 HD
ENDBRANCH   4   9
ENDBRANCH   3   4
TORSDOF 3
ENDMDL
