MODEL 1
REMARK VINA RESULT:      -3.9      0.000      0.000
REMARK  4 active torsions:
REMARK  status: ('A' for Active; 'I' for Inactive)
REMARK    1  A    between atoms: C5_5  and  C8_8 
REMARK    2  A    between atoms: C6_6  and  C8_8 
REMARK    3  A    between atoms: C7_7  and  C8_8 
REMARK    4  A    between atoms: C8_8  and  N9_9 
ROOT
HETATM    1  C8  UNL     1     -33.985   6.115   3.671  1.00 20.00     0.217 C 
ENDROOT
BRANCH   1   2
HETATM    2  C5  UNL     1     -32.658   6.834   3.285  1.00 20.00     0.043 C 
HETATM    3  C1  UNL     1     -32.796   8.066   2.396  1.00 20.00     0.008 C 
ENDBRANCH   1   2
BRANCH   1   4
HETATM    4  C6  UNL     1     -34.402   6.362   5.164  1.00 20.00     0.021 C 
HETATM    5  C2  UNL     1     -33.483   7.328   5.925  1.00 20.00     0.012 C 
HETATM    6  C3  UNL     1     -34.532   5.069   5.990  1.00 20.00     0.012 C 
ENDBRANCH   1   4
BRANCH   1   7
HETATM    7  C7  UNL     1     -35.079   6.542   2.672  1.00 20.00     0.391 C 
HETATM    8  F10 UNL     1     -34.931   5.868   1.499  1.00 20.00    -0.212 F 
HETATM    9  F11 UNL     1     -36.310   6.212   3.137  1.00 20.00    -0.212 F 
ENDBRANCH   1   7
BRANCH   1  10
HETATM   10  N9  UNL     1     -33.807   4.662   3.474  1.00 20.00     0.094 N 
HETATM   11  C4  UNL     1     -32.688   4.410   2.588  1.00 20.00     0.307 C 
HETATM   12  H28 UNL     1     -34.659   4.290   3.072  1.00 20.00     0.316 HD
ENDBRANCH   1  10
TORSDOF 4
ENDMDL
MODEL 2
REMARK VINA RESULT:      -3.9     11.543     13.105
REMARK  4 active torsions:
REMARK  status: ('A' for Active; 'I' for Inactive)
REMARK    1  A    between atoms: C5_5  and  C8_8 
REMARK    2  A    between atoms: C6_6  and  C8_8 
REMARK    3  A    between atoms: C7_7  and  C8_8 
REMARK    4  A    between atoms: C8_8  and  N9_9 
ROOT
HETATM    1  C8  UNL     1     -34.347  14.822  -5.695  1.00 20.00     0.217 C 
ENDROOT
BRANCH   1   2
HETATM    2  C5  UNL     1     -35.891  14.995  -5.816  1.00 20.00     0.043 C 
HETATM    3  C1  UNL     1     -36.606  15.527  -4.578  1.00 20.00     0.008 C 
ENDBRANCH   1   2
BRANCH   1   4
HETATM    4  C6  UNL     1     -33.551  16.069  -6.220  1.00 20.00     0.021 C 
HETATM    5  C2  UNL     1     -33.478  17.236  -5.225  1.00 20.00     0.012 C 
HETATM    6  C3  UNL     1     -34.071  16.612  -7.563  1.00 20.00     0.012 C 
ENDBRANCH   1   4
BRANCH   1   7
HETATM    7  C7  UNL     1     -34.009  14.475  -4.231  1.00 20.00     0.391 C 
HETATM    8  F10 UNL     1     -34.634  13.323  -3.867  1.00 20.00    -0.212 F 
HETATM    9  F11 UNL     1     -32.681  14.239  -4.089  1.00 20.00    -0.212 F 
ENDBRANCH   1   7
BRANCH   1  10
HETATM   10  N9  UNL     1     -33.943  13.646  -6.491  1.00 20.00     0.094 N 
HETATM   11  C4  UNL     1     -35.088  13.093  -7.187  1.00 20.00     0.307 C 
HETATM   12  H28 UNL     1     -33.554  12.955  -5.859  1.00 20.00     0.316 HD
ENDBRANCH   1  10
TORSDOF 4
ENDMDL
MODEL 3
REMARK VINA RESULT:      -3.8     11.497     12.770
REMARK  4 active torsions:
REMARK  status: ('A' for Active; 'I' for Inactive)
REMARK    1  A    between atoms: C5_5  and  C8_8 
REMARK    2  A    between atoms: C6_6  and  C8_8 
REMARK    3  A    between atoms: C7_7  and  C8_8 
REMARK    4  A    between atoms: C8_8  and  N9_9 
ROOT
HETATM    1  C8  UNL     1     -34.674  14.834  -5.691  1.00 20.00     0.217 C 
ENDROOT
BRANCH   1   2
HETATM    2  C5  UNL     1     -34.976  15.957  -6.727  1.00 20.00     0.043 C 
HETATM    3  C1  UNL     1     -34.080  17.190  -6.661  1.00 20.00     0.008 C 
ENDBRANCH   1   2
BRANCH   1   4
HETATM    4  C6  UNL     1     -33.705  15.301  -4.547  1.00 20.00     0.021 C 
HETATM    5  C2  UNL     1     -32.647  14.262  -4.152  1.00 20.00     0.012 C 
HETATM    6  C3  UNL     1     -34.435  15.757  -3.270  1.00 20.00     0.012 C 
ENDBRANCH   1   4
BRANCH   1   7
HETATM    7  C7  UNL     1     -36.015  14.298  -5.149  1.00 20.00     0.391 C 
HETATM    8  F10 UNL     1     -37.014  14.555  -6.036  1.00 20.00    -0.212 F 
HETATM    9  F11 UNL     1     -35.974  12.949  -5.016  1.00 20.00    -0.212 F 
ENDBRANCH   1   7
BRANCH   1  10
HETATM   10  N9  UNL     1     -34.045  13.700  -6.397  1.00 20.00     0.094 N 
HETATM   11  C4  UNL     1     -34.300  13.793  -7.821  1.00 20.00     0.307 C 
HETATM   12  H28 UNL     1     -34.436  12.841  -6.029  1.00 20.00     0.316 HD
ENDBRANCH   1  10
TORSDOF 4
ENDMDL
MODEL 4
REMARK VINA RESULT:      -3.8     11.999     12.885
REMARK  4 active torsions:
REMARK  status: ('A' for Active; 'I' for Inactive)
REMARK    1  A    between atoms: C5_5  and  C8_8 
REMARK    2  A    between atoms: C6_6  and  C8_8 
REMARK    3  A    between atoms: C7_7  and  C8_8 
REMARK    4  A    between atoms: C8_8  and  N9_9 
ROOT
HETATM    1  C8  UNL     1     -34.530  15.834  -4.324  1.00 20.00     0.217 C 
ENDROOT
BRANCH   1   2
HETATM    2  C5  UNL     1     -35.886  15.081  -4.470  1.00 20.00     0.043 C 
HETATM    3  C1  UNL     1     -35.803  13.637  -4.957  1.00 20.00     0.008 C 
ENDBRANCH   1   2
BRANCH   1   4
HETATM    4  C6  UNL     1     -34.246  16.298  -2.851  1.00 20.00     0.021 C 
HETATM    5  C2  UNL     1     -35.507  16.564  -2.017  1.00 20.00     0.012 C 
HETATM    6  C3  UNL     1     -33.337  17.538  -2.760  1.00 20.00     0.012 C 
ENDBRANCH   1   4
BRANCH   1   7
HETATM    7  C7  UNL     1     -33.411  14.938  -4.889  1.00 20.00     0.391 C 
HETATM    8  F10 UNL     1     -32.563  15.676  -5.655  1.00 20.00    -0.212 F 
HETATM    9  F11 UNL     1     -32.655  14.424  -3.887  1.00 20.00    -0.212 F 
ENDBRANCH   1   7
BRANCH   1  10
HETATM   10  N9  UNL     1     -34.562  17.031  -5.188  1.00 20.00     0.094 N 
HETATM   11  C4  UNL     1     -35.908  17.262  -5.675  1.00 20.00     0.307 C 
HETATM   12  H28 UNL     1     -33.932  16.876  -5.966  1.00 20.00     0.316 HD
ENDBRANCH   1  10
TORSDOF 4
ENDMDL
MODEL 5
REMARK VINA RESULT:      -3.8     11.465     12.589
REMARK  4 active torsions:
REMARK  status: ('A' for Active; 'I' for Inactive)
REMARK    1  A    between atoms: C5_5  and  C8_8 
REMARK    2  A    between atoms: C6_6  and  C8_8 
REMARK    3  A    between atoms: C7_7  and  C8_8 
REMARK    4  A    between atoms: C8_8  and  N9_9 
ROOT
HETATM    1  C8  UNL     1     -34.671  14.694  -5.504  1.00 20.00     0.217 C 
ENDROOT
BRANCH   1   2
HETATM    2  C5  UNL     1     -34.666  16.022  -6.319  1.00 20.00     0.043 C 
HETATM    3  C1  UNL     1     -36.013  16.722  -6.470  1.00 20.00     0.008 C 
ENDBRANCH   1   2
BRANCH   1   4
HETATM    4  C6  UNL     1     -33.884  14.806  -4.150  1.00 20.00     0.021 C 
HETATM    5  C2  UNL     1     -33.697  16.244  -3.645  1.00 20.00     0.012 C 
HETATM    6  C3  UNL     1     -32.505  14.123  -4.180  1.00 20.00     0.012 C 
ENDBRANCH   1   4
BRANCH   1   7
HETATM    7  C7  UNL     1     -36.134  14.250  -5.305  1.00 20.00     0.391 C 
HETATM    8  F10 UNL     1     -36.206  12.894  -5.240  1.00 20.00    -0.212 F 
HETATM    9  F11 UNL     1     -36.616  14.705  -4.121  1.00 20.00    -0.212 F 
ENDBRANCH   1   7
BRANCH   1  10
HETATM   10  N9  UNL     1     -34.039  13.640  -6.321  1.00 20.00     0.094 N 
HETATM   11  C4  UNL     1     -34.215  13.925  -7.731  1.00 20.00     0.307 C 
HETATM   12  H28 UNL     1     -34.474  12.755  -6.088  1.00 20.00     0.316 HD
ENDBRANCH   1  10
TORSDOF 4
ENDMDL
MODEL 6
REMARK VINA RESULT:      -3.7     11.774     13.093
REMARK  4 active torsions:
REMARK  status: ('A' for Active; 'I' for Inactive)
REMARK    1  A    between atoms: C5_5  and  C8_8 
REMARK    2  A    between atoms: C6_6  and  C8_8 
REMARK    3  A    between atoms: C7_7  and  C8_8 
REMARK    4  A    between atoms: C8_8  and  N9_9 
ROOT
HETATM    1  C8  UNL     1     -34.521  15.083  -5.165  1.00 20.00     0.217 C 
ENDROOT
BRANCH   1   2
HETATM    2  C5  UNL     1     -35.584  15.497  -4.104  1.00 20.00     0.043 C 
HETATM    3  C1  UNL     1     -35.051  16.184  -2.851  1.00 20.00     0.008 C 
ENDBRANCH   1   2
BRANCH   1   4
HETATM    4  C6  UNL     1     -34.527  16.013  -6.430  1.00 20.00     0.021 C 
HETATM    5  C2  UNL     1     -35.803  16.850  -6.593  1.00 20.00     0.012 C 
HETATM    6  C3  UNL     1     -34.273  15.259  -7.749  1.00 20.00     0.012 C 
ENDBRANCH   1   4
BRANCH   1   7
HETATM    7  C7  UNL     1     -33.142  15.029  -4.477  1.00 20.00     0.391 C 
HETATM    8  F10 UNL     1     -32.842  13.747  -4.133  1.00 20.00    -0.212 F 
HETATM    9  F11 UNL     1     -32.164  15.424  -5.329  1.00 20.00    -0.212 F 
ENDBRANCH   1   7
BRANCH   1  10
HETATM   10  N9  UNL     1     -34.807  13.703  -5.603  1.00 20.00     0.094 N 
HETATM   11  C4  UNL     1     -36.168  13.340  -5.259  1.00 20.00     0.307 C 
HETATM   12  H28 UNL     1     -34.154  13.082  -5.139  1.00 20.00     0.316 HD
ENDBRANCH   1  10
TORSDOF 4
ENDMDL
MODEL 7
REMARK VINA RESULT:      -3.7     11.624     12.985
REMARK  4 active torsions:
REMARK  status: ('A' for Active; 'I' for Inactive)
REMARK    1  A    between atoms: C5_5  and  C8_8 
REMARK    2  A    between atoms: C6_6  and  C8_8 
REMARK    3  A    between atoms: C7_7  and  C8_8 
REMARK    4  A    between atoms: C8_8  and  N9_9 
ROOT
HETATM    1  C8  UNL     1     -34.500  15.819  -4.277  1.00 20.00     0.217 C 
ENDROOT
BRANCH   1   2
HETATM    2  C5  UNL     1     -33.829  16.414  -3.003  1.00 20.00     0.043 C 
HETATM    3  C1  UNL     1     -34.760  16.724  -1.835  1.00 20.00     0.008 C 
ENDBRANCH   1   2
BRANCH   1   4
HETATM    4  C6  UNL     1     -34.358  16.750  -5.533  1.00 20.00     0.021 C 
HETATM    5  C2  UNL     1     -33.523  16.150  -6.673  1.00 20.00     0.012 C 
HETATM    6  C3  UNL     1     -33.794  18.145  -5.205  1.00 20.00     0.012 C 
ENDBRANCH   1   4
BRANCH   1   7
HETATM    7  C7  UNL     1     -33.924  14.409  -4.517  1.00 20.00     0.391 C 
HETATM    8  F10 UNL     1     -32.641  14.345  -4.070  1.00 20.00    -0.212 F 
HETATM    9  F11 UNL     1     -34.613  13.482  -3.805  1.00 20.00    -0.212 F 
ENDBRANCH   1   7
BRANCH   1  10
HETATM   10  N9  UNL     1     -35.937  15.626  -4.003  1.00 20.00     0.094 N 
HETATM   11  C4  UNL     1     -36.695  15.688  -5.237  1.00 20.00     0.307 C 
HETATM   12  H28 UNL     1     -36.241  16.357  -3.371  1.00 20.00     0.316 HD
ENDBRANCH   1  10
TORSDOF 4
ENDMDL
MODEL 8
REMARK VINA RESULT:      -3.6     11.707     12.933
REMARK  4 active torsions:
REMARK  status: ('A' for Active; 'I' for Inactive)
REMARK    1  A    between atoms: C5_5  and  C8_8 
REMARK    2  A    between atoms: C6_6  and  C8_8 
REMARK    3  A    between atoms: C7_7  and  C8_8 
REMARK    4  A    between atoms: C8_8  and  N9_9 
ROOT
HETATM    1  C8  UNL     1     -35.125  16.488  -3.424  1.00 20.00     0.217 C 
ENDROOT
BRANCH   1   2
HETATM    2  C5  UNL     1     -35.135  17.648  -4.463  1.00 20.00     0.043 C 
HETATM    3  C1  UNL     1     -34.511  18.963  -4.008  1.00 20.00     0.008 C 
ENDBRANCH   1   2
BRANCH   1   4
HETATM    4  C6  UNL     1     -34.219  15.283  -3.862  1.00 20.00     0.021 C 
HETATM    5  C2  UNL     1     -33.142  15.645  -4.895  1.00 20.00     0.012 C 
HETATM    6  C3  UNL     1     -35.014  14.077  -4.397  1.00 20.00     0.012 C 
ENDBRANCH   1   4
BRANCH   1   7
HETATM    7  C7  UNL     1     -34.719  17.065  -2.053  1.00 20.00     0.391 C 
HETATM    8  F10 UNL     1     -35.452  16.484  -1.065  1.00 20.00    -0.212 F 
HETATM    9  F11 UNL     1     -33.424  16.776  -1.775  1.00 20.00    -0.212 F 
ENDBRANCH   1   7
BRANCH   1  10
HETATM   10  N9  UNL     1     -36.506  15.993  -3.259  1.00 20.00     0.094 N 
HETATM   11  C4  UNL     1     -37.436  16.863  -3.950  1.00 20.00     0.307 C 
HETATM   12  H28 UNL     1     -36.719  15.973  -2.268  1.00 20.00     0.316 HD
ENDBRANCH   1  10
TORSDOF 4
ENDMDL
MODEL 9
REMARK VINA RESULT:      -3.6     11.919     12.739
REMARK  4 active torsions:
REMARK  status: ('A' for Active; 'I' for Inactive)
REMARK    1  A    between atoms: C5_5  and  C8_8 
REMARK    2  A    between atoms: C6_6  and  C8_8 
REMARK    3  A    between atoms: C7_7  and  C8_8 
REMARK    4  A    between atoms: C8_8  and  N9_9 
ROOT
HETATM    1  C8  UNL     1     -34.780  16.162  -3.778  1.00 20.00     0.217 C 
ENDROOT
BRANCH   1   2
HETATM    2  C5  UNL     1     -36.313  15.890  -3.716  1.00 20.00     0.043 C 
HETATM    3  C1  UNL     1     -37.205  16.911  -4.415  1.00 20.00     0.008 C 
ENDBRANCH   1   2
BRANCH   1   4
HETATM    4  C6  UNL     1     -34.186  16.624  -2.401  1.00 20.00     0.021 C 
HETATM    5  C2  UNL     1     -35.237  16.869  -1.309  1.00 20.00     0.012 C 
HETATM    6  C3  UNL     1     -33.296  17.877  -2.503  1.00 20.00     0.012 C 
ENDBRANCH   1   4
BRANCH   1   7
HETATM    7  C7  UNL     1     -34.084  14.902  -4.331  1.00 20.00     0.391 C 
HETATM    8  F10 UNL     1     -32.862  14.751  -3.753  1.00 20.00    -0.212 F 
HETATM    9  F11 UNL     1     -34.787  13.787  -4.012  1.00 20.00    -0.212 F 
ENDBRANCH   1   7
BRANCH   1  10
HETATM   10  N9  UNL     1     -34.532  17.227  -4.770  1.00 20.00     0.094 N 
HETATM   11  C4  UNL     1     -33.936  16.667  -5.967  1.00 20.00     0.307 C 
HETATM   12  H28 UNL     1     -33.906  17.907  -4.355  1.00 20.00     0.316 HD
ENDBRANCH   1  10
TORSDOF 4
ENDMDL
