MODEL 1
REMARK VINA RESULT:      -4.1      0.000      0.000
REMARK  3 active torsions:
REMARK  status: ('A' for Active; 'I' for Inactive)
REMARK    1  A    between atoms: C3_3  and  N7_7 
REMARK    2  A    between atoms: C4_4  and  C5_5 
REMARK    3  A    between atoms: C4_4  and  N7_7 
ROOT
HETATM    1  C1  UNL     1     -32.441   7.891   2.615  1.00 20.00     0.089 C 
HETATM    2  C3  UNL     1     -33.230   7.242   3.660  1.00 20.00     0.395 C 
HETATM    3  N6  UNL     1     -31.813   8.409   1.788  1.00 20.00    -0.195 NA
ENDROOT
BRANCH   2   4
HETATM    4  N7  UNL     1     -34.006   6.130   3.113  1.00 20.00     0.099 N 
HETATM    5  C2  UNL     1     -33.128   5.010   2.776  1.00 20.00     0.311 C 
BRANCH   4   6
HETATM    6  C4  UNL     1     -35.033   5.706   4.064  1.00 20.00     0.304 C 
BRANCH   6   7
HETATM    7  C5  UNL     1     -34.538   5.795   5.492  1.00 20.00     0.252 C 
HETATM    8  F8  UNL     1     -34.276   4.540   5.949  1.00 20.00    -0.254 F 
ENDBRANCH   6   7
ENDBRANCH   4   6
ENDBRANCH   2   4
TORSDOF 3
ENDMDL
MODEL 2
REMARK VINA RESULT:      -4.1      2.502      3.966
REMARK  3 active torsions:
REMARK  status: ('A' for Active; 'I' for Inactive)
REMARK    1  A    between atoms: C3_3  and  N7_7 
REMARK    2  A    between atoms: C4_4  and  C5_5 
REMARK    3  A    between atoms: C4_4  and  N7_7 
ROOT
HETATM    1  C1  UNL     1     -34.563   4.786   4.222  1.00 20.00     0.089 C 
HETATM    2  C3  UNL     1     -35.047   6.088   3.768  1.00 20.00     0.395 C 
HETATM    3  N6  UNL     1     -34.181   3.751   4.581  1.00 20.00    -0.195 NA
ENDROOT
BRANCH   2   4
HETATM    4  N7  UNL     1     -34.021   7.116   3.940  1.00 20.00     0.099 N 
HETATM    5  C2  UNL     1     -33.642   7.228   5.348  1.00 20.00     0.311 C 
BRANCH   4   6
HETATM    6  C4  UNL     1     -32.850   6.813   3.118  1.00 20.00     0.304 C 
BRANCH   6   7
HETATM    7  C5  UNL     1     -32.126   8.075   2.697  1.00 20.00     0.252 C 
HETATM    8  F8  UNL     1     -31.052   8.261   3.511  1.00 20.00    -0.254 F 
ENDBRANCH   6   7
ENDBRANCH   4   6
ENDBRANCH   2   4
TORSDOF 3
ENDMDL
MODEL 3
REMARK VINA RESULT:      -4.0      1.584      3.028
REMARK  3 active torsions:
REMARK  status: ('A' for Active; 'I' for Inactive)
REMARK    1  A    between atoms: C3_3  and  N7_7 
REMARK    2  A    between atoms: C4_4  and  C5_5 
REMARK    3  A    between atoms: C4_4  and  N7_7 
ROOT
HETATM    1  C1  UNL     1     -33.895   4.646   3.662  1.00 20.00     0.089 C 
HETATM    2  C3  UNL     1     -33.269   5.583   2.732  1.00 20.00     0.395 C 
HETATM    3  N6  UNL     1     -34.392   3.899   4.398  1.00 20.00    -0.195 NA
ENDROOT
BRANCH   2   4
HETATM    4  N7  UNL     1     -32.854   6.805   3.421  1.00 20.00     0.099 N 
HETATM    5  C2  UNL     1     -32.395   7.804   2.457  1.00 20.00     0.311 C 
BRANCH   4   6
HETATM    6  C4  UNL     1     -33.953   7.337   4.225  1.00 20.00     0.304 C 
BRANCH   6   7
HETATM    7  C5  UNL     1     -33.578   7.425   5.690  1.00 20.00     0.252 C 
HETATM    8  F8  UNL     1     -34.382   6.592   6.404  1.00 20.00    -0.254 F 
ENDBRANCH   6   7
ENDBRANCH   4   6
ENDBRANCH   2   4
TORSDOF 3
ENDMDL
MODEL 4
REMARK VINA RESULT:      -4.0      0.885      1.029
REMARK  3 active torsions:
REMARK  status: ('A' for Active; 'I' for Inactive)
REMARK    1  A    between atoms: C3_3  and  N7_7 
REMARK    2  A    between atoms: C4_4  and  C5_5 
REMARK    3  A    between atoms: C4_4  and  N7_7 
ROOT
HETATM    1  C1  UNL     1     -32.122   8.472   2.034  1.00 20.00     0.089 C 
HETATM    2  C3  UNL     1     -32.206   7.698   3.271  1.00 20.00     0.395 C 
HETATM    3  N6  UNL     1     -32.052   9.088   1.053  1.00 20.00    -0.195 NA
ENDROOT
BRANCH   2   4
HETATM    4  N7  UNL     1     -33.483   6.992   3.359  1.00 20.00     0.099 N 
HETATM    5  C2  UNL     1     -33.379   5.669   2.745  1.00 20.00     0.311 C 
BRANCH   4   6
HETATM    6  C4  UNL     1     -33.909   6.876   4.753  1.00 20.00     0.304 C 
BRANCH   6   7
HETATM    7  C5  UNL     1     -34.718   5.617   4.984  1.00 20.00     0.252 C 
HETATM    8  F8  UNL     1     -34.245   4.983   6.091  1.00 20.00    -0.254 F 
ENDBRANCH   6   7
ENDBRANCH   4   6
ENDBRANCH   2   4
TORSDOF 3
ENDMDL
MODEL 5
REMARK VINA RESULT:      -3.7      1.557      2.016
REMARK  3 active torsions:
REMARK  status: ('A' for Active; 'I' for Inactive)
REMARK    1  A    between atoms: C3_3  and  N7_7 
REMARK    2  A    between atoms: C4_4  and  C5_5 
REMARK    3  A    between atoms: C4_4  and  N7_7 
ROOT
HETATM    1  C1  UNL     1     -32.316   7.858   3.314  1.00 20.00     0.089 C 
HETATM    2  C3  UNL     1     -33.652   7.297   3.508  1.00 20.00     0.395 C 
HETATM    3  N6  UNL     1     -31.257   8.304   3.156  1.00 20.00    -0.195 NA
ENDROOT
BRANCH   2   4
HETATM    4  N7  UNL     1     -33.706   6.486   4.724  1.00 20.00     0.099 N 
HETATM    5  C2  UNL     1     -33.766   7.343   5.907  1.00 20.00     0.311 C 
BRANCH   4   6
HETATM    6  C4  UNL     1     -34.855   5.583   4.687  1.00 20.00     0.304 C 
BRANCH   6   7
HETATM    7  C5  UNL     1     -34.424   4.142   4.508  1.00 20.00     0.252 C 
HETATM    8  F8  UNL     1     -33.586   4.060   3.438  1.00 20.00    -0.254 F 
ENDBRANCH   6   7
ENDBRANCH   4   6
ENDBRANCH   2   4
TORSDOF 3
ENDMDL
MODEL 6
REMARK VINA RESULT:      -3.6      2.867      4.270
REMARK  3 active torsions:
REMARK  status: ('A' for Active; 'I' for Inactive)
REMARK    1  A    between atoms: C3_3  and  N7_7 
REMARK    2  A    between atoms: C4_4  and  C5_5 
REMARK    3  A    between atoms: C4_4  and  N7_7 
ROOT
HETATM    1  C1  UNL     1     -34.223   6.138   5.305  1.00 20.00     0.089 C 
HETATM    2  C3  UNL     1     -33.586   7.319   4.727  1.00 20.00     0.395 C 
HETATM    3  N6  UNL     1     -34.731   5.202   5.766  1.00 20.00    -0.195 NA
ENDROOT
BRANCH   2   4
HETATM    4  N7  UNL     1     -32.689   6.946   3.633  1.00 20.00     0.099 N 
HETATM    5  C2  UNL     1     -33.451   6.392   2.514  1.00 20.00     0.311 C 
BRANCH   4   6
HETATM    6  C4  UNL     1     -31.906   8.102   3.197  1.00 20.00     0.304 C 
BRANCH   6   7
HETATM    7  C5  UNL     1     -32.304   8.549   1.806  1.00 20.00     0.252 C 
HETATM    8  F8  UNL     1     -31.224   8.452   0.983  1.00 20.00    -0.254 F 
ENDBRANCH   6   7
ENDBRANCH   4   6
ENDBRANCH   2   4
TORSDOF 3
ENDMDL
MODEL 7
REMARK VINA RESULT:      -3.6      3.219      4.743
REMARK  3 active torsions:
REMARK  status: ('A' for Active; 'I' for Inactive)
REMARK    1  A    between atoms: C3_3  and  N7_7 
REMARK    2  A    between atoms: C4_4  and  C5_5 
REMARK    3  A    between atoms: C4_4  and  N7_7 
ROOT
HETATM    1  C1  UNL     1     -33.789   6.577   3.713  1.00 20.00     0.089 C 
HETATM    2  C3  UNL     1     -33.047   6.939   2.508  1.00 20.00     0.395 C 
HETATM    3  N6  UNL     1     -34.379   6.286   4.669  1.00 20.00    -0.195 NA
ENDROOT
BRANCH   2   4
HETATM    4  N7  UNL     1     -32.496   8.289   2.620  1.00 20.00     0.099 N 
HETATM    5  C2  UNL     1     -31.427   8.324   3.617  1.00 20.00     0.311 C 
BRANCH   4   6
HETATM    6  C4  UNL     1     -32.001   8.749   1.323  1.00 20.00     0.304 C 
BRANCH   6   7
HETATM    7  C5  UNL     1     -32.832   9.895   0.786  1.00 20.00     0.252 C 
HETATM    8  F8  UNL     1     -32.550  11.019   1.498  1.00 20.00    -0.254 F 
ENDBRANCH   6   7
ENDBRANCH   4   6
ENDBRANCH   2   4
TORSDOF 3
ENDMDL
MODEL 8
REMARK VINA RESULT:      -3.4      2.571      3.339
REMARK  3 active torsions:
REMARK  status: ('A' for Active; 'I' for Inactive)
REMARK    1  A    between atoms: C3_3  and  N7_7 
REMARK    2  A    between atoms: C4_4  and  C5_5 
REMARK    3  A    between atoms: C4_4  and  N7_7 
ROOT
HETATM    1  C1  UNL     1     -34.034   6.500   5.896  1.00 20.00     0.089 C 
HETATM    2  C3  UNL     1     -34.581   5.158   5.706  1.00 20.00     0.395 C 
HETATM    3  N6  UNL     1     -33.601   7.565   6.050  1.00 20.00    -0.195 NA
ENDROOT
BRANCH   2   4
HETATM    4  N7  UNL     1     -34.813   4.884   4.288  1.00 20.00     0.099 N 
HETATM    5  C2  UNL     1     -35.535   5.993   3.665  1.00 20.00     0.311 C 
BRANCH   4   6
HETATM    6  C4  UNL     1     -33.545   4.648   3.598  1.00 20.00     0.304 C 
BRANCH   6   7
HETATM    7  C5  UNL     1     -33.285   5.698   2.538  1.00 20.00     0.252 C 
HETATM    8  F8  UNL     1     -32.341   6.565   2.996  1.00 20.00    -0.254 F 
ENDBRANCH   6   7
ENDBRANCH   4   6
ENDBRANCH   2   4
TORSDOF 3
ENDMDL
MODEL 9
REMARK VINA RESULT:      -3.4     11.729     12.123
REMARK  3 active torsions:
REMARK  status: ('A' for Active; 'I' for Inactive)
REMARK    1  A    between atoms: C3_3  and  N7_7 
REMARK    2  A    between atoms: C4_4  and  C5_5 
REMARK    3  A    between atoms: C4_4  and  N7_7 
ROOT
HETATM    1  C1  UNL     1     -35.642  13.938  -4.892  1.00 20.00     0.089 C 
HETATM    2  C3  UNL     1     -35.333  15.273  -4.384  1.00 20.00     0.395 C 
HETATM    3  N6  UNL     1     -35.892  12.879  -5.296  1.00 20.00    -0.195 NA
ENDROOT
BRANCH   2   4
HETATM    4  N7  UNL     1     -33.931  15.364  -3.977  1.00 20.00     0.099 N 
HETATM    5  C2  UNL     1     -33.067  15.503  -5.149  1.00 20.00     0.311 C 
BRANCH   4   6
HETATM    6  C4  UNL     1     -33.736  16.488  -3.062  1.00 20.00     0.304 C 
BRANCH   6   7
HETATM    7  C5  UNL     1     -34.880  16.606  -2.077  1.00 20.00     0.252 C 
HETATM    8  F8  UNL     1     -34.381  16.958  -0.860  1.00 20.00    -0.254 F 
ENDBRANCH   6   7
ENDBRANCH   4   6
ENDBRANCH   2   4
TORSDOF 3
ENDMDL
