MODEL 1
REMARK VINA RESULT:      -3.8      0.000      0.000
REMARK  1 active torsions:
REMARK  status: ('A' for Active; 'I' for Inactive)
REMARK    1  A    between atoms: C3_3  and  C8_8 
ROOT
HETATM    1  C1  UNL     1     -35.183  14.028  -4.694  1.00 20.00     0.111 C 
HETATM    2  C2  UNL     1     -36.224  15.136  -4.836  1.00 20.00     0.227 C 
HETATM    3  C3  UNL     1     -34.586  16.372  -3.626  1.00 20.00     0.205 C 
HETATM    4  C4  UNL     1     -37.642  14.575  -4.813  1.00 20.00     0.043 C 
HETATM    5  C5  UNL     1     -34.240  17.583  -4.498  1.00 20.00     0.062 C 
HETATM    6  N9  UNL     1     -36.028  16.078  -3.718  1.00 20.00     0.108 N 
HETATM    7  S10 UNL     1     -33.675  14.906  -4.232  1.00 20.00    -0.126 SA
HETATM    8  H27 UNL     1     -36.570  16.928  -3.868  1.00 20.00     0.318 HD
ENDROOT
BRANCH   3   9
HETATM    9  C8  UNL     1     -34.199  16.642  -2.169  1.00 20.00     0.026 C 
HETATM   10  C6  UNL     1     -33.203  17.795  -2.084  1.00 20.00     0.013 C 
HETATM   11  C7  UNL     1     -35.441  16.940  -1.333  1.00 20.00     0.013 C 
ENDBRANCH   3   9
TORSDOF 1
ENDMDL
MODEL 2
REMARK VINA RESULT:      -3.8      1.549      3.879
REMARK  1 active torsions:
REMARK  status: ('A' for Active; 'I' for Inactive)
REMARK    1  A    between atoms: C3_3  and  C8_8 
ROOT
HETATM    1  C1  UNL     1     -34.259  17.707  -3.621  1.00 20.00     0.111 C 
HETATM    2  C2  UNL     1     -34.348  16.543  -2.638  1.00 20.00     0.227 C 
HETATM    3  C3  UNL     1     -34.161  15.270  -4.642  1.00 20.00     0.205 C 
HETATM    4  C4  UNL     1     -35.237  16.885  -1.447  1.00 20.00     0.043 C 
HETATM    5  C5  UNL     1     -32.929  14.378  -4.464  1.00 20.00     0.062 C 
HETATM    6  N9  UNL     1     -34.893  15.383  -3.366  1.00 20.00     0.108 N 
HETATM    7  S10 UNL     1     -33.631  16.950  -5.134  1.00 20.00    -0.126 SA
HETATM    8  H27 UNL     1     -34.798  14.535  -2.811  1.00 20.00     0.318 HD
ENDROOT
BRANCH   3   9
HETATM    9  C8  UNL     1     -35.081  14.693  -5.723  1.00 20.00     0.026 C 
HETATM   10  C6  UNL     1     -34.265  14.218  -6.922  1.00 20.00     0.013 C 
HETATM   11  C7  UNL     1     -35.921  13.552  -5.156  1.00 20.00     0.013 C 
ENDBRANCH   3   9
TORSDOF 1
ENDMDL
MODEL 3
REMARK VINA RESULT:      -3.7      2.079      2.833
REMARK  1 active torsions:
REMARK  status: ('A' for Active; 'I' for Inactive)
REMARK    1  A    between atoms: C3_3  and  C8_8 
ROOT
HETATM    1  C1  UNL     1     -35.572  16.640  -6.152  1.00 20.00     0.111 C 
HETATM    2  C2  UNL     1     -34.099  16.677  -6.551  1.00 20.00     0.227 C 
HETATM    3  C3  UNL     1     -33.810  16.027  -4.278  1.00 20.00     0.205 C 
HETATM    4  C4  UNL     1     -33.830  17.761  -7.590  1.00 20.00     0.043 C 
HETATM    5  C5  UNL     1     -33.035  14.705  -4.311  1.00 20.00     0.062 C 
HETATM    6  N9  UNL     1     -33.312  16.932  -5.331  1.00 20.00     0.108 N 
HETATM    7  S10 UNL     1     -35.580  15.703  -4.609  1.00 20.00    -0.126 SA
HETATM    8  H27 UNL     1     -32.320  16.782  -5.507  1.00 20.00     0.318 HD
ENDROOT
BRANCH   3   9
HETATM    9  C8  UNL     1     -33.665  16.691  -2.906  1.00 20.00     0.026 C 
HETATM   10  C6  UNL     1     -33.274  18.158  -3.060  1.00 20.00     0.013 C 
HETATM   11  C7  UNL     1     -34.961  16.560  -2.109  1.00 20.00     0.013 C 
ENDBRANCH   3   9
TORSDOF 1
ENDMDL
MODEL 4
REMARK VINA RESULT:      -3.7      1.786      2.155
REMARK  1 active torsions:
REMARK  status: ('A' for Active; 'I' for Inactive)
REMARK    1  A    between atoms: C3_3  and  C8_8 
ROOT
HETATM    1  C1  UNL     1     -33.410  16.681  -5.242  1.00 20.00     0.111 C 
HETATM    2  C2  UNL     1     -34.530  15.667  -5.024  1.00 20.00     0.227 C 
HETATM    3  C3  UNL     1     -34.814  16.914  -3.014  1.00 20.00     0.205 C 
HETATM    4  C4  UNL     1     -34.174  14.308  -5.617  1.00 20.00     0.043 C 
HETATM    5  C5  UNL     1     -36.261  17.418  -3.030  1.00 20.00     0.062 C 
HETATM    6  N9  UNL     1     -34.748  15.549  -3.571  1.00 20.00     0.108 N 
HETATM    7  S10 UNL     1     -33.781  17.997  -4.064  1.00 20.00    -0.126 SA
HETATM    8  H27 UNL     1     -35.603  15.030  -3.378  1.00 20.00     0.318 HD
ENDROOT
BRANCH   3   9
HETATM    9  C8  UNL     1     -34.267  16.922  -1.584  1.00 20.00     0.026 C 
HETATM   10  C6  UNL     1     -33.070  17.863  -1.475  1.00 20.00     0.013 C 
HETATM   11  C7  UNL     1     -35.359  17.324  -0.596  1.00 20.00     0.013 C 
ENDBRANCH   3   9
TORSDOF 1
ENDMDL
MODEL 5
REMARK VINA RESULT:      -3.6      1.778      3.951
REMARK  1 active torsions:
REMARK  status: ('A' for Active; 'I' for Inactive)
REMARK    1  A    between atoms: C3_3  and  C8_8 
ROOT
HETATM    1  C1  UNL     1     -36.320  16.996  -3.793  1.00 20.00     0.111 C 
HETATM    2  C2  UNL     1     -34.989  16.786  -3.075  1.00 20.00     0.227 C 
HETATM    3  C3  UNL     1     -34.541  15.456  -5.000  1.00 20.00     0.205 C 
HETATM    4  C4  UNL     1     -35.167  16.781  -1.561  1.00 20.00     0.043 C 
HETATM    5  C5  UNL     1     -33.276  16.043  -5.635  1.00 20.00     0.062 C 
HETATM    6  N9  UNL     1     -34.435  15.497  -3.529  1.00 20.00     0.108 N 
HETATM    7  S10 UNL     1     -35.989  16.463  -5.486  1.00 20.00    -0.126 SA
HETATM    8  H27 UNL     1     -33.468  15.397  -3.226  1.00 20.00     0.318 HD
ENDROOT
BRANCH   3   9
HETATM    9  C8  UNL     1     -34.748  14.013  -5.469  1.00 20.00     0.026 C 
HETATM   10  C6  UNL     1     -36.189  13.572  -5.225  1.00 20.00     0.013 C 
HETATM   11  C7  UNL     1     -34.386  13.874  -6.945  1.00 20.00     0.013 C 
ENDBRANCH   3   9
TORSDOF 1
ENDMDL
MODEL 6
REMARK VINA RESULT:      -3.6      1.773      3.175
REMARK  1 active torsions:
REMARK  status: ('A' for Active; 'I' for Inactive)
REMARK    1  A    between atoms: C3_3  and  C8_8 
ROOT
HETATM    1  C1  UNL     1     -36.848  17.224  -5.445  1.00 20.00     0.111 C 
HETATM    2  C2  UNL     1     -37.468  16.921  -4.083  1.00 20.00     0.227 C 
HETATM    3  C3  UNL     1     -35.395  15.793  -3.762  1.00 20.00     0.205 C 
HETATM    4  C4  UNL     1     -38.982  16.760  -4.183  1.00 20.00     0.043 C 
HETATM    5  C5  UNL     1     -34.758  16.424  -2.520  1.00 20.00     0.062 C 
HETATM    6  N9  UNL     1     -36.854  15.679  -3.580  1.00 20.00     0.108 N 
HETATM    7  S10 UNL     1     -35.094  16.866  -5.212  1.00 20.00    -0.126 SA
HETATM    8  H27 UNL     1     -37.093  15.533  -2.600  1.00 20.00     0.318 HD
ENDROOT
BRANCH   3   9
HETATM    9  C8  UNL     1     -34.791  14.410  -4.022  1.00 20.00     0.026 C 
HETATM   10  C6  UNL     1     -35.625  13.645  -5.046  1.00 20.00     0.013 C 
HETATM   11  C7  UNL     1     -33.345  14.538  -4.494  1.00 20.00     0.013 C 
ENDBRANCH   3   9
TORSDOF 1
ENDMDL
MODEL 7
REMARK VINA RESULT:      -3.6      1.564      2.223
REMARK  1 active torsions:
REMARK  status: ('A' for Active; 'I' for Inactive)
REMARK    1  A    between atoms: C3_3  and  C8_8 
ROOT
HETATM    1  C1  UNL     1     -36.103  16.229  -5.165  1.00 20.00     0.111 C 
HETATM    2  C2  UNL     1     -35.809  15.065  -4.222  1.00 20.00     0.227 C 
HETATM    3  C3  UNL     1     -34.755  16.789  -2.961  1.00 20.00     0.205 C 
HETATM    4  C4  UNL     1     -35.597  13.764  -4.990  1.00 20.00     0.043 C 
HETATM    5  C5  UNL     1     -35.432  16.782  -1.586  1.00 20.00     0.062 C 
HETATM    6  N9  UNL     1     -34.598  15.408  -3.454  1.00 20.00     0.108 N 
HETATM    7  S10 UNL     1     -35.807  17.693  -4.152  1.00 20.00    -0.126 SA
HETATM    8  H27 UNL     1     -34.465  14.754  -2.684  1.00 20.00     0.318 HD
ENDROOT
BRANCH   3   9
HETATM    9  C8  UNL     1     -33.387  17.472  -2.873  1.00 20.00     0.026 C 
HETATM   10  C6  UNL     1     -33.348  18.709  -3.766  1.00 20.00     0.013 C 
HETATM   11  C7  UNL     1     -33.065  17.840  -1.428  1.00 20.00     0.013 C 
ENDBRANCH   3   9
TORSDOF 1
ENDMDL
MODEL 8
REMARK VINA RESULT:      -3.6      1.964      3.982
REMARK  1 active torsions:
REMARK  status: ('A' for Active; 'I' for Inactive)
REMARK    1  A    between atoms: C3_3  and  C8_8 
ROOT
HETATM    1  C1  UNL     1     -35.613  17.009  -1.472  1.00 20.00     0.111 C 
HETATM    2  C2  UNL     1     -34.352  17.869  -1.525  1.00 20.00     0.227 C 
HETATM    3  C3  UNL     1     -34.076  16.748  -3.608  1.00 20.00     0.205 C 
HETATM    4  C4  UNL     1     -33.770  18.091  -0.133  1.00 20.00     0.043 C 
HETATM    5  C5  UNL     1     -33.993  17.846  -4.673  1.00 20.00     0.062 C 
HETATM    6  N9  UNL     1     -33.375  17.176  -2.383  1.00 20.00     0.108 N 
HETATM    7  S10 UNL     1     -35.828  16.451  -3.175  1.00 20.00    -0.126 SA
HETATM    8  H27 UNL     1     -32.592  17.790  -2.602  1.00 20.00     0.318 HD
ENDROOT
BRANCH   3   9
HETATM    9  C8  UNL     1     -33.459  15.450  -4.138  1.00 20.00     0.026 C 
HETATM   10  C6  UNL     1     -34.462  14.303  -4.044  1.00 20.00     0.013 C 
HETATM   11  C7  UNL     1     -32.984  15.633  -5.577  1.00 20.00     0.013 C 
ENDBRANCH   3   9
TORSDOF 1
ENDMDL
MODEL 9
REMARK VINA RESULT:      -3.5      2.696      4.080
REMARK  1 active torsions:
REMARK  status: ('A' for Active; 'I' for Inactive)
REMARK    1  A    between atoms: C3_3  and  C8_8 
ROOT
HETATM    1  C1  UNL     1     -36.836  16.483  -5.335  1.00 20.00     0.111 C 
HETATM    2  C2  UNL     1     -37.197  15.156  -4.671  1.00 20.00     0.227 C 
HETATM    3  C3  UNL     1     -34.989  14.592  -5.362  1.00 20.00     0.205 C 
HETATM    4  C4  UNL     1     -38.680  14.839  -4.828  1.00 20.00     0.043 C 
HETATM    5  C5  UNL     1     -34.236  14.192  -4.090  1.00 20.00     0.062 C 
HETATM    6  N9  UNL     1     -36.379  14.105  -5.302  1.00 20.00     0.108 N 
HETATM    7  S10 UNL     1     -35.039  16.416  -5.491  1.00 20.00    -0.126 SA
HETATM    8  H27 UNL     1     -36.443  13.236  -4.773  1.00 20.00     0.318 HD
ENDROOT
BRANCH   3   9
HETATM    9  C8  UNL     1     -34.286  14.017  -6.596  1.00 20.00     0.026 C 
HETATM   10  C6  UNL     1     -35.189  13.012  -7.306  1.00 20.00     0.013 C 
HETATM   11  C7  UNL     1     -33.874  15.137  -7.547  1.00 20.00     0.013 C 
ENDBRANCH   3   9
TORSDOF 1
ENDMDL
