MODEL 1
REMARK VINA RESULT:      -3.8      0.000      0.000
REMARK  1 active torsions:
REMARK  status: ('A' for Active; 'I' for Inactive)
REMARK    1  A    between atoms: C4_4  and  C7_7 
ROOT
HETATM    1  C1  UNL     1     -34.282   4.613   5.753  1.00 20.00     0.040 C 
HETATM    2  C2  UNL     1     -34.300   4.138   4.301  1.00 20.00     0.272 C 
HETATM    3  C3  UNL     1     -34.687   6.072   5.914  1.00 20.00     0.078 C 
HETATM    4  C4  UNL     1     -33.664   6.319   3.335  1.00 20.00     0.201 C 
HETATM    5  C5  UNL     1     -35.008   6.595   2.643  1.00 20.00     0.061 C 
HETATM    6  N8  UNL     1     -33.376   4.881   3.447  1.00 20.00     0.102 N 
HETATM    7  S9  UNL     1     -33.602   7.173   4.962  1.00 20.00    -0.128 SA
HETATM    8  H24 UNL     1     -32.427   4.752   3.799  1.00 20.00     0.317 HD
ENDROOT
BRANCH   4   9
HETATM    9  C7  UNL     1     -32.542   6.933   2.476  1.00 20.00     0.048 C 
HETATM   10  C6  UNL     1     -31.869   8.056   3.186  1.00 20.00     0.009 C 
ENDBRANCH   4   9
TORSDOF 1
ENDMDL
MODEL 2
REMARK VINA RESULT:      -3.7     12.285     13.576
REMARK  1 active torsions:
REMARK  status: ('A' for Active; 'I' for Inactive)
REMARK    1  A    between atoms: C4_4  and  C7_7 
ROOT
HETATM    1  C1  UNL     1     -35.919  13.891  -7.810  1.00 20.00     0.040 C 
HETATM    2  C2  UNL     1     -34.435  13.621  -7.569  1.00 20.00     0.272 C 
HETATM    3  C3  UNL     1     -36.366  15.267  -7.333  1.00 20.00     0.078 C 
HETATM    4  C4  UNL     1     -34.285  14.967  -5.504  1.00 20.00     0.201 C 
HETATM    5  C5  UNL     1     -33.385  16.067  -6.086  1.00 20.00     0.061 C 
HETATM    6  N8  UNL     1     -34.070  13.665  -6.155  1.00 20.00     0.102 N 
HETATM    7  S9  UNL     1     -36.046  15.493  -5.560  1.00 20.00    -0.128 SA
HETATM    8  H24 UNL     1     -34.596  12.946  -5.657  1.00 20.00     0.317 HD
ENDROOT
BRANCH   4   9
HETATM    9  C7  UNL     1     -33.929  14.786  -4.017  1.00 20.00     0.048 C 
HETATM   10  C6  UNL     1     -34.473  15.901  -3.191  1.00 20.00     0.009 C 
ENDBRANCH   4   9
TORSDOF 1
ENDMDL
MODEL 3
REMARK VINA RESULT:      -3.6     12.576     13.441
REMARK  1 active torsions:
REMARK  status: ('A' for Active; 'I' for Inactive)
REMARK    1  A    between atoms: C4_4  and  C7_7 
ROOT
HETATM    1  C1  UNL     1     -34.492  13.659  -7.469  1.00 20.00     0.040 C 
HETATM    2  C2  UNL     1     -33.761  14.999  -7.441  1.00 20.00     0.272 C 
HETATM    3  C3  UNL     1     -35.726  13.628  -6.577  1.00 20.00     0.078 C 
HETATM    4  C4  UNL     1     -34.321  15.522  -5.094  1.00 20.00     0.201 C 
HETATM    5  C5  UNL     1     -35.251  16.705  -5.403  1.00 20.00     0.061 C 
HETATM    6  N8  UNL     1     -33.272  15.354  -6.111  1.00 20.00     0.102 N 
HETATM    7  S9  UNL     1     -35.307  13.990  -4.848  1.00 20.00    -0.128 SA
HETATM    8  H24 UNL     1     -32.611  14.639  -5.802  1.00 20.00     0.317 HD
ENDROOT
BRANCH   4   9
HETATM    9  C7  UNL     1     -33.607  15.803  -3.759  1.00 20.00     0.048 C 
HETATM   10  C6  UNL     1     -34.559  16.314  -2.733  1.00 20.00     0.009 C 
ENDBRANCH   4   9
TORSDOF 1
ENDMDL
MODEL 4
REMARK VINA RESULT:      -3.6     12.079     12.959
REMARK  1 active torsions:
REMARK  status: ('A' for Active; 'I' for Inactive)
REMARK    1  A    between atoms: C4_4  and  C7_7 
ROOT
HETATM    1  C1  UNL     1     -35.711  14.116  -6.601  1.00 20.00     0.040 C 
HETATM    2  C2  UNL     1     -35.672  13.637  -5.151  1.00 20.00     0.272 C 
HETATM    3  C3  UNL     1     -34.360  14.602  -7.110  1.00 20.00     0.078 C 
HETATM    4  C4  UNL     1     -33.920  15.221  -4.430  1.00 20.00     0.201 C 
HETATM    5  C5  UNL     1     -32.830  14.166  -4.187  1.00 20.00     0.061 C 
HETATM    6  N8  UNL     1     -35.274  14.687  -4.215  1.00 20.00     0.102 N 
HETATM    7  S9  UNL     1     -33.720  15.967  -6.098  1.00 20.00    -0.128 SA
HETATM    8  H24 UNL     1     -35.951  15.449  -4.268  1.00 20.00     0.317 HD
ENDROOT
BRANCH   4   9
HETATM    9  C7  UNL     1     -33.725  16.362  -3.414  1.00 20.00     0.048 C 
HETATM   10  C6  UNL     1     -34.867  16.438  -2.459  1.00 20.00     0.009 C 
ENDBRANCH   4   9
TORSDOF 1
ENDMDL
MODEL 5
REMARK VINA RESULT:      -3.5     12.310     12.907
REMARK  1 active torsions:
REMARK  status: ('A' for Active; 'I' for Inactive)
REMARK    1  A    between atoms: C4_4  and  C7_7 
ROOT
HETATM    1  C1  UNL     1     -37.249  14.151  -5.449  1.00 20.00     0.040 C 
HETATM    2  C2  UNL     1     -35.944  13.359  -5.423  1.00 20.00     0.272 C 
HETATM    3  C3  UNL     1     -37.061  15.610  -5.845  1.00 20.00     0.078 C 
HETATM    4  C4  UNL     1     -34.531  15.262  -4.730  1.00 20.00     0.201 C 
HETATM    5  C5  UNL     1     -33.747  15.376  -6.047  1.00 20.00     0.061 C 
HETATM    6  N8  UNL     1     -34.977  13.887  -4.462  1.00 20.00     0.102 N 
HETATM    7  S9  UNL     1     -35.923  16.463  -4.717  1.00 20.00    -0.128 SA
HETATM    8  H24 UNL     1     -35.383  13.838  -3.527  1.00 20.00     0.317 HD
ENDROOT
BRANCH   4   9
HETATM    9  C7  UNL     1     -33.596  15.661  -3.574  1.00 20.00     0.048 C 
HETATM   10  C6  UNL     1     -34.291  16.545  -2.596  1.00 20.00     0.009 C 
ENDBRANCH   4   9
TORSDOF 1
ENDMDL
MODEL 6
REMARK VINA RESULT:      -3.4     12.213     13.181
REMARK  1 active torsions:
REMARK  status: ('A' for Active; 'I' for Inactive)
REMARK    1  A    between atoms: C4_4  and  C7_7 
ROOT
HETATM    1  C1  UNL     1     -33.551  15.742  -3.768  1.00 20.00     0.040 C 
HETATM    2  C2  UNL     1     -33.255  14.344  -4.307  1.00 20.00     0.272 C 
HETATM    3  C3  UNL     1     -35.029  16.105  -3.813  1.00 20.00     0.078 C 
HETATM    4  C4  UNL     1     -35.078  14.346  -5.973  1.00 20.00     0.201 C 
HETATM    5  C5  UNL     1     -35.928  13.263  -5.293  1.00 20.00     0.061 C 
HETATM    6  N8  UNL     1     -33.641  14.179  -5.707  1.00 20.00     0.102 N 
HETATM    7  S9  UNL     1     -35.686  16.016  -5.503  1.00 20.00    -0.128 SA
HETATM    8  H24 UNL     1     -33.112  14.843  -6.274  1.00 20.00     0.317 HD
ENDROOT
BRANCH   4   9
HETATM    9  C7  UNL     1     -35.266  14.224  -7.497  1.00 20.00     0.048 C 
HETATM   10  C6  UNL     1     -36.606  14.722  -7.918  1.00 20.00     0.009 C 
ENDBRANCH   4   9
TORSDOF 1
ENDMDL
MODEL 7
REMARK VINA RESULT:      -3.4     12.333     12.989
REMARK  1 active torsions:
REMARK  status: ('A' for Active; 'I' for Inactive)
REMARK    1  A    between atoms: C4_4  and  C7_7 
ROOT
HETATM    1  C1  UNL     1     -34.830  16.907  -1.927  1.00 20.00     0.040 C 
HETATM    2  C2  UNL     1     -36.196  17.277  -2.501  1.00 20.00     0.272 C 
HETATM    3  C3  UNL     1     -33.828  16.473  -2.988  1.00 20.00     0.078 C 
HETATM    4  C4  UNL     1     -36.108  15.662  -4.367  1.00 20.00     0.201 C 
HETATM    5  C5  UNL     1     -36.011  16.707  -5.489  1.00 20.00     0.061 C 
HETATM    6  N8  UNL     1     -36.842  16.165  -3.196  1.00 20.00     0.102 N 
HETATM    7  S9  UNL     1     -34.433  15.044  -3.930  1.00 20.00    -0.128 SA
HETATM    8  H24 UNL     1     -36.986  15.403  -2.533  1.00 20.00     0.317 HD
ENDROOT
BRANCH   4   9
HETATM    9  C7  UNL     1     -36.897  14.451  -4.900  1.00 20.00     0.048 C 
HETATM   10  C6  UNL     1     -35.983  13.410  -5.450  1.00 20.00     0.009 C 
ENDBRANCH   4   9
TORSDOF 1
ENDMDL
MODEL 8
REMARK VINA RESULT:      -3.3     12.610     13.647
REMARK  1 active torsions:
REMARK  status: ('A' for Active; 'I' for Inactive)
REMARK    1  A    between atoms: C4_4  and  C7_7 
ROOT
HETATM    1  C1  UNL     1     -33.164  16.175  -5.144  1.00 20.00     0.040 C 
HETATM    2  C2  UNL     1     -33.660  16.234  -6.588  1.00 20.00     0.272 C 
HETATM    3  C3  UNL     1     -33.266  14.786  -4.528  1.00 20.00     0.078 C 
HETATM    4  C4  UNL     1     -35.386  14.489  -6.312  1.00 20.00     0.201 C 
HETATM    5  C5  UNL     1     -34.709  13.441  -7.208  1.00 20.00     0.061 C 
HETATM    6  N8  UNL     1     -35.068  15.865  -6.722  1.00 20.00     0.102 N 
HETATM    7  S9  UNL     1     -34.974  14.173  -4.548  1.00 20.00    -0.128 SA
HETATM    8  H24 UNL     1     -35.632  16.520  -6.178  1.00 20.00     0.317 HD
ENDROOT
BRANCH   4   9
HETATM    9  C7  UNL     1     -36.912  14.326  -6.442  1.00 20.00     0.048 C 
HETATM   10  C6  UNL     1     -37.580  14.406  -5.112  1.00 20.00     0.009 C 
ENDBRANCH   4   9
TORSDOF 1
ENDMDL
MODEL 9
REMARK VINA RESULT:      -3.3     12.384     12.930
REMARK  1 active torsions:
REMARK  status: ('A' for Active; 'I' for Inactive)
REMARK    1  A    between atoms: C4_4  and  C7_7 
ROOT
HETATM    1  C1  UNL     1     -34.915  16.335  -2.616  1.00 20.00     0.040 C 
HETATM    2  C2  UNL     1     -36.210  16.401  -3.423  1.00 20.00     0.272 C 
HETATM    3  C3  UNL     1     -33.679  16.108  -3.476  1.00 20.00     0.078 C 
HETATM    4  C4  UNL     1     -35.476  14.815  -5.168  1.00 20.00     0.201 C 
HETATM    5  C5  UNL     1     -35.405  15.842  -6.309  1.00 20.00     0.061 C 
HETATM    6  N8  UNL     1     -36.485  15.168  -4.159  1.00 20.00     0.102 N 
HETATM    7  S9  UNL     1     -33.808  14.571  -4.433  1.00 20.00    -0.128 SA
HETATM    8  H24 UNL     1     -36.580  14.401  -3.491  1.00 20.00     0.317 HD
ENDROOT
BRANCH   4   9
HETATM    9  C7  UNL     1     -35.895  13.458  -5.763  1.00 20.00     0.048 C 
HETATM   10  C6  UNL     1     -35.173  13.178  -7.036  1.00 20.00     0.009 C 
ENDBRANCH   4   9
TORSDOF 1
ENDMDL
