MODEL 1
REMARK VINA RESULT:      -4.7      0.000      0.000
REMARK  4 active torsions:
REMARK  status: ('A' for Active; 'I' for Inactive)
REMARK    1  A    between atoms: C5_5  and  C6_6 
REMARK    2  A    between atoms: C5_5  and  C8_8 
REMARK    3  A    between atoms: C6_6  and  C7_7 
REMARK    4  A    between atoms: C6_6  and  N9_9 
ROOT
HETATM    1  C6  UNL     1     -32.946   7.764   2.997  1.00 20.00     0.285 C 
ENDROOT
BRANCH   1   2
HETATM    2  C5  UNL     1     -33.020   6.268   3.376  1.00 20.00     0.049 C 
BRANCH   2   3
HETATM    3  C8  UNL     1     -34.242   5.778   4.208  1.00 20.00    -0.049 C 
HETATM    4  C1  UNL     1     -35.567   6.162   3.528  1.00 20.00     0.014 C 
HETATM    5  C2  UNL     1     -34.167   4.238   4.287  1.00 20.00     0.014 C 
HETATM    6  C3  UNL     1     -34.236   6.326   5.644  1.00 20.00     0.014 C 
ENDBRANCH   2   3
ENDBRANCH   1   2
BRANCH   1   7
HETATM    7  C7  UNL     1     -31.822   8.461   3.766  1.00 20.00     0.386 C 
HETATM    8  F10 UNL     1     -32.005   8.325   5.102  1.00 20.00    -0.212 F 
HETATM    9  F11 UNL     1     -30.633   7.874   3.472  1.00 20.00    -0.212 F 
ENDBRANCH   1   7
BRANCH   1  10
HETATM   10  N9  UNL     1     -32.713   7.948   1.568  1.00 20.00     0.089 N 
HETATM   11  C4  UNL     1     -32.511   9.354   1.253  1.00 20.00     0.307 C 
HETATM   12  H28 UNL     1     -33.519   7.599   1.052  1.00 20.00     0.316 HD
ENDBRANCH   1  10
TORSDOF 4
ENDMDL
MODEL 2
REMARK VINA RESULT:      -4.6      1.733      4.262
REMARK  4 active torsions:
REMARK  status: ('A' for Active; 'I' for Inactive)
REMARK    1  A    between atoms: C5_5  and  C6_6 
REMARK    2  A    between atoms: C5_5  and  C8_8 
REMARK    3  A    between atoms: C6_6  and  C7_7 
REMARK    4  A    between atoms: C6_6  and  N9_9 
ROOT
HETATM    1  C6  UNL     1     -32.842   7.233   2.567  1.00 20.00     0.285 C 
ENDROOT
BRANCH   1   2
HETATM    2  C5  UNL     1     -33.419   8.540   1.976  1.00 20.00     0.049 C 
BRANCH   2   3
HETATM    3  C8  UNL     1     -32.573   9.306   0.917  1.00 20.00    -0.049 C 
HETATM    4  C1  UNL     1     -33.260   9.293  -0.458  1.00 20.00     0.014 C 
HETATM    5  C2  UNL     1     -32.453  10.772   1.385  1.00 20.00     0.014 C 
HETATM    6  C3  UNL     1     -31.151   8.738   0.774  1.00 20.00     0.014 C 
ENDBRANCH   2   3
ENDBRANCH   1   2
BRANCH   1   7
HETATM    7  C7  UNL     1     -32.561   7.395   4.062  1.00 20.00     0.386 C 
HETATM    8  F10 UNL     1     -31.678   8.401   4.273  1.00 20.00    -0.212 F 
HETATM    9  F11 UNL     1     -33.705   7.735   4.710  1.00 20.00    -0.212 F 
ENDBRANCH   1   7
BRANCH   1  10
HETATM   10  N9  UNL     1     -33.757   6.110   2.385  1.00 20.00     0.089 N 
HETATM   11  C4  UNL     1     -33.178   4.882   2.909  1.00 20.00     0.307 C 
HETATM   12  H28 UNL     1     -33.949   5.995   1.392  1.00 20.00     0.316 HD
ENDBRANCH   1  10
TORSDOF 4
ENDMDL
MODEL 3
REMARK VINA RESULT:      -4.3     11.062     11.922
REMARK  4 active torsions:
REMARK  status: ('A' for Active; 'I' for Inactive)
REMARK    1  A    between atoms: C5_5  and  C6_6 
REMARK    2  A    between atoms: C5_5  and  C8_8 
REMARK    3  A    between atoms: C6_6  and  C7_7 
REMARK    4  A    between atoms: C6_6  and  N9_9 
ROOT
HETATM    1  C6  UNL     1     -33.357  15.867  -4.058  1.00 20.00     0.285 C 
ENDROOT
BRANCH   1   2
HETATM    2  C5  UNL     1     -34.640  16.223  -3.274  1.00 20.00     0.049 C 
BRANCH   2   3
HETATM    3  C8  UNL     1     -34.555  17.337  -2.189  1.00 20.00    -0.049 C 
HETATM    4  C1  UNL     1     -33.101  17.576  -1.750  1.00 20.00     0.014 C 
HETATM    5  C2  UNL     1     -35.092  18.642  -2.815  1.00 20.00     0.014 C 
HETATM    6  C3  UNL     1     -35.409  17.022  -0.950  1.00 20.00     0.014 C 
ENDBRANCH   2   3
ENDBRANCH   1   2
BRANCH   1   7
HETATM    7  C7  UNL     1     -33.351  14.387  -4.442  1.00 20.00     0.386 C 
HETATM    8  F10 UNL     1     -32.189  13.802  -4.062  1.00 20.00    -0.212 F 
HETATM    9  F11 UNL     1     -34.349  13.740  -3.788  1.00 20.00    -0.212 F 
ENDBRANCH   1   7
BRANCH   1  10
HETATM   10  N9  UNL     1     -33.232  16.663  -5.276  1.00 20.00     0.089 N 
HETATM   11  C4  UNL     1     -33.441  15.838  -6.457  1.00 20.00     0.307 C 
HETATM   12  H28 UNL     1     -32.299  17.072  -5.311  1.00 20.00     0.316 HD
ENDBRANCH   1  10
TORSDOF 4
ENDMDL
MODEL 4
REMARK VINA RESULT:      -4.3      1.742      4.096
REMARK  4 active torsions:
REMARK  status: ('A' for Active; 'I' for Inactive)
REMARK    1  A    between atoms: C5_5  and  C6_6 
REMARK    2  A    between atoms: C5_5  and  C8_8 
REMARK    3  A    between atoms: C6_6  and  C7_7 
REMARK    4  A    between atoms: C6_6  and  N9_9 
ROOT
HETATM    1  C6  UNL     1     -32.994   6.493   3.253  1.00 20.00     0.285 C 
ENDROOT
BRANCH   1   2
HETATM    2  C5  UNL     1     -33.226   7.466   2.075  1.00 20.00     0.049 C 
BRANCH   2   3
HETATM    3  C8  UNL     1     -32.199   8.616   1.857  1.00 20.00    -0.049 C 
HETATM    4  C1  UNL     1     -32.902   9.981   1.767  1.00 20.00     0.014 C 
HETATM    5  C2  UNL     1     -31.254   8.637   3.078  1.00 20.00     0.014 C 
HETATM    6  C3  UNL     1     -31.339   8.409   0.599  1.00 20.00     0.014 C 
ENDBRANCH   2   3
ENDBRANCH   1   2
BRANCH   1   7
HETATM    7  C7  UNL     1     -33.854   6.886   4.455  1.00 20.00     0.386 C 
HETATM    8  F10 UNL     1     -33.072   7.279   5.490  1.00 20.00    -0.212 F 
HETATM    9  F11 UNL     1     -34.639   7.946   4.131  1.00 20.00    -0.212 F 
ENDBRANCH   1   7
BRANCH   1  10
HETATM   10  N9  UNL     1     -33.312   5.116   2.885  1.00 20.00     0.089 N 
HETATM   11  C4  UNL     1     -34.069   4.460   3.941  1.00 20.00     0.307 C 
HETATM   12  H28 UNL     1     -32.445   4.607   2.724  1.00 20.00     0.316 HD
ENDBRANCH   1  10
TORSDOF 4
ENDMDL
MODEL 5
REMARK VINA RESULT:      -4.2      1.737      4.124
REMARK  4 active torsions:
REMARK  status: ('A' for Active; 'I' for Inactive)
REMARK    1  A    between atoms: C5_5  and  C6_6 
REMARK    2  A    between atoms: C5_5  and  C8_8 
REMARK    3  A    between atoms: C6_6  and  C7_7 
REMARK    4  A    between atoms: C6_6  and  N9_9 
ROOT
HETATM    1  C6  UNL     1     -32.971   6.486   3.230  1.00 20.00     0.285 C 
ENDROOT
BRANCH   1   2
HETATM    2  C5  UNL     1     -33.184   7.460   2.050  1.00 20.00     0.049 C 
BRANCH   2   3
HETATM    3  C8  UNL     1     -32.186   8.644   1.882  1.00 20.00    -0.049 C 
HETATM    4  C1  UNL     1     -31.217   8.727   3.074  1.00 20.00     0.014 C 
HETATM    5  C2  UNL     1     -31.359   8.382   0.604  1.00 20.00     0.014 C 
HETATM    6  C3  UNL     1     -32.896   9.997   1.715  1.00 20.00     0.014 C 
ENDBRANCH   2   3
ENDBRANCH   1   2
BRANCH   1   7
HETATM    7  C7  UNL     1     -33.845   6.883   4.421  1.00 20.00     0.386 C 
HETATM    8  F10 UNL     1     -33.077   7.322   5.449  1.00 20.00    -0.212 F 
HETATM    9  F11 UNL     1     -34.658   7.913   4.072  1.00 20.00    -0.212 F 
ENDBRANCH   1   7
BRANCH   1  10
HETATM   10  N9  UNL     1     -33.290   5.111   2.859  1.00 20.00     0.089 N 
HETATM   11  C4  UNL     1     -34.057   4.456   3.908  1.00 20.00     0.307 C 
HETATM   12  H28 UNL     1     -32.423   4.599   2.705  1.00 20.00     0.316 HD
ENDBRANCH   1  10
TORSDOF 4
ENDMDL
MODEL 6
REMARK VINA RESULT:      -4.2      2.167      4.389
REMARK  4 active torsions:
REMARK  status: ('A' for Active; 'I' for Inactive)
REMARK    1  A    between atoms: C5_5  and  C6_6 
REMARK    2  A    between atoms: C5_5  and  C8_8 
REMARK    3  A    between atoms: C6_6  and  C7_7 
REMARK    4  A    between atoms: C6_6  and  N9_9 
ROOT
HETATM    1  C6  UNL     1     -33.267   7.482   3.394  1.00 20.00     0.285 C 
ENDROOT
BRANCH   1   2
HETATM    2  C5  UNL     1     -32.053   7.887   2.528  1.00 20.00     0.049 C 
BRANCH   2   3
HETATM    3  C8  UNL     1     -32.293   8.845   1.325  1.00 20.00    -0.049 C 
HETATM    4  C1  UNL     1     -32.520  10.290   1.800  1.00 20.00     0.014 C 
HETATM    5  C2  UNL     1     -31.025   8.819   0.444  1.00 20.00     0.014 C 
HETATM    6  C3  UNL     1     -33.482   8.410   0.452  1.00 20.00     0.014 C 
ENDBRANCH   2   3
ENDBRANCH   1   2
BRANCH   1   7
HETATM    7  C7  UNL     1     -33.623   6.012   3.172  1.00 20.00     0.386 C 
HETATM    8  F10 UNL     1     -34.659   5.900   2.305  1.00 20.00    -0.212 F 
HETATM    9  F11 UNL     1     -32.570   5.364   2.609  1.00 20.00    -0.212 F 
ENDBRANCH   1   7
BRANCH   1  10
HETATM   10  N9  UNL     1     -33.006   7.686   4.816  1.00 20.00     0.089 N 
HETATM   11  C4  UNL     1     -33.948   6.931   5.628  1.00 20.00     0.307 C 
HETATM   12  H28 UNL     1     -33.095   8.678   5.031  1.00 20.00     0.316 HD
ENDBRANCH   1  10
TORSDOF 4
ENDMDL
MODEL 7
REMARK VINA RESULT:      -4.1      2.162      4.312
REMARK  4 active torsions:
REMARK  status: ('A' for Active; 'I' for Inactive)
REMARK    1  A    between atoms: C5_5  and  C6_6 
REMARK    2  A    between atoms: C5_5  and  C8_8 
REMARK    3  A    between atoms: C6_6  and  C7_7 
REMARK    4  A    between atoms: C6_6  and  N9_9 
ROOT
HETATM    1  C6  UNL     1     -33.246   7.489   3.503  1.00 20.00     0.285 C 
ENDROOT
BRANCH   1   2
HETATM    2  C5  UNL     1     -32.021   7.883   2.648  1.00 20.00     0.049 C 
BRANCH   2   3
HETATM    3  C8  UNL     1     -32.249   8.810   1.418  1.00 20.00    -0.049 C 
HETATM    4  C1  UNL     1     -31.048   8.767   0.459  1.00 20.00     0.014 C 
HETATM    5  C2  UNL     1     -33.490   8.288   0.663  1.00 20.00     0.014 C 
HETATM    6  C3  UNL     1     -32.520  10.269   1.819  1.00 20.00     0.014 C 
ENDBRANCH   2   3
ENDBRANCH   1   2
BRANCH   1   7
HETATM    7  C7  UNL     1     -33.593   6.013   3.300  1.00 20.00     0.386 C 
HETATM    8  F10 UNL     1     -34.753   5.888   2.610  1.00 20.00    -0.212 F 
HETATM    9  F11 UNL     1     -32.628   5.412   2.557  1.00 20.00    -0.212 F 
ENDBRANCH   1   7
BRANCH   1  10
HETATM   10  N9  UNL     1     -33.008   7.718   4.925  1.00 20.00     0.089 N 
HETATM   11  C4  UNL     1     -33.948   6.959   5.736  1.00 20.00     0.307 C 
HETATM   12  H28 UNL     1     -33.117   8.711   5.124  1.00 20.00     0.316 HD
ENDBRANCH   1  10
TORSDOF 4
ENDMDL
MODEL 8
REMARK VINA RESULT:      -4.1     11.139     11.883
REMARK  4 active torsions:
REMARK  status: ('A' for Active; 'I' for Inactive)
REMARK    1  A    between atoms: C5_5  and  C6_6 
REMARK    2  A    between atoms: C5_5  and  C8_8 
REMARK    3  A    between atoms: C6_6  and  C7_7 
REMARK    4  A    between atoms: C6_6  and  N9_9 
ROOT
HETATM    1  C6  UNL     1     -34.169  14.618  -5.480  1.00 20.00     0.285 C 
ENDROOT
BRANCH   1   2
HETATM    2  C5  UNL     1     -35.418  14.364  -4.606  1.00 20.00     0.049 C 
BRANCH   2   3
HETATM    3  C8  UNL     1     -36.538  15.445  -4.592  1.00 20.00    -0.049 C 
HETATM    4  C1  UNL     1     -36.463  16.308  -3.322  1.00 20.00     0.014 C 
HETATM    5  C2  UNL     1     -36.318  16.363  -5.814  1.00 20.00     0.014 C 
HETATM    6  C3  UNL     1     -37.946  14.838  -4.706  1.00 20.00     0.014 C 
ENDBRANCH   2   3
ENDBRANCH   1   2
BRANCH   1   7
HETATM    7  C7  UNL     1     -32.942  14.880  -4.606  1.00 20.00     0.386 C 
HETATM    8  F10 UNL     1     -33.278  15.631  -3.529  1.00 20.00    -0.212 F 
HETATM    9  F11 UNL     1     -32.459  13.704  -4.129  1.00 20.00    -0.212 F 
ENDBRANCH   1   7
BRANCH   1  10
HETATM   10  N9  UNL     1     -33.883  13.483  -6.354  1.00 20.00     0.089 N 
HETATM   11  C4  UNL     1     -35.030  13.175  -7.194  1.00 20.00     0.307 C 
HETATM   12  H28 UNL     1     -33.657  12.672  -5.780  1.00 20.00     0.316 HD
ENDBRANCH   1  10
TORSDOF 4
ENDMDL
MODEL 9
REMARK VINA RESULT:      -4.1      1.779      2.522
REMARK  4 active torsions:
REMARK  status: ('A' for Active; 'I' for Inactive)
REMARK    1  A    between atoms: C5_5  and  C6_6 
REMARK    2  A    between atoms: C5_5  and  C8_8 
REMARK    3  A    between atoms: C6_6  and  C7_7 
REMARK    4  A    between atoms: C6_6  and  N9_9 
ROOT
HETATM    1  C6  UNL     1     -32.373   7.626   2.584  1.00 20.00     0.285 C 
ENDROOT
BRANCH   1   2
HETATM    2  C5  UNL     1     -33.677   7.575   3.411  1.00 20.00     0.049 C 
BRANCH   2   3
HETATM    3  C8  UNL     1     -34.180   6.188   3.908  1.00 20.00    -0.049 C 
HETATM    4  C1  UNL     1     -34.086   6.079   5.439  1.00 20.00     0.014 C 
HETATM    5  C2  UNL     1     -35.664   6.055   3.504  1.00 20.00     0.014 C 
HETATM    6  C3  UNL     1     -33.411   5.018   3.272  1.00 20.00     0.014 C 
ENDBRANCH   2   3
ENDBRANCH   1   2
BRANCH   1   7
HETATM    7  C7  UNL     1     -32.549   8.513   1.351  1.00 20.00     0.386 C 
HETATM    8  F10 UNL     1     -33.087   9.708   1.699  1.00 20.00    -0.212 F 
HETATM    9  F11 UNL     1     -31.337   8.775   0.797  1.00 20.00    -0.212 F 
ENDBRANCH   1   7
BRANCH   1  10
HETATM   10  N9  UNL     1     -31.256   8.142   3.371  1.00 20.00     0.089 N 
HETATM   11  C4  UNL     1     -31.732   8.766   4.597  1.00 20.00     0.307 C 
HETATM   12  H28 UNL     1     -30.749   8.830   2.817  1.00 20.00     0.316 HD
ENDBRANCH   1  10
TORSDOF 4
ENDMDL
