MODEL 1
REMARK VINA RESULT:      -4.7      0.000      0.000
REMARK  2 active torsions:
REMARK  status: ('A' for Active; 'I' for Inactive)
REMARK    1  A    between atoms: C5_5  and  C8_8 
REMARK    2  A    between atoms: C5_5  and  O9_9 
ROOT
HETATM    1  C1  UNL     1     -34.507   5.978   5.564  1.00 20.00     0.004 C 
HETATM    2  C2  UNL     1     -35.071   5.579   4.199  1.00 20.00     0.012 C 
HETATM    3  C3  UNL     1     -33.342   6.938   5.295  1.00 20.00     0.044 C 
HETATM    4  C4  UNL     1     -33.974   5.938   3.176  1.00 20.00    -0.011 C 
HETATM    5  C5  UNL     1     -33.398   7.241   3.792  1.00 20.00     0.123 C 
HETATM    6  C6  UNL     1     -34.584   6.136   1.781  1.00 20.00     0.018 C 
HETATM    7  C7  UNL     1     -32.942   4.795   3.096  1.00 20.00     0.018 C 
ENDROOT
BRANCH   5   8
HETATM    8  C8  UNL     1     -32.051   7.698   3.238  1.00 20.00     0.388 C 
HETATM    9  F10 UNL     1     -31.424   8.436   4.177  1.00 20.00    -0.211 F 
HETATM   10  F11 UNL     1     -32.268   8.494   2.171  1.00 20.00    -0.211 F 
ENDBRANCH   5   8
BRANCH   5  11
HETATM   11  O9  UNL     1     -34.333   8.312   3.596  1.00 20.00    -0.383 OA
HETATM   12  H25 UNL     1     -34.291   8.534   2.655  1.00 20.00     0.210 HD
ENDBRANCH   5  11
TORSDOF 2
ENDMDL
MODEL 2
REMARK VINA RESULT:      -4.5     11.482     12.470
REMARK  2 active torsions:
REMARK  status: ('A' for Active; 'I' for Inactive)
REMARK    1  A    between atoms: C5_5  and  C8_8 
REMARK    2  A    between atoms: C5_5  and  O9_9 
ROOT
HETATM    1  C1  UNL     1     -37.120  15.408  -4.303  1.00 20.00     0.004 C 
HETATM    2  C2  UNL     1     -35.674  15.359  -3.807  1.00 20.00     0.012 C 
HETATM    3  C3  UNL     1     -37.170  14.587  -5.597  1.00 20.00     0.044 C 
HETATM    4  C4  UNL     1     -34.834  14.911  -5.022  1.00 20.00    -0.011 C 
HETATM    5  C5  UNL     1     -35.800  13.905  -5.704  1.00 20.00     0.123 C 
HETATM    6  C6  UNL     1     -33.515  14.277  -4.559  1.00 20.00     0.018 C 
HETATM    7  C7  UNL     1     -34.503  16.131  -5.905  1.00 20.00     0.018 C 
ENDROOT
BRANCH   5   8
HETATM    8  C8  UNL     1     -35.450  13.519  -7.138  1.00 20.00     0.388 C 
HETATM    9  F10 UNL     1     -36.534  13.716  -7.917  1.00 20.00    -0.211 F 
HETATM   10  F11 UNL     1     -35.156  12.203  -7.175  1.00 20.00    -0.211 F 
ENDBRANCH   5   8
BRANCH   5  11
HETATM   11  O9  UNL     1     -35.851  12.697  -4.930  1.00 20.00    -0.383 OA
HETATM   12  H25 UNL     1     -34.992  12.268  -5.049  1.00 20.00     0.210 HD
ENDBRANCH   5  11
TORSDOF 2
ENDMDL
MODEL 3
REMARK VINA RESULT:      -4.4     11.451     12.682
REMARK  2 active torsions:
REMARK  status: ('A' for Active; 'I' for Inactive)
REMARK    1  A    between atoms: C5_5  and  C8_8 
REMARK    2  A    between atoms: C5_5  and  O9_9 
ROOT
HETATM    1  C1  UNL     1     -33.855  15.978  -3.624  1.00 20.00     0.004 C 
HETATM    2  C2  UNL     1     -33.491  16.592  -4.976  1.00 20.00     0.012 C 
HETATM    3  C3  UNL     1     -34.674  14.716  -3.919  1.00 20.00     0.044 C 
HETATM    4  C4  UNL     1     -34.459  15.954  -5.995  1.00 20.00    -0.011 C 
HETATM    5  C5  UNL     1     -34.580  14.511  -5.436  1.00 20.00     0.123 C 
HETATM    6  C6  UNL     1     -33.867  16.017  -7.410  1.00 20.00     0.018 C 
HETATM    7  C7  UNL     1     -35.796  16.722  -5.994  1.00 20.00     0.018 C 
ENDROOT
BRANCH   5   8
HETATM    8  C8  UNL     1     -35.738  13.682  -5.987  1.00 20.00     0.388 C 
HETATM    9  F10 UNL     1     -36.283  12.974  -4.976  1.00 20.00    -0.211 F 
HETATM   10  F11 UNL     1     -35.253  12.802  -6.886  1.00 20.00    -0.211 F 
ENDBRANCH   5   8
BRANCH   5  11
HETATM   11  O9  UNL     1     -33.367  13.794  -5.707  1.00 20.00    -0.383 OA
HETATM   12  H25 UNL     1     -32.733  14.452  -6.027  1.00 20.00     0.210 HD
ENDBRANCH   5  11
TORSDOF 2
ENDMDL
MODEL 4
REMARK VINA RESULT:      -4.3     11.392     12.682
REMARK  2 active torsions:
REMARK  status: ('A' for Active; 'I' for Inactive)
REMARK    1  A    between atoms: C5_5  and  C8_8 
REMARK    2  A    between atoms: C5_5  and  O9_9 
ROOT
HETATM    1  C1  UNL     1     -33.825  14.738  -7.918  1.00 20.00     0.004 C 
HETATM    2  C2  UNL     1     -34.916  13.792  -7.414  1.00 20.00     0.012 C 
HETATM    3  C3  UNL     1     -33.402  15.600  -6.723  1.00 20.00     0.044 C 
HETATM    4  C4  UNL     1     -35.421  14.408  -6.093  1.00 20.00    -0.011 C 
HETATM    5  C5  UNL     1     -34.105  14.985  -5.505  1.00 20.00     0.123 C 
HETATM    6  C6  UNL     1     -36.066  13.331  -5.210  1.00 20.00     0.018 C 
HETATM    7  C7  UNL     1     -36.480  15.488  -6.393  1.00 20.00     0.018 C 
ENDROOT
BRANCH   5   8
HETATM    8  C8  UNL     1     -34.272  15.983  -4.362  1.00 20.00     0.388 C 
HETATM    9  F10 UNL     1     -33.176  16.768  -4.308  1.00 20.00    -0.211 F 
HETATM   10  F11 UNL     1     -34.345  15.304  -3.199  1.00 20.00    -0.211 F 
ENDBRANCH   5   8
BRANCH   5  11
HETATM   11  O9  UNL     1     -33.288  13.909  -5.024  1.00 20.00    -0.383 OA
HETATM   12  H25 UNL     1     -33.854  13.382  -4.442  1.00 20.00     0.210 HD
ENDBRANCH   5  11
TORSDOF 2
ENDMDL
MODEL 5
REMARK VINA RESULT:      -4.2     11.342     12.437
REMARK  2 active torsions:
REMARK  status: ('A' for Active; 'I' for Inactive)
REMARK    1  A    between atoms: C5_5  and  C8_8 
REMARK    2  A    between atoms: C5_5  and  O9_9 
ROOT
HETATM    1  C1  UNL     1     -35.609  13.719  -7.849  1.00 20.00     0.004 C 
HETATM    2  C2  UNL     1     -36.820  14.286  -7.108  1.00 20.00     0.012 C 
HETATM    3  C3  UNL     1     -34.440  13.730  -6.856  1.00 20.00     0.044 C 
HETATM    4  C4  UNL     1     -36.247  15.022  -5.879  1.00 20.00    -0.011 C 
HETATM    5  C5  UNL     1     -35.057  14.100  -5.501  1.00 20.00     0.123 C 
HETATM    6  C6  UNL     1     -37.310  15.134  -4.776  1.00 20.00     0.018 C 
HETATM    7  C7  UNL     1     -35.812  16.445  -6.280  1.00 20.00     0.018 C 
ENDROOT
BRANCH   5   8
HETATM    8  C8  UNL     1     -34.034  14.699  -4.539  1.00 20.00     0.388 C 
HETATM    9  F10 UNL     1     -33.004  13.837  -4.408  1.00 20.00    -0.211 F 
HETATM   10  F11 UNL     1     -34.608  14.836  -3.326  1.00 20.00    -0.211 F 
ENDBRANCH   5   8
BRANCH   5  11
HETATM   11  O9  UNL     1     -35.559  12.896  -4.905  1.00 20.00    -0.383 OA
HETATM   12  H25 UNL     1     -35.157  12.844  -4.026  1.00 20.00     0.210 HD
ENDBRANCH   5  11
TORSDOF 2
ENDMDL
MODEL 6
REMARK VINA RESULT:      -4.2     11.368     12.624
REMARK  2 active torsions:
REMARK  status: ('A' for Active; 'I' for Inactive)
REMARK    1  A    between atoms: C5_5  and  C8_8 
REMARK    2  A    between atoms: C5_5  and  O9_9 
ROOT
HETATM    1  C1  UNL     1     -34.467  16.173  -7.485  1.00 20.00     0.004 C 
HETATM    2  C2  UNL     1     -35.742  15.393  -7.161  1.00 20.00     0.012 C 
HETATM    3  C3  UNL     1     -33.451  15.832  -6.388  1.00 20.00     0.044 C 
HETATM    4  C4  UNL     1     -35.612  14.983  -5.679  1.00 20.00    -0.011 C 
HETATM    5  C5  UNL     1     -34.089  14.697  -5.576  1.00 20.00     0.123 C 
HETATM    6  C6  UNL     1     -36.487  13.757  -5.382  1.00 20.00     0.018 C 
HETATM    7  C7  UNL     1     -36.076  16.142  -4.775  1.00 20.00     0.018 C 
ENDROOT
BRANCH   5   8
HETATM    8  C8  UNL     1     -33.527  14.604  -4.161  1.00 20.00     0.388 C 
HETATM    9  F10 UNL     1     -33.080  15.822  -3.790  1.00 20.00    -0.211 F 
HETATM   10  F11 UNL     1     -32.469  13.766  -4.167  1.00 20.00    -0.211 F 
ENDBRANCH   5   8
BRANCH   5  11
HETATM   11  O9  UNL     1     -33.792  13.462  -6.243  1.00 20.00    -0.383 OA
HETATM   12  H25 UNL     1     -33.136  13.675  -6.921  1.00 20.00     0.210 HD
ENDBRANCH   5  11
TORSDOF 2
ENDMDL
MODEL 7
REMARK VINA RESULT:      -4.1     11.676     12.397
REMARK  2 active torsions:
REMARK  status: ('A' for Active; 'I' for Inactive)
REMARK    1  A    between atoms: C5_5  and  C8_8 
REMARK    2  A    between atoms: C5_5  and  O9_9 
ROOT
HETATM    1  C1  UNL     1     -33.493  15.810  -3.717  1.00 20.00     0.004 C 
HETATM    2  C2  UNL     1     -33.098  15.265  -5.090  1.00 20.00     0.012 C 
HETATM    3  C3  UNL     1     -35.000  15.571  -3.565  1.00 20.00     0.044 C 
HETATM    4  C4  UNL     1     -34.416  15.138  -5.881  1.00 20.00    -0.011 C 
HETATM    5  C5  UNL     1     -35.400  14.699  -4.763  1.00 20.00     0.123 C 
HETATM    6  C6  UNL     1     -34.269  14.105  -7.008  1.00 20.00     0.018 C 
HETATM    7  C7  UNL     1     -34.778  16.497  -6.512  1.00 20.00     0.018 C 
ENDROOT
BRANCH   5   8
HETATM    8  C8  UNL     1     -36.884  14.818  -5.102  1.00 20.00     0.388 C 
HETATM    9  F10 UNL     1     -37.577  14.993  -3.958  1.00 20.00    -0.211 F 
HETATM   10  F11 UNL     1     -37.296  13.659  -5.656  1.00 20.00    -0.211 F 
ENDBRANCH   5   8
BRANCH   5  11
HETATM   11  O9  UNL     1     -35.143  13.332  -4.414  1.00 20.00    -0.383 OA
HETATM   12  H25 UNL     1     -34.430  13.036  -4.998  1.00 20.00     0.210 HD
ENDBRANCH   5  11
TORSDOF 2
ENDMDL
MODEL 8
REMARK VINA RESULT:      -4.1     11.512     12.667
REMARK  2 active torsions:
REMARK  status: ('A' for Active; 'I' for Inactive)
REMARK    1  A    between atoms: C5_5  and  C8_8 
REMARK    2  A    between atoms: C5_5  and  O9_9 
ROOT
HETATM    1  C1  UNL     1     -33.614  16.227  -6.788  1.00 20.00     0.004 C 
HETATM    2  C2  UNL     1     -33.493  16.640  -5.320  1.00 20.00     0.012 C 
HETATM    3  C3  UNL     1     -34.637  15.086  -6.841  1.00 20.00     0.044 C 
HETATM    4  C4  UNL     1     -34.082  15.468  -4.509  1.00 20.00    -0.011 C 
HETATM    5  C5  UNL     1     -35.243  15.013  -5.434  1.00 20.00     0.123 C 
HETATM    6  C6  UNL     1     -34.551  15.951  -3.130  1.00 20.00     0.018 C 
HETATM    7  C7  UNL     1     -33.006  14.383  -4.304  1.00 20.00     0.018 C 
ENDROOT
BRANCH   5   8
HETATM    8  C8  UNL     1     -35.837  13.641  -5.125  1.00 20.00     0.388 C 
HETATM    9  F10 UNL     1     -35.645  12.835  -6.190  1.00 20.00    -0.211 F 
HETATM   10  F11 UNL     1     -37.168  13.773  -4.949  1.00 20.00    -0.211 F 
ENDBRANCH   5   8
BRANCH   5  11
HETATM   11  O9  UNL     1     -36.308  15.971  -5.365  1.00 20.00    -0.383 OA
HETATM   12  H25 UNL     1     -36.602  15.979  -4.443  1.00 20.00     0.210 HD
ENDBRANCH   5  11
TORSDOF 2
ENDMDL
MODEL 9
REMARK VINA RESULT:      -4.0     11.501     12.307
REMARK  2 active torsions:
REMARK  status: ('A' for Active; 'I' for Inactive)
REMARK    1  A    between atoms: C5_5  and  C8_8 
REMARK    2  A    between atoms: C5_5  and  O9_9 
ROOT
HETATM    1  C1  UNL     1     -36.687  14.081  -5.902  1.00 20.00     0.004 C 
HETATM    2  C2  UNL     1     -36.920  14.833  -4.590  1.00 20.00     0.012 C 
HETATM    3  C3  UNL     1     -35.186  14.167  -6.199  1.00 20.00     0.044 C 
HETATM    4  C4  UNL     1     -35.666  15.708  -4.386  1.00 20.00    -0.011 C 
HETATM    5  C5  UNL     1     -34.553  14.779  -4.941  1.00 20.00     0.123 C 
HETATM    6  C6  UNL     1     -35.490  16.056  -2.901  1.00 20.00     0.018 C 
HETATM    7  C7  UNL     1     -35.815  17.022  -5.178  1.00 20.00     0.018 C 
ENDROOT
BRANCH   5   8
HETATM    8  C8  UNL     1     -33.213  15.450  -5.230  1.00 20.00     0.388 C 
HETATM    9  F10 UNL     1     -33.006  15.451  -6.563  1.00 20.00    -0.211 F 
HETATM   10  F11 UNL     1     -32.231  14.719  -4.664  1.00 20.00    -0.211 F 
ENDBRANCH   5   8
BRANCH   5  11
HETATM   11  O9  UNL     1     -34.314  13.715  -4.009  1.00 20.00    -0.383 OA
HETATM   12  H25 UNL     1     -33.702  13.108  -4.448  1.00 20.00     0.210 HD
ENDBRANCH   5  11
TORSDOF 2
ENDMDL
