MODEL 1
REMARK VINA RESULT:      -3.8      0.000      0.000
REMARK  1 active torsions:
REMARK  status: ('A' for Active; 'I' for Inactive)
REMARK    1  A    between atoms: C5_5  and  C6_6 
ROOT
HETATM    1  C3  UNL     1     -35.548  13.023  -7.031  1.00 20.00     0.282 C 
HETATM    2  C4  UNL     1     -35.115  14.179  -7.918  1.00 20.00     0.106 C 
HETATM    3  C6  UNL     1     -35.385  14.679  -5.334  1.00 20.00     0.208 C 
HETATM    4  C8  UNL     1     -36.767  14.749  -4.678  1.00 20.00     0.062 C 
HETATM    5  N9  UNL     1     -35.053  13.280  -5.671  1.00 20.00     0.104 N 
HETATM    6  S10 UNL     1     -35.403  15.638  -6.894  1.00 20.00    -0.126 SA
HETATM    7  H25 UNL     1     -35.551  12.662  -5.036  1.00 20.00     0.318 HD
ENDROOT
BRANCH   3   8
HETATM    8  C5  UNL     1     -34.323  15.258  -4.397  1.00 20.00     0.001 A 
HETATM    9  C1  UNL     1     -32.992  14.548  -4.312  1.00 20.00     0.013 A 
HETATM   10  C2  UNL     1     -33.089  15.871  -5.017  1.00 20.00     0.013 A 
HETATM   11  C7  UNL     1     -34.869  15.886  -3.144  1.00 20.00     0.019 C 
ENDBRANCH   3   8
TORSDOF 1
ENDMDL
MODEL 2
REMARK VINA RESULT:      -3.8      0.886      1.563
REMARK  1 active torsions:
REMARK  status: ('A' for Active; 'I' for Inactive)
REMARK    1  A    between atoms: C5_5  and  C6_6 
ROOT
HETATM    1  C3  UNL     1     -35.104  13.265  -7.164  1.00 20.00     0.282 C 
HETATM    2  C4  UNL     1     -34.058  14.071  -7.916  1.00 20.00     0.106 C 
HETATM    3  C6  UNL     1     -34.810  14.984  -5.550  1.00 20.00     0.208 C 
HETATM    4  C8  UNL     1     -36.193  15.609  -5.342  1.00 20.00     0.062 C 
HETATM    5  N9  UNL     1     -34.935  13.523  -5.727  1.00 20.00     0.104 N 
HETATM    6  S10 UNL     1     -34.057  15.667  -7.073  1.00 20.00    -0.126 SA
HETATM    7  H25 UNL     1     -35.775  13.205  -5.253  1.00 20.00     0.318 HD
ENDROOT
BRANCH   3   8
HETATM    8  C5  UNL     1     -33.904  15.291  -4.356  1.00 20.00     0.001 A 
HETATM    9  C1  UNL     1     -33.669  16.741  -4.001  1.00 20.00     0.013 A 
HETATM   10  C2  UNL     1     -34.538  15.888  -3.121  1.00 20.00     0.013 A 
HETATM   11  C7  UNL     1     -32.767  14.326  -4.169  1.00 20.00     0.019 C 
ENDBRANCH   3   8
TORSDOF 1
ENDMDL
MODEL 3
REMARK VINA RESULT:      -3.7      1.291      1.411
REMARK  1 active torsions:
REMARK  status: ('A' for Active; 'I' for Inactive)
REMARK    1  A    between atoms: C5_5  and  C6_6 
ROOT
HETATM    1  C3  UNL     1     -36.877  14.011  -5.598  1.00 20.00     0.282 C 
HETATM    2  C4  UNL     1     -36.473  14.844  -6.803  1.00 20.00     0.106 C 
HETATM    3  C6  UNL     1     -35.448  15.533  -4.464  1.00 20.00     0.208 C 
HETATM    4  C8  UNL     1     -36.307  16.194  -3.382  1.00 20.00     0.062 C 
HETATM    5  N9  UNL     1     -35.806  14.107  -4.596  1.00 20.00     0.104 N 
HETATM    6  S10 UNL     1     -35.771  16.340  -6.076  1.00 20.00    -0.126 SA
HETATM    7  H25 UNL     1     -36.179  13.778  -3.710  1.00 20.00     0.318 HD
ENDROOT
BRANCH   3   8
HETATM    8  C5  UNL     1     -33.963  15.670  -4.119  1.00 20.00     0.001 A 
HETATM    9  C1  UNL     1     -33.069  14.473  -4.350  1.00 20.00     0.013 A 
HETATM   10  C2  UNL     1     -32.968  15.668  -5.255  1.00 20.00     0.013 A 
HETATM   11  C7  UNL     1     -33.675  16.545  -2.931  1.00 20.00     0.019 C 
ENDBRANCH   3   8
TORSDOF 1
ENDMDL
MODEL 4
REMARK VINA RESULT:      -3.6      1.625      2.342
REMARK  1 active torsions:
REMARK  status: ('A' for Active; 'I' for Inactive)
REMARK    1  A    between atoms: C5_5  and  C6_6 
ROOT
HETATM    1  C3  UNL     1     -34.133  13.962  -7.170  1.00 20.00     0.282 C 
HETATM    2  C4  UNL     1     -35.573  13.656  -6.794  1.00 20.00     0.106 C 
HETATM    3  C6  UNL     1     -34.088  14.883  -4.981  1.00 20.00     0.208 C 
HETATM    4  C8  UNL     1     -32.973  14.145  -4.234  1.00 20.00     0.062 C 
HETATM    5  N9  UNL     1     -33.690  15.121  -6.382  1.00 20.00     0.104 N 
HETATM    6  S10 UNL     1     -35.598  13.847  -4.999  1.00 20.00    -0.126 SA
HETATM    7  H25 UNL     1     -32.675  15.162  -6.434  1.00 20.00     0.318 HD
ENDROOT
BRANCH   3   8
HETATM    8  C5  UNL     1     -34.397  16.215  -4.291  1.00 20.00     0.001 A 
HETATM    9  C1  UNL     1     -35.060  16.172  -2.934  1.00 20.00     0.013 A 
HETATM   10  C2  UNL     1     -33.615  16.566  -3.048  1.00 20.00     0.013 A 
HETATM   11  C7  UNL     1     -34.775  17.330  -5.226  1.00 20.00     0.019 C 
ENDBRANCH   3   8
TORSDOF 1
ENDMDL
MODEL 5
REMARK VINA RESULT:      -3.6      1.383      3.660
REMARK  1 active torsions:
REMARK  status: ('A' for Active; 'I' for Inactive)
REMARK    1  A    between atoms: C5_5  and  C6_6 
ROOT
HETATM    1  C3  UNL     1     -32.891  14.733  -4.480  1.00 20.00     0.282 C 
HETATM    2  C4  UNL     1     -33.764  15.787  -3.820  1.00 20.00     0.106 C 
HETATM    3  C6  UNL     1     -34.505  14.934  -6.212  1.00 20.00     0.208 C 
HETATM    4  C8  UNL     1     -33.726  15.324  -7.472  1.00 20.00     0.062 C 
HETATM    5  N9  UNL     1     -33.726  13.966  -5.414  1.00 20.00     0.104 N 
HETATM    6  S10 UNL     1     -34.773  16.420  -5.177  1.00 20.00    -0.126 SA
HETATM    7  H25 UNL     1     -33.107  13.451  -6.034  1.00 20.00     0.318 HD
ENDROOT
BRANCH   3   8
HETATM    8  C5  UNL     1     -35.860  14.330  -6.591  1.00 20.00     0.001 A 
HETATM    9  C1  UNL     1     -36.725  13.782  -5.481  1.00 20.00     0.013 A 
HETATM   10  C2  UNL     1     -37.108  15.065  -6.162  1.00 20.00     0.013 A 
HETATM   11  C7  UNL     1     -35.879  13.620  -7.916  1.00 20.00     0.019 C 
ENDBRANCH   3   8
TORSDOF 1
ENDMDL
MODEL 6
REMARK VINA RESULT:      -3.6      2.421      3.555
REMARK  1 active torsions:
REMARK  status: ('A' for Active; 'I' for Inactive)
REMARK    1  A    between atoms: C5_5  and  C6_6 
ROOT
HETATM    1  C3  UNL     1     -34.041  18.718  -6.341  1.00 20.00     0.282 C 
HETATM    2  C4  UNL     1     -35.503  18.638  -5.933  1.00 20.00     0.106 C 
HETATM    3  C6  UNL     1     -34.016  16.489  -5.518  1.00 20.00     0.208 C 
HETATM    4  C8  UNL     1     -33.540  15.614  -6.681  1.00 20.00     0.062 C 
HETATM    5  N9  UNL     1     -33.282  17.771  -5.513  1.00 20.00     0.104 N 
HETATM    6  S10 UNL     1     -35.795  16.868  -5.728  1.00 20.00    -0.126 SA
HETATM    7  H25 UNL     1     -32.375  17.632  -5.951  1.00 20.00     0.318 HD
ENDROOT
BRANCH   3   8
HETATM    8  C5  UNL     1     -33.808  15.762  -4.187  1.00 20.00     0.001 A 
HETATM    9  C1  UNL     1     -33.642  16.600  -2.941  1.00 20.00     0.013 A 
HETATM   10  C2  UNL     1     -34.914  15.832  -3.161  1.00 20.00     0.013 A 
HETATM   11  C7  UNL     1     -33.019  14.486  -4.288  1.00 20.00     0.019 C 
ENDBRANCH   3   8
TORSDOF 1
ENDMDL
MODEL 7
REMARK VINA RESULT:      -3.6      1.682      2.635
REMARK  1 active torsions:
REMARK  status: ('A' for Active; 'I' for Inactive)
REMARK    1  A    between atoms: C5_5  and  C6_6 
ROOT
HETATM    1  C3  UNL     1     -37.173  15.666  -6.279  1.00 20.00     0.282 C 
HETATM    2  C4  UNL     1     -37.514  14.399  -5.513  1.00 20.00     0.106 C 
HETATM    3  C6  UNL     1     -34.965  15.101  -5.606  1.00 20.00     0.208 C 
HETATM    4  C8  UNL     1     -34.151  14.970  -6.897  1.00 20.00     0.062 C 
HETATM    5  N9  UNL     1     -35.928  16.215  -5.725  1.00 20.00     0.104 N 
HETATM    6  S10 UNL     1     -35.923  13.565  -5.331  1.00 20.00    -0.126 SA
HETATM    7  H25 UNL     1     -35.565  16.894  -6.388  1.00 20.00     0.318 HD
ENDROOT
BRANCH   3   8
HETATM    8  C5  UNL     1     -34.035  15.338  -4.413  1.00 20.00     0.001 A 
HETATM    9  C1  UNL     1     -33.748  16.767  -4.014  1.00 20.00     0.013 A 
HETATM   10  C2  UNL     1     -34.634  15.914  -3.152  1.00 20.00     0.013 A 
HETATM   11  C7  UNL     1     -32.929  14.330  -4.273  1.00 20.00     0.019 C 
ENDBRANCH   3   8
TORSDOF 1
ENDMDL
MODEL 8
REMARK VINA RESULT:      -3.5      2.153      3.002
REMARK  1 active torsions:
REMARK  status: ('A' for Active; 'I' for Inactive)
REMARK    1  A    between atoms: C5_5  and  C6_6 
ROOT
HETATM    1  C3  UNL     1     -33.770  14.751  -4.939  1.00 20.00     0.282 C 
HETATM    2  C4  UNL     1     -33.234  15.996  -5.625  1.00 20.00     0.106 C 
HETATM    3  C6  UNL     1     -34.832  16.359  -3.548  1.00 20.00     0.208 C 
HETATM    4  C8  UNL     1     -36.334  16.071  -3.640  1.00 20.00     0.062 C 
HETATM    5  N9  UNL     1     -34.072  15.093  -3.541  1.00 20.00     0.104 N 
HETATM    6  S10 UNL     1     -34.305  17.316  -5.017  1.00 20.00    -0.126 SA
HETATM    7  H25 UNL     1     -34.662  14.357  -3.162  1.00 20.00     0.318 HD
ENDROOT
BRANCH   3   8
HETATM    8  C5  UNL     1     -34.522  17.162  -2.282  1.00 20.00     0.001 A 
HETATM    9  C1  UNL     1     -33.072  17.410  -1.939  1.00 20.00     0.013 A 
HETATM   10  C2  UNL     1     -33.923  18.539  -2.446  1.00 20.00     0.013 A 
HETATM   11  C7  UNL     1     -35.487  16.942  -1.151  1.00 20.00     0.019 C 
ENDBRANCH   3   8
TORSDOF 1
ENDMDL
MODEL 9
REMARK VINA RESULT:      -3.5      1.615      3.726
REMARK  1 active torsions:
REMARK  status: ('A' for Active; 'I' for Inactive)
REMARK    1  A    between atoms: C5_5  and  C6_6 
ROOT
HETATM    1  C3  UNL     1     -33.682  16.092  -3.411  1.00 20.00     0.282 C 
HETATM    2  C4  UNL     1     -35.109  16.591  -3.250  1.00 20.00     0.106 C 
HETATM    3  C6  UNL     1     -34.482  15.457  -5.557  1.00 20.00     0.208 C 
HETATM    4  C8  UNL     1     -33.578  16.165  -6.571  1.00 20.00     0.062 C 
HETATM    5  N9  UNL     1     -33.687  15.003  -4.398  1.00 20.00     0.104 N 
HETATM    6  S10 UNL     1     -35.742  16.634  -4.940  1.00 20.00    -0.126 SA
HETATM    7  H25 UNL     1     -32.728  14.850  -4.697  1.00 20.00     0.318 HD
ENDROOT
BRANCH   3   8
HETATM    8  C5  UNL     1     -35.182  14.264  -6.212  1.00 20.00     0.001 A 
HETATM    9  C1  UNL     1     -36.009  13.358  -5.330  1.00 20.00     0.013 A 
HETATM   10  C2  UNL     1     -36.691  14.286  -6.295  1.00 20.00     0.013 A 
HETATM   11  C7  UNL     1     -34.422  13.640  -7.349  1.00 20.00     0.019 C 
ENDBRANCH   3   8
TORSDOF 1
ENDMDL
