MODEL 1
REMARK VINA RESULT:      -3.8      0.000      0.000
REMARK  2 active torsions:
REMARK  status: ('A' for Active; 'I' for Inactive)
REMARK    1  A    between atoms: C3_3  and  C7_7 
REMARK    2  A    between atoms: C3_3  and  C8_8 
ROOT
HETATM    1  C1  UNL     1     -35.926  13.367  -5.297  1.00 20.00     0.286 C 
HETATM    2  C2  UNL     1     -36.826  14.487  -5.810  1.00 20.00     0.074 C 
HETATM    3  C3  UNL     1     -34.305  15.107  -5.285  1.00 20.00     0.205 C 
HETATM    4  C4  UNL     1     -38.205  14.473  -5.175  1.00 20.00     0.023 C 
HETATM    5  N9  UNL     1     -34.551  13.708  -5.666  1.00 20.00     0.104 N 
HETATM    6  S10 UNL     1     -35.906  15.991  -5.387  1.00 20.00    -0.122 SA
HETATM    7  H27 UNL     1     -33.892  13.081  -5.208  1.00 20.00     0.318 HD
ENDROOT
BRANCH   3   8
HETATM    8  C7  UNL     1     -33.760  15.210  -3.857  1.00 20.00     0.048 C 
HETATM    9  C5  UNL     1     -34.609  16.098  -3.010  1.00 20.00     0.009 C 
ENDBRANCH   3   8
BRANCH   3  10
HETATM   10  C8  UNL     1     -33.321  15.721  -6.280  1.00 20.00     0.048 C 
HETATM   11  C6  UNL     1     -34.022  16.545  -7.310  1.00 20.00     0.009 C 
ENDBRANCH   3  10
TORSDOF 2
ENDMDL
MODEL 2
REMARK VINA RESULT:      -3.8      1.641      3.076
REMARK  2 active torsions:
REMARK  status: ('A' for Active; 'I' for Inactive)
REMARK    1  A    between atoms: C3_3  and  C7_7 
REMARK    2  A    between atoms: C3_3  and  C8_8 
ROOT
HETATM    1  C1  UNL     1     -33.247  14.732  -4.253  1.00 20.00     0.286 C 
HETATM    2  C2  UNL     1     -34.665  15.055  -3.795  1.00 20.00     0.074 C 
HETATM    3  C3  UNL     1     -34.327  14.473  -6.357  1.00 20.00     0.205 C 
HETATM    4  C4  UNL     1     -34.721  16.234  -2.840  1.00 20.00     0.023 C 
HETATM    5  N9  UNL     1     -33.355  13.870  -5.432  1.00 20.00     0.104 N 
HETATM    6  S10 UNL     1     -35.538  15.404  -5.346  1.00 20.00    -0.122 SA
HETATM    7  H27 UNL     1     -32.445  13.757  -5.877  1.00 20.00     0.318 HD
ENDROOT
BRANCH   3   8
HETATM    8  C7  UNL     1     -33.644  15.432  -7.338  1.00 20.00     0.048 C 
HETATM    9  C5  UNL     1     -34.058  16.844  -7.100  1.00 20.00     0.009 C 
ENDBRANCH   3   8
BRANCH   3  10
HETATM   10  C8  UNL     1     -35.046  13.355  -7.110  1.00 20.00     0.048 C 
HETATM   11  C6  UNL     1     -36.187  13.881  -7.918  1.00 20.00     0.009 C 
ENDBRANCH   3  10
TORSDOF 2
ENDMDL
MODEL 3
REMARK VINA RESULT:      -3.6     10.951     12.200
REMARK  2 active torsions:
REMARK  status: ('A' for Active; 'I' for Inactive)
REMARK    1  A    between atoms: C3_3  and  C7_7 
REMARK    2  A    between atoms: C3_3  and  C8_8 
ROOT
HETATM    1  C1  UNL     1     -31.356   8.326   2.766  1.00 20.00     0.286 C 
HETATM    2  C2  UNL     1     -32.443   9.083   2.011  1.00 20.00     0.074 C 
HETATM    3  C3  UNL     1     -33.197   6.965   3.411  1.00 20.00     0.205 C 
HETATM    4  C4  UNL     1     -32.013   9.495   0.614  1.00 20.00     0.023 C 
HETATM    5  N9  UNL     1     -31.997   7.659   3.901  1.00 20.00     0.104 N 
HETATM    6  S10 UNL     1     -33.823   7.907   1.970  1.00 20.00    -0.122 SA
HETATM    7  H27 UNL     1     -31.350   7.008   4.344  1.00 20.00     0.318 HD
ENDROOT
BRANCH   3   8
HETATM    8  C7  UNL     1     -32.876   5.532   2.977  1.00 20.00     0.048 C 
HETATM    9  C5  UNL     1     -33.845   4.555   3.552  1.00 20.00     0.009 C 
ENDBRANCH   3   8
BRANCH   3  10
HETATM   10  C8  UNL     1     -34.251   6.968   4.517  1.00 20.00     0.048 C 
HETATM   11  C6  UNL     1     -33.665   7.359   5.834  1.00 20.00     0.009 C 
ENDBRANCH   3  10
TORSDOF 2
ENDMDL
MODEL 4
REMARK VINA RESULT:      -3.6      1.461      3.231
REMARK  2 active torsions:
REMARK  status: ('A' for Active; 'I' for Inactive)
REMARK    1  A    between atoms: C3_3  and  C7_7 
REMARK    2  A    between atoms: C3_3  and  C8_8 
ROOT
HETATM    1  C1  UNL     1     -33.481  15.934  -6.638  1.00 20.00     0.286 C 
HETATM    2  C2  UNL     1     -34.649  16.914  -6.647  1.00 20.00     0.074 C 
HETATM    3  C3  UNL     1     -34.135  15.669  -4.367  1.00 20.00     0.205 C 
HETATM    4  C4  UNL     1     -35.503  16.801  -7.898  1.00 20.00     0.023 C 
HETATM    5  N9  UNL     1     -32.984  15.860  -5.262  1.00 20.00     0.104 N 
HETATM    6  S10 UNL     1     -35.581  16.470  -5.156  1.00 20.00    -0.122 SA
HETATM    7  H27 UNL     1     -32.312  15.101  -5.165  1.00 20.00     0.318 HD
ENDROOT
BRANCH   3   8
HETATM    8  C7  UNL     1     -34.435  14.183  -4.151  1.00 20.00     0.048 C 
HETATM    9  C5  UNL     1     -35.688  13.771  -4.848  1.00 20.00     0.009 C 
ENDBRANCH   3   8
BRANCH   3  10
HETATM   10  C8  UNL     1     -33.838  16.356  -3.034  1.00 20.00     0.048 C 
HETATM   11  C6  UNL     1     -35.080  16.552  -2.227  1.00 20.00     0.009 C 
ENDBRANCH   3  10
TORSDOF 2
ENDMDL
MODEL 5
REMARK VINA RESULT:      -3.5      1.691      2.444
REMARK  2 active torsions:
REMARK  status: ('A' for Active; 'I' for Inactive)
REMARK    1  A    between atoms: C3_3  and  C7_7 
REMARK    2  A    between atoms: C3_3  and  C8_8 
ROOT
HETATM    1  C1  UNL     1     -35.794  13.345  -5.519  1.00 20.00     0.286 C 
HETATM    2  C2  UNL     1     -35.337  14.122  -6.749  1.00 20.00     0.074 C 
HETATM    3  C3  UNL     1     -34.931  15.252  -4.388  1.00 20.00     0.205 C 
HETATM    4  C4  UNL     1     -36.342  14.070  -7.886  1.00 20.00     0.023 C 
HETATM    5  N9  UNL     1     -34.963  13.781  -4.394  1.00 20.00     0.104 N 
HETATM    6  S10 UNL     1     -35.119  15.810  -6.122  1.00 20.00    -0.122 SA
HETATM    7  H27 UNL     1     -35.331  13.417  -3.517  1.00 20.00     0.318 HD
ENDROOT
BRANCH   3   8
HETATM    8  C7  UNL     1     -36.070  15.832  -3.544  1.00 20.00     0.048 C 
HETATM    9  C5  UNL     1     -37.036  16.600  -4.382  1.00 20.00     0.009 C 
ENDBRANCH   3   8
BRANCH   3  10
HETATM   10  C8  UNL     1     -33.577  15.710  -3.850  1.00 20.00     0.048 C 
HETATM   11  C6  UNL     1     -33.731  16.640  -2.692  1.00 20.00     0.009 C 
ENDBRANCH   3  10
TORSDOF 2
ENDMDL
MODEL 6
REMARK VINA RESULT:      -3.5      1.765      3.291
REMARK  2 active torsions:
REMARK  status: ('A' for Active; 'I' for Inactive)
REMARK    1  A    between atoms: C3_3  and  C7_7 
REMARK    2  A    between atoms: C3_3  and  C8_8 
ROOT
HETATM    1  C1  UNL     1     -35.475  17.302  -5.820  1.00 20.00     0.286 C 
HETATM    2  C2  UNL     1     -34.549  16.732  -6.888  1.00 20.00     0.074 C 
HETATM    3  C3  UNL     1     -34.439  15.632  -4.481  1.00 20.00     0.205 C 
HETATM    4  C4  UNL     1     -33.893  17.808  -7.735  1.00 20.00     0.023 C 
HETATM    5  N9  UNL     1     -35.729  16.237  -4.847  1.00 20.00     0.104 N 
HETATM    6  S10 UNL     1     -33.328  15.795  -5.927  1.00 20.00    -0.122 SA
HETATM    7  H27 UNL     1     -36.207  16.608  -4.027  1.00 20.00     0.318 HD
ENDROOT
BRANCH   3   8
HETATM    8  C7  UNL     1     -33.811  16.340  -3.277  1.00 20.00     0.048 C 
HETATM    9  C5  UNL     1     -34.807  16.556  -2.188  1.00 20.00     0.009 C 
ENDBRANCH   3   8
BRANCH   3  10
HETATM   10  C8  UNL     1     -34.663  14.151  -4.176  1.00 20.00     0.048 C 
HETATM   11  C6  UNL     1     -35.756  13.575  -5.014  1.00 20.00     0.009 C 
ENDBRANCH   3  10
TORSDOF 2
ENDMDL
MODEL 7
REMARK VINA RESULT:      -3.5      1.831      3.023
REMARK  2 active torsions:
REMARK  status: ('A' for Active; 'I' for Inactive)
REMARK    1  A    between atoms: C3_3  and  C7_7 
REMARK    2  A    between atoms: C3_3  and  C8_8 
ROOT
HETATM    1  C1  UNL     1     -35.059  15.742  -6.790  1.00 20.00     0.286 C 
HETATM    2  C2  UNL     1     -35.869  14.461  -6.617  1.00 20.00     0.074 C 
HETATM    3  C3  UNL     1     -35.033  15.667  -4.413  1.00 20.00     0.205 C 
HETATM    4  C4  UNL     1     -35.474  13.376  -7.604  1.00 20.00     0.023 C 
HETATM    5  N9  UNL     1     -35.243  16.541  -5.576  1.00 20.00     0.104 N 
HETATM    6  S10 UNL     1     -35.523  13.973  -4.906  1.00 20.00    -0.122 SA
HETATM    7  H27 UNL     1     -34.597  17.329  -5.567  1.00 20.00     0.318 HD
ENDROOT
BRANCH   3   8
HETATM    8  C7  UNL     1     -33.565  15.663  -3.975  1.00 20.00     0.048 C 
HETATM    9  C5  UNL     1     -32.916  14.349  -4.251  1.00 20.00     0.009 C 
ENDBRANCH   3   8
BRANCH   3  10
HETATM   10  C8  UNL     1     -35.932  16.145  -3.273  1.00 20.00     0.048 C 
HETATM   11  C6  UNL     1     -35.132  16.625  -2.106  1.00 20.00     0.009 C 
ENDBRANCH   3  10
TORSDOF 2
ENDMDL
MODEL 8
REMARK VINA RESULT:      -3.5      1.656      2.787
REMARK  2 active torsions:
REMARK  status: ('A' for Active; 'I' for Inactive)
REMARK    1  A    between atoms: C3_3  and  C7_7 
REMARK    2  A    between atoms: C3_3  and  C8_8 
ROOT
HETATM    1  C1  UNL     1     -36.636  16.288  -5.713  1.00 20.00     0.286 C 
HETATM    2  C2  UNL     1     -37.038  15.143  -4.789  1.00 20.00     0.074 C 
HETATM    3  C3  UNL     1     -34.491  15.280  -5.505  1.00 20.00     0.205 C 
HETATM    4  C4  UNL     1     -38.353  14.497  -5.189  1.00 20.00     0.023 C 
HETATM    5  N9  UNL     1     -35.216  16.559  -5.478  1.00 20.00     0.104 N 
HETATM    6  S10 UNL     1     -35.650  13.983  -4.930  1.00 20.00    -0.122 SA
HETATM    7  H27 UNL     1     -34.854  17.202  -6.182  1.00 20.00     0.318 HD
ENDROOT
BRANCH   3   8
HETATM    8  C7  UNL     1     -34.012  14.938  -6.919  1.00 20.00     0.048 C 
HETATM    9  C5  UNL     1     -34.500  13.598  -7.354  1.00 20.00     0.009 C 
ENDBRANCH   3   8
BRANCH   3  10
HETATM   10  C8  UNL     1     -33.307  15.367  -4.543  1.00 20.00     0.048 C 
HETATM   11  C6  UNL     1     -33.643  16.168  -3.328  1.00 20.00     0.009 C 
ENDBRANCH   3  10
TORSDOF 2
ENDMDL
MODEL 9
REMARK VINA RESULT:      -3.4      1.646      2.094
REMARK  2 active torsions:
REMARK  status: ('A' for Active; 'I' for Inactive)
REMARK    1  A    between atoms: C3_3  and  C7_7 
REMARK    2  A    between atoms: C3_3  and  C8_8 
ROOT
HETATM    1  C1  UNL     1     -33.666  14.428  -4.941  1.00 20.00     0.286 C 
HETATM    2  C2  UNL     1     -35.084  14.646  -5.458  1.00 20.00     0.074 C 
HETATM    3  C3  UNL     1     -33.932  16.674  -4.203  1.00 20.00     0.205 C 
HETATM    4  C4  UNL     1     -35.991  13.454  -5.209  1.00 20.00     0.023 C 
HETATM    5  N9  UNL     1     -33.018  15.741  -4.879  1.00 20.00     0.104 N 
HETATM    6  S10 UNL     1     -35.640  16.114  -4.551  1.00 20.00    -0.122 SA
HETATM    7  H27 UNL     1     -32.127  15.676  -4.388  1.00 20.00     0.318 HD
ENDROOT
BRANCH   3   8
HETATM    8  C7  UNL     1     -33.701  16.684  -2.689  1.00 20.00     0.048 C 
HETATM    9  C5  UNL     1     -34.990  16.682  -1.939  1.00 20.00     0.009 C 
ENDBRANCH   3   8
BRANCH   3  10
HETATM   10  C8  UNL     1     -33.725  18.071  -4.788  1.00 20.00     0.048 C 
HETATM   11  C6  UNL     1     -34.085  18.120  -6.236  1.00 20.00     0.009 C 
ENDBRANCH   3  10
TORSDOF 2
ENDMDL
