MODEL 1
REMARK VINA RESULT:      -5.7      0.000      0.000
REMARK  4 active torsions:
REMARK  status: ('A' for Active; 'I' for Inactive)
REMARK    1  A    between atoms: C2_2  and  C8_8 
REMARK    2  A    between atoms: C6_6  and  C9_9 
REMARK    3  A    between atoms: C8_8  and  C9_9 
REMARK    4  A    between atoms: C9_9  and  O10_10 
ROOT
HETATM    1  C1  UNL     1     -32.591   9.239   0.796  1.00 20.00    -0.111 C 
HETATM    2  C2  UNL     1     -32.220   8.770   1.837  1.00 20.00    -0.104 C 
HETATM    3  C7  UNL     1     -33.044   9.808  -0.473  1.00 20.00     0.112 C 
ENDROOT
BRANCH   2   4
HETATM    4  C8  UNL     1     -31.763   8.198   3.114  1.00 20.00     0.126 C 
BRANCH   4   5
HETATM    5  C9  UNL     1     -32.462   6.870   3.411  1.00 20.00     0.143 C 
BRANCH   5   6
HETATM    6  C6  UNL     1     -33.860   7.098   3.973  1.00 20.00     0.077 C 
HETATM    7  C4  UNL     1     -34.836   5.978   3.618  1.00 20.00     0.018 C 
HETATM    8  C3  UNL     1     -34.639   4.860   4.632  1.00 20.00     0.011 C 
HETATM    9  C5  UNL     1     -34.663   5.511   6.003  1.00 20.00     0.074 C 
HETATM   10  S11 UNL     1     -33.805   7.096   5.797  1.00 20.00    -0.162 SA
ENDBRANCH   5   6
BRANCH   5  11
HETATM   11  O10 UNL     1     -32.577   6.130   2.197  1.00 20.00    -0.394 OA
HETATM   12  H25 UNL     1     -32.815   5.225   2.448  1.00 20.00     0.210 HD
ENDBRANCH   5  11
ENDBRANCH   4   5
ENDBRANCH   2   4
TORSDOF 4
ENDMDL
MODEL 2
REMARK VINA RESULT:      -5.2      1.605      1.749
REMARK  4 active torsions:
REMARK  status: ('A' for Active; 'I' for Inactive)
REMARK    1  A    between atoms: C2_2  and  C8_8 
REMARK    2  A    between atoms: C6_6  and  C9_9 
REMARK    3  A    between atoms: C8_8  and  C9_9 
REMARK    4  A    between atoms: C9_9  and  O10_10 
ROOT
HETATM    1  C1  UNL     1     -32.404   9.253   1.376  1.00 20.00    -0.111 C 
HETATM    2  C2  UNL     1     -32.312   8.470   2.281  1.00 20.00    -0.104 C 
HETATM    3  C7  UNL     1     -32.515  10.206   0.272  1.00 20.00     0.112 C 
ENDROOT
BRANCH   2   4
HETATM    4  C8  UNL     1     -32.203   7.512   3.394  1.00 20.00     0.126 C 
BRANCH   4   5
HETATM    5  C9  UNL     1     -33.401   7.618   4.339  1.00 20.00     0.143 C 
BRANCH   5   6
HETATM    6  C6  UNL     1     -34.503   6.643   3.942  1.00 20.00     0.077 C 
HETATM    7  C4  UNL     1     -34.154   5.821   2.702  1.00 20.00     0.018 C 
HETATM    8  C3  UNL     1     -33.309   4.640   3.158  1.00 20.00     0.011 C 
HETATM    9  C5  UNL     1     -34.042   4.012   4.330  1.00 20.00     0.074 C 
HETATM   10  S11 UNL     1     -34.742   5.404   5.259  1.00 20.00    -0.162 SA
ENDBRANCH   5   6
BRANCH   5  11
HETATM   11  O10 UNL     1     -32.972   7.302   5.662  1.00 20.00    -0.394 OA
HETATM   12  H25 UNL     1     -32.725   8.140   6.078  1.00 20.00     0.210 HD
ENDBRANCH   5  11
ENDBRANCH   4   5
ENDBRANCH   2   4
TORSDOF 4
ENDMDL
MODEL 3
REMARK VINA RESULT:      -4.6     10.907     11.634
REMARK  4 active torsions:
REMARK  status: ('A' for Active; 'I' for Inactive)
REMARK    1  A    between atoms: C2_2  and  C8_8 
REMARK    2  A    between atoms: C6_6  and  C9_9 
REMARK    3  A    between atoms: C8_8  and  C9_9 
REMARK    4  A    between atoms: C9_9  and  O10_10 
ROOT
HETATM    1  C1  UNL     1     -34.792  16.741  -1.900  1.00 20.00    -0.111 C 
HETATM    2  C2  UNL     1     -34.234  16.338  -2.884  1.00 20.00    -0.104 C 
HETATM    3  C7  UNL     1     -35.469  17.234  -0.701  1.00 20.00     0.112 C 
ENDROOT
BRANCH   2   4
HETATM    4  C8  UNL     1     -33.554  15.840  -4.091  1.00 20.00     0.126 C 
BRANCH   4   5
HETATM    5  C9  UNL     1     -33.822  14.349  -4.306  1.00 20.00     0.143 C 
BRANCH   5   6
HETATM    6  C6  UNL     1     -34.634  14.113  -5.573  1.00 20.00     0.077 C 
HETATM    7  C4  UNL     1     -35.994  13.474  -5.300  1.00 20.00     0.018 C 
HETATM    8  C3  UNL     1     -36.957  14.590  -4.922  1.00 20.00     0.011 C 
HETATM    9  C5  UNL     1     -36.800  15.671  -5.976  1.00 20.00     0.074 C 
HETATM   10  S11 UNL     1     -35.029  15.708  -6.365  1.00 20.00    -0.162 SA
ENDBRANCH   5   6
BRANCH   5  11
HETATM   11  O10 UNL     1     -32.573  13.672  -4.435  1.00 20.00    -0.394 OA
HETATM   12  H25 UNL     1     -32.196  13.950  -5.283  1.00 20.00     0.210 HD
ENDBRANCH   5  11
ENDBRANCH   4   5
ENDBRANCH   2   4
TORSDOF 4
ENDMDL
MODEL 4
REMARK VINA RESULT:      -4.3     11.116     12.539
REMARK  4 active torsions:
REMARK  status: ('A' for Active; 'I' for Inactive)
REMARK    1  A    between atoms: C2_2  and  C8_8 
REMARK    2  A    between atoms: C6_6  and  C9_9 
REMARK    3  A    between atoms: C8_8  and  C9_9 
REMARK    4  A    between atoms: C9_9  and  O10_10 
ROOT
HETATM    1  C1  UNL     1     -34.597  16.245  -2.647  1.00 20.00    -0.111 C 
HETATM    2  C2  UNL     1     -34.493  15.400  -3.493  1.00 20.00    -0.104 C 
HETATM    3  C7  UNL     1     -34.726  17.275  -1.616  1.00 20.00     0.112 C 
ENDROOT
BRANCH   2   4
HETATM    4  C8  UNL     1     -34.362  14.364  -4.531  1.00 20.00     0.126 C 
BRANCH   4   5
HETATM    5  C9  UNL     1     -35.719  14.023  -5.151  1.00 20.00     0.143 C 
BRANCH   5   6
HETATM    6  C6  UNL     1     -35.751  14.375  -6.633  1.00 20.00     0.077 C 
HETATM    7  C4  UNL     1     -36.701  15.528  -6.952  1.00 20.00     0.018 C 
HETATM    8  C3  UNL     1     -35.952  16.825  -6.687  1.00 20.00     0.011 C 
HETATM    9  C5  UNL     1     -34.612  16.702  -7.389  1.00 20.00     0.074 C 
HETATM   10  S11 UNL     1     -34.112  14.972  -7.167  1.00 20.00    -0.162 SA
ENDBRANCH   5   6
BRANCH   5  11
HETATM   11  O10 UNL     1     -35.948  12.622  -5.013  1.00 20.00    -0.394 OA
HETATM   12  H25 UNL     1     -36.061  12.454  -4.066  1.00 20.00     0.210 HD
ENDBRANCH   5  11
ENDBRANCH   4   5
ENDBRANCH   2   4
TORSDOF 4
ENDMDL
MODEL 5
REMARK VINA RESULT:      -4.2     10.966     12.239
REMARK  4 active torsions:
REMARK  status: ('A' for Active; 'I' for Inactive)
REMARK    1  A    between atoms: C2_2  and  C8_8 
REMARK    2  A    between atoms: C6_6  and  C9_9 
REMARK    3  A    between atoms: C8_8  and  C9_9 
REMARK    4  A    between atoms: C9_9  and  O10_10 
ROOT
HETATM    1  C1  UNL     1     -34.834  16.849  -1.568  1.00 20.00    -0.111 C 
HETATM    2  C2  UNL     1     -34.265  16.461  -2.551  1.00 20.00    -0.104 C 
HETATM    3  C7  UNL     1     -35.525  17.324  -0.370  1.00 20.00     0.112 C 
ENDROOT
BRANCH   2   4
HETATM    4  C8  UNL     1     -33.570  15.981  -3.757  1.00 20.00     0.126 C 
BRANCH   4   5
HETATM    5  C9  UNL     1     -34.170  14.666  -4.259  1.00 20.00     0.143 C 
BRANCH   5   6
HETATM    6  C6  UNL     1     -35.093  14.900  -5.448  1.00 20.00     0.077 C 
HETATM    7  C4  UNL     1     -34.815  16.217  -6.169  1.00 20.00     0.018 C 
HETATM    8  C3  UNL     1     -33.669  15.975  -7.140  1.00 20.00     0.011 C 
HETATM    9  C5  UNL     1     -34.019  14.720  -7.917  1.00 20.00     0.074 C 
HETATM   10  S11 UNL     1     -34.813  13.618  -6.715  1.00 20.00    -0.162 SA
ENDBRANCH   5   6
BRANCH   5  11
HETATM   11  O10 UNL     1     -33.109  13.805  -4.671  1.00 20.00    -0.394 OA
HETATM   12  H25 UNL     1     -33.361  12.910  -4.400  1.00 20.00     0.210 HD
ENDBRANCH   5  11
ENDBRANCH   4   5
ENDBRANCH   2   4
TORSDOF 4
ENDMDL
MODEL 6
REMARK VINA RESULT:      -4.1     11.396     12.325
REMARK  4 active torsions:
REMARK  status: ('A' for Active; 'I' for Inactive)
REMARK    1  A    between atoms: C2_2  and  C8_8 
REMARK    2  A    between atoms: C6_6  and  C9_9 
REMARK    3  A    between atoms: C8_8  and  C9_9 
REMARK    4  A    between atoms: C9_9  and  O10_10 
ROOT
HETATM    1  C1  UNL     1     -34.318  16.793  -2.190  1.00 20.00    -0.111 C 
HETATM    2  C2  UNL     1     -33.839  16.499  -3.251  1.00 20.00    -0.104 C 
HETATM    3  C7  UNL     1     -34.900  17.154  -0.898  1.00 20.00     0.112 C 
ENDROOT
BRANCH   2   4
HETATM    4  C8  UNL     1     -33.253  16.134  -4.551  1.00 20.00     0.126 C 
BRANCH   4   5
HETATM    5  C9  UNL     1     -33.896  14.865  -5.115  1.00 20.00     0.143 C 
BRANCH   5   6
HETATM    6  C6  UNL     1     -34.047  14.949  -6.629  1.00 20.00     0.077 C 
HETATM    7  C4  UNL     1     -34.381  13.605  -7.271  1.00 20.00     0.018 C 
HETATM    8  C3  UNL     1     -35.885  13.403  -7.158  1.00 20.00     0.011 C 
HETATM    9  C5  UNL     1     -36.531  14.685  -7.652  1.00 20.00     0.074 C 
HETATM   10  S11 UNL     1     -35.460  16.022  -7.054  1.00 20.00    -0.162 SA
ENDBRANCH   5   6
BRANCH   5  11
HETATM   11  O10 UNL     1     -33.062  13.750  -4.804  1.00 20.00    -0.394 OA
HETATM   12  H25 UNL     1     -32.658  13.468  -5.639  1.00 20.00     0.210 HD
ENDBRANCH   5  11
ENDBRANCH   4   5
ENDBRANCH   2   4
TORSDOF 4
ENDMDL
MODEL 7
REMARK VINA RESULT:      -4.1      2.036      5.156
REMARK  4 active torsions:
REMARK  status: ('A' for Active; 'I' for Inactive)
REMARK    1  A    between atoms: C2_2  and  C8_8 
REMARK    2  A    between atoms: C6_6  and  C9_9 
REMARK    3  A    between atoms: C8_8  and  C9_9 
REMARK    4  A    between atoms: C9_9  and  O10_10 
ROOT
HETATM    1  C1  UNL     1     -34.298   6.035   4.577  1.00 20.00    -0.111 C 
HETATM    2  C2  UNL     1     -33.988   6.893   3.797  1.00 20.00    -0.104 C 
HETATM    3  C7  UNL     1     -34.674   4.989   5.528  1.00 20.00     0.112 C 
ENDROOT
BRANCH   2   4
HETATM    4  C8  UNL     1     -33.611   7.945   2.838  1.00 20.00     0.126 C 
BRANCH   4   5
HETATM    5  C9  UNL     1     -32.103   7.944   2.576  1.00 20.00     0.143 C 
BRANCH   5   6
HETATM    6  C6  UNL     1     -31.694   9.133   1.714  1.00 20.00     0.077 C 
HETATM    7  C4  UNL     1     -31.273   8.729   0.303  1.00 20.00     0.018 C 
HETATM    8  C3  UNL     1     -32.539   8.594  -0.531  1.00 20.00     0.011 C 
HETATM    9  C5  UNL     1     -33.352   9.852  -0.289  1.00 20.00     0.074 C 
HETATM   10  S11 UNL     1     -33.120  10.242   1.467  1.00 20.00    -0.162 SA
ENDBRANCH   5   6
BRANCH   5  11
HETATM   11  O10 UNL     1     -31.419   8.033   3.825  1.00 20.00    -0.394 OA
HETATM   12  H25 UNL     1     -30.740   8.715   3.718  1.00 20.00     0.210 HD
ENDBRANCH   5  11
ENDBRANCH   4   5
ENDBRANCH   2   4
TORSDOF 4
ENDMDL
MODEL 8
REMARK VINA RESULT:      -3.9     11.175     12.101
REMARK  4 active torsions:
REMARK  status: ('A' for Active; 'I' for Inactive)
REMARK    1  A    between atoms: C2_2  and  C8_8 
REMARK    2  A    between atoms: C6_6  and  C9_9 
REMARK    3  A    between atoms: C8_8  and  C9_9 
REMARK    4  A    between atoms: C9_9  and  O10_10 
ROOT
HETATM    1  C1  UNL     1     -32.987  18.071  -0.877  1.00 20.00    -0.111 C 
HETATM    2  C2  UNL     1     -33.577  17.403  -1.682  1.00 20.00    -0.104 C 
HETATM    3  C7  UNL     1     -32.270  18.885   0.103  1.00 20.00     0.112 C 
ENDROOT
BRANCH   2   4
HETATM    4  C8  UNL     1     -34.297  16.583  -2.670  1.00 20.00     0.126 C 
BRANCH   4   5
HETATM    5  C9  UNL     1     -33.841  16.901  -4.095  1.00 20.00     0.143 C 
BRANCH   5   6
HETATM    6  C6  UNL     1     -33.215  15.679  -4.758  1.00 20.00     0.077 C 
HETATM    7  C4  UNL     1     -33.714  14.361  -4.171  1.00 20.00     0.018 C 
HETATM    8  C3  UNL     1     -35.032  14.025  -4.854  1.00 20.00     0.011 C 
HETATM    9  C5  UNL     1     -34.795  14.174  -6.346  1.00 20.00     0.074 C 
HETATM   10  S11 UNL     1     -33.698  15.609  -6.516  1.00 20.00    -0.162 SA
ENDBRANCH   5   6
BRANCH   5  11
HETATM   11  O10 UNL     1     -34.975  17.301  -4.863  1.00 20.00    -0.394 OA
HETATM   12  H25 UNL     1     -35.656  16.628  -4.717  1.00 20.00     0.210 HD
ENDBRANCH   5  11
ENDBRANCH   4   5
ENDBRANCH   2   4
TORSDOF 4
ENDMDL
MODEL 9
REMARK VINA RESULT:      -3.9     11.274     12.189
REMARK  4 active torsions:
REMARK  status: ('A' for Active; 'I' for Inactive)
REMARK    1  A    between atoms: C2_2  and  C8_8 
REMARK    2  A    between atoms: C6_6  and  C9_9 
REMARK    3  A    between atoms: C8_8  and  C9_9 
REMARK    4  A    between atoms: C9_9  and  O10_10 
ROOT
HETATM    1  C1  UNL     1     -33.540  17.168  -2.080  1.00 20.00    -0.111 C 
HETATM    2  C2  UNL     1     -34.097  16.409  -2.826  1.00 20.00    -0.104 C 
HETATM    3  C7  UNL     1     -32.860  18.093  -1.175  1.00 20.00     0.112 C 
ENDROOT
BRANCH   2   4
HETATM    4  C8  UNL     1     -34.782  15.477  -3.736  1.00 20.00     0.126 C 
BRANCH   4   5
HETATM    5  C9  UNL     1     -36.177  15.986  -4.107  1.00 20.00     0.143 C 
BRANCH   5   6
HETATM    6  C6  UNL     1     -36.965  14.926  -4.867  1.00 20.00     0.077 C 
HETATM    7  C4  UNL     1     -37.446  15.407  -6.234  1.00 20.00     0.018 C 
HETATM    8  C3  UNL     1     -36.298  15.219  -7.215  1.00 20.00     0.011 C 
HETATM    9  C5  UNL     1     -35.791  13.801  -7.020  1.00 20.00     0.074 C 
HETATM   10  S11 UNL     1     -35.892  13.497  -5.235  1.00 20.00    -0.162 SA
ENDBRANCH   5   6
BRANCH   5  11
HETATM   11  O10 UNL     1     -36.883  16.304  -2.909  1.00 20.00    -0.394 OA
HETATM   12  H25 UNL     1     -37.417  17.088  -3.105  1.00 20.00     0.210 HD
ENDBRANCH   5  11
ENDBRANCH   4   5
ENDBRANCH   2   4
TORSDOF 4
ENDMDL
