MODEL 1
REMARK VINA RESULT:      -4.7      0.000      0.000
REMARK  1 active torsions:
REMARK  status: ('A' for Active; 'I' for Inactive)
REMARK    1  A    between atoms: C5_5  and  O9_9 
ROOT
HETATM    1  C1  UNL     1     -32.933   6.134   2.390  1.00 20.00     0.012 C 
HETATM    2  C2  UNL     1     -33.352   5.080   3.412  1.00 20.00     0.038 C 
HETATM    3  C3  UNL     1     -33.708   7.199   4.474  1.00 20.00     0.046 C 
HETATM    4  C4  UNL     1     -32.918   7.471   3.165  1.00 20.00    -0.045 C 
HETATM    5  C5  UNL     1     -34.357   5.825   4.287  1.00 20.00     0.055 C 
HETATM    6  C6  UNL     1     -33.582   8.580   2.339  1.00 20.00     0.015 C 
HETATM    7  C7  UNL     1     -31.476   7.888   3.492  1.00 20.00     0.015 C 
HETATM    8  C8  UNL     1     -34.649   5.118   5.602  1.00 20.00     0.045 C 
ENDROOT
BRANCH   5   9
HETATM    9  O9  UNL     1     -35.584   5.992   3.576  1.00 20.00    -0.390 OA
HETATM   10  H25 UNL     1     -35.345   6.282   2.682  1.00 20.00     0.210 HD
ENDBRANCH   5   9
TORSDOF 1
ENDMDL
MODEL 2
REMARK VINA RESULT:      -4.4      1.769      3.485
REMARK  1 active torsions:
REMARK  status: ('A' for Active; 'I' for Inactive)
REMARK    1  A    between atoms: C5_5  and  O9_9 
ROOT
HETATM    1  C1  UNL     1     -33.078   5.525   3.536  1.00 20.00     0.012 C 
HETATM    2  C2  UNL     1     -32.542   6.324   2.352  1.00 20.00     0.038 C 
HETATM    3  C3  UNL     1     -33.944   7.834   3.576  1.00 20.00     0.046 C 
HETATM    4  C4  UNL     1     -34.173   6.416   4.166  1.00 20.00    -0.045 C 
HETATM    5  C5  UNL     1     -32.597   7.765   2.850  1.00 20.00     0.055 C 
HETATM    6  C6  UNL     1     -34.044   6.426   5.695  1.00 20.00     0.015 C 
HETATM    7  C7  UNL     1     -35.570   5.902   3.787  1.00 20.00     0.015 C 
HETATM    8  C8  UNL     1     -32.467   8.792   1.736  1.00 20.00     0.045 C 
ENDROOT
BRANCH   5   9
HETATM    9  O9  UNL     1     -31.554   7.987   3.800  1.00 20.00    -0.390 OA
HETATM   10  H25 UNL     1     -31.482   8.947   3.908  1.00 20.00     0.210 HD
ENDBRANCH   5   9
TORSDOF 1
ENDMDL
MODEL 3
REMARK VINA RESULT:      -4.2      1.425      3.412
REMARK  1 active torsions:
REMARK  status: ('A' for Active; 'I' for Inactive)
REMARK    1  A    between atoms: C5_5  and  O9_9 
ROOT
HETATM    1  C1  UNL     1     -34.234   6.868   5.322  1.00 20.00     0.012 C 
HETATM    2  C2  UNL     1     -32.900   7.556   5.043  1.00 20.00     0.038 C 
HETATM    3  C3  UNL     1     -33.334   6.172   3.134  1.00 20.00     0.046 C 
HETATM    4  C4  UNL     1     -34.377   5.793   4.220  1.00 20.00    -0.045 C 
HETATM    5  C5  UNL     1     -32.826   7.564   3.519  1.00 20.00     0.055 C 
HETATM    6  C6  UNL     1     -35.800   5.798   3.646  1.00 20.00     0.015 C 
HETATM    7  C7  UNL     1     -34.073   4.398   4.785  1.00 20.00     0.015 C 
HETATM    8  C8  UNL     1     -31.431   7.858   2.987  1.00 20.00     0.045 C 
ENDROOT
BRANCH   5   9
HETATM    9  O9  UNL     1     -33.729   8.540   2.998  1.00 20.00    -0.390 OA
HETATM   10  H25 UNL     1     -34.620   8.174   3.105  1.00 20.00     0.210 HD
ENDBRANCH   5   9
TORSDOF 1
ENDMDL
MODEL 4
REMARK VINA RESULT:      -4.1      1.748      2.676
REMARK  1 active torsions:
REMARK  status: ('A' for Active; 'I' for Inactive)
REMARK    1  A    between atoms: C5_5  and  O9_9 
ROOT
HETATM    1  C1  UNL     1     -31.473   8.487   3.131  1.00 20.00     0.012 C 
HETATM    2  C2  UNL     1     -32.450   7.780   4.067  1.00 20.00     0.038 C 
HETATM    3  C3  UNL     1     -33.515   7.821   1.921  1.00 20.00     0.046 C 
HETATM    4  C4  UNL     1     -32.266   8.738   1.829  1.00 20.00    -0.045 C 
HETATM    5  C5  UNL     1     -33.265   6.904   3.121  1.00 20.00     0.055 C 
HETATM    6  C6  UNL     1     -31.412   8.389   0.603  1.00 20.00     0.015 C 
HETATM    7  C7  UNL     1     -32.694  10.210   1.734  1.00 20.00     0.015 C 
HETATM    8  C8  UNL     1     -34.548   6.376   3.746  1.00 20.00     0.045 C 
ENDROOT
BRANCH   5   9
HETATM    9  O9  UNL     1     -32.476   5.794   2.691  1.00 20.00    -0.390 OA
HETATM   10  H25 UNL     1     -31.943   6.109   1.946  1.00 20.00     0.210 HD
ENDBRANCH   5   9
TORSDOF 1
ENDMDL
MODEL 5
REMARK VINA RESULT:      -4.0     11.064     12.135
REMARK  1 active torsions:
REMARK  status: ('A' for Active; 'I' for Inactive)
REMARK    1  A    between atoms: C5_5  and  O9_9 
ROOT
HETATM    1  C1  UNL     1     -34.929  15.211  -3.617  1.00 20.00     0.012 C 
HETATM    2  C2  UNL     1     -36.258  15.120  -4.362  1.00 20.00     0.038 C 
HETATM    3  C3  UNL     1     -34.568  14.571  -5.970  1.00 20.00     0.046 C 
HETATM    4  C4  UNL     1     -33.841  15.113  -4.710  1.00 20.00    -0.045 C 
HETATM    5  C5  UNL     1     -35.957  14.139  -5.491  1.00 20.00     0.055 C 
HETATM    6  C6  UNL     1     -32.719  14.165  -4.268  1.00 20.00     0.015 C 
HETATM    7  C7  UNL     1     -33.240  16.497  -4.998  1.00 20.00     0.015 C 
HETATM    8  C8  UNL     1     -37.001  14.156  -6.597  1.00 20.00     0.045 C 
ENDROOT
BRANCH   5   9
HETATM    9  O9  UNL     1     -35.867  12.814  -4.967  1.00 20.00    -0.390 OA
HETATM   10  H25 UNL     1     -35.033  12.445  -5.295  1.00 20.00     0.210 HD
ENDBRANCH   5   9
TORSDOF 1
ENDMDL
MODEL 6
REMARK VINA RESULT:      -3.9     11.707     12.861
REMARK  1 active torsions:
REMARK  status: ('A' for Active; 'I' for Inactive)
REMARK    1  A    between atoms: C5_5  and  O9_9 
ROOT
HETATM    1  C1  UNL     1     -33.765  15.116  -7.180  1.00 20.00     0.012 C 
HETATM    2  C2  UNL     1     -33.297  15.912  -5.965  1.00 20.00     0.038 C 
HETATM    3  C3  UNL     1     -35.119  14.558  -5.196  1.00 20.00     0.046 C 
HETATM    4  C4  UNL     1     -35.090  14.449  -6.744  1.00 20.00    -0.045 C 
HETATM    5  C5  UNL     1     -33.721  15.036  -4.791  1.00 20.00     0.055 C 
HETATM    6  C6  UNL     1     -35.129  12.984  -7.197  1.00 20.00     0.015 C 
HETATM    7  C7  UNL     1     -36.292  15.190  -7.351  1.00 20.00     0.015 C 
HETATM    8  C8  UNL     1     -33.705  15.768  -3.457  1.00 20.00     0.045 C 
ENDROOT
BRANCH   5   9
HETATM    9  O9  UNL     1     -32.859  13.901  -4.700  1.00 20.00    -0.390 OA
HETATM   10  H25 UNL     1     -33.152  13.279  -5.382  1.00 20.00     0.210 HD
ENDBRANCH   5   9
TORSDOF 1
ENDMDL
MODEL 7
REMARK VINA RESULT:      -3.8     11.465     12.535
REMARK  1 active torsions:
REMARK  status: ('A' for Active; 'I' for Inactive)
REMARK    1  A    between atoms: C5_5  and  O9_9 
ROOT
HETATM    1  C1  UNL     1     -36.291  15.684  -5.107  1.00 20.00     0.012 C 
HETATM    2  C2  UNL     1     -36.529  14.750  -6.290  1.00 20.00     0.038 C 
HETATM    3  C3  UNL     1     -34.239  14.434  -5.659  1.00 20.00     0.046 C 
HETATM    4  C4  UNL     1     -34.763  15.668  -4.875  1.00 20.00    -0.045 C 
HETATM    5  C5  UNL     1     -35.487  13.655  -6.084  1.00 20.00     0.055 C 
HETATM    6  C6  UNL     1     -34.447  15.548  -3.379  1.00 20.00     0.015 C 
HETATM    7  C7  UNL     1     -34.122  16.953  -5.418  1.00 20.00     0.015 C 
HETATM    8  C8  UNL     1     -35.262  12.798  -7.321  1.00 20.00     0.045 C 
ENDROOT
BRANCH   5   9
HETATM    9  O9  UNL     1     -35.885  12.807  -5.007  1.00 20.00    -0.390 OA
HETATM   10  H25 UNL     1     -35.999  11.921  -5.382  1.00 20.00     0.210 HD
ENDBRANCH   5   9
TORSDOF 1
ENDMDL
MODEL 8
REMARK VINA RESULT:      -3.8     11.457     12.866
REMARK  1 active torsions:
REMARK  status: ('A' for Active; 'I' for Inactive)
REMARK    1  A    between atoms: C5_5  and  O9_9 
ROOT
HETATM    1  C1  UNL     1     -34.395  14.524  -3.955  1.00 20.00     0.012 C 
HETATM    2  C2  UNL     1     -34.404  14.309  -5.467  1.00 20.00     0.038 C 
HETATM    3  C3  UNL     1     -34.404  16.684  -5.145  1.00 20.00     0.046 C 
HETATM    4  C4  UNL     1     -34.657  16.035  -3.758  1.00 20.00    -0.045 C 
HETATM    5  C5  UNL     1     -33.768  15.587  -6.004  1.00 20.00     0.055 C 
HETATM    6  C6  UNL     1     -33.709  16.611  -2.697  1.00 20.00     0.015 C 
HETATM    7  C7  UNL     1     -36.107  16.277  -3.314  1.00 20.00     0.015 C 
HETATM    8  C8  UNL     1     -33.992  15.791  -7.495  1.00 20.00     0.045 C 
ENDROOT
BRANCH   5   9
HETATM    9  O9  UNL     1     -32.362  15.569  -5.752  1.00 20.00    -0.390 OA
HETATM   10  H25 UNL     1     -31.929  15.766  -6.596  1.00 20.00     0.210 HD
ENDBRANCH   5   9
TORSDOF 1
ENDMDL
MODEL 9
REMARK VINA RESULT:      -3.7     11.034     12.710
REMARK  1 active torsions:
REMARK  status: ('A' for Active; 'I' for Inactive)
REMARK    1  A    between atoms: C5_5  and  O9_9 
ROOT
HETATM    1  C1  UNL     1     -36.799  14.803  -6.845  1.00 20.00     0.012 C 
HETATM    2  C2  UNL     1     -35.345  14.549  -6.457  1.00 20.00     0.038 C 
HETATM    3  C3  UNL     1     -36.494  15.022  -4.408  1.00 20.00     0.046 C 
HETATM    4  C4  UNL     1     -37.471  15.358  -5.568  1.00 20.00    -0.045 C 
HETATM    5  C5  UNL     1     -35.449  14.079  -5.010  1.00 20.00     0.055 C 
HETATM    6  C6  UNL     1     -38.838  14.696  -5.349  1.00 20.00     0.015 C 
HETATM    7  C7  UNL     1     -37.664  16.877  -5.676  1.00 20.00     0.015 C 
HETATM    8  C8  UNL     1     -34.120  14.112  -4.270  1.00 20.00     0.045 C 
ENDROOT
BRANCH   5   9
HETATM    9  O9  UNL     1     -35.960  12.746  -4.971  1.00 20.00    -0.390 OA
HETATM   10  H25 UNL     1     -35.947  12.474  -4.040  1.00 20.00     0.210 HD
ENDBRANCH   5   9
TORSDOF 1
ENDMDL
