MODEL 1
REMARK VINA RESULT:      -5.1      0.000      0.000
REMARK  0 active torsions:
REMARK  status: ('A' for Active; 'I' for Inactive)
ROOT
HETATM    1  C1  UNL     1     -32.745   8.078   2.264  1.00 20.00     0.064 C 
HETATM    2  C2  UNL     1     -32.798   5.603   2.455  1.00 20.00     0.020 C 
HETATM    3  C3  UNL     1     -33.567   4.789   3.490  1.00 20.00     0.010 C 
HETATM    4  C4  UNL     1     -33.320   6.975   4.424  1.00 20.00     0.027 C 
HETATM    5  C5  UNL     1     -32.468   6.934   3.144  1.00 20.00     0.093 C 
HETATM    6  C6  UNL     1     -34.345   5.834   4.298  1.00 20.00    -0.046 C 
HETATM    7  C7  UNL     1     -35.606   6.300   3.551  1.00 20.00     0.015 C 
HETATM    8  C8  UNL     1     -34.753   5.290   5.669  1.00 20.00     0.015 C 
HETATM    9  N9  UNL     1     -32.963   8.982   1.570  1.00 20.00    -0.197 NA
ENDROOT
TORSDOF 0
ENDMDL
MODEL 2
REMARK VINA RESULT:      -4.2      2.154      3.716
REMARK  0 active torsions:
REMARK  status: ('A' for Active; 'I' for Inactive)
ROOT
HETATM    1  C1  UNL     1     -34.403   6.122   4.990  1.00 20.00     0.064 C 
HETATM    2  C2  UNL     1     -33.222   5.538   2.885  1.00 20.00     0.020 C 
HETATM    3  C3  UNL     1     -32.518   6.505   1.941  1.00 20.00     0.010 C 
HETATM    4  C4  UNL     1     -34.066   7.823   3.199  1.00 20.00     0.027 C 
HETATM    5  C5  UNL     1     -34.349   6.349   3.539  1.00 20.00     0.093 C 
HETATM    6  C6  UNL     1     -32.635   7.869   2.633  1.00 20.00    -0.046 C 
HETATM    7  C7  UNL     1     -31.597   8.022   3.756  1.00 20.00     0.015 C 
HETATM    8  C8  UNL     1     -32.463   9.017   1.636  1.00 20.00     0.015 C 
HETATM    9  N9  UNL     1     -34.446   5.943   6.136  1.00 20.00    -0.197 NA
ENDROOT
TORSDOF 0
ENDMDL
MODEL 3
REMARK VINA RESULT:      -4.0      1.188      2.132
REMARK  0 active torsions:
REMARK  status: ('A' for Active; 'I' for Inactive)
ROOT
HETATM    1  C1  UNL     1     -31.949   8.520   1.584  1.00 20.00     0.064 C 
HETATM    2  C2  UNL     1     -32.123   8.019   4.010  1.00 20.00     0.020 C 
HETATM    3  C3  UNL     1     -33.084   7.034   4.666  1.00 20.00     0.010 C 
HETATM    4  C4  UNL     1     -34.046   7.579   2.547  1.00 20.00     0.027 C 
HETATM    5  C5  UNL     1     -32.844   8.517   2.750  1.00 20.00     0.093 C 
HETATM    6  C6  UNL     1     -33.827   6.384   3.492  1.00 20.00    -0.046 C 
HETATM    7  C7  UNL     1     -32.977   5.293   2.822  1.00 20.00     0.015 C 
HETATM    8  C8  UNL     1     -35.156   5.773   3.943  1.00 20.00     0.015 C 
HETATM    9  N9  UNL     1     -31.243   8.524   0.663  1.00 20.00    -0.197 NA
ENDROOT
TORSDOF 0
ENDMDL
MODEL 4
REMARK VINA RESULT:      -4.0     11.211     12.502
REMARK  0 active torsions:
REMARK  status: ('A' for Active; 'I' for Inactive)
ROOT
HETATM    1  C1  UNL     1     -35.162  13.373  -6.647  1.00 20.00     0.064 C 
HETATM    2  C2  UNL     1     -33.884  15.499  -6.759  1.00 20.00     0.020 C 
HETATM    3  C3  UNL     1     -33.361  16.307  -5.577  1.00 20.00     0.010 C 
HETATM    4  C4  UNL     1     -35.127  14.947  -4.714  1.00 20.00     0.027 C 
HETATM    5  C5  UNL     1     -35.142  14.786  -6.244  1.00 20.00     0.093 C 
HETATM    6  C6  UNL     1     -33.725  15.467  -4.348  1.00 20.00    -0.046 C 
HETATM    7  C7  UNL     1     -32.737  14.306  -4.145  1.00 20.00     0.015 C 
HETATM    8  C8  UNL     1     -33.757  16.320  -3.077  1.00 20.00     0.015 C 
HETATM    9  N9  UNL     1     -35.179  12.257  -6.964  1.00 20.00    -0.197 NA
ENDROOT
TORSDOF 0
ENDMDL
MODEL 5
REMARK VINA RESULT:      -4.0     11.198     12.414
REMARK  0 active torsions:
REMARK  status: ('A' for Active; 'I' for Inactive)
ROOT
HETATM    1  C1  UNL     1     -35.475  13.264  -5.970  1.00 20.00     0.064 C 
HETATM    2  C2  UNL     1     -36.236  15.586  -5.526  1.00 20.00     0.020 C 
HETATM    3  C3  UNL     1     -35.535  16.619  -4.651  1.00 20.00     0.010 C 
HETATM    4  C4  UNL     1     -34.723  14.488  -3.933  1.00 20.00     0.027 C 
HETATM    5  C5  UNL     1     -35.867  14.222  -4.927  1.00 20.00     0.093 C 
HETATM    6  C6  UNL     1     -34.243  15.926  -4.201  1.00 20.00    -0.046 C 
HETATM    7  C7  UNL     1     -33.172  15.959  -5.304  1.00 20.00     0.015 C 
HETATM    8  C8  UNL     1     -33.674  16.573  -2.936  1.00 20.00     0.015 C 
HETATM    9  N9  UNL     1     -35.166  12.507  -6.794  1.00 20.00    -0.197 NA
ENDROOT
TORSDOF 0
ENDMDL
MODEL 6
REMARK VINA RESULT:      -3.9     11.216     12.350
REMARK  0 active torsions:
REMARK  status: ('A' for Active; 'I' for Inactive)
ROOT
HETATM    1  C1  UNL     1     -36.946  14.394  -5.073  1.00 20.00     0.064 C 
HETATM    2  C2  UNL     1     -34.592  14.088  -4.341  1.00 20.00     0.020 C 
HETATM    3  C3  UNL     1     -33.658  15.172  -3.815  1.00 20.00     0.010 C 
HETATM    4  C4  UNL     1     -35.354  16.312  -5.055  1.00 20.00     0.027 C 
HETATM    5  C5  UNL     1     -35.553  14.806  -5.299  1.00 20.00     0.093 C 
HETATM    6  C6  UNL     1     -34.527  16.434  -3.763  1.00 20.00    -0.046 C 
HETATM    7  C7  UNL     1     -35.432  16.445  -2.521  1.00 20.00     0.015 C 
HETATM    8  C8  UNL     1     -33.669  17.702  -3.763  1.00 20.00     0.015 C 
HETATM    9  N9  UNL     1     -38.046  14.069  -4.895  1.00 20.00    -0.197 NA
ENDROOT
TORSDOF 0
ENDMDL
MODEL 7
REMARK VINA RESULT:      -3.8     11.201     12.800
REMARK  0 active torsions:
REMARK  status: ('A' for Active; 'I' for Inactive)
ROOT
HETATM    1  C1  UNL     1     -37.654  14.436  -5.633  1.00 20.00     0.064 C 
HETATM    2  C2  UNL     1     -35.710  13.546  -6.897  1.00 20.00     0.020 C 
HETATM    3  C3  UNL     1     -34.250  13.941  -6.713  1.00 20.00     0.010 C 
HETATM    4  C4  UNL     1     -35.539  15.742  -5.811  1.00 20.00     0.027 C 
HETATM    5  C5  UNL     1     -36.524  14.786  -6.506  1.00 20.00     0.093 C 
HETATM    6  C6  UNL     1     -34.265  14.923  -5.534  1.00 20.00    -0.046 C 
HETATM    7  C7  UNL     1     -34.359  14.186  -4.189  1.00 20.00     0.015 C 
HETATM    8  C8  UNL     1     -33.017  15.809  -5.530  1.00 20.00     0.015 C 
HETATM    9  N9  UNL     1     -38.547  14.160  -4.945  1.00 20.00    -0.197 NA
ENDROOT
TORSDOF 0
ENDMDL
MODEL 8
REMARK VINA RESULT:      -3.8     11.469     12.265
REMARK  0 active torsions:
REMARK  status: ('A' for Active; 'I' for Inactive)
ROOT
HETATM    1  C1  UNL     1     -34.547  14.052  -5.975  1.00 20.00     0.064 C 
HETATM    2  C2  UNL     1     -36.080  15.112  -4.335  1.00 20.00     0.020 C 
HETATM    3  C3  UNL     1     -35.704  16.139  -3.273  1.00 20.00     0.010 C 
HETATM    4  C4  UNL     1     -33.675  15.010  -3.846  1.00 20.00     0.027 C 
HETATM    5  C5  UNL     1     -34.821  14.260  -4.547  1.00 20.00     0.093 C 
HETATM    6  C6  UNL     1     -34.215  16.414  -3.518  1.00 20.00    -0.046 C 
HETATM    7  C7  UNL     1     -34.007  17.380  -4.696  1.00 20.00     0.015 C 
HETATM    8  C8  UNL     1     -33.543  16.998  -2.273  1.00 20.00     0.015 C 
HETATM    9  N9  UNL     1     -34.330  13.886  -7.104  1.00 20.00    -0.197 NA
ENDROOT
TORSDOF 0
ENDMDL
MODEL 9
REMARK VINA RESULT:      -3.7     11.502     12.685
REMARK  0 active torsions:
REMARK  status: ('A' for Active; 'I' for Inactive)
ROOT
HETATM    1  C1  UNL     1     -37.489  15.016  -4.658  1.00 20.00     0.064 C 
HETATM    2  C2  UNL     1     -35.943  16.806  -5.414  1.00 20.00     0.020 C 
HETATM    3  C3  UNL     1     -34.662  17.253  -4.718  1.00 20.00     0.010 C 
HETATM    4  C4  UNL     1     -35.976  16.164  -3.044  1.00 20.00     0.027 C 
HETATM    5  C5  UNL     1     -36.861  16.294  -4.296  1.00 20.00     0.093 C 
HETATM    6  C6  UNL     1     -34.521  16.297  -3.527  1.00 20.00    -0.046 C 
HETATM    7  C7  UNL     1     -33.951  14.937  -3.961  1.00 20.00     0.015 C 
HETATM    8  C8  UNL     1     -33.620  16.889  -2.440  1.00 20.00     0.015 C 
HETATM    9  N9  UNL     1     -37.986  14.006  -4.944  1.00 20.00    -0.197 NA
ENDROOT
TORSDOF 0
ENDMDL
