MODEL 1
REMARK VINA RESULT:      -4.6      0.000      0.000
REMARK  2 active torsions:
REMARK  status: ('A' for Active; 'I' for Inactive)
REMARK    1  A    between atoms: C6_6  and  C7_7 
REMARK    2  A    between atoms: C6_6  and  N9_9 
ROOT
HETATM    1  C1  UNL     1     -33.902   7.167   5.509  1.00 20.00     0.095 C 
HETATM    2  C2  UNL     1     -33.764   4.141   3.722  1.00 20.00     0.033 C 
HETATM    3  C3  UNL     1     -34.672   4.994   4.597  1.00 20.00     0.053 C 
HETATM    4  C4  UNL     1     -33.339   5.089   2.620  1.00 20.00     0.274 C 
HETATM    5  C5  UNL     1     -34.285   6.446   4.288  1.00 20.00     0.328 C 
HETATM    6  N8  UNL     1     -33.600   7.736   6.474  1.00 20.00    -0.195 NA
HETATM    7  N9  UNL     1     -33.151   6.340   3.356  1.00 20.00     0.108 N 
ENDROOT
BRANCH   7   8
HETATM    8  C6  UNL     1     -33.032   7.486   2.463  1.00 20.00     0.305 C 
BRANCH   8   9
HETATM    9  C7  UNL     1     -31.687   8.165   2.609  1.00 20.00     0.252 C 
HETATM   10  F10 UNL     1     -31.406   8.308   3.932  1.00 20.00    -0.254 F 
ENDBRANCH   8   9
ENDBRANCH   7   8
TORSDOF 2
ENDMDL
MODEL 2
REMARK VINA RESULT:      -3.9     11.874     12.929
REMARK  2 active torsions:
REMARK  status: ('A' for Active; 'I' for Inactive)
REMARK    1  A    between atoms: C6_6  and  C7_7 
REMARK    2  A    between atoms: C6_6  and  N9_9 
ROOT
HETATM    1  C1  UNL     1     -35.683  13.921  -5.285  1.00 20.00     0.095 C 
HETATM    2  C2  UNL     1     -33.524  16.400  -6.536  1.00 20.00     0.033 C 
HETATM    3  C3  UNL     1     -34.888  15.758  -6.749  1.00 20.00     0.053 C 
HETATM    4  C4  UNL     1     -33.552  16.820  -5.081  1.00 20.00     0.274 C 
HETATM    5  C5  UNL     1     -35.369  15.355  -5.349  1.00 20.00     0.328 C 
HETATM    6  N8  UNL     1     -35.931  12.789  -5.235  1.00 20.00    -0.195 NA
HETATM    7  N9  UNL     1     -34.248  15.694  -4.458  1.00 20.00     0.108 N 
ENDROOT
BRANCH   7   8
HETATM    8  C6  UNL     1     -34.670  15.999  -3.096  1.00 20.00     0.305 C 
BRANCH   8   9
HETATM    9  C7  UNL     1     -33.678  16.904  -2.398  1.00 20.00     0.252 C 
HETATM   10  F10 UNL     1     -33.982  16.953  -1.073  1.00 20.00    -0.254 F 
ENDBRANCH   8   9
ENDBRANCH   7   8
TORSDOF 2
ENDMDL
MODEL 3
REMARK VINA RESULT:      -3.8     11.624     12.379
REMARK  2 active torsions:
REMARK  status: ('A' for Active; 'I' for Inactive)
REMARK    1  A    between atoms: C6_6  and  C7_7 
REMARK    2  A    between atoms: C6_6  and  N9_9 
ROOT
HETATM    1  C1  UNL     1     -33.223  14.695  -4.176  1.00 20.00     0.095 C 
HETATM    2  C2  UNL     1     -35.064  16.697  -1.946  1.00 20.00     0.033 C 
HETATM    3  C3  UNL     1     -33.746  16.620  -2.703  1.00 20.00     0.053 C 
HETATM    4  C4  UNL     1     -36.108  16.525  -3.030  1.00 20.00     0.274 C 
HETATM    5  C5  UNL     1     -34.071  15.883  -4.009  1.00 20.00     0.328 C 
HETATM    6  N8  UNL     1     -32.553  13.757  -4.308  1.00 20.00    -0.195 NA
HETATM    7  N9  UNL     1     -35.489  15.510  -3.884  1.00 20.00     0.108 N 
ENDROOT
BRANCH   7   8
HETATM    8  C6  UNL     1     -36.167  15.391  -5.168  1.00 20.00     0.305 C 
BRANCH   8   9
HETATM    9  C7  UNL     1     -36.851  14.048  -5.312  1.00 20.00     0.252 C 
HETATM   10  F10 UNL     1     -35.988  13.070  -4.926  1.00 20.00    -0.254 F 
ENDBRANCH   8   9
ENDBRANCH   7   8
TORSDOF 2
ENDMDL
MODEL 4
REMARK VINA RESULT:      -3.8     12.041     12.943
REMARK  2 active torsions:
REMARK  status: ('A' for Active; 'I' for Inactive)
REMARK    1  A    between atoms: C6_6  and  C7_7 
REMARK    2  A    between atoms: C6_6  and  N9_9 
ROOT
HETATM    1  C1  UNL     1     -35.687  13.923  -4.954  1.00 20.00     0.095 C 
HETATM    2  C2  UNL     1     -34.927  16.294  -2.469  1.00 20.00     0.033 C 
HETATM    3  C3  UNL     1     -34.351  15.582  -3.685  1.00 20.00     0.053 C 
HETATM    4  C4  UNL     1     -36.216  16.896  -2.988  1.00 20.00     0.274 C 
HETATM    5  C5  UNL     1     -35.543  15.347  -4.621  1.00 20.00     0.328 C 
HETATM    6  N8  UNL     1     -35.800  12.799  -5.218  1.00 20.00    -0.195 NA
HETATM    7  N9  UNL     1     -36.710  15.837  -3.869  1.00 20.00     0.108 N 
ENDROOT
BRANCH   7   8
HETATM    8  C6  UNL     1     -37.793  16.301  -4.727  1.00 20.00     0.305 C 
BRANCH   8   9
HETATM    9  C7  UNL     1     -39.051  15.484  -4.522  1.00 20.00     0.252 C 
HETATM   10  F10 UNL     1     -38.938  14.319  -5.216  1.00 20.00    -0.254 F 
ENDBRANCH   8   9
ENDBRANCH   7   8
TORSDOF 2
ENDMDL
MODEL 5
REMARK VINA RESULT:      -3.8      2.137      4.113
REMARK  2 active torsions:
REMARK  status: ('A' for Active; 'I' for Inactive)
REMARK    1  A    between atoms: C6_6  and  C7_7 
REMARK    2  A    between atoms: C6_6  and  N9_9 
ROOT
HETATM    1  C1  UNL     1     -33.110   5.328   2.567  1.00 20.00     0.095 C 
HETATM    2  C2  UNL     1     -31.672   8.286   3.815  1.00 20.00     0.033 C 
HETATM    3  C3  UNL     1     -32.263   7.659   2.560  1.00 20.00     0.053 C 
HETATM    4  C4  UNL     1     -32.756   8.090   4.854  1.00 20.00     0.274 C 
HETATM    5  C5  UNL     1     -33.344   6.692   3.060  1.00 20.00     0.328 C 
HETATM    6  N8  UNL     1     -32.925   4.252   2.177  1.00 20.00    -0.195 NA
HETATM    7  N9  UNL     1     -33.247   6.751   4.527  1.00 20.00     0.108 N 
ENDROOT
BRANCH   7   8
HETATM    8  C6  UNL     1     -34.506   6.452   5.198  1.00 20.00     0.305 C 
BRANCH   8   9
HETATM    9  C7  UNL     1     -34.489   5.072   5.819  1.00 20.00     0.252 C 
HETATM   10  F10 UNL     1     -34.864   4.161   4.881  1.00 20.00    -0.254 F 
ENDBRANCH   8   9
ENDBRANCH   7   8
TORSDOF 2
ENDMDL
MODEL 6
REMARK VINA RESULT:      -3.8     11.649     12.756
REMARK  2 active torsions:
REMARK  status: ('A' for Active; 'I' for Inactive)
REMARK    1  A    between atoms: C6_6  and  C7_7 
REMARK    2  A    between atoms: C6_6  and  N9_9 
ROOT
HETATM    1  C1  UNL     1     -37.518  14.459  -5.390  1.00 20.00     0.095 C 
HETATM    2  C2  UNL     1     -35.137  13.855  -7.908  1.00 20.00     0.033 C 
HETATM    3  C3  UNL     1     -36.271  14.788  -7.508  1.00 20.00     0.053 C 
HETATM    4  C4  UNL     1     -34.213  13.884  -6.708  1.00 20.00     0.274 C 
HETATM    5  C5  UNL     1     -36.228  14.847  -5.976  1.00 20.00     0.328 C 
HETATM    6  N8  UNL     1     -38.537  14.153  -4.928  1.00 20.00    -0.195 NA
HETATM    7  N9  UNL     1     -35.166  13.901  -5.597  1.00 20.00     0.108 N 
ENDROOT
BRANCH   7   8
HETATM    8  C6  UNL     1     -34.523  14.236  -4.332  1.00 20.00     0.305 C 
BRANCH   8   9
HETATM    9  C7  UNL     1     -33.096  14.695  -4.540  1.00 20.00     0.252 C 
HETATM   10  F10 UNL     1     -32.251  13.741  -4.063  1.00 20.00    -0.254 F 
ENDBRANCH   8   9
ENDBRANCH   7   8
TORSDOF 2
ENDMDL
MODEL 7
REMARK VINA RESULT:      -3.7      1.928      3.232
REMARK  2 active torsions:
REMARK  status: ('A' for Active; 'I' for Inactive)
REMARK    1  A    between atoms: C6_6  and  C7_7 
REMARK    2  A    between atoms: C6_6  and  N9_9 
ROOT
HETATM    1  C1  UNL     1     -33.306   7.377   5.192  1.00 20.00     0.095 C 
HETATM    2  C2  UNL     1     -31.898   8.899   2.350  1.00 20.00     0.033 C 
HETATM    3  C3  UNL     1     -31.550   8.306   3.708  1.00 20.00     0.053 C 
HETATM    4  C4  UNL     1     -32.676   7.792   1.669  1.00 20.00     0.274 C 
HETATM    5  C5  UNL     1     -32.570   7.184   3.936  1.00 20.00     0.328 C 
HETATM    6  N8  UNL     1     -33.886   7.530   6.185  1.00 20.00    -0.195 NA
HETATM    7  N9  UNL     1     -33.472   7.260   2.775  1.00 20.00     0.108 N 
ENDROOT
BRANCH   7   8
HETATM    8  C6  UNL     1     -34.086   5.981   2.440  1.00 20.00     0.305 C 
BRANCH   8   9
HETATM    9  C7  UNL     1     -33.186   4.820   2.810  1.00 20.00     0.252 C 
HETATM   10  F10 UNL     1     -33.809   4.062   3.752  1.00 20.00    -0.254 F 
ENDBRANCH   8   9
ENDBRANCH   7   8
TORSDOF 2
ENDMDL
MODEL 8
REMARK VINA RESULT:      -3.7     11.801     12.326
REMARK  2 active torsions:
REMARK  status: ('A' for Active; 'I' for Inactive)
REMARK    1  A    between atoms: C6_6  and  C7_7 
REMARK    2  A    between atoms: C6_6  and  N9_9 
ROOT
HETATM    1  C1  UNL     1     -36.881  14.563  -4.932  1.00 20.00     0.095 C 
HETATM    2  C2  UNL     1     -33.377  14.512  -4.635  1.00 20.00     0.033 C 
HETATM    3  C3  UNL     1     -34.508  14.635  -5.646  1.00 20.00     0.053 C 
HETATM    4  C4  UNL     1     -33.686  15.594  -3.621  1.00 20.00     0.274 C 
HETATM    5  C5  UNL     1     -35.642  15.351  -4.901  1.00 20.00     0.328 C 
HETATM    6  N8  UNL     1     -37.859  13.940  -4.956  1.00 20.00    -0.195 NA
HETATM    7  N9  UNL     1     -35.144  15.506  -3.525  1.00 20.00     0.108 N 
ENDROOT
BRANCH   7   8
HETATM    8  C6  UNL     1     -35.716  16.655  -2.833  1.00 20.00     0.305 C 
BRANCH   8   9
HETATM    9  C7  UNL     1     -34.868  17.068  -1.649  1.00 20.00     0.252 C 
HETATM   10  F10 UNL     1     -35.502  16.700  -0.503  1.00 20.00    -0.254 F 
ENDBRANCH   8   9
ENDBRANCH   7   8
TORSDOF 2
ENDMDL
MODEL 9
REMARK VINA RESULT:      -3.6      1.991      2.923
REMARK  2 active torsions:
REMARK  status: ('A' for Active; 'I' for Inactive)
REMARK    1  A    between atoms: C6_6  and  C7_7 
REMARK    2  A    between atoms: C6_6  and  N9_9 
ROOT
HETATM    1  C1  UNL     1     -32.302   7.850   3.868  1.00 20.00     0.095 C 
HETATM    2  C2  UNL     1     -34.282   6.061   6.159  1.00 20.00     0.033 C 
HETATM    3  C3  UNL     1     -33.912   7.469   5.715  1.00 20.00     0.053 C 
HETATM    4  C4  UNL     1     -34.735   5.391   4.879  1.00 20.00     0.274 C 
HETATM    5  C5  UNL     1     -33.645   7.362   4.208  1.00 20.00     0.328 C 
HETATM    6  N8  UNL     1     -31.242   8.235   3.599  1.00 20.00    -0.195 NA
HETATM    7  N9  UNL     1     -33.782   5.927   3.907  1.00 20.00     0.108 N 
ENDROOT
BRANCH   7   8
HETATM    8  C6  UNL     1     -34.197   5.666   2.534  1.00 20.00     0.305 C 
BRANCH   8   9
HETATM    9  C7  UNL     1     -33.330   4.609   1.884  1.00 20.00     0.252 C 
HETATM   10  F10 UNL     1     -32.272   4.345   2.697  1.00 20.00    -0.254 F 
ENDBRANCH   8   9
ENDBRANCH   7   8
TORSDOF 2
ENDMDL
