MODEL 1
REMARK VINA RESULT:      -4.1      0.000      0.000
REMARK  3 active torsions:
REMARK  status: ('A' for Active; 'I' for Inactive)
REMARK    1  A    between atoms: C2_2  and  C8_8 
REMARK    2  A    between atoms: C6_6  and  C8_8 
REMARK    3  A    between atoms: C8_8  and  N9_9 
ROOT
HETATM    1  C8  UNL     1     -32.948   6.638   3.118  1.00 20.00     0.255 C 
ENDROOT
BRANCH   1   2
HETATM    2  C2  UNL     1     -33.219   5.491   2.185  1.00 20.00    -0.001 C 
HETATM    3  C1  UNL     1     -32.660   4.281   2.307  1.00 20.00     0.009 C 
ENDBRANCH   1   2
BRANCH   1   4
HETATM    4  C6  UNL     1     -34.182   6.995   3.939  1.00 20.00     0.084 C 
HETATM    5  C4  UNL     1     -35.256   5.911   3.902  1.00 20.00     0.018 C 
HETATM    6  C3  UNL     1     -34.891   4.869   4.951  1.00 20.00     0.011 C 
HETATM    7  C5  UNL     1     -34.594   5.629   6.230  1.00 20.00     0.074 C 
HETATM    8  S10 UNL     1     -33.736   7.138   5.701  1.00 20.00    -0.162 SA
ENDBRANCH   1   4
BRANCH   1   9
HETATM    9  N9  UNL     1     -32.513   7.761   2.323  1.00 20.00     0.088 N 
HETATM   10  C7  UNL     1     -31.456   8.514   2.994  1.00 20.00     0.307 C 
HETATM   11  H25 UNL     1     -33.302   8.390   2.147  1.00 20.00     0.316 HD
ENDBRANCH   1   9
TORSDOF 3
ENDMDL
MODEL 2
REMARK VINA RESULT:      -3.9     11.906     13.103
REMARK  3 active torsions:
REMARK  status: ('A' for Active; 'I' for Inactive)
REMARK    1  A    between atoms: C2_2  and  C8_8 
REMARK    2  A    between atoms: C6_6  and  C8_8 
REMARK    3  A    between atoms: C8_8  and  N9_9 
ROOT
HETATM    1  C8  UNL     1     -33.945  16.599  -4.285  1.00 20.00     0.255 C 
ENDROOT
BRANCH   1   2
HETATM    2  C2  UNL     1     -33.662  16.710  -2.812  1.00 20.00    -0.001 C 
HETATM    3  C1  UNL     1     -34.605  16.900  -1.882  1.00 20.00     0.009 C 
ENDBRANCH   1   2
BRANCH   1   4
HETATM    4  C6  UNL     1     -33.526  15.240  -4.834  1.00 20.00     0.084 C 
HETATM    5  C4  UNL     1     -34.249  14.076  -4.159  1.00 20.00     0.018 C 
HETATM    6  C3  UNL     1     -35.596  13.912  -4.850  1.00 20.00     0.011 C 
HETATM    7  C5  UNL     1     -35.319  13.898  -6.341  1.00 20.00     0.074 C 
HETATM    8  S10 UNL     1     -33.992  15.111  -6.592  1.00 20.00    -0.162 SA
ENDBRANCH   1   4
BRANCH   1   9
HETATM    9  N9  UNL     1     -33.240  17.667  -4.952  1.00 20.00     0.088 N 
HETATM   10  C7  UNL     1     -34.126  18.793  -5.240  1.00 20.00     0.307 C 
HETATM   11  H25 UNL     1     -32.847  17.326  -5.833  1.00 20.00     0.316 HD
ENDBRANCH   1   9
TORSDOF 3
ENDMDL
MODEL 3
REMARK VINA RESULT:      -3.9     12.187     13.061
REMARK  3 active torsions:
REMARK  status: ('A' for Active; 'I' for Inactive)
REMARK    1  A    between atoms: C2_2  and  C8_8 
REMARK    2  A    between atoms: C6_6  and  C8_8 
REMARK    3  A    between atoms: C8_8  and  N9_9 
ROOT
HETATM    1  C8  UNL     1     -35.010  15.995  -3.078  1.00 20.00     0.255 C 
ENDROOT
BRANCH   1   2
HETATM    2  C2  UNL     1     -34.959  16.698  -1.750  1.00 20.00    -0.001 C 
HETATM    3  C1  UNL     1     -33.911  17.411  -1.322  1.00 20.00     0.009 C 
ENDBRANCH   1   2
BRANCH   1   4
HETATM    4  C6  UNL     1     -33.651  16.001  -3.768  1.00 20.00     0.084 C 
HETATM    5  C4  UNL     1     -33.259  14.635  -4.326  1.00 20.00     0.018 C 
HETATM    6  C3  UNL     1     -33.922  14.490  -5.689  1.00 20.00     0.011 C 
HETATM    7  C5  UNL     1     -33.616  15.763  -6.457  1.00 20.00     0.074 C 
HETATM    8  S10 UNL     1     -33.701  17.095  -5.227  1.00 20.00    -0.162 SA
ENDBRANCH   1   4
BRANCH   1   9
HETATM    9  N9  UNL     1     -36.006  16.654  -3.889  1.00 20.00     0.088 N 
HETATM   10  C7  UNL     1     -37.145  15.778  -4.153  1.00 20.00     0.307 C 
HETATM   11  H25 UNL     1     -35.594  16.935  -4.784  1.00 20.00     0.316 HD
ENDBRANCH   1   9
TORSDOF 3
ENDMDL
MODEL 4
REMARK VINA RESULT:      -3.8     12.124     12.674
REMARK  3 active torsions:
REMARK  status: ('A' for Active; 'I' for Inactive)
REMARK    1  A    between atoms: C2_2  and  C8_8 
REMARK    2  A    between atoms: C6_6  and  C8_8 
REMARK    3  A    between atoms: C8_8  and  N9_9 
ROOT
HETATM    1  C8  UNL     1     -34.927  14.325  -4.785  1.00 20.00     0.255 C 
ENDROOT
BRANCH   1   2
HETATM    2  C2  UNL     1     -36.139  13.569  -5.253  1.00 20.00    -0.001 C 
HETATM    3  C1  UNL     1     -37.361  14.104  -5.356  1.00 20.00     0.009 C 
ENDBRANCH   1   2
BRANCH   1   4
HETATM    4  C6  UNL     1     -35.200  15.822  -4.698  1.00 20.00     0.084 C 
HETATM    5  C4  UNL     1     -35.705  16.257  -3.324  1.00 20.00     0.018 C 
HETATM    6  C3  UNL     1     -34.488  16.453  -2.430  1.00 20.00     0.011 C 
HETATM    7  C5  UNL     1     -33.512  17.313  -3.211  1.00 20.00     0.074 C 
HETATM    8  S10 UNL     1     -33.648  16.751  -4.931  1.00 20.00    -0.162 SA
ENDBRANCH   1   4
BRANCH   1   9
HETATM    9  N9  UNL     1     -33.850  14.047  -5.706  1.00 20.00     0.088 N 
HETATM   10  C7  UNL     1     -34.358  13.627  -7.010  1.00 20.00     0.307 C 
HETATM   11  H25 UNL     1     -33.256  13.303  -5.330  1.00 20.00     0.316 HD
ENDBRANCH   1   9
TORSDOF 3
ENDMDL
MODEL 5
REMARK VINA RESULT:      -3.8     11.950     12.791
REMARK  3 active torsions:
REMARK  status: ('A' for Active; 'I' for Inactive)
REMARK    1  A    between atoms: C2_2  and  C8_8 
REMARK    2  A    between atoms: C6_6  and  C8_8 
REMARK    3  A    between atoms: C8_8  and  N9_9 
ROOT
HETATM    1  C8  UNL     1     -34.846  16.593  -2.039  1.00 20.00     0.255 C 
ENDROOT
BRANCH   1   2
HETATM    2  C2  UNL     1     -34.083  17.536  -1.150  1.00 20.00    -0.001 C 
HETATM    3  C1  UNL     1     -32.844  17.968  -1.407  1.00 20.00     0.009 C 
ENDBRANCH   1   2
BRANCH   1   4
HETATM    4  C6  UNL     1     -34.311  16.614  -3.465  1.00 20.00     0.084 C 
HETATM    5  C4  UNL     1     -33.605  15.317  -3.856  1.00 20.00     0.018 C 
HETATM    6  C3  UNL     1     -34.675  14.328  -4.298  1.00 20.00     0.011 C 
HETATM    7  C5  UNL     1     -35.560  15.062  -5.287  1.00 20.00     0.074 C 
HETATM    8  S10 UNL     1     -35.695  16.754  -4.645  1.00 20.00    -0.162 SA
ENDBRANCH   1   4
BRANCH   1   9
HETATM    9  N9  UNL     1     -36.237  16.978  -2.001  1.00 20.00     0.088 N 
HETATM   10  C7  UNL     1     -36.477  18.016  -1.001  1.00 20.00     0.307 C 
HETATM   11  H25 UNL     1     -36.816  16.165  -1.774  1.00 20.00     0.316 HD
ENDBRANCH   1   9
TORSDOF 3
ENDMDL
MODEL 6
REMARK VINA RESULT:      -3.8     11.811     13.073
REMARK  3 active torsions:
REMARK  status: ('A' for Active; 'I' for Inactive)
REMARK    1  A    between atoms: C2_2  and  C8_8 
REMARK    2  A    between atoms: C6_6  and  C8_8 
REMARK    3  A    between atoms: C8_8  and  N9_9 
ROOT
HETATM    1  C8  UNL     1     -35.912  14.556  -6.357  1.00 20.00     0.255 C 
ENDROOT
BRANCH   1   2
HETATM    2  C2  UNL     1     -34.895  13.662  -7.009  1.00 20.00    -0.001 C 
HETATM    3  C1  UNL     1     -34.002  14.081  -7.913  1.00 20.00     0.009 C 
ENDBRANCH   1   2
BRANCH   1   4
HETATM    4  C6  UNL     1     -36.028  14.276  -4.863  1.00 20.00     0.084 C 
HETATM    5  C4  UNL     1     -34.672  14.092  -4.185  1.00 20.00     0.018 C 
HETATM    6  C3  UNL     1     -34.132  15.478  -3.858  1.00 20.00     0.011 C 
HETATM    7  C5  UNL     1     -35.255  16.228  -3.166  1.00 20.00     0.074 C 
HETATM    8  S10 UNL     1     -36.771  15.712  -4.018  1.00 20.00    -0.162 SA
ENDBRANCH   1   4
BRANCH   1   9
HETATM    9  N9  UNL     1     -37.176  14.346  -7.022  1.00 20.00     0.088 N 
HETATM   10  C7  UNL     1     -37.533  15.486  -7.864  1.00 20.00     0.307 C 
HETATM   11  H25 UNL     1     -37.916  14.208  -6.328  1.00 20.00     0.316 HD
ENDBRANCH   1   9
TORSDOF 3
ENDMDL
MODEL 7
REMARK VINA RESULT:      -3.7     11.726     12.425
REMARK  3 active torsions:
REMARK  status: ('A' for Active; 'I' for Inactive)
REMARK    1  A    between atoms: C2_2  and  C8_8 
REMARK    2  A    between atoms: C6_6  and  C8_8 
REMARK    3  A    between atoms: C8_8  and  N9_9 
ROOT
HETATM    1  C8  UNL     1     -34.598  14.552  -4.164  1.00 20.00     0.255 C 
ENDROOT
BRANCH   1   2
HETATM    2  C2  UNL     1     -35.578  13.655  -4.868  1.00 20.00    -0.001 C 
HETATM    3  C1  UNL     1     -36.785  14.050  -5.288  1.00 20.00     0.009 C 
ENDBRANCH   1   2
BRANCH   1   4
HETATM    4  C6  UNL     1     -35.168  15.950  -3.956  1.00 20.00     0.084 C 
HETATM    5  C4  UNL     1     -35.130  16.398  -2.496  1.00 20.00     0.018 C 
HETATM    6  C3  UNL     1     -33.738  16.952  -2.223  1.00 20.00     0.011 C 
HETATM    7  C5  UNL     1     -33.434  17.926  -3.346  1.00 20.00     0.074 C 
HETATM    8  S10 UNL     1     -34.145  17.175  -4.837  1.00 20.00    -0.162 SA
ENDBRANCH   1   4
BRANCH   1   9
HETATM    9  N9  UNL     1     -33.392  14.597  -4.956  1.00 20.00     0.088 N 
HETATM   10  C7  UNL     1     -32.254  14.040  -4.229  1.00 20.00     0.307 C 
HETATM   11  H25 UNL     1     -33.177  15.567  -5.206  1.00 20.00     0.316 HD
ENDBRANCH   1   9
TORSDOF 3
ENDMDL
MODEL 8
REMARK VINA RESULT:      -3.7      0.967      2.283
REMARK  3 active torsions:
REMARK  status: ('A' for Active; 'I' for Inactive)
REMARK    1  A    between atoms: C2_2  and  C8_8 
REMARK    2  A    between atoms: C6_6  and  C8_8 
REMARK    3  A    between atoms: C8_8  and  N9_9 
ROOT
HETATM    1  C8  UNL     1     -33.242   6.722   2.781  1.00 20.00     0.255 C 
ENDROOT
BRANCH   1   2
HETATM    2  C2  UNL     1     -32.186   7.792   2.774  1.00 20.00    -0.001 C 
HETATM    3  C1  UNL     1     -32.026   8.677   1.784  1.00 20.00     0.009 C 
ENDBRANCH   1   2
BRANCH   1   4
HETATM    4  C6  UNL     1     -34.351   7.035   3.778  1.00 20.00     0.084 C 
HETATM    5  C4  UNL     1     -35.419   5.946   3.844  1.00 20.00     0.018 C 
HETATM    6  C3  UNL     1     -34.911   4.864   4.788  1.00 20.00     0.011 C 
HETATM    7  C5  UNL     1     -34.441   5.572   6.044  1.00 20.00     0.074 C 
HETATM    8  S10 UNL     1     -33.665   7.107   5.467  1.00 20.00    -0.162 SA
ENDBRANCH   1   4
BRANCH   1   9
HETATM    9  N9  UNL     1     -32.599   5.469   3.099  1.00 20.00     0.088 N 
HETATM   10  C7  UNL     1     -32.824   4.472   2.055  1.00 20.00     0.307 C 
HETATM   11  H25 UNL     1     -32.965   5.105   3.983  1.00 20.00     0.316 HD
ENDBRANCH   1   9
TORSDOF 3
ENDMDL
MODEL 9
REMARK VINA RESULT:      -3.6     12.174     12.762
REMARK  3 active torsions:
REMARK  status: ('A' for Active; 'I' for Inactive)
REMARK    1  A    between atoms: C2_2  and  C8_8 
REMARK    2  A    between atoms: C6_6  and  C8_8 
REMARK    3  A    between atoms: C8_8  and  N9_9 
ROOT
HETATM    1  C8  UNL     1     -33.135  18.293   2.210  1.00 20.00     0.255 C 
ENDROOT
BRANCH   1   2
HETATM    2  C2  UNL     1     -31.927  19.139   2.501  1.00 20.00    -0.001 C 
HETATM    3  C1  UNL     1     -30.731  18.955   1.931  1.00 20.00     0.009 C 
ENDBRANCH   1   2
BRANCH   1   4
HETATM    4  C6  UNL     1     -34.108  19.008   1.280  1.00 20.00     0.084 C 
HETATM    5  C4  UNL     1     -33.683  18.949  -0.186  1.00 20.00     0.018 C 
HETATM    6  C3  UNL     1     -34.163  17.618  -0.748  1.00 20.00     0.011 C 
HETATM    7  C5  UNL     1     -35.621  17.482  -0.353  1.00 20.00     0.074 C 
HETATM    8  S10 UNL     1     -35.730  18.176   1.320  1.00 20.00    -0.162 SA
ENDBRANCH   1   4
BRANCH   1   9
HETATM    9  N9  UNL     1     -33.764  17.973   3.469  1.00 20.00     0.088 N 
HETATM   10  C7  UNL     1     -33.249  18.808   4.551  1.00 20.00     0.307 C 
HETATM   11  H25 UNL     1     -33.591  16.991   3.704  1.00 20.00     0.316 HD
ENDBRANCH   1   9
TORSDOF 3
ENDMDL
