MODEL 1
REMARK VINA RESULT:      -5.5      0.000      0.000
REMARK  0 active torsions:
REMARK  status: ('A' for Active; 'I' for Inactive)
ROOT
HETATM    1  C1  UNL     1     -32.615   8.139   2.256  1.00 20.00     0.064 C 
HETATM    2  C2  UNL     1     -33.109   7.788   4.665  1.00 20.00     0.020 C 
HETATM    3  C3  UNL     1     -33.821   6.588   5.281  1.00 20.00     0.010 C 
HETATM    4  C4  UNL     1     -32.998   5.847   3.162  1.00 20.00     0.027 C 
HETATM    5  C5  UNL     1     -32.412   7.249   3.409  1.00 20.00     0.093 C 
HETATM    6  C6  UNL     1     -34.228   5.726   4.079  1.00 20.00    -0.046 C 
HETATM    7  C7  UNL     1     -34.479   4.274   4.495  1.00 20.00     0.015 C 
HETATM    8  C8  UNL     1     -35.491   6.275   3.395  1.00 20.00     0.015 C 
HETATM    9  N9  UNL     1     -32.776   8.841   1.347  1.00 20.00    -0.197 NA
ENDROOT
TORSDOF 0
ENDMDL
MODEL 2
REMARK VINA RESULT:      -4.1     11.305     12.235
REMARK  0 active torsions:
REMARK  status: ('A' for Active; 'I' for Inactive)
ROOT
HETATM    1  C1  UNL     1     -35.192  13.814  -5.203  1.00 20.00     0.064 C 
HETATM    2  C2  UNL     1     -34.815  16.235  -5.614  1.00 20.00     0.020 C 
HETATM    3  C3  UNL     1     -34.369  17.271  -4.588  1.00 20.00     0.010 C 
HETATM    4  C4  UNL     1     -33.710  15.149  -3.707  1.00 20.00     0.027 C 
HETATM    5  C5  UNL     1     -34.210  14.906  -5.142  1.00 20.00     0.093 C 
HETATM    6  C6  UNL     1     -34.304  16.498  -3.266  1.00 20.00    -0.046 C 
HETATM    7  C7  UNL     1     -33.402  17.205  -2.250  1.00 20.00     0.015 C 
HETATM    8  C8  UNL     1     -35.701  16.317  -2.651  1.00 20.00     0.015 C 
HETATM    9  N9  UNL     1     -35.968  12.953  -5.250  1.00 20.00    -0.197 NA
ENDROOT
TORSDOF 0
ENDMDL
MODEL 3
REMARK VINA RESULT:      -4.1      2.210      4.120
REMARK  0 active torsions:
REMARK  status: ('A' for Active; 'I' for Inactive)
ROOT
HETATM    1  C1  UNL     1     -33.028   5.935   2.844  1.00 20.00     0.064 C 
HETATM    2  C2  UNL     1     -31.756   7.897   3.683  1.00 20.00     0.020 C 
HETATM    3  C3  UNL     1     -31.595   9.242   2.982  1.00 20.00     0.010 C 
HETATM    4  C4  UNL     1     -33.545   8.236   2.033  1.00 20.00     0.027 C 
HETATM    5  C5  UNL     1     -33.114   7.354   3.219  1.00 20.00     0.093 C 
HETATM    6  C6  UNL     1     -32.308   9.060   1.637  1.00 20.00    -0.046 C 
HETATM    7  C7  UNL     1     -32.702  10.409   1.028  1.00 20.00     0.015 C 
HETATM    8  C8  UNL     1     -31.428   8.298   0.632  1.00 20.00     0.015 C 
HETATM    9  N9  UNL     1     -32.960   4.816   2.549  1.00 20.00    -0.197 NA
ENDROOT
TORSDOF 0
ENDMDL
MODEL 4
REMARK VINA RESULT:      -3.9     11.316     13.019
REMARK  0 active torsions:
REMARK  status: ('A' for Active; 'I' for Inactive)
ROOT
HETATM    1  C1  UNL     1     -35.725  13.849  -4.865  1.00 20.00     0.064 C 
HETATM    2  C2  UNL     1     -34.121  15.333  -3.683  1.00 20.00     0.020 C 
HETATM    3  C3  UNL     1     -33.582  16.669  -4.183  1.00 20.00     0.010 C 
HETATM    4  C4  UNL     1     -35.608  16.284  -5.392  1.00 20.00     0.027 C 
HETATM    5  C5  UNL     1     -35.515  15.194  -4.309  1.00 20.00     0.093 C 
HETATM    6  C6  UNL     1     -34.180  16.822  -5.587  1.00 20.00    -0.046 C 
HETATM    7  C7  UNL     1     -34.187  18.287  -6.034  1.00 20.00     0.015 C 
HETATM    8  C8  UNL     1     -33.406  15.989  -6.621  1.00 20.00     0.015 C 
HETATM    9  N9  UNL     1     -35.890  12.788  -5.303  1.00 20.00    -0.197 NA
ENDROOT
TORSDOF 0
ENDMDL
MODEL 5
REMARK VINA RESULT:      -3.9     11.137     12.664
REMARK  0 active torsions:
REMARK  status: ('A' for Active; 'I' for Inactive)
ROOT
HETATM    1  C1  UNL     1     -35.232  13.705  -4.725  1.00 20.00     0.064 C 
HETATM    2  C2  UNL     1     -33.374  15.324  -5.038  1.00 20.00     0.020 C 
HETATM    3  C3  UNL     1     -33.423  16.824  -4.769  1.00 20.00     0.010 C 
HETATM    4  C4  UNL     1     -35.202  15.870  -3.488  1.00 20.00     0.027 C 
HETATM    5  C5  UNL     1     -34.379  14.701  -4.060  1.00 20.00     0.093 C 
HETATM    6  C6  UNL     1     -34.877  17.094  -4.362  1.00 20.00    -0.046 C 
HETATM    7  C7  UNL     1     -35.001  18.399  -3.571  1.00 20.00     0.015 C 
HETATM    8  C8  UNL     1     -35.801  17.164  -5.589  1.00 20.00     0.015 C 
HETATM    9  N9  UNL     1     -35.905  12.919  -5.250  1.00 20.00    -0.197 NA
ENDROOT
TORSDOF 0
ENDMDL
MODEL 6
REMARK VINA RESULT:      -3.9      2.251      3.671
REMARK  0 active torsions:
REMARK  status: ('A' for Active; 'I' for Inactive)
ROOT
HETATM    1  C1  UNL     1     -34.512   4.744   4.483  1.00 20.00     0.064 C 
HETATM    2  C2  UNL     1     -33.587   6.852   5.415  1.00 20.00     0.020 C 
HETATM    3  C3  UNL     1     -33.016   8.023   4.621  1.00 20.00     0.010 C 
HETATM    4  C4  UNL     1     -34.416   6.818   3.102  1.00 20.00     0.027 C 
HETATM    5  C5  UNL     1     -34.636   6.209   4.498  1.00 20.00     0.093 C 
HETATM    6  C6  UNL     1     -33.066   7.556   3.161  1.00 20.00    -0.046 C 
HETATM    7  C7  UNL     1     -33.032   8.743   2.194  1.00 20.00     0.015 C 
HETATM    8  C8  UNL     1     -31.899   6.610   2.832  1.00 20.00     0.015 C 
HETATM    9  N9  UNL     1     -34.415   3.588   4.471  1.00 20.00    -0.197 NA
ENDROOT
TORSDOF 0
ENDMDL
MODEL 7
REMARK VINA RESULT:      -3.9     11.589     12.720
REMARK  0 active torsions:
REMARK  status: ('A' for Active; 'I' for Inactive)
ROOT
HETATM    1  C1  UNL     1     -37.420  13.932  -5.155  1.00 20.00     0.064 C 
HETATM    2  C2  UNL     1     -35.618  13.548  -6.821  1.00 20.00     0.020 C 
HETATM    3  C3  UNL     1     -34.237  14.195  -6.831  1.00 20.00     0.010 C 
HETATM    4  C4  UNL     1     -35.034  14.380  -4.584  1.00 20.00     0.027 C 
HETATM    5  C5  UNL     1     -36.031  13.488  -5.345  1.00 20.00     0.093 C 
HETATM    6  C6  UNL     1     -34.266  15.177  -5.653  1.00 20.00    -0.046 C 
HETATM    7  C7  UNL     1     -32.850  15.527  -5.185  1.00 20.00     0.015 C 
HETATM    8  C8  UNL     1     -35.005  16.474  -6.020  1.00 20.00     0.015 C 
HETATM    9  N9  UNL     1     -38.515  14.284  -5.005  1.00 20.00    -0.197 NA
ENDROOT
TORSDOF 0
ENDMDL
MODEL 8
REMARK VINA RESULT:      -3.8     11.567     12.454
REMARK  0 active torsions:
REMARK  status: ('A' for Active; 'I' for Inactive)
ROOT
HETATM    1  C1  UNL     1     -32.251  18.409  -0.818  1.00 20.00     0.064 C 
HETATM    2  C2  UNL     1     -33.880  16.873  -1.894  1.00 20.00     0.020 C 
HETATM    3  C3  UNL     1     -35.398  16.916  -1.754  1.00 20.00     0.010 C 
HETATM    4  C4  UNL     1     -34.621  19.100  -1.166  1.00 20.00     0.027 C 
HETATM    5  C5  UNL     1     -33.412  18.323  -1.716  1.00 20.00     0.093 C 
HETATM    6  C6  UNL     1     -35.658  18.043  -0.746  1.00 20.00    -0.046 C 
HETATM    7  C7  UNL     1     -37.087  18.579  -0.864  1.00 20.00     0.015 C 
HETATM    8  C8  UNL     1     -35.419  17.571   0.698  1.00 20.00     0.015 C 
HETATM    9  N9  UNL     1     -31.336  18.475  -0.109  1.00 20.00    -0.197 NA
ENDROOT
TORSDOF 0
ENDMDL
MODEL 9
REMARK VINA RESULT:      -3.8     11.637     12.319
REMARK  0 active torsions:
REMARK  status: ('A' for Active; 'I' for Inactive)
ROOT
HETATM    1  C1  UNL     1     -33.930  17.185  -3.797  1.00 20.00     0.064 C 
HETATM    2  C2  UNL     1     -32.915  17.927  -1.655  1.00 20.00     0.020 C 
HETATM    3  C3  UNL     1     -33.641  18.139  -0.331  1.00 20.00     0.010 C 
HETATM    4  C4  UNL     1     -35.033  16.682  -1.618  1.00 20.00     0.027 C 
HETATM    5  C5  UNL     1     -33.708  16.836  -2.386  1.00 20.00     0.093 C 
HETATM    6  C6  UNL     1     -35.117  17.882  -0.659  1.00 20.00    -0.046 C 
HETATM    7  C7  UNL     1     -35.917  17.540   0.601  1.00 20.00     0.015 C 
HETATM    8  C8  UNL     1     -35.762  19.099  -1.343  1.00 20.00     0.015 C 
HETATM    9  N9  UNL     1     -34.105  17.462  -4.910  1.00 20.00    -0.197 NA
ENDROOT
TORSDOF 0
ENDMDL
