MODEL 1
REMARK VINA RESULT:      -5.9      0.000      0.000
REMARK  2 active torsions:
REMARK  status: ('A' for Active; 'I' for Inactive)
REMARK    1  A    between atoms: C4_4  and  C10_10 
REMARK    2  A    between atoms: C10_10  and  C11_11 
ROOT
HETATM    1  C1  UNL     1     -31.561   8.088   3.650  1.00 20.00     0.007 C 
HETATM    2  C2  UNL     1     -31.357   9.256   2.688  1.00 20.00     0.009 C 
HETATM    3  C3  UNL     1     -32.957   7.626   1.783  1.00 20.00     0.015 C 
HETATM    4  C4  UNL     1     -32.958   7.581   3.310  1.00 20.00     0.005 C 
HETATM    5  C5  UNL     1     -32.195   8.924   1.430  1.00 20.00    -0.047 C 
HETATM    6  C6  UNL     1     -31.295   8.706   0.208  1.00 20.00     0.015 C 
HETATM    7  C7  UNL     1     -33.181  10.065   1.130  1.00 20.00     0.015 C 
ENDROOT
BRANCH   4   8
HETATM    8  C10 UNL     1     -33.242   6.198   3.867  1.00 20.00     0.089 C 
HETATM    9 CL12 UNL     1     -33.611   5.086   2.510  1.00 20.00    -0.124 Cl
BRANCH   8  10
HETATM   10  C11 UNL     1     -34.350   6.191   4.952  1.00 20.00    -0.004 C 
HETATM   11  C8  UNL     1     -34.682   4.797   5.497  1.00 20.00     0.011 C 
HETATM   12  C9  UNL     1     -34.021   7.136   6.113  1.00 20.00     0.011 C 
ENDBRANCH   8  10
ENDBRANCH   4   8
TORSDOF 2
ENDMDL
MODEL 2
REMARK VINA RESULT:      -5.7      1.749      4.956
REMARK  2 active torsions:
REMARK  status: ('A' for Active; 'I' for Inactive)
REMARK    1  A    between atoms: C4_4  and  C10_10 
REMARK    2  A    between atoms: C10_10  and  C11_11 
ROOT
HETATM    1  C1  UNL     1     -32.553   5.755   2.605  1.00 20.00     0.007 C 
HETATM    2  C2  UNL     1     -33.608   4.968   3.377  1.00 20.00     0.009 C 
HETATM    3  C3  UNL     1     -33.897   7.388   3.689  1.00 20.00     0.015 C 
HETATM    4  C4  UNL     1     -33.223   7.100   2.349  1.00 20.00     0.005 C 
HETATM    5  C5  UNL     1     -34.438   6.017   4.157  1.00 20.00    -0.047 C 
HETATM    6  C6  UNL     1     -34.254   5.853   5.670  1.00 20.00     0.015 C 
HETATM    7  C7  UNL     1     -35.930   5.879   3.815  1.00 20.00     0.015 C 
ENDROOT
BRANCH   4   8
HETATM    8  C10 UNL     1     -32.245   8.182   1.928  1.00 20.00     0.089 C 
HETATM    9 CL12 UNL     1     -31.317   8.723   3.364  1.00 20.00    -0.124 Cl
BRANCH   8  10
HETATM   10  C11 UNL     1     -32.921   9.364   1.186  1.00 20.00    -0.004 C 
HETATM   11  C8  UNL     1     -32.357  10.741   1.558  1.00 20.00     0.011 C 
HETATM   12  C9  UNL     1     -32.882   9.183  -0.335  1.00 20.00     0.011 C 
ENDBRANCH   8  10
ENDBRANCH   4   8
TORSDOF 2
ENDMDL
MODEL 3
REMARK VINA RESULT:      -4.9      1.885      4.799
REMARK  2 active torsions:
REMARK  status: ('A' for Active; 'I' for Inactive)
REMARK    1  A    between atoms: C4_4  and  C10_10 
REMARK    2  A    between atoms: C10_10  and  C11_11 
ROOT
HETATM    1  C1  UNL     1     -33.082   7.728   4.892  1.00 20.00     0.007 C 
HETATM    2  C2  UNL     1     -34.022   6.578   5.246  1.00 20.00     0.009 C 
HETATM    3  C3  UNL     1     -33.493   6.590   2.847  1.00 20.00     0.015 C 
HETATM    4  C4  UNL     1     -32.360   7.232   3.645  1.00 20.00     0.005 C 
HETATM    5  C5  UNL     1     -34.366   5.881   3.907  1.00 20.00    -0.047 C 
HETATM    6  C6  UNL     1     -35.854   6.034   3.570  1.00 20.00     0.015 C 
HETATM    7  C7  UNL     1     -34.019   4.385   3.980  1.00 20.00     0.015 C 
ENDROOT
BRANCH   4   8
HETATM    8  C10 UNL     1     -31.648   8.340   2.889  1.00 20.00     0.089 C 
HETATM    9 CL12 UNL     1     -31.477   9.765   3.965  1.00 20.00    -0.124 Cl
BRANCH   8  10
HETATM   10  C11 UNL     1     -32.329   8.698   1.543  1.00 20.00    -0.004 C 
HETATM   11  C8  UNL     1     -32.906  10.117   1.492  1.00 20.00     0.011 C 
HETATM   12  C9  UNL     1     -31.392   8.477   0.350  1.00 20.00     0.011 C 
ENDBRANCH   8  10
ENDBRANCH   4   8
TORSDOF 2
ENDMDL
MODEL 4
REMARK VINA RESULT:      -4.8      1.661      2.039
REMARK  2 active torsions:
REMARK  status: ('A' for Active; 'I' for Inactive)
REMARK    1  A    between atoms: C4_4  and  C10_10 
REMARK    2  A    between atoms: C10_10  and  C11_11 
ROOT
HETATM    1  C1  UNL     1     -31.831   7.549   2.662  1.00 20.00     0.007 C 
HETATM    2  C2  UNL     1     -31.359   8.598   1.659  1.00 20.00     0.009 C 
HETATM    3  C3  UNL     1     -33.766   8.810   2.103  1.00 20.00     0.015 C 
HETATM    4  C4  UNL     1     -33.055   8.189   3.305  1.00 20.00     0.005 C 
HETATM    5  C5  UNL     1     -32.627   9.372   1.222  1.00 20.00    -0.047 C 
HETATM    6  C6  UNL     1     -32.930   9.141  -0.263  1.00 20.00     0.015 C 
HETATM    7  C7  UNL     1     -32.445  10.878   1.469  1.00 20.00     0.015 C 
ENDROOT
BRANCH   4   8
HETATM    8  C10 UNL     1     -33.918   7.197   4.063  1.00 20.00     0.089 C 
HETATM    9 CL12 UNL     1     -33.589   7.357   5.819  1.00 20.00    -0.124 Cl
BRANCH   8  10
HETATM   10  C11 UNL     1     -33.753   5.737   3.565  1.00 20.00    -0.004 C 
HETATM   11  C8  UNL     1     -34.423   4.691   4.464  1.00 20.00     0.011 C 
HETATM   12  C9  UNL     1     -34.239   5.566   2.121  1.00 20.00     0.011 C 
ENDBRANCH   8  10
ENDBRANCH   4   8
TORSDOF 2
ENDMDL
MODEL 5
REMARK VINA RESULT:      -4.5     11.064     11.881
REMARK  2 active torsions:
REMARK  status: ('A' for Active; 'I' for Inactive)
REMARK    1  A    between atoms: C4_4  and  C10_10 
REMARK    2  A    between atoms: C10_10  and  C11_11 
ROOT
HETATM    1  C1  UNL     1     -33.375  15.324  -3.899  1.00 20.00     0.007 C 
HETATM    2  C2  UNL     1     -33.710  14.266  -4.946  1.00 20.00     0.009 C 
HETATM    3  C3  UNL     1     -35.393  16.056  -4.918  1.00 20.00     0.015 C 
HETATM    4  C4  UNL     1     -34.044  16.585  -4.432  1.00 20.00     0.005 C 
HETATM    5  C5  UNL     1     -35.069  14.687  -5.558  1.00 20.00    -0.047 C 
HETATM    6  C6  UNL     1     -36.163  13.665  -5.229  1.00 20.00     0.015 C 
HETATM    7  C7  UNL     1     -34.948  14.819  -7.085  1.00 20.00     0.015 C 
ENDROOT
BRANCH   4   8
HETATM    8  C10 UNL     1     -34.172  17.679  -3.388  1.00 20.00     0.089 C 
HETATM    9 CL12 UNL     1     -33.154  19.073  -3.874  1.00 20.00    -0.124 Cl
BRANCH   8  10
HETATM   10  C11 UNL     1     -33.855  17.193  -1.950  1.00 20.00    -0.004 C 
HETATM   11  C8  UNL     1     -32.790  18.027  -1.228  1.00 20.00     0.011 C 
HETATM   12  C9  UNL     1     -35.117  17.105  -1.084  1.00 20.00     0.011 C 
ENDBRANCH   8  10
ENDBRANCH   4   8
TORSDOF 2
ENDMDL
MODEL 6
REMARK VINA RESULT:      -4.5     10.595     11.467
REMARK  2 active torsions:
REMARK  status: ('A' for Active; 'I' for Inactive)
REMARK    1  A    between atoms: C4_4  and  C10_10 
REMARK    2  A    between atoms: C10_10  and  C11_11 
ROOT
HETATM    1  C1  UNL     1     -36.017  15.757  -3.778  1.00 20.00     0.007 C 
HETATM    2  C2  UNL     1     -35.211  14.855  -4.708  1.00 20.00     0.009 C 
HETATM    3  C3  UNL     1     -33.758  16.454  -3.538  1.00 20.00     0.015 C 
HETATM    4  C4  UNL     1     -35.010  16.168  -2.710  1.00 20.00     0.005 C 
HETATM    5  C5  UNL     1     -33.748  15.356  -4.625  1.00 20.00    -0.047 C 
HETATM    6  C6  UNL     1     -33.285  15.932  -5.969  1.00 20.00     0.015 C 
HETATM    7  C7  UNL     1     -32.812  14.206  -4.223  1.00 20.00     0.015 C 
ENDROOT
BRANCH   4   8
HETATM    8  C10 UNL     1     -35.467  17.357  -1.885  1.00 20.00     0.089 C 
HETATM    9 CL12 UNL     1     -35.133  18.865  -2.798  1.00 20.00    -0.124 Cl
BRANCH   8  10
HETATM   10  C11 UNL     1     -34.856  17.386  -0.460  1.00 20.00    -0.004 C 
HETATM   11  C8  UNL     1     -33.651  18.322  -0.315  1.00 20.00     0.011 C 
HETATM   12  C9  UNL     1     -35.904  17.723   0.606  1.00 20.00     0.011 C 
ENDBRANCH   8  10
ENDBRANCH   4   8
TORSDOF 2
ENDMDL
MODEL 7
REMARK VINA RESULT:      -4.4     10.719     12.325
REMARK  2 active torsions:
REMARK  status: ('A' for Active; 'I' for Inactive)
REMARK    1  A    between atoms: C4_4  and  C10_10 
REMARK    2  A    between atoms: C10_10  and  C11_11 
ROOT
HETATM    1  C1  UNL     1     -35.556  17.563  -4.422  1.00 20.00     0.007 C 
HETATM    2  C2  UNL     1     -35.147  18.293  -3.146  1.00 20.00     0.009 C 
HETATM    3  C3  UNL     1     -34.495  15.926  -3.065  1.00 20.00     0.015 C 
HETATM    4  C4  UNL     1     -34.562  16.411  -4.512  1.00 20.00     0.005 C 
HETATM    5  C5  UNL     1     -34.531  17.218  -2.217  1.00 20.00    -0.047 C 
HETATM    6  C6  UNL     1     -35.388  17.015  -0.962  1.00 20.00     0.015 C 
HETATM    7  C7  UNL     1     -33.112  17.627  -1.795  1.00 20.00     0.015 C 
ENDROOT
BRANCH   4   8
HETATM    8  C10 UNL     1     -34.992  15.329  -5.486  1.00 20.00     0.089 C 
HETATM    9 CL12 UNL     1     -35.255  13.801  -4.584  1.00 20.00    -0.124 Cl
BRANCH   8  10
HETATM   10  C11 UNL     1     -34.011  15.148  -6.673  1.00 20.00    -0.004 C 
HETATM   11  C8  UNL     1     -34.317  13.935  -7.559  1.00 20.00     0.011 C 
HETATM   12  C9  UNL     1     -33.919  16.410  -7.538  1.00 20.00     0.011 C 
ENDBRANCH   8  10
ENDBRANCH   4   8
TORSDOF 2
ENDMDL
MODEL 8
REMARK VINA RESULT:      -4.3     10.967     12.172
REMARK  2 active torsions:
REMARK  status: ('A' for Active; 'I' for Inactive)
REMARK    1  A    between atoms: C4_4  and  C10_10 
REMARK    2  A    between atoms: C10_10  and  C11_11 
ROOT
HETATM    1  C1  UNL     1     -35.074  17.526  -4.573  1.00 20.00     0.007 C 
HETATM    2  C2  UNL     1     -34.891  18.273  -3.254  1.00 20.00     0.009 C 
HETATM    3  C3  UNL     1     -34.144  15.940  -3.067  1.00 20.00     0.015 C 
HETATM    4  C4  UNL     1     -34.023  16.424  -4.511  1.00 20.00     0.005 C 
HETATM    5  C5  UNL     1     -34.366  17.228  -2.241  1.00 20.00    -0.047 C 
HETATM    6  C6  UNL     1     -35.385  16.981  -1.122  1.00 20.00     0.015 C 
HETATM    7  C7  UNL     1     -33.044  17.705  -1.618  1.00 20.00     0.015 C 
ENDROOT
BRANCH   4   8
HETATM    8  C10 UNL     1     -34.254  15.323  -5.531  1.00 20.00     0.089 C 
HETATM    9 CL12 UNL     1     -33.600  15.850  -7.117  1.00 20.00    -0.124 Cl
BRANCH   8  10
HETATM   10  C11 UNL     1     -35.735  14.876  -5.626  1.00 20.00    -0.004 C 
HETATM   11  C8  UNL     1     -36.353  15.047  -7.019  1.00 20.00     0.011 C 
HETATM   12  C9  UNL     1     -35.930  13.433  -5.148  1.00 20.00     0.011 C 
ENDBRANCH   8  10
ENDBRANCH   4   8
TORSDOF 2
ENDMDL
MODEL 9
REMARK VINA RESULT:      -4.3     10.745     11.778
REMARK  2 active torsions:
REMARK  status: ('A' for Active; 'I' for Inactive)
REMARK    1  A    between atoms: C4_4  and  C10_10 
REMARK    2  A    between atoms: C10_10  and  C11_11 
ROOT
HETATM    1  C1  UNL     1     -35.209  18.572  -3.125  1.00 20.00     0.007 C 
HETATM    2  C2  UNL     1     -34.530  19.228  -1.926  1.00 20.00     0.009 C 
HETATM    3  C3  UNL     1     -34.273  16.785  -1.869  1.00 20.00     0.015 C 
HETATM    4  C4  UNL     1     -34.439  17.269  -3.308  1.00 20.00     0.005 C 
HETATM    5  C5  UNL     1     -33.990  18.068  -1.054  1.00 20.00    -0.047 C 
HETATM    6  C6  UNL     1     -34.705  18.016   0.301  1.00 20.00     0.015 C 
HETATM    7  C7  UNL     1     -32.481  18.236  -0.818  1.00 20.00     0.015 C 
ENDROOT
BRANCH   4   8
HETATM    8  C10 UNL     1     -35.159  16.270  -4.196  1.00 20.00     0.089 C 
HETATM    9 CL12 UNL     1     -36.919  16.348  -3.854  1.00 20.00    -0.124 Cl
BRANCH   8  10
HETATM   10  C11 UNL     1     -34.601  14.829  -4.075  1.00 20.00    -0.004 C 
HETATM   11  C8  UNL     1     -35.482  13.760  -4.729  1.00 20.00     0.011 C 
HETATM   12  C9  UNL     1     -33.170  14.723  -4.616  1.00 20.00     0.011 C 
ENDBRANCH   8  10
ENDBRANCH   4   8
TORSDOF 2
ENDMDL
