MODEL 1
REMARK VINA RESULT:      -4.8      0.000      0.000
REMARK  5 active torsions:
REMARK  status: ('A' for Active; 'I' for Inactive)
REMARK    1  A    between atoms: C3_3  and  C4_4 
REMARK    2  A    between atoms: C3_3  and  N8_8 
REMARK    3  A    between atoms: C5_5  and  C7_7 
REMARK    4  A    between atoms: C6_6  and  C7_7 
REMARK    5  A    between atoms: C7_7  and  N8_8 
ROOT
HETATM    1  C7  UNL     1     -33.729   7.008   3.500  1.00 20.00     0.237 C 
ENDROOT
BRANCH   1   2
HETATM    2  C5  UNL     1     -34.150   5.832   2.613  1.00 20.00     0.150 C 
HETATM    3 CL10 UNL     1     -32.829   4.642   2.444  1.00 20.00    -0.128 Cl
ENDBRANCH   1   2
BRANCH   1   4
HETATM    4  C6  UNL     1     -34.307   6.891   4.934  1.00 20.00     0.011 C 
HETATM    5  C1  UNL     1     -33.403   7.497   6.012  1.00 20.00     0.012 C 
HETATM    6  C2  UNL     1     -34.631   5.435   5.288  1.00 20.00     0.012 C 
ENDBRANCH   1   4
BRANCH   1   7
HETATM    7  N8  UNL     1     -32.288   7.144   3.525  1.00 20.00     0.091 N 
HETATM    8  H25 UNL     1     -31.948   7.043   4.485  1.00 20.00     0.316 HD
BRANCH   7   9
HETATM    9  C3  UNL     1     -31.869   8.447   3.014  1.00 20.00     0.301 C 
BRANCH   9  10
HETATM   10  C4  UNL     1     -32.228   8.611   1.552  1.00 20.00     0.252 C 
HETATM   11  F9  UNL     1     -31.111   8.419   0.798  1.00 20.00    -0.254 F 
ENDBRANCH   9  10
ENDBRANCH   7   9
ENDBRANCH   1   7
TORSDOF 5
ENDMDL
MODEL 2
REMARK VINA RESULT:      -4.8      0.881      1.446
REMARK  5 active torsions:
REMARK  status: ('A' for Active; 'I' for Inactive)
REMARK    1  A    between atoms: C3_3  and  C4_4 
REMARK    2  A    between atoms: C3_3  and  N8_8 
REMARK    3  A    between atoms: C5_5  and  C7_7 
REMARK    4  A    between atoms: C6_6  and  C7_7 
REMARK    5  A    between atoms: C7_7  and  N8_8 
ROOT
HETATM    1  C7  UNL     1     -33.622   7.078   3.607  1.00 20.00     0.237 C 
ENDROOT
BRANCH   1   2
HETATM    2  C5  UNL     1     -33.993   6.039   2.544  1.00 20.00     0.150 C 
HETATM    3 CL10 UNL     1     -32.861   4.658   2.565  1.00 20.00    -0.128 Cl
ENDBRANCH   1   2
BRANCH   1   4
HETATM    4  C6  UNL     1     -33.631   6.478   5.036  1.00 20.00     0.011 C 
HETATM    5  C1  UNL     1     -34.772   5.485   5.279  1.00 20.00     0.012 C 
HETATM    6  C2  UNL     1     -33.666   7.578   6.104  1.00 20.00     0.012 C 
ENDBRANCH   1   4
BRANCH   1   7
HETATM    7  N8  UNL     1     -32.348   7.693   3.305  1.00 20.00     0.091 N 
HETATM    8  H25 UNL     1     -32.218   8.525   3.886  1.00 20.00     0.316 HD
BRANCH   7   9
HETATM    9  C3  UNL     1     -32.267   8.085   1.900  1.00 20.00     0.301 C 
BRANCH   9  10
HETATM   10  C4  UNL     1     -32.377   9.585   1.735  1.00 20.00     0.252 C 
HETATM   11  F9  UNL     1     -32.659   9.868   0.434  1.00 20.00    -0.254 F 
ENDBRANCH   9  10
ENDBRANCH   7   9
ENDBRANCH   1   7
TORSDOF 5
ENDMDL
MODEL 3
REMARK VINA RESULT:      -4.5      2.004      2.629
REMARK  5 active torsions:
REMARK  status: ('A' for Active; 'I' for Inactive)
REMARK    1  A    between atoms: C3_3  and  C4_4 
REMARK    2  A    between atoms: C3_3  and  N8_8 
REMARK    3  A    between atoms: C5_5  and  C7_7 
REMARK    4  A    between atoms: C6_6  and  C7_7 
REMARK    5  A    between atoms: C7_7  and  N8_8 
ROOT
HETATM    1  C7  UNL     1     -33.181   6.670   3.368  1.00 20.00     0.237 C 
ENDROOT
BRANCH   1   2
HETATM    2  C5  UNL     1     -34.023   7.558   4.290  1.00 20.00     0.150 C 
HETATM    3 CL10 UNL     1     -33.465   7.448   5.982  1.00 20.00    -0.128 Cl
ENDBRANCH   1   2
BRANCH   1   4
HETATM    4  C6  UNL     1     -33.849   5.294   3.117  1.00 20.00     0.011 C 
HETATM    5  C1  UNL     1     -34.456   4.667   4.375  1.00 20.00     0.012 C 
HETATM    6  C2  UNL     1     -32.870   4.308   2.468  1.00 20.00     0.012 C 
ENDBRANCH   1   4
BRANCH   1   7
HETATM    7  N8  UNL     1     -32.893   7.348   2.122  1.00 20.00     0.091 N 
HETATM    8  H25 UNL     1     -32.327   6.742   1.521  1.00 20.00     0.316 HD
BRANCH   7   9
HETATM    9  C3  UNL     1     -32.165   8.594   2.351  1.00 20.00     0.301 C 
BRANCH   9  10
HETATM   10  C4  UNL     1     -32.200   9.489   1.131  1.00 20.00     0.252 C 
HETATM   11  F9  UNL     1     -32.573  10.741   1.512  1.00 20.00    -0.254 F 
ENDBRANCH   9  10
ENDBRANCH   7   9
ENDBRANCH   1   7
TORSDOF 5
ENDMDL
MODEL 4
REMARK VINA RESULT:      -4.5      2.181      2.767
REMARK  5 active torsions:
REMARK  status: ('A' for Active; 'I' for Inactive)
REMARK    1  A    between atoms: C3_3  and  C4_4 
REMARK    2  A    between atoms: C3_3  and  N8_8 
REMARK    3  A    between atoms: C5_5  and  C7_7 
REMARK    4  A    between atoms: C6_6  and  C7_7 
REMARK    5  A    between atoms: C7_7  and  N8_8 
ROOT
HETATM    1  C7  UNL     1     -32.680   7.173   3.359  1.00 20.00     0.237 C 
ENDROOT
BRANCH   1   2
HETATM    2  C5  UNL     1     -32.666   8.015   4.639  1.00 20.00     0.150 C 
HETATM    3 CL10 UNL     1     -33.596   7.228   5.943  1.00 20.00    -0.128 Cl
ENDBRANCH   1   2
BRANCH   1   4
HETATM    4  C6  UNL     1     -33.546   5.897   3.511  1.00 20.00     0.011 C 
HETATM    5  C1  UNL     1     -33.066   4.723   2.653  1.00 20.00     0.012 C 
HETATM    6  C2  UNL     1     -35.022   6.185   3.215  1.00 20.00     0.012 C 
ENDBRANCH   1   4
BRANCH   1   7
HETATM    7  N8  UNL     1     -33.109   7.966   2.226  1.00 20.00     0.091 N 
HETATM    8  H25 UNL     1     -33.389   7.349   1.459  1.00 20.00     0.316 HD
BRANCH   7   9
HETATM    9  C3  UNL     1     -32.040   8.844   1.757  1.00 20.00     0.301 C 
BRANCH   9  10
HETATM   10  C4  UNL     1     -32.567   9.904   0.814  1.00 20.00     0.252 C 
HETATM   11  F9  UNL     1     -32.659  11.085   1.483  1.00 20.00    -0.254 F 
ENDBRANCH   9  10
ENDBRANCH   7   9
ENDBRANCH   1   7
TORSDOF 5
ENDMDL
MODEL 5
REMARK VINA RESULT:      -4.3      2.870      4.152
REMARK  5 active torsions:
REMARK  status: ('A' for Active; 'I' for Inactive)
REMARK    1  A    between atoms: C3_3  and  C4_4 
REMARK    2  A    between atoms: C3_3  and  N8_8 
REMARK    3  A    between atoms: C5_5  and  C7_7 
REMARK    4  A    between atoms: C6_6  and  C7_7 
REMARK    5  A    between atoms: C7_7  and  N8_8 
ROOT
HETATM    1  C7  UNL     1     -33.666   7.471   3.754  1.00 20.00     0.237 C 
ENDROOT
BRANCH   1   2
HETATM    2  C5  UNL     1     -33.291   7.453   5.240  1.00 20.00     0.150 C 
HETATM    3 CL10 UNL     1     -34.488   6.541   6.200  1.00 20.00    -0.128 Cl
ENDBRANCH   1   2
BRANCH   1   4
HETATM    4  C6  UNL     1     -32.427   7.666   2.843  1.00 20.00     0.011 C 
HETATM    5  C1  UNL     1     -31.205   8.222   3.580  1.00 20.00     0.012 C 
HETATM    6  C2  UNL     1     -32.755   8.555   1.638  1.00 20.00     0.012 C 
ENDBRANCH   1   4
BRANCH   1   7
HETATM    7  N8  UNL     1     -34.399   6.277   3.394  1.00 20.00     0.091 N 
HETATM    8  H25 UNL     1     -34.974   5.971   4.184  1.00 20.00     0.316 HD
BRANCH   7   9
HETATM    9  C3  UNL     1     -33.496   5.190   3.023  1.00 20.00     0.301 C 
BRANCH   9  10
HETATM   10  C4  UNL     1     -33.750   3.949   3.852  1.00 20.00     0.252 C 
HETATM   11  F9  UNL     1     -34.954   4.073   4.475  1.00 20.00    -0.254 F 
ENDBRANCH   9  10
ENDBRANCH   7   9
ENDBRANCH   1   7
TORSDOF 5
ENDMDL
MODEL 6
REMARK VINA RESULT:      -4.1      2.369      3.996
REMARK  5 active torsions:
REMARK  status: ('A' for Active; 'I' for Inactive)
REMARK    1  A    between atoms: C3_3  and  C4_4 
REMARK    2  A    between atoms: C3_3  and  N8_8 
REMARK    3  A    between atoms: C5_5  and  C7_7 
REMARK    4  A    between atoms: C6_6  and  C7_7 
REMARK    5  A    between atoms: C7_7  and  N8_8 
ROOT
HETATM    1  C7  UNL     1     -33.189   6.919   3.557  1.00 20.00     0.237 C 
ENDROOT
BRANCH   1   2
HETATM    2  C5  UNL     1     -33.726   6.027   2.432  1.00 20.00     0.150 C 
HETATM    3 CL10 UNL     1     -32.902   4.444   2.409  1.00 20.00    -0.128 Cl
ENDBRANCH   1   2
BRANCH   1   4
HETATM    4  C6  UNL     1     -32.528   8.210   3.011  1.00 20.00     0.011 C 
HETATM    5  C1  UNL     1     -32.438   8.255   1.482  1.00 20.00     0.012 C 
HETATM    6  C2  UNL     1     -31.137   8.425   3.618  1.00 20.00     0.012 C 
ENDBRANCH   1   4
BRANCH   1   7
HETATM    7  N8  UNL     1     -34.231   7.227   4.512  1.00 20.00     0.091 N 
HETATM    8  H25 UNL     1     -34.238   8.232   4.704  1.00 20.00     0.316 HD
BRANCH   7   9
HETATM    9  C3  UNL     1     -34.029   6.510   5.769  1.00 20.00     0.301 C 
BRANCH   9  10
HETATM   10  C4  UNL     1     -34.821   5.220   5.806  1.00 20.00     0.252 C 
HETATM   11  F9  UNL     1     -34.022   4.198   5.395  1.00 20.00    -0.254 F 
ENDBRANCH   9  10
ENDBRANCH   7   9
ENDBRANCH   1   7
TORSDOF 5
ENDMDL
MODEL 7
REMARK VINA RESULT:      -3.9      2.832      4.404
REMARK  5 active torsions:
REMARK  status: ('A' for Active; 'I' for Inactive)
REMARK    1  A    between atoms: C3_3  and  C4_4 
REMARK    2  A    between atoms: C3_3  and  N8_8 
REMARK    3  A    between atoms: C5_5  and  C7_7 
REMARK    4  A    between atoms: C6_6  and  C7_7 
REMARK    5  A    between atoms: C7_7  and  N8_8 
ROOT
HETATM    1  C7  UNL     1     -32.771   8.104   2.823  1.00 20.00     0.237 C 
ENDROOT
BRANCH   1   2
HETATM    2  C5  UNL     1     -32.092   8.071   4.196  1.00 20.00     0.150 C 
HETATM    3 CL10 UNL     1     -33.256   7.658   5.485  1.00 20.00    -0.128 Cl
ENDBRANCH   1   2
BRANCH   1   4
HETATM    4  C6  UNL     1     -32.103   9.126   1.868  1.00 20.00     0.011 C 
HETATM    5  C1  UNL     1     -33.061  10.208   1.359  1.00 20.00     0.012 C 
HETATM    6  C2  UNL     1     -31.435   8.425   0.679  1.00 20.00     0.012 C 
ENDBRANCH   1   4
BRANCH   1   7
HETATM    7  N8  UNL     1     -32.807   6.783   2.234  1.00 20.00     0.091 N 
HETATM    8  H25 UNL     1     -32.819   6.859   1.213  1.00 20.00     0.316 HD
BRANCH   7   9
HETATM    9  C3  UNL     1     -33.990   6.041   2.664  1.00 20.00     0.301 C 
BRANCH   9  10
HETATM   10  C4  UNL     1     -33.616   4.726   3.313  1.00 20.00     0.252 C 
HETATM   11  F9  UNL     1     -34.539   4.424   4.265  1.00 20.00    -0.254 F 
ENDBRANCH   9  10
ENDBRANCH   7   9
ENDBRANCH   1   7
TORSDOF 5
ENDMDL
MODEL 8
REMARK VINA RESULT:      -3.8     11.363     12.123
REMARK  5 active torsions:
REMARK  status: ('A' for Active; 'I' for Inactive)
REMARK    1  A    between atoms: C3_3  and  C4_4 
REMARK    2  A    between atoms: C3_3  and  N8_8 
REMARK    3  A    between atoms: C5_5  and  C7_7 
REMARK    4  A    between atoms: C6_6  and  C7_7 
REMARK    5  A    between atoms: C7_7  and  N8_8 
ROOT
HETATM    1  C7  UNL     1     -34.916  14.198  -5.492  1.00 20.00     0.237 C 
ENDROOT
BRANCH   1   2
HETATM    2  C5  UNL     1     -36.186  13.347  -5.374  1.00 20.00     0.150 C 
HETATM    3 CL10 UNL     1     -37.622  14.365  -5.080  1.00 20.00    -0.128 Cl
ENDBRANCH   1   2
BRANCH   1   4
HETATM    4  C6  UNL     1     -34.220  14.398  -4.121  1.00 20.00     0.011 C 
HETATM    5  C1  UNL     1     -34.614  15.700  -3.417  1.00 20.00     0.012 C 
HETATM    6  C2  UNL     1     -32.695  14.322  -4.253  1.00 20.00     0.012 C 
ENDBRANCH   1   4
BRANCH   1   7
HETATM    7  N8  UNL     1     -34.006  13.632  -6.464  1.00 20.00     0.091 N 
HETATM    8  H25 UNL     1     -33.043  13.718  -6.128  1.00 20.00     0.316 HD
BRANCH   7   9
HETATM    9  C3  UNL     1     -34.116  14.311  -7.753  1.00 20.00     0.301 C 
BRANCH   9  10
HETATM   10  C4  UNL     1     -34.316  15.802  -7.579  1.00 20.00     0.252 C 
HETATM   11  F9  UNL     1     -33.206  16.332  -6.998  1.00 20.00    -0.254 F 
ENDBRANCH   9  10
ENDBRANCH   7   9
ENDBRANCH   1   7
TORSDOF 5
ENDMDL
MODEL 9
REMARK VINA RESULT:      -3.7      2.740      3.971
REMARK  5 active torsions:
REMARK  status: ('A' for Active; 'I' for Inactive)
REMARK    1  A    between atoms: C3_3  and  C4_4 
REMARK    2  A    between atoms: C3_3  and  N8_8 
REMARK    3  A    between atoms: C5_5  and  C7_7 
REMARK    4  A    between atoms: C6_6  and  C7_7 
REMARK    5  A    between atoms: C7_7  and  N8_8 
ROOT
HETATM    1  C7  UNL     1     -32.999   7.500   3.616  1.00 20.00     0.237 C 
ENDROOT
BRANCH   1   2
HETATM    2  C5  UNL     1     -31.743   8.195   3.079  1.00 20.00     0.150 C 
HETATM    3 CL10 UNL     1     -31.953   8.687   1.376  1.00 20.00    -0.128 Cl
ENDBRANCH   1   2
BRANCH   1   4
HETATM    4  C6  UNL     1     -33.533   6.423   2.638  1.00 20.00     0.011 C 
HETATM    5  C1  UNL     1     -35.056   6.271   2.662  1.00 20.00     0.012 C 
HETATM    6  C2  UNL     1     -32.873   5.062   2.892  1.00 20.00     0.012 C 
ENDBRANCH   1   4
BRANCH   1   7
HETATM    7  N8  UNL     1     -32.757   6.942   4.929  1.00 20.00     0.091 N 
HETATM    8  H25 UNL     1     -32.668   5.924   4.861  1.00 20.00     0.316 HD
BRANCH   7   9
HETATM    9  C3  UNL     1     -33.845   7.259   5.851  1.00 20.00     0.301 C 
BRANCH   9  10
HETATM   10  C4  UNL     1     -34.758   6.069   6.061  1.00 20.00     0.252 C 
HETATM   11  F9  UNL     1     -34.017   4.929   6.007  1.00 20.00    -0.254 F 
ENDBRANCH   9  10
ENDBRANCH   7   9
ENDBRANCH   1   7
TORSDOF 5
ENDMDL
