MODEL 1
REMARK VINA RESULT:      -5.6      0.000      0.000
REMARK  1 active torsions:
REMARK  status: ('A' for Active; 'I' for Inactive)
REMARK    1  A    between atoms: C4_4  and  C8_8 
ROOT
HETATM    1  C1  UNL     1     -33.005   7.536   5.065  1.00 20.00     0.006 C 
HETATM    2  C2  UNL     1     -34.241   6.690   5.356  1.00 20.00     0.009 C 
HETATM    3  C3  UNL     1     -33.345   6.218   3.117  1.00 20.00     0.014 C 
HETATM    4  C4  UNL     1     -32.994   7.643   3.545  1.00 20.00     0.000 C 
HETATM    5  C5  UNL     1     -34.410   5.752   4.135  1.00 20.00    -0.047 C 
HETATM    6  C6  UNL     1     -34.178   4.288   4.527  1.00 20.00     0.015 C 
HETATM    7  C7  UNL     1     -35.821   5.895   3.547  1.00 20.00     0.015 C 
ENDROOT
BRANCH   4   8
HETATM    8  C8  UNL     1     -31.665   8.124   2.990  1.00 20.00     0.119 C 
HETATM    9 CL9  UNL     1     -31.882   8.794   1.361  1.00 20.00    -0.130 Cl
ENDBRANCH   4   8
TORSDOF 1
ENDMDL
MODEL 2
REMARK VINA RESULT:      -4.9      0.907      1.908
REMARK  1 active torsions:
REMARK  status: ('A' for Active; 'I' for Inactive)
REMARK    1  A    between atoms: C4_4  and  C8_8 
ROOT
HETATM    1  C1  UNL     1     -32.594   6.153   2.511  1.00 20.00     0.006 C 
HETATM    2  C2  UNL     1     -33.577   5.172   3.142  1.00 20.00     0.009 C 
HETATM    3  C3  UNL     1     -33.822   7.421   4.103  1.00 20.00     0.014 C 
HETATM    4  C4  UNL     1     -32.397   7.208   3.594  1.00 20.00     0.000 C 
HETATM    5  C5  UNL     1     -34.454   6.010   4.106  1.00 20.00    -0.047 C 
HETATM    6  C6  UNL     1     -35.907   6.068   3.621  1.00 20.00     0.015 C 
HETATM    7  C7  UNL     1     -34.421   5.405   5.517  1.00 20.00     0.015 C 
ENDROOT
BRANCH   4   8
HETATM    8  C8  UNL     1     -31.751   8.482   3.075  1.00 20.00     0.119 C 
HETATM    9 CL9  UNL     1     -32.114   8.700   1.352  1.00 20.00    -0.130 Cl
ENDBRANCH   4   8
TORSDOF 1
ENDMDL
MODEL 3
REMARK VINA RESULT:      -4.8      2.375      3.984
REMARK  1 active torsions:
REMARK  status: ('A' for Active; 'I' for Inactive)
REMARK    1  A    between atoms: C4_4  and  C8_8 
ROOT
HETATM    1  C1  UNL     1     -33.186   5.320   2.902  1.00 20.00     0.006 C 
HETATM    2  C2  UNL     1     -32.276   6.339   2.224  1.00 20.00     0.009 C 
HETATM    3  C3  UNL     1     -33.775   7.421   3.843  1.00 20.00     0.014 C 
HETATM    4  C4  UNL     1     -34.407   6.140   3.301  1.00 20.00     0.000 C 
HETATM    5  C5  UNL     1     -32.578   7.697   2.905  1.00 20.00    -0.047 C 
HETATM    6  C6  UNL     1     -31.369   8.195   3.705  1.00 20.00     0.015 C 
HETATM    7  C7  UNL     1     -32.948   8.750   1.850  1.00 20.00     0.015 C 
ENDROOT
BRANCH   4   8
HETATM    8  C8  UNL     1     -35.295   5.435   4.313  1.00 20.00     0.119 C 
HETATM    9 CL9  UNL     1     -34.515   5.413   5.907  1.00 20.00    -0.130 Cl
ENDBRANCH   4   8
TORSDOF 1
ENDMDL
MODEL 4
REMARK VINA RESULT:      -4.8      2.331      4.287
REMARK  1 active torsions:
REMARK  status: ('A' for Active; 'I' for Inactive)
REMARK    1  A    between atoms: C4_4  and  C8_8 
ROOT
HETATM    1  C1  UNL     1     -32.200   7.834   3.883  1.00 20.00     0.006 C 
HETATM    2  C2  UNL     1     -31.410   8.769   2.972  1.00 20.00     0.009 C 
HETATM    3  C3  UNL     1     -33.360   7.829   1.809  1.00 20.00     0.014 C 
HETATM    4  C4  UNL     1     -32.886   6.882   2.911  1.00 20.00     0.000 C 
HETATM    5  C5  UNL     1     -32.214   8.854   1.651  1.00 20.00    -0.047 C 
HETATM    6  C6  UNL     1     -32.777  10.264   1.439  1.00 20.00     0.015 C 
HETATM    7  C7  UNL     1     -31.320   8.487   0.459  1.00 20.00     0.015 C 
ENDROOT
BRANCH   4   8
HETATM    8  C8  UNL     1     -34.017   6.092   3.548  1.00 20.00     0.119 C 
HETATM    9 CL9  UNL     1     -34.190   6.533   5.259  1.00 20.00    -0.130 Cl
ENDBRANCH   4   8
TORSDOF 1
ENDMDL
MODEL 5
REMARK VINA RESULT:      -3.8     11.593     12.312
REMARK  1 active torsions:
REMARK  status: ('A' for Active; 'I' for Inactive)
REMARK    1  A    between atoms: C4_4  and  C8_8 
ROOT
HETATM    1  C1  UNL     1     -35.225  17.073  -0.812  1.00 20.00     0.006 C 
HETATM    2  C2  UNL     1     -35.554  16.638  -2.237  1.00 20.00     0.009 C 
HETATM    3  C3  UNL     1     -33.293  17.590  -2.095  1.00 20.00     0.014 C 
HETATM    4  C4  UNL     1     -34.189  18.174  -1.004  1.00 20.00     0.000 C 
HETATM    5  C5  UNL     1     -34.265  16.874  -3.061  1.00 20.00    -0.047 C 
HETATM    6  C6  UNL     1     -33.667  15.547  -3.542  1.00 20.00     0.015 C 
HETATM    7  C7  UNL     1     -34.567  17.758  -4.279  1.00 20.00     0.015 C 
ENDROOT
BRANCH   4   8
HETATM    8  C8  UNL     1     -33.436  18.513   0.271  1.00 20.00     0.119 C 
HETATM    9 CL9  UNL     1     -31.686  18.513  -0.027  1.00 20.00    -0.130 Cl
ENDBRANCH   4   8
TORSDOF 1
ENDMDL
MODEL 6
REMARK VINA RESULT:      -3.8     11.225     12.086
REMARK  1 active torsions:
REMARK  status: ('A' for Active; 'I' for Inactive)
REMARK    1  A    between atoms: C4_4  and  C8_8 
ROOT
HETATM    1  C1  UNL     1     -35.250  16.757  -1.860  1.00 20.00     0.006 C 
HETATM    2  C2  UNL     1     -35.902  16.095  -3.070  1.00 20.00     0.009 C 
HETATM    3  C3  UNL     1     -33.475  16.326  -3.380  1.00 20.00     0.014 C 
HETATM    4  C4  UNL     1     -34.000  17.409  -2.439  1.00 20.00     0.000 C 
HETATM    5  C5  UNL     1     -34.741  15.715  -4.022  1.00 20.00    -0.047 C 
HETATM    6  C6  UNL     1     -34.603  14.193  -4.144  1.00 20.00     0.015 C 
HETATM    7  C7  UNL     1     -34.981  16.309  -5.417  1.00 20.00     0.015 C 
ENDROOT
BRANCH   4   8
HETATM    8  C8  UNL     1     -32.994  17.818  -1.376  1.00 20.00     0.119 C 
HETATM    9 CL9  UNL     1     -33.826  18.219   0.139  1.00 20.00    -0.130 Cl
ENDBRANCH   4   8
TORSDOF 1
ENDMDL
MODEL 7
REMARK VINA RESULT:      -3.7     11.474     12.275
REMARK  1 active torsions:
REMARK  status: ('A' for Active; 'I' for Inactive)
REMARK    1  A    between atoms: C4_4  and  C8_8 
ROOT
HETATM    1  C1  UNL     1     -33.965  14.680  -4.148  1.00 20.00     0.006 C 
HETATM    2  C2  UNL     1     -33.689  16.031  -3.494  1.00 20.00     0.009 C 
HETATM    3  C3  UNL     1     -36.100  15.658  -3.784  1.00 20.00     0.014 C 
HETATM    4  C4  UNL     1     -35.309  14.885  -4.837  1.00 20.00     0.000 C 
HETATM    5  C5  UNL     1     -35.076  16.631  -3.157  1.00 20.00    -0.047 C 
HETATM    6  C6  UNL     1     -35.282  16.729  -1.641  1.00 20.00     0.015 C 
HETATM    7  C7  UNL     1     -35.213  18.032  -3.772  1.00 20.00     0.015 C 
ENDROOT
BRANCH   4   8
HETATM    8  C8  UNL     1     -35.973  13.582  -5.248  1.00 20.00     0.119 C 
HETATM    9 CL9  UNL     1     -35.374  13.057  -6.834  1.00 20.00    -0.130 Cl
ENDBRANCH   4   8
TORSDOF 1
ENDMDL
MODEL 8
REMARK VINA RESULT:      -3.7     11.314     12.314
REMARK  1 active torsions:
REMARK  status: ('A' for Active; 'I' for Inactive)
REMARK    1  A    between atoms: C4_4  and  C8_8 
ROOT
HETATM    1  C1  UNL     1     -33.414  17.796  -3.157  1.00 20.00     0.006 C 
HETATM    2  C2  UNL     1     -33.638  16.854  -4.337  1.00 20.00     0.009 C 
HETATM    3  C3  UNL     1     -35.140  16.314  -2.468  1.00 20.00     0.014 C 
HETATM    4  C4  UNL     1     -33.861  16.974  -1.954  1.00 20.00     0.000 C 
HETATM    5  C5  UNL     1     -34.832  15.952  -3.939  1.00 20.00    -0.047 C 
HETATM    6  C6  UNL     1     -36.050  16.224  -4.829  1.00 20.00     0.015 C 
HETATM    7  C7  UNL     1     -34.443  14.471  -4.062  1.00 20.00     0.015 C 
ENDROOT
BRANCH   4   8
HETATM    8  C8  UNL     1     -34.081  17.813  -0.707  1.00 20.00     0.119 C 
HETATM    9 CL9  UNL     1     -35.636  17.406   0.045  1.00 20.00    -0.130 Cl
ENDBRANCH   4   8
TORSDOF 1
ENDMDL
MODEL 9
REMARK VINA RESULT:      -3.7     11.541     12.374
REMARK  1 active torsions:
REMARK  status: ('A' for Active; 'I' for Inactive)
REMARK    1  A    between atoms: C4_4  and  C8_8 
ROOT
HETATM    1  C1  UNL     1     -33.219  15.787  -4.928  1.00 20.00     0.006 C 
HETATM    2  C2  UNL     1     -33.943  14.868  -5.908  1.00 20.00     0.009 C 
HETATM    3  C3  UNL     1     -35.456  15.649  -4.136  1.00 20.00     0.014 C 
HETATM    4  C4  UNL     1     -34.012  15.627  -3.636  1.00 20.00     0.000 C 
HETATM    5  C5  UNL     1     -35.426  14.855  -5.461  1.00 20.00    -0.047 C 
HETATM    6  C6  UNL     1     -36.324  15.521  -6.510  1.00 20.00     0.015 C 
HETATM    7  C7  UNL     1     -35.902  13.412  -5.238  1.00 20.00     0.015 C 
ENDROOT
BRANCH   4   8
HETATM    8  C8  UNL     1     -33.715  16.713  -2.616  1.00 20.00     0.119 C 
HETATM    9 CL9  UNL     1     -35.031  16.824  -1.431  1.00 20.00    -0.130 Cl
ENDBRANCH   4   8
TORSDOF 1
ENDMDL
