MODEL 1
REMARK VINA RESULT:      -6.3      0.000      0.000
REMARK  2 active torsions:
REMARK  status: ('A' for Active; 'I' for Inactive)
REMARK    1  A    between atoms: C3_3  and  C8_8 
REMARK    2  A    between atoms: C3_3  and  C9_9 
ROOT
HETATM    1  C1  UNL     1     -32.547  10.252   0.730  1.00 20.00     0.012 C 
HETATM    2  C2  UNL     1     -32.419   9.167   1.226  1.00 20.00    -0.110 C 
HETATM    3  C9  UNL     1     -32.264   7.837   1.825  1.00 20.00     0.172 C 
ENDROOT
BRANCH   3   4
HETATM    4  C3  UNL     1     -32.396   7.860   3.334  1.00 20.00     0.151 C 
HETATM    5  O10 UNL     1     -31.503   8.258   4.082  1.00 20.00    -0.296 OA
BRANCH   4   6
HETATM    6  C8  UNL     1     -33.695   7.366   3.888  1.00 20.00     0.117 C 
HETATM    7  C6  UNL     1     -33.546   7.013   5.370  1.00 20.00     0.023 C 
HETATM    8  C4  UNL     1     -34.630   6.063   5.866  1.00 20.00     0.002 C 
HETATM    9  C5  UNL     1     -34.532   4.668   5.246  1.00 20.00     0.010 C 
HETATM   10  C7  UNL     1     -33.814   4.598   3.901  1.00 20.00     0.075 C 
HETATM   11  S11 UNL     1     -34.242   5.988   2.821  1.00 20.00    -0.157 SA
ENDBRANCH   4   6
ENDBRANCH   3   4
TORSDOF 2
ENDMDL
MODEL 2
REMARK VINA RESULT:      -4.6      1.493      1.996
REMARK  2 active torsions:
REMARK  status: ('A' for Active; 'I' for Inactive)
REMARK    1  A    between atoms: C3_3  and  C8_8 
REMARK    2  A    between atoms: C3_3  and  C9_9 
ROOT
HETATM    1  C1  UNL     1     -32.931   9.641  -0.430  1.00 20.00     0.012 C 
HETATM    2  C2  UNL     1     -32.482   9.119   0.554  1.00 20.00    -0.110 C 
HETATM    3  C9  UNL     1     -31.924   8.482   1.751  1.00 20.00     0.172 C 
ENDROOT
BRANCH   3   4
HETATM    4  C3  UNL     1     -32.997   8.037   2.725  1.00 20.00     0.151 C 
HETATM    5  O10 UNL     1     -34.039   8.664   2.911  1.00 20.00    -0.296 OA
BRANCH   4   6
HETATM    6  C8  UNL     1     -32.725   6.767   3.467  1.00 20.00     0.117 C 
HETATM    7  C6  UNL     1     -33.240   5.563   2.677  1.00 20.00     0.023 C 
HETATM    8  C4  UNL     1     -33.458   4.329   3.546  1.00 20.00     0.002 C 
HETATM    9  C5  UNL     1     -34.598   4.501   4.551  1.00 20.00     0.010 C 
HETATM   10  C7  UNL     1     -34.931   5.942   4.926  1.00 20.00     0.075 C 
HETATM   11  S11 UNL     1     -33.445   6.957   5.135  1.00 20.00    -0.157 SA
ENDBRANCH   4   6
ENDBRANCH   3   4
TORSDOF 2
ENDMDL
MODEL 3
REMARK VINA RESULT:      -4.4     11.583     12.100
REMARK  2 active torsions:
REMARK  status: ('A' for Active; 'I' for Inactive)
REMARK    1  A    between atoms: C3_3  and  C8_8 
REMARK    2  A    between atoms: C3_3  and  C9_9 
ROOT
HETATM    1  C1  UNL     1     -30.318  18.803   2.694  1.00 20.00     0.012 C 
HETATM    2  C2  UNL     1     -31.324  18.961   2.058  1.00 20.00    -0.110 C 
HETATM    3  C9  UNL     1     -32.557  19.157   1.288  1.00 20.00     0.172 C 
ENDROOT
BRANCH   3   4
HETATM    4  C3  UNL     1     -32.428  18.683  -0.145  1.00 20.00     0.151 C 
HETATM    5  O10 UNL     1     -31.358  18.339  -0.647  1.00 20.00    -0.296 OA
BRANCH   4   6
HETATM    6  C8  UNL     1     -33.693  18.651  -0.943  1.00 20.00     0.117 C 
HETATM    7  C6  UNL     1     -34.655  17.601  -0.380  1.00 20.00     0.023 C 
HETATM    8  C4  UNL     1     -35.709  17.159  -1.389  1.00 20.00     0.002 C 
HETATM    9  C5  UNL     1     -35.118  16.381  -2.566  1.00 20.00     0.010 C 
HETATM   10  C7  UNL     1     -33.645  16.648  -2.856  1.00 20.00     0.075 C 
HETATM   11  S11 UNL     1     -33.219  18.401  -2.689  1.00 20.00    -0.157 SA
ENDBRANCH   4   6
ENDBRANCH   3   4
TORSDOF 2
ENDMDL
MODEL 4
REMARK VINA RESULT:      -4.3     11.242     12.471
REMARK  2 active torsions:
REMARK  status: ('A' for Active; 'I' for Inactive)
REMARK    1  A    between atoms: C3_3  and  C8_8 
REMARK    2  A    between atoms: C3_3  and  C9_9 
ROOT
HETATM    1  C1  UNL     1     -37.728  15.595  -7.287  1.00 20.00     0.012 C 
HETATM    2  C2  UNL     1     -37.433  15.188  -6.197  1.00 20.00    -0.110 C 
HETATM    3  C9  UNL     1     -37.078  14.696  -4.861  1.00 20.00     0.172 C 
ENDROOT
BRANCH   3   4
HETATM    4  C3  UNL     1     -35.836  13.828  -4.873  1.00 20.00     0.151 C 
HETATM    5  O10 UNL     1     -35.833  12.661  -5.264  1.00 20.00    -0.296 OA
BRANCH   4   6
HETATM    6  C8  UNL     1     -34.580  14.471  -4.375  1.00 20.00     0.117 C 
HETATM    7  C6  UNL     1     -34.905  15.547  -3.336  1.00 20.00     0.023 C 
HETATM    8  C4  UNL     1     -33.780  16.561  -3.159  1.00 20.00     0.002 C 
HETATM    9  C5  UNL     1     -33.566  17.436  -4.396  1.00 20.00     0.010 C 
HETATM   10  C7  UNL     1     -34.043  16.837  -5.714  1.00 20.00     0.075 C 
HETATM   11  S11 UNL     1     -33.668  15.069  -5.840  1.00 20.00    -0.157 SA
ENDBRANCH   4   6
ENDBRANCH   3   4
TORSDOF 2
ENDMDL
MODEL 5
REMARK VINA RESULT:      -4.3     11.672     12.417
REMARK  2 active torsions:
REMARK  status: ('A' for Active; 'I' for Inactive)
REMARK    1  A    between atoms: C3_3  and  C8_8 
REMARK    2  A    between atoms: C3_3  and  C9_9 
ROOT
HETATM    1  C1  UNL     1     -32.691  18.131  -1.170  1.00 20.00     0.012 C 
HETATM    2  C2  UNL     1     -33.279  17.423  -1.942  1.00 20.00    -0.110 C 
HETATM    3  C9  UNL     1     -34.001  16.555  -2.878  1.00 20.00     0.172 C 
ENDROOT
BRANCH   3   4
HETATM    4  C3  UNL     1     -33.551  16.746  -4.312  1.00 20.00     0.151 C 
HETATM    5  O10 UNL     1     -33.347  17.852  -4.812  1.00 20.00    -0.296 OA
BRANCH   4   6
HETATM    6  C8  UNL     1     -33.359  15.497  -5.113  1.00 20.00     0.117 C 
HETATM    7  C6  UNL     1     -33.742  15.734  -6.576  1.00 20.00     0.023 C 
HETATM    8  C4  UNL     1     -34.054  14.444  -7.325  1.00 20.00     0.002 C 
HETATM    9  C5  UNL     1     -35.323  13.753  -6.822  1.00 20.00     0.010 C 
HETATM   10  C7  UNL     1     -35.728  14.087  -5.390  1.00 20.00     0.075 C 
HETATM   11  S11 UNL     1     -34.302  14.175  -4.277  1.00 20.00    -0.157 SA
ENDBRANCH   4   6
ENDBRANCH   3   4
TORSDOF 2
ENDMDL
MODEL 6
REMARK VINA RESULT:      -4.2     11.623     12.297
REMARK  2 active torsions:
REMARK  status: ('A' for Active; 'I' for Inactive)
REMARK    1  A    between atoms: C3_3  and  C8_8 
REMARK    2  A    between atoms: C3_3  and  C9_9 
ROOT
HETATM    1  C1  UNL     1     -35.442  17.061  -1.251  1.00 20.00     0.012 C 
HETATM    2  C2  UNL     1     -34.644  16.676  -2.061  1.00 20.00    -0.110 C 
HETATM    3  C9  UNL     1     -33.663  16.203  -3.044  1.00 20.00     0.172 C 
ENDROOT
BRANCH   3   4
HETATM    4  C3  UNL     1     -34.058  16.542  -4.467  1.00 20.00     0.151 C 
HETATM    5  O10 UNL     1     -33.496  17.412  -5.132  1.00 20.00    -0.296 OA
BRANCH   4   6
HETATM    6  C8  UNL     1     -35.188  15.750  -5.042  1.00 20.00     0.117 C 
HETATM    7  C6  UNL     1     -35.120  14.296  -4.569  1.00 20.00     0.023 C 
HETATM    8  C4  UNL     1     -35.896  13.340  -5.467  1.00 20.00     0.002 C 
HETATM    9  C5  UNL     1     -35.281  13.199  -6.861  1.00 20.00     0.010 C 
HETATM   10  C7  UNL     1     -34.418  14.371  -7.319  1.00 20.00     0.075 C 
HETATM   11  S11 UNL     1     -35.130  15.971  -6.854  1.00 20.00    -0.157 SA
ENDBRANCH   4   6
ENDBRANCH   3   4
TORSDOF 2
ENDMDL
MODEL 7
REMARK VINA RESULT:      -4.2     11.478     12.089
REMARK  2 active torsions:
REMARK  status: ('A' for Active; 'I' for Inactive)
REMARK    1  A    between atoms: C3_3  and  C8_8 
REMARK    2  A    between atoms: C3_3  and  C9_9 
ROOT
HETATM    1  C1  UNL     1     -36.180  13.542  -5.256  1.00 20.00     0.012 C 
HETATM    2  C2  UNL     1     -35.143  13.979  -4.837  1.00 20.00    -0.110 C 
HETATM    3  C9  UNL     1     -33.876  14.506  -4.318  1.00 20.00     0.172 C 
ENDROOT
BRANCH   3   4
HETATM    4  C3  UNL     1     -33.562  15.890  -4.850  1.00 20.00     0.151 C 
HETATM    5  O10 UNL     1     -33.125  16.092  -5.983  1.00 20.00    -0.296 OA
BRANCH   4   6
HETATM    6  C8  UNL     1     -33.814  17.027  -3.912  1.00 20.00     0.117 C 
HETATM    7  C6  UNL     1     -33.622  16.579  -2.462  1.00 20.00     0.023 C 
HETATM    8  C4  UNL     1     -34.323  17.490  -1.460  1.00 20.00     0.002 C 
HETATM    9  C5  UNL     1     -35.848  17.427  -1.562  1.00 20.00     0.010 C 
HETATM   10  C7  UNL     1     -36.397  16.975  -2.912  1.00 20.00     0.075 C 
HETATM   11  S11 UNL     1     -35.473  17.684  -4.300  1.00 20.00    -0.157 SA
ENDBRANCH   4   6
ENDBRANCH   3   4
TORSDOF 2
ENDMDL
MODEL 8
REMARK VINA RESULT:      -4.2     11.151     12.420
REMARK  2 active torsions:
REMARK  status: ('A' for Active; 'I' for Inactive)
REMARK    1  A    between atoms: C3_3  and  C8_8 
REMARK    2  A    between atoms: C3_3  and  C9_9 
ROOT
HETATM    1  C1  UNL     1     -34.605  16.637  -2.200  1.00 20.00     0.012 C 
HETATM    2  C2  UNL     1     -34.018  16.346  -3.206  1.00 20.00    -0.110 C 
HETATM    3  C9  UNL     1     -33.301  16.000  -4.438  1.00 20.00     0.172 C 
ENDROOT
BRANCH   3   4
HETATM    4  C3  UNL     1     -33.426  14.532  -4.791  1.00 20.00     0.151 C 
HETATM    5  O10 UNL     1     -32.852  13.639  -4.168  1.00 20.00    -0.296 OA
BRANCH   4   6
HETATM    6  C8  UNL     1     -34.304  14.209  -5.958  1.00 20.00     0.117 C 
HETATM    7  C6  UNL     1     -34.396  15.406  -6.907  1.00 20.00     0.023 C 
HETATM    8  C4  UNL     1     -35.618  15.351  -7.816  1.00 20.00     0.002 C 
HETATM    9  C5  UNL     1     -36.936  15.508  -7.055  1.00 20.00     0.010 C 
HETATM   10  C7  UNL     1     -36.890  15.128  -5.578  1.00 20.00     0.075 C 
HETATM   11  S11 UNL     1     -35.902  13.638  -5.284  1.00 20.00    -0.157 SA
ENDBRANCH   4   6
ENDBRANCH   3   4
TORSDOF 2
ENDMDL
MODEL 9
REMARK VINA RESULT:      -4.0     11.122     11.858
REMARK  2 active torsions:
REMARK  status: ('A' for Active; 'I' for Inactive)
REMARK    1  A    between atoms: C3_3  and  C8_8 
REMARK    2  A    between atoms: C3_3  and  C9_9 
ROOT
HETATM    1  C1  UNL     1     -35.453  13.208  -7.612  1.00 20.00     0.012 C 
HETATM    2  C2  UNL     1     -35.764  13.618  -6.527  1.00 20.00    -0.110 C 
HETATM    3  C9  UNL     1     -36.152  14.119  -5.204  1.00 20.00     0.172 C 
ENDROOT
BRANCH   3   4
HETATM    4  C3  UNL     1     -34.957  14.500  -4.354  1.00 20.00     0.151 C 
HETATM    5  O10 UNL     1     -34.184  13.673  -3.871  1.00 20.00    -0.296 OA
BRANCH   4   6
HETATM    6  C8  UNL     1     -34.754  15.963  -4.123  1.00 20.00     0.117 C 
HETATM    7  C6  UNL     1     -33.426  16.214  -3.405  1.00 20.00     0.023 C 
HETATM    8  C4  UNL     1     -33.376  17.567  -2.703  1.00 20.00     0.002 C 
HETATM    9  C5  UNL     1     -34.343  17.663  -1.522  1.00 20.00     0.010 C 
HETATM   10  C7  UNL     1     -35.537  16.715  -1.573  1.00 20.00     0.075 C 
HETATM   11  S11 UNL     1     -36.232  16.576  -3.241  1.00 20.00    -0.157 SA
ENDBRANCH   4   6
ENDBRANCH   3   4
TORSDOF 2
ENDMDL
