MODEL 1
REMARK VINA RESULT:      -5.2      0.000      0.000
REMARK  4 active torsions:
REMARK  status: ('A' for Active; 'I' for Inactive)
REMARK    1  A    between atoms: C5_5  and  C6_6 
REMARK    2  A    between atoms: C6_6  and  C9_9 
REMARK    3  A    between atoms: C7_7  and  C8_8 
REMARK    4  A    between atoms: C7_7  and  N10_10 
ROOT
HETATM    1  C1  UNL     1     -32.650   8.235   5.193  1.00 20.00     0.028 C 
HETATM    2  C2  UNL     1     -31.764   8.323   3.954  1.00 20.00     0.008 C 
HETATM    3  C3  UNL     1     -33.444   6.938   5.227  1.00 20.00     0.235 C 
HETATM    4  C4  UNL     1     -33.376   6.822   2.722  1.00 20.00     0.239 C 
HETATM    5  C5  UNL     1     -32.582   8.129   2.671  1.00 20.00     0.012 C 
HETATM    6  N10 UNL     1     -34.248   6.811   3.956  1.00 20.00    -0.069 N 
HETATM    7  H30 UNL     1     -34.867   7.631   3.901  1.00 20.00     0.280 HD
ENDROOT
BRANCH   6   8
HETATM    8  C7  UNL     1     -35.147   5.605   3.987  1.00 20.00     0.266 C 
BRANCH   8   9
HETATM    9  C8  UNL     1     -34.651   4.646   5.045  1.00 20.00     0.249 C 
HETATM   10  F11 UNL     1     -34.066   3.577   4.441  1.00 20.00    -0.254 F 
ENDBRANCH   8   9
ENDBRANCH   6   8
BRANCH   5  11
HETATM   11  C6  UNL     1     -31.672   8.151   1.445  1.00 20.00     0.021 C 
BRANCH  11  12
HETATM   12  C9  UNL     1     -32.018   9.258   0.459  1.00 20.00     0.115 C 
HETATM   13 CL12 UNL     1     -32.758  10.662   1.263  1.00 20.00    -0.130 Cl
ENDBRANCH  11  12
ENDBRANCH   5  11
TORSDOF 4
ENDMDL
MODEL 2
REMARK VINA RESULT:      -4.6      3.422      4.999
REMARK  4 active torsions:
REMARK  status: ('A' for Active; 'I' for Inactive)
REMARK    1  A    between atoms: C5_5  and  C6_6 
REMARK    2  A    between atoms: C6_6  and  C9_9 
REMARK    3  A    between atoms: C7_7  and  C8_8 
REMARK    4  A    between atoms: C7_7  and  N10_10 
ROOT
HETATM    1  C1  UNL     1     -31.716   8.357   4.285  1.00 20.00     0.028 C 
HETATM    2  C2  UNL     1     -32.989   7.527   4.425  1.00 20.00     0.008 C 
HETATM    3  C3  UNL     1     -31.692   9.137   2.979  1.00 20.00     0.235 C 
HETATM    4  C4  UNL     1     -33.159   7.406   1.910  1.00 20.00     0.239 C 
HETATM    5  C5  UNL     1     -33.189   6.607   3.214  1.00 20.00     0.012 C 
HETATM    6  N10 UNL     1     -31.865   8.181   1.823  1.00 20.00    -0.069 N 
HETATM    7  H30 UNL     1     -31.096   7.500   1.870  1.00 20.00     0.280 HD
ENDROOT
BRANCH   6   8
HETATM    8  C7  UNL     1     -31.728   8.883   0.499  1.00 20.00     0.266 C 
BRANCH   8   9
HETATM    9  C8  UNL     1     -32.815   9.927   0.378  1.00 20.00     0.249 C 
HETATM   10  F11 UNL     1     -33.626   9.608  -0.666  1.00 20.00    -0.254 F 
ENDBRANCH   8   9
ENDBRANCH   6   8
BRANCH   5  11
HETATM   11  C6  UNL     1     -34.500   5.835   3.336  1.00 20.00     0.021 C 
BRANCH  11  12
HETATM   12  C9  UNL     1     -34.385   4.587   4.199  1.00 20.00     0.115 C 
HETATM   13 CL12 UNL     1     -34.665   4.937   5.921  1.00 20.00    -0.130 Cl
ENDBRANCH  11  12
ENDBRANCH   5  11
TORSDOF 4
ENDMDL
MODEL 3
REMARK VINA RESULT:      -4.1     11.188     11.754
REMARK  4 active torsions:
REMARK  status: ('A' for Active; 'I' for Inactive)
REMARK    1  A    between atoms: C5_5  and  C6_6 
REMARK    2  A    between atoms: C6_6  and  C9_9 
REMARK    3  A    between atoms: C7_7  and  C8_8 
REMARK    4  A    between atoms: C7_7  and  N10_10 
ROOT
HETATM    1  C1  UNL     1     -35.525  17.203  -0.413  1.00 20.00     0.028 C 
HETATM    2  C2  UNL     1     -35.361  16.972  -1.913  1.00 20.00     0.008 C 
HETATM    3  C3  UNL     1     -34.665  18.358   0.076  1.00 20.00     0.235 C 
HETATM    4  C4  UNL     1     -33.035  17.944  -1.785  1.00 20.00     0.239 C 
HETATM    5  C5  UNL     1     -33.887  16.776  -2.287  1.00 20.00     0.012 C 
HETATM    6  N10 UNL     1     -33.224  18.101  -0.295  1.00 20.00    -0.069 N 
HETATM    7  H30 UNL     1     -32.949  17.212   0.145  1.00 20.00     0.280 HD
ENDROOT
BRANCH   6   8
HETATM    8  C7  UNL     1     -32.310  19.153   0.272  1.00 20.00     0.266 C 
BRANCH   8   9
HETATM    9  C8  UNL     1     -31.936  18.774   1.686  1.00 20.00     0.249 C 
HETATM   10  F11 UNL     1     -30.673  18.271   1.695  1.00 20.00    -0.254 F 
ENDBRANCH   8   9
ENDBRANCH   6   8
BRANCH   5  11
HETATM   11  C6  UNL     1     -33.732  16.615  -3.798  1.00 20.00     0.021 C 
BRANCH  11  12
HETATM   12  C9  UNL     1     -33.277  15.222  -4.211  1.00 20.00     0.115 C 
HETATM   13 CL12 UNL     1     -34.609  14.043  -4.163  1.00 20.00    -0.130 Cl
ENDBRANCH  11  12
ENDBRANCH   5  11
TORSDOF 4
ENDMDL
MODEL 4
REMARK VINA RESULT:      -4.1     11.079     11.612
REMARK  4 active torsions:
REMARK  status: ('A' for Active; 'I' for Inactive)
REMARK    1  A    between atoms: C5_5  and  C6_6 
REMARK    2  A    between atoms: C6_6  and  C9_9 
REMARK    3  A    between atoms: C7_7  and  C8_8 
REMARK    4  A    between atoms: C7_7  and  N10_10 
ROOT
HETATM    1  C1  UNL     1     -33.011  15.042  -4.272  1.00 20.00     0.028 C 
HETATM    2  C2  UNL     1     -33.606  16.227  -3.517  1.00 20.00     0.008 C 
HETATM    3  C3  UNL     1     -33.949  14.539  -5.359  1.00 20.00     0.235 C 
HETATM    4  C4  UNL     1     -35.921  15.381  -4.059  1.00 20.00     0.239 C 
HETATM    5  C5  UNL     1     -34.992  15.888  -2.955  1.00 20.00     0.012 C 
HETATM    6  N10 UNL     1     -35.286  14.196  -4.747  1.00 20.00    -0.069 N 
HETATM    7  H30 UNL     1     -35.119  13.478  -4.029  1.00 20.00     0.280 HD
ENDROOT
BRANCH   6   8
HETATM    8  C7  UNL     1     -36.215  13.578  -5.756  1.00 20.00     0.266 C 
BRANCH   8   9
HETATM    9  C8  UNL     1     -35.479  13.407  -7.065  1.00 20.00     0.249 C 
HETATM   10  F11 UNL     1     -35.164  12.094  -7.233  1.00 20.00    -0.254 F 
ENDBRANCH   8   9
ENDBRANCH   6   8
BRANCH   5  11
HETATM   11  C6  UNL     1     -35.603  17.105  -2.262  1.00 20.00     0.021 C 
BRANCH  11  12
HETATM   12  C9  UNL     1     -35.342  17.136  -0.762  1.00 20.00     0.115 C 
HETATM   13 CL12 UNL     1     -33.842  18.005  -0.363  1.00 20.00    -0.130 Cl
ENDBRANCH  11  12
ENDBRANCH   5  11
TORSDOF 4
ENDMDL
MODEL 5
REMARK VINA RESULT:      -4.0      1.334      2.071
REMARK  4 active torsions:
REMARK  status: ('A' for Active; 'I' for Inactive)
REMARK    1  A    between atoms: C5_5  and  C6_6 
REMARK    2  A    between atoms: C6_6  and  C9_9 
REMARK    3  A    between atoms: C7_7  and  C8_8 
REMARK    4  A    between atoms: C7_7  and  N10_10 
ROOT
HETATM    1  C1  UNL     1     -33.122   5.509   2.358  1.00 20.00     0.028 C 
HETATM    2  C2  UNL     1     -32.865   6.846   1.669  1.00 20.00     0.008 C 
HETATM    3  C3  UNL     1     -33.972   5.675   3.609  1.00 20.00     0.235 C 
HETATM    4  C4  UNL     1     -33.116   8.015   3.891  1.00 20.00     0.239 C 
HETATM    5  C5  UNL     1     -32.251   7.863   2.639  1.00 20.00     0.012 C 
HETATM    6  N10 UNL     1     -33.309   6.663   4.537  1.00 20.00    -0.069 N 
HETATM    7  H30 UNL     1     -32.375   6.295   4.762  1.00 20.00     0.280 HD
ENDROOT
BRANCH   6   8
HETATM    8  C7  UNL     1     -34.045   6.775   5.845  1.00 20.00     0.266 C 
BRANCH   8   9
HETATM    9  C8  UNL     1     -34.899   5.543   6.037  1.00 20.00     0.249 C 
HETATM   10  F11 UNL     1     -34.096   4.479   6.303  1.00 20.00    -0.254 F 
ENDBRANCH   8   9
ENDBRANCH   6   8
BRANCH   5  11
HETATM   11  C6  UNL     1     -32.064   9.215   1.953  1.00 20.00     0.021 C 
BRANCH  11  12
HETATM   12  C9  UNL     1     -31.789   9.099   0.460  1.00 20.00     0.115 C 
HETATM   13 CL12 UNL     1     -33.206   9.547  -0.517  1.00 20.00    -0.130 Cl
ENDBRANCH  11  12
ENDBRANCH   5  11
TORSDOF 4
ENDMDL
MODEL 6
REMARK VINA RESULT:      -4.0     11.339     11.943
REMARK  4 active torsions:
REMARK  status: ('A' for Active; 'I' for Inactive)
REMARK    1  A    between atoms: C5_5  and  C6_6 
REMARK    2  A    between atoms: C6_6  and  C9_9 
REMARK    3  A    between atoms: C7_7  and  C8_8 
REMARK    4  A    between atoms: C7_7  and  N10_10 
ROOT
HETATM    1  C1  UNL     1     -33.034  15.671  -5.786  1.00 20.00     0.028 C 
HETATM    2  C2  UNL     1     -33.305  16.600  -4.607  1.00 20.00     0.008 C 
HETATM    3  C3  UNL     1     -34.283  14.906  -6.199  1.00 20.00     0.235 C 
HETATM    4  C4  UNL     1     -35.168  15.071  -3.859  1.00 20.00     0.239 C 
HETATM    5  C5  UNL     1     -33.916  15.836  -3.426  1.00 20.00     0.012 C 
HETATM    6  N10 UNL     1     -34.825  14.153  -5.009  1.00 20.00    -0.069 N 
HETATM    7  H30 UNL     1     -34.083  13.518  -4.683  1.00 20.00     0.280 HD
ENDROOT
BRANCH   6   8
HETATM    8  C7  UNL     1     -35.991  13.282  -5.389  1.00 20.00     0.266 C 
BRANCH   8   9
HETATM    9  C8  UNL     1     -37.259  14.103  -5.336  1.00 20.00     0.249 C 
HETATM   10  F11 UNL     1     -37.578  14.513  -6.593  1.00 20.00    -0.254 F 
ENDBRANCH   8   9
ENDBRANCH   6   8
BRANCH   5  11
HETATM   11  C6  UNL     1     -34.245  16.791  -2.280  1.00 20.00     0.021 C 
BRANCH  11  12
HETATM   12  C9  UNL     1     -33.419  18.069  -2.307  1.00 20.00     0.115 C 
HETATM   13 CL12 UNL     1     -32.313  18.180  -0.917  1.00 20.00    -0.130 Cl
ENDBRANCH  11  12
ENDBRANCH   5  11
TORSDOF 4
ENDMDL
MODEL 7
REMARK VINA RESULT:      -3.9     11.096     11.688
REMARK  4 active torsions:
REMARK  status: ('A' for Active; 'I' for Inactive)
REMARK    1  A    between atoms: C5_5  and  C6_6 
REMARK    2  A    between atoms: C6_6  and  C9_9 
REMARK    3  A    between atoms: C7_7  and  C8_8 
REMARK    4  A    between atoms: C7_7  and  N10_10 
ROOT
HETATM    1  C1  UNL     1     -35.772  17.516  -0.918  1.00 20.00     0.028 C 
HETATM    2  C2  UNL     1     -34.455  17.762  -0.189  1.00 20.00     0.008 C 
HETATM    3  C3  UNL     1     -35.591  16.591  -2.112  1.00 20.00     0.235 C 
HETATM    4  C4  UNL     1     -33.210  17.344  -2.344  1.00 20.00     0.239 C 
HETATM    5  C5  UNL     1     -33.377  18.283  -1.148  1.00 20.00     0.012 C 
HETATM    6  N10 UNL     1     -34.542  17.164  -3.034  1.00 20.00    -0.069 N 
HETATM    7  H30 UNL     1     -34.865  18.097  -3.324  1.00 20.00     0.280 HD
ENDROOT
BRANCH   6   8
HETATM    8  C7  UNL     1     -34.408  16.352  -4.293  1.00 20.00     0.266 C 
BRANCH   8   9
HETATM    9  C8  UNL     1     -34.572  14.888  -3.957  1.00 20.00     0.249 C 
HETATM   10  F11 UNL     1     -33.360  14.275  -4.025  1.00 20.00    -0.254 F 
ENDBRANCH   8   9
ENDBRANCH   6   8
BRANCH   5  11
HETATM   11  C6  UNL     1     -32.047  18.459  -0.418  1.00 20.00     0.021 C 
BRANCH  11  12
HETATM   12  C9  UNL     1     -32.209  18.890   1.033  1.00 20.00     0.115 C 
HETATM   13 CL12 UNL     1     -30.694  18.729   1.951  1.00 20.00    -0.130 Cl
ENDBRANCH  11  12
ENDBRANCH   5  11
TORSDOF 4
ENDMDL
MODEL 8
REMARK VINA RESULT:      -3.8     11.191     11.541
REMARK  4 active torsions:
REMARK  status: ('A' for Active; 'I' for Inactive)
REMARK    1  A    between atoms: C5_5  and  C6_6 
REMARK    2  A    between atoms: C6_6  and  C9_9 
REMARK    3  A    between atoms: C7_7  and  C8_8 
REMARK    4  A    between atoms: C7_7  and  N10_10 
ROOT
HETATM    1  C1  UNL     1     -32.569  18.576  -1.026  1.00 20.00     0.028 C 
HETATM    2  C2  UNL     1     -33.290  17.496  -1.826  1.00 20.00     0.008 C 
HETATM    3  C3  UNL     1     -32.923  18.513   0.452  1.00 20.00     0.235 C 
HETATM    4  C4  UNL     1     -35.145  17.498  -0.114  1.00 20.00     0.239 C 
HETATM    5  C5  UNL     1     -34.807  17.559  -1.605  1.00 20.00     0.012 C 
HETATM    6  N10 UNL     1     -34.421  18.607   0.613  1.00 20.00    -0.069 N 
HETATM    7  H30 UNL     1     -34.720  19.496   0.190  1.00 20.00     0.280 HD
ENDROOT
BRANCH   6   8
HETATM    8  C7  UNL     1     -34.820  18.672   2.062  1.00 20.00     0.266 C 
BRANCH   8   9
HETATM    9  C8  UNL     1     -33.575  18.673   2.918  1.00 20.00     0.249 C 
HETATM   10  F11 UNL     1     -33.526  17.519   3.637  1.00 20.00    -0.254 F 
ENDBRANCH   8   9
ENDBRANCH   6   8
BRANCH   5  11
HETATM   11  C6  UNL     1     -35.507  16.430  -2.357  1.00 20.00     0.021 C 
BRANCH  11  12
HETATM   12  C9  UNL     1     -34.920  16.171  -3.737  1.00 20.00     0.115 C 
HETATM   13 CL12 UNL     1     -34.371  14.488  -3.925  1.00 20.00    -0.130 Cl
ENDBRANCH  11  12
ENDBRANCH   5  11
TORSDOF 4
ENDMDL
MODEL 9
REMARK VINA RESULT:      -3.8     11.177     11.781
REMARK  4 active torsions:
REMARK  status: ('A' for Active; 'I' for Inactive)
REMARK    1  A    between atoms: C5_5  and  C6_6 
REMARK    2  A    between atoms: C6_6  and  C9_9 
REMARK    3  A    between atoms: C7_7  and  C8_8 
REMARK    4  A    between atoms: C7_7  and  N10_10 
ROOT
HETATM    1  C1  UNL     1     -33.552  16.621  -4.726  1.00 20.00     0.028 C 
HETATM    2  C2  UNL     1     -33.486  17.405  -3.418  1.00 20.00     0.008 C 
HETATM    3  C3  UNL     1     -34.987  16.320  -5.131  1.00 20.00     0.235 C 
HETATM    4  C4  UNL     1     -35.689  16.386  -2.724  1.00 20.00     0.239 C 
HETATM    5  C5  UNL     1     -34.249  16.684  -2.300  1.00 20.00     0.012 C 
HETATM    6  N10 UNL     1     -35.681  15.588  -4.007  1.00 20.00    -0.069 N 
HETATM    7  H30 UNL     1     -35.149  14.726  -3.828  1.00 20.00     0.280 HD
ENDROOT
BRANCH   6   8
HETATM    8  C7  UNL     1     -37.068  15.157  -4.399  1.00 20.00     0.266 C 
BRANCH   8   9
HETATM    9  C8  UNL     1     -36.970  14.011  -5.379  1.00 20.00     0.249 C 
HETATM   10  F11 UNL     1     -36.032  13.128  -4.942  1.00 20.00    -0.254 F 
ENDBRANCH   8   9
ENDBRANCH   6   8
BRANCH   5  11
HETATM   11  C6  UNL     1     -34.233  17.514  -1.018  1.00 20.00     0.021 C 
BRANCH  11  12
HETATM   12  C9  UNL     1     -35.528  17.418  -0.223  1.00 20.00     0.115 C 
HETATM   13 CL12 UNL     1     -35.307  17.901   1.475  1.00 20.00    -0.130 Cl
ENDBRANCH  11  12
ENDBRANCH   5  11
TORSDOF 4
ENDMDL
