MODEL 1
REMARK VINA RESULT:      -6.2      0.000      0.000
REMARK  0 active torsions:
REMARK  status: ('A' for Active; 'I' for Inactive)
ROOT
HETATM    1  C1  UNL     1     -31.822   8.601   1.543  1.00 20.00     0.088 C 
HETATM    2  C2  UNL     1     -32.924   7.272   3.224  1.00 20.00    -0.069 C 
HETATM    3  C3  UNL     1     -32.409   8.440   2.826  1.00 20.00     0.096 C 
HETATM    4  C4  UNL     1     -32.943   6.022   2.389  1.00 20.00     0.036 C 
HETATM    5  C5  UNL     1     -33.582   7.037   4.555  1.00 20.00     0.043 C 
HETATM    6  C6  UNL     1     -33.455   4.958   3.359  1.00 20.00     0.013 C 
HETATM    7  C7  UNL     1     -34.355   5.721   4.348  1.00 20.00    -0.044 C 
HETATM    8  C8  UNL     1     -35.748   5.981   3.745  1.00 20.00     0.015 C 
HETATM    9  C9  UNL     1     -34.517   4.953   5.663  1.00 20.00     0.015 C 
HETATM   10  N10 UNL     1     -31.342   8.738   0.496  1.00 20.00    -0.192 NA
ENDROOT
TORSDOF 0
ENDMDL
MODEL 2
REMARK VINA RESULT:      -5.2      2.479      4.618
REMARK  0 active torsions:
REMARK  status: ('A' for Active; 'I' for Inactive)
ROOT
HETATM    1  C1  UNL     1     -34.511   5.729   4.753  1.00 20.00     0.088 C 
HETATM    2  C2  UNL     1     -33.300   6.902   3.033  1.00 20.00    -0.069 C 
HETATM    3  C3  UNL     1     -34.230   6.009   3.391  1.00 20.00     0.096 C 
HETATM    4  C4  UNL     1     -32.463   7.693   3.998  1.00 20.00     0.036 C 
HETATM    5  C5  UNL     1     -32.968   7.267   1.612  1.00 20.00     0.043 C 
HETATM    6  C6  UNL     1     -31.457   8.402   3.093  1.00 20.00     0.013 C 
HETATM    7  C7  UNL     1     -32.189   8.588   1.752  1.00 20.00    -0.044 C 
HETATM    8  C8  UNL     1     -33.142   9.796   1.803  1.00 20.00     0.015 C 
HETATM    9  C9  UNL     1     -31.201   8.782   0.599  1.00 20.00     0.015 C 
HETATM   10  N10 UNL     1     -34.745   5.495   5.865  1.00 20.00    -0.192 NA
ENDROOT
TORSDOF 0
ENDMDL
MODEL 3
REMARK VINA RESULT:      -4.5     11.422     12.123
REMARK  0 active torsions:
REMARK  status: ('A' for Active; 'I' for Inactive)
ROOT
HETATM    1  C1  UNL     1     -35.914  14.097  -4.918  1.00 20.00     0.088 C 
HETATM    2  C2  UNL     1     -34.637  15.615  -3.552  1.00 20.00    -0.069 C 
HETATM    3  C3  UNL     1     -34.687  14.672  -4.499  1.00 20.00     0.096 C 
HETATM    4  C4  UNL     1     -35.838  16.165  -2.835  1.00 20.00     0.036 C 
HETATM    5  C5  UNL     1     -33.378  16.286  -3.078  1.00 20.00     0.043 C 
HETATM    6  C6  UNL     1     -35.226  17.051  -1.751  1.00 20.00     0.013 C 
HETATM    7  C7  UNL     1     -33.890  17.537  -2.340  1.00 20.00    -0.044 C 
HETATM    8  C8  UNL     1     -34.106  18.710  -3.314  1.00 20.00     0.015 C 
HETATM    9  C9  UNL     1     -32.920  17.975  -1.240  1.00 20.00     0.015 C 
HETATM   10  N10 UNL     1     -36.916  13.623  -5.265  1.00 20.00    -0.192 NA
ENDROOT
TORSDOF 0
ENDMDL
MODEL 4
REMARK VINA RESULT:      -4.5     11.196     12.142
REMARK  0 active torsions:
REMARK  status: ('A' for Active; 'I' for Inactive)
ROOT
HETATM    1  C1  UNL     1     -36.164  13.885  -4.943  1.00 20.00     0.088 C 
HETATM    2  C2  UNL     1     -35.692  15.955  -3.804  1.00 20.00    -0.069 C 
HETATM    3  C3  UNL     1     -36.534  15.181  -4.497  1.00 20.00     0.096 C 
HETATM    4  C4  UNL     1     -34.293  15.562  -3.422  1.00 20.00     0.036 C 
HETATM    5  C5  UNL     1     -36.025  17.324  -3.279  1.00 20.00     0.043 C 
HETATM    6  C6  UNL     1     -33.717  16.844  -2.823  1.00 20.00     0.013 C 
HETATM    7  C7  UNL     1     -34.928  17.585  -2.230  1.00 20.00    -0.044 C 
HETATM    8  C8  UNL     1     -35.318  17.004  -0.859  1.00 20.00     0.015 C 
HETATM    9  C9  UNL     1     -34.645  19.082  -2.074  1.00 20.00     0.015 C 
HETATM   10  N10 UNL     1     -35.867  12.825  -5.309  1.00 20.00    -0.192 NA
ENDROOT
TORSDOF 0
ENDMDL
MODEL 5
REMARK VINA RESULT:      -4.4     11.375     11.831
REMARK  0 active torsions:
REMARK  status: ('A' for Active; 'I' for Inactive)
ROOT
HETATM    1  C1  UNL     1     -33.291  17.678  -1.622  1.00 20.00     0.088 C 
HETATM    2  C2  UNL     1     -34.551  16.159  -3.004  1.00 20.00    -0.069 C 
HETATM    3  C3  UNL     1     -34.508  17.068  -2.024  1.00 20.00     0.096 C 
HETATM    4  C4  UNL     1     -33.353  15.685  -3.778  1.00 20.00     0.036 C 
HETATM    5  C5  UNL     1     -35.805  15.493  -3.498  1.00 20.00     0.043 C 
HETATM    6  C6  UNL     1     -33.910  14.540  -4.622  1.00 20.00     0.013 C 
HETATM    7  C7  UNL     1     -35.388  14.900  -4.856  1.00 20.00    -0.044 C 
HETATM    8  C8  UNL     1     -35.536  15.935  -5.986  1.00 20.00     0.015 C 
HETATM    9  C9  UNL     1     -36.216  13.660  -5.205  1.00 20.00     0.015 C 
HETATM   10  N10 UNL     1     -32.299  18.180  -1.290  1.00 20.00    -0.192 NA
ENDROOT
TORSDOF 0
ENDMDL
MODEL 6
REMARK VINA RESULT:      -4.4     11.693     12.113
REMARK  0 active torsions:
REMARK  status: ('A' for Active; 'I' for Inactive)
ROOT
HETATM    1  C1  UNL     1     -32.525  18.152  -0.638  1.00 20.00     0.088 C 
HETATM    2  C2  UNL     1     -34.322  17.154  -1.893  1.00 20.00    -0.069 C 
HETATM    3  C3  UNL     1     -33.900  17.874  -0.848  1.00 20.00     0.096 C 
HETATM    4  C4  UNL     1     -33.419  16.568  -2.943  1.00 20.00     0.036 C 
HETATM    5  C5  UNL     1     -35.762  16.843  -2.192  1.00 20.00     0.043 C 
HETATM    6  C6  UNL     1     -34.364  15.705  -3.778  1.00 20.00     0.013 C 
HETATM    7  C7  UNL     1     -35.736  16.392  -3.664  1.00 20.00    -0.044 C 
HETATM    8  C8  UNL     1     -35.836  17.596  -4.619  1.00 20.00     0.015 C 
HETATM    9  C9  UNL     1     -36.876  15.417  -3.972  1.00 20.00     0.015 C 
HETATM   10  N10 UNL     1     -31.401  18.383  -0.461  1.00 20.00    -0.192 NA
ENDROOT
TORSDOF 0
ENDMDL
MODEL 7
REMARK VINA RESULT:      -4.2     11.610     12.408
REMARK  0 active torsions:
REMARK  status: ('A' for Active; 'I' for Inactive)
ROOT
HETATM    1  C1  UNL     1     -35.144  18.579   2.206  1.00 20.00     0.088 C 
HETATM    2  C2  UNL     1     -34.815  17.670  -0.001  1.00 20.00    -0.069 C 
HETATM    3  C3  UNL     1     -35.561  17.789   1.103  1.00 20.00     0.096 C 
HETATM    4  C4  UNL     1     -33.483  18.335  -0.203  1.00 20.00     0.036 C 
HETATM    5  C5  UNL     1     -35.205  16.873  -1.215  1.00 20.00     0.043 C 
HETATM    6  C6  UNL     1     -32.984  17.732  -1.516  1.00 20.00     0.013 C 
HETATM    7  C7  UNL     1     -34.258  17.397  -2.310  1.00 20.00    -0.044 C 
HETATM    8  C8  UNL     1     -34.834  18.651  -2.992  1.00 20.00     0.015 C 
HETATM    9  C9  UNL     1     -33.988  16.331  -3.375  1.00 20.00     0.015 C 
HETATM   10  N10 UNL     1     -34.808  19.223   3.111  1.00 20.00    -0.192 NA
ENDROOT
TORSDOF 0
ENDMDL
MODEL 8
REMARK VINA RESULT:      -4.2     10.894     12.132
REMARK  0 active torsions:
REMARK  status: ('A' for Active; 'I' for Inactive)
ROOT
HETATM    1  C1  UNL     1     -35.452  17.512  -0.206  1.00 20.00     0.088 C 
HETATM    2  C2  UNL     1     -34.610  16.803  -2.349  1.00 20.00    -0.069 C 
HETATM    3  C3  UNL     1     -34.387  17.219  -1.098  1.00 20.00     0.096 C 
HETATM    4  C4  UNL     1     -35.974  16.603  -2.949  1.00 20.00     0.036 C 
HETATM    5  C5  UNL     1     -33.534  16.450  -3.338  1.00 20.00     0.043 C 
HETATM    6  C6  UNL     1     -35.673  16.315  -4.419  1.00 20.00     0.013 C 
HETATM    7  C7  UNL     1     -34.285  15.651  -4.419  1.00 20.00    -0.044 C 
HETATM    8  C8  UNL     1     -34.381  14.161  -4.046  1.00 20.00     0.015 C 
HETATM    9  C9  UNL     1     -33.604  15.780  -5.785  1.00 20.00     0.015 C 
HETATM   10  N10 UNL     1     -36.318  17.753   0.527  1.00 20.00    -0.192 NA
ENDROOT
TORSDOF 0
ENDMDL
MODEL 9
REMARK VINA RESULT:      -4.1     11.400     12.238
REMARK  0 active torsions:
REMARK  status: ('A' for Active; 'I' for Inactive)
ROOT
HETATM    1  C1  UNL     1     -35.297  16.932  -1.558  1.00 20.00     0.088 C 
HETATM    2  C2  UNL     1     -35.051  15.783  -3.661  1.00 20.00    -0.069 C 
HETATM    3  C3  UNL     1     -35.826  16.400  -2.762  1.00 20.00     0.096 C 
HETATM    4  C4  UNL     1     -33.569  15.583  -3.511  1.00 20.00     0.036 C 
HETATM    5  C5  UNL     1     -35.538  15.220  -4.967  1.00 20.00     0.043 C 
HETATM    6  C6  UNL     1     -33.214  14.681  -4.693  1.00 20.00     0.013 C 
HETATM    7  C7  UNL     1     -34.245  15.027  -5.782  1.00 20.00    -0.044 C 
HETATM    8  C8  UNL     1     -33.856  16.319  -6.525  1.00 20.00     0.015 C 
HETATM    9  C9  UNL     1     -34.387  13.891  -6.798  1.00 20.00     0.015 C 
HETATM   10  N10 UNL     1     -34.870  17.369  -0.571  1.00 20.00    -0.192 NA
ENDROOT
TORSDOF 0
ENDMDL
