MODEL 1
REMARK VINA RESULT:      -4.3      0.000      0.000
REMARK  4 active torsions:
REMARK  status: ('A' for Active; 'I' for Inactive)
REMARK    1  A    between atoms: C3_3  and  C5_5 
REMARK    2  A    between atoms: C3_3  and  N7_7 
REMARK    3  A    between atoms: C4_4  and  C6_6 
REMARK    4  A    between atoms: C4_4  and  N7_7 
ROOT
HETATM    1  C2  UNL     1     -32.965   5.097   2.600  1.00 20.00     0.310 C 
HETATM    2  N7  UNL     1     -33.419   6.486   2.639  1.00 20.00     0.087 N 
ENDROOT
BRANCH   2   3
HETATM    3  C3  UNL     1     -32.282   7.390   2.816  1.00 20.00     0.303 C 
BRANCH   3   4
HETATM    4  C5  UNL     1     -32.308   8.520   1.808  1.00 20.00     0.252 C 
HETATM    5  F8  UNL     1     -31.236   8.396   0.979  1.00 20.00    -0.254 F 
ENDBRANCH   3   4
ENDBRANCH   2   3
BRANCH   2   6
HETATM    6  C4  UNL     1     -34.394   6.676   3.712  1.00 20.00     0.291 C 
BRANCH   6   7
HETATM    7  C6  UNL     1     -33.836   6.263   5.074  1.00 20.00     0.106 C 
HETATM    8  C1  UNL     1     -33.827   7.399   6.090  1.00 20.00     0.028 C 
HETATM    9 CL9  UNL     1     -34.746   4.871   5.739  1.00 20.00    -0.124 Cl
ENDBRANCH   6   7
ENDBRANCH   2   6
TORSDOF 4
ENDMDL
MODEL 2
REMARK VINA RESULT:      -4.2      2.795      3.989
REMARK  4 active torsions:
REMARK  status: ('A' for Active; 'I' for Inactive)
REMARK    1  A    between atoms: C3_3  and  C5_5 
REMARK    2  A    between atoms: C3_3  and  N7_7 
REMARK    3  A    between atoms: C4_4  and  C6_6 
REMARK    4  A    between atoms: C4_4  and  N7_7 
ROOT
HETATM    1  C2  UNL     1     -33.053   4.965   2.700  1.00 20.00     0.310 C 
HETATM    2  N7  UNL     1     -33.484   6.111   3.499  1.00 20.00     0.087 N 
ENDROOT
BRANCH   2   3
HETATM    3  C3  UNL     1     -34.742   5.814   4.182  1.00 20.00     0.303 C 
BRANCH   3   4
HETATM    4  C5  UNL     1     -34.572   5.817   5.687  1.00 20.00     0.252 C 
HETATM    5  F8  UNL     1     -34.077   7.025   6.073  1.00 20.00    -0.254 F 
ENDBRANCH   3   4
ENDBRANCH   2   3
BRANCH   2   6
HETATM    6  C4  UNL     1     -33.628   7.297   2.655  1.00 20.00     0.291 C 
BRANCH   6   7
HETATM    7  C6  UNL     1     -32.277   7.931   2.322  1.00 20.00     0.106 C 
HETATM    8  C1  UNL     1     -32.396   9.179   1.456  1.00 20.00     0.028 C 
HETATM    9 CL9  UNL     1     -31.373   8.323   3.817  1.00 20.00    -0.124 Cl
ENDBRANCH   6   7
ENDBRANCH   2   6
TORSDOF 4
ENDMDL
MODEL 3
REMARK VINA RESULT:      -4.2      1.556      2.342
REMARK  4 active torsions:
REMARK  status: ('A' for Active; 'I' for Inactive)
REMARK    1  A    between atoms: C3_3  and  C5_5 
REMARK    2  A    between atoms: C3_3  and  N7_7 
REMARK    3  A    between atoms: C4_4  and  C6_6 
REMARK    4  A    between atoms: C4_4  and  N7_7 
ROOT
HETATM    1  C2  UNL     1     -31.406   8.306   3.476  1.00 20.00     0.310 C 
HETATM    2  N7  UNL     1     -32.498   7.595   2.813  1.00 20.00     0.087 N 
ENDROOT
BRANCH   2   3
HETATM    3  C3  UNL     1     -33.087   8.428   1.764  1.00 20.00     0.303 C 
BRANCH   3   4
HETATM    4  C5  UNL     1     -32.094   9.441   1.236  1.00 20.00     0.252 C 
HETATM    5  F8  UNL     1     -32.679  10.671   1.231  1.00 20.00    -0.254 F 
ENDBRANCH   3   4
ENDBRANCH   2   3
BRANCH   2   6
HETATM    6  C4  UNL     1     -33.516   7.200   3.785  1.00 20.00     0.291 C 
BRANCH   6   7
HETATM    7  C6  UNL     1     -34.117   5.832   3.462  1.00 20.00     0.106 C 
HETATM    8  C1  UNL     1     -33.137   4.895   2.764  1.00 20.00     0.028 C 
HETATM    9 CL9  UNL     1     -34.745   5.047   4.943  1.00 20.00    -0.124 Cl
ENDBRANCH   6   7
ENDBRANCH   2   6
TORSDOF 4
ENDMDL
MODEL 4
REMARK VINA RESULT:      -4.2      3.272      4.343
REMARK  4 active torsions:
REMARK  status: ('A' for Active; 'I' for Inactive)
REMARK    1  A    between atoms: C3_3  and  C5_5 
REMARK    2  A    between atoms: C3_3  and  N7_7 
REMARK    3  A    between atoms: C4_4  and  C6_6 
REMARK    4  A    between atoms: C4_4  and  N7_7 
ROOT
HETATM    1  C2  UNL     1     -33.770   7.125   5.441  1.00 20.00     0.310 C 
HETATM    2  N7  UNL     1     -34.289   6.892   4.094  1.00 20.00     0.087 N 
ENDROOT
BRANCH   2   3
HETATM    3  C3  UNL     1     -35.068   5.655   4.053  1.00 20.00     0.303 C 
BRANCH   3   4
HETATM    4  C5  UNL     1     -34.619   4.679   5.121  1.00 20.00     0.252 C 
HETATM    5  F8  UNL     1     -34.064   3.592   4.520  1.00 20.00    -0.254 F 
ENDBRANCH   3   4
ENDBRANCH   2   3
BRANCH   2   6
HETATM    6  C4  UNL     1     -33.194   6.838   3.126  1.00 20.00     0.291 C 
BRANCH   6   7
HETATM    7  C6  UNL     1     -32.579   8.216   2.880  1.00 20.00     0.106 C 
HETATM    8  C1  UNL     1     -31.170   8.355   3.445  1.00 20.00     0.028 C 
HETATM    9 CL9  UNL     1     -32.564   8.603   1.132  1.00 20.00    -0.124 Cl
ENDBRANCH   6   7
ENDBRANCH   2   6
TORSDOF 4
ENDMDL
MODEL 5
REMARK VINA RESULT:      -4.1      3.360      4.843
REMARK  4 active torsions:
REMARK  status: ('A' for Active; 'I' for Inactive)
REMARK    1  A    between atoms: C3_3  and  C5_5 
REMARK    2  A    between atoms: C3_3  and  N7_7 
REMARK    3  A    between atoms: C4_4  and  C6_6 
REMARK    4  A    between atoms: C4_4  and  N7_7 
ROOT
HETATM    1  C2  UNL     1     -31.449   8.281   3.682  1.00 20.00     0.310 C 
HETATM    2  N7  UNL     1     -32.389   8.255   2.563  1.00 20.00     0.087 N 
ENDROOT
BRANCH   2   3
HETATM    3  C3  UNL     1     -33.156   7.010   2.568  1.00 20.00     0.303 C 
BRANCH   3   4
HETATM    4  C5  UNL     1     -33.923   6.834   3.863  1.00 20.00     0.252 C 
HETATM    5  F8  UNL     1     -35.070   6.149   3.607  1.00 20.00    -0.254 F 
ENDBRANCH   3   4
ENDBRANCH   2   3
BRANCH   2   6
HETATM    6  C4  UNL     1     -31.679   8.412   1.294  1.00 20.00     0.291 C 
BRANCH   6   7
HETATM    7  C6  UNL     1     -32.159   9.639   0.517  1.00 20.00     0.106 C 
HETATM    8  C1  UNL     1     -33.199   9.307  -0.547  1.00 20.00     0.028 C 
HETATM    9 CL9  UNL     1     -32.814  10.880   1.629  1.00 20.00    -0.124 Cl
ENDBRANCH   6   7
ENDBRANCH   2   6
TORSDOF 4
ENDMDL
MODEL 6
REMARK VINA RESULT:      -4.1      2.185      2.658
REMARK  4 active torsions:
REMARK  status: ('A' for Active; 'I' for Inactive)
REMARK    1  A    between atoms: C3_3  and  C5_5 
REMARK    2  A    between atoms: C3_3  and  N7_7 
REMARK    3  A    between atoms: C4_4  and  C6_6 
REMARK    4  A    between atoms: C4_4  and  N7_7 
ROOT
HETATM    1  C2  UNL     1     -31.445   8.418   3.517  1.00 20.00     0.310 C 
HETATM    2  N7  UNL     1     -31.958   7.886   2.256  1.00 20.00     0.087 N 
ENDROOT
BRANCH   2   3
HETATM    3  C3  UNL     1     -31.825   8.879   1.190  1.00 20.00     0.303 C 
BRANCH   3   4
HETATM    4  C5  UNL     1     -32.996   9.840   1.176  1.00 20.00     0.252 C 
HETATM    5  F8  UNL     1     -32.545  11.089   1.472  1.00 20.00    -0.254 F 
ENDBRANCH   3   4
ENDBRANCH   2   3
BRANCH   2   6
HETATM    6  C4  UNL     1     -33.355   7.479   2.404  1.00 20.00     0.291 C 
BRANCH   6   7
HETATM    7  C6  UNL     1     -33.505   6.277   3.337  1.00 20.00     0.106 C 
HETATM    8  C1  UNL     1     -34.936   6.064   3.817  1.00 20.00     0.028 C 
HETATM    9 CL9  UNL     1     -32.908   4.783   2.551  1.00 20.00    -0.124 Cl
ENDBRANCH   6   7
ENDBRANCH   2   6
TORSDOF 4
ENDMDL
MODEL 7
REMARK VINA RESULT:      -4.0      3.348      4.515
REMARK  4 active torsions:
REMARK  status: ('A' for Active; 'I' for Inactive)
REMARK    1  A    between atoms: C3_3  and  C5_5 
REMARK    2  A    between atoms: C3_3  and  N7_7 
REMARK    3  A    between atoms: C4_4  and  C6_6 
REMARK    4  A    between atoms: C4_4  and  N7_7 
ROOT
HETATM    1  C2  UNL     1     -33.209   7.518   4.907  1.00 20.00     0.310 C 
HETATM    2  N7  UNL     1     -33.344   7.512   3.451  1.00 20.00     0.087 N 
ENDROOT
BRANCH   2   3
HETATM    3  C3  UNL     1     -33.584   6.153   2.966  1.00 20.00     0.303 C 
BRANCH   3   4
HETATM    4  C5  UNL     1     -34.499   5.384   3.895  1.00 20.00     0.252 C 
HETATM    5  F8  UNL     1     -35.771   5.842   3.742  1.00 20.00    -0.254 F 
ENDBRANCH   3   4
ENDBRANCH   2   3
BRANCH   2   6
HETATM    6  C4  UNL     1     -32.149   8.075   2.824  1.00 20.00     0.291 C 
BRANCH   6   7
HETATM    7  C6  UNL     1     -32.464   8.734   1.481  1.00 20.00     0.106 C 
HETATM    8  C1  UNL     1     -32.780  10.221   1.600  1.00 20.00     0.028 C 
HETATM    9 CL9  UNL     1     -31.116   8.499   0.326  1.00 20.00    -0.124 Cl
ENDBRANCH   6   7
ENDBRANCH   2   6
TORSDOF 4
ENDMDL
MODEL 8
REMARK VINA RESULT:      -3.5      2.559      3.325
REMARK  4 active torsions:
REMARK  status: ('A' for Active; 'I' for Inactive)
REMARK    1  A    between atoms: C3_3  and  C5_5 
REMARK    2  A    between atoms: C3_3  and  N7_7 
REMARK    3  A    between atoms: C4_4  and  C6_6 
REMARK    4  A    between atoms: C4_4  and  N7_7 
ROOT
HETATM    1  C2  UNL     1     -32.636   8.126   2.277  1.00 20.00     0.310 C 
HETATM    2  N7  UNL     1     -33.192   7.277   3.329  1.00 20.00     0.087 N 
ENDROOT
BRANCH   2   3
HETATM    3  C3  UNL     1     -32.599   7.614   4.624  1.00 20.00     0.303 C 
BRANCH   3   4
HETATM    4  C5  UNL     1     -33.652   7.709   5.709  1.00 20.00     0.252 C 
HETATM    5  F8  UNL     1     -33.829   6.478   6.261  1.00 20.00    -0.254 F 
ENDBRANCH   3   4
ENDBRANCH   2   3
BRANCH   2   6
HETATM    6  C4  UNL     1     -32.970   5.865   3.018  1.00 20.00     0.291 C 
BRANCH   6   7
HETATM    7  C6  UNL     1     -34.225   5.023   3.251  1.00 20.00     0.106 C 
HETATM    8  C1  UNL     1     -34.071   4.016   4.384  1.00 20.00     0.028 C 
HETATM    9 CL9  UNL     1     -35.643   6.070   3.567  1.00 20.00    -0.124 Cl
ENDBRANCH   6   7
ENDBRANCH   2   6
TORSDOF 4
ENDMDL
MODEL 9
REMARK VINA RESULT:      -3.3     11.373     12.193
REMARK  4 active torsions:
REMARK  status: ('A' for Active; 'I' for Inactive)
REMARK    1  A    between atoms: C3_3  and  C5_5 
REMARK    2  A    between atoms: C3_3  and  N7_7 
REMARK    3  A    between atoms: C4_4  and  C6_6 
REMARK    4  A    between atoms: C4_4  and  N7_7 
ROOT
HETATM    1  C2  UNL     1     -36.700  15.129  -4.401  1.00 20.00     0.310 C 
HETATM    2  N7  UNL     1     -35.534  14.567  -5.080  1.00 20.00     0.087 N 
ENDROOT
BRANCH   2   3
HETATM    3  C3  UNL     1     -35.907  13.366  -5.827  1.00 20.00     0.303 C 
BRANCH   3   4
HETATM    4  C5  UNL     1     -35.443  13.441  -7.267  1.00 20.00     0.252 C 
HETATM    5  F8  UNL     1     -34.094  13.267  -7.306  1.00 20.00    -0.254 F 
ENDBRANCH   3   4
ENDBRANCH   2   3
BRANCH   2   6
HETATM    6  C4  UNL     1     -34.479  14.261  -4.115  1.00 20.00     0.291 C 
BRANCH   6   7
HETATM    7  C6  UNL     1     -33.373  15.317  -4.121  1.00 20.00     0.106 C 
HETATM    8  C1  UNL     1     -33.217  16.016  -5.466  1.00 20.00     0.028 C 
HETATM    9 CL9  UNL     1     -33.652  16.537  -2.840  1.00 20.00    -0.124 Cl
ENDBRANCH   6   7
ENDBRANCH   2   6
TORSDOF 4
ENDMDL
