MODEL 1
REMARK VINA RESULT:      -5.4      0.000      0.000
REMARK  3 active torsions:
REMARK  status: ('A' for Active; 'I' for Inactive)
REMARK    1  A    between atoms: C5_5  and  C8_8 
REMARK    2  A    between atoms: C6_6  and  C9_9 
REMARK    3  A    between atoms: C8_8  and  C10_10 
ROOT
HETATM    1  C1  UNL     1     -33.554   7.144   5.203  1.00 20.00     0.131 C 
HETATM    2  C2  UNL     1     -32.692   8.386   5.169  1.00 20.00     0.079 C 
HETATM    3  C3  UNL     1     -31.788   8.376   3.944  1.00 20.00     0.012 C 
HETATM    4  C4  UNL     1     -33.390   6.858   2.728  1.00 20.00     0.017 C 
HETATM    5  C5  UNL     1     -34.338   6.840   3.931  1.00 20.00     0.058 C 
HETATM    6  C6  UNL     1     -32.587   8.166   2.651  1.00 20.00    -0.014 C 
HETATM    7  O11 UNL     1     -33.673   6.483   6.234  1.00 20.00    -0.298 OA
ENDROOT
BRANCH   5   8
HETATM    8  C8  UNL     1     -35.068   5.504   4.023  1.00 20.00     0.043 C 
BRANCH   8   9
HETATM    9  C10 UNL     1     -34.129   4.339   3.775  1.00 20.00     0.223 C 
HETATM   10  F12 UNL     1     -33.973   3.634   4.927  1.00 20.00    -0.255 F 
ENDBRANCH   8   9
ENDBRANCH   5   8
BRANCH   6  11
HETATM   11  C9  UNL     1     -31.656   8.155   1.440  1.00 20.00     0.000 C 
HETATM   12  C7  UNL     1     -31.967   9.269   0.495  1.00 20.00     0.005 C 
ENDBRANCH   6  11
TORSDOF 3
ENDMDL
MODEL 2
REMARK VINA RESULT:      -4.6     11.743     12.311
REMARK  3 active torsions:
REMARK  status: ('A' for Active; 'I' for Inactive)
REMARK    1  A    between atoms: C5_5  and  C8_8 
REMARK    2  A    between atoms: C6_6  and  C9_9 
REMARK    3  A    between atoms: C8_8  and  C10_10 
ROOT
HETATM    1  C1  UNL     1     -37.108  14.833  -4.698  1.00 20.00     0.131 C 
HETATM    2  C2  UNL     1     -37.330  16.167  -4.019  1.00 20.00     0.079 C 
HETATM    3  C3  UNL     1     -36.223  16.445  -3.013  1.00 20.00     0.012 C 
HETATM    4  C4  UNL     1     -34.651  14.925  -4.265  1.00 20.00     0.017 C 
HETATM    5  C5  UNL     1     -35.728  14.617  -5.309  1.00 20.00     0.058 C 
HETATM    6  C6  UNL     1     -34.832  16.322  -3.650  1.00 20.00    -0.014 C 
HETATM    7  O11 UNL     1     -38.026  14.023  -4.819  1.00 20.00    -0.298 OA
ENDROOT
BRANCH   5   8
HETATM    8  C8  UNL     1     -35.566  13.200  -5.850  1.00 20.00     0.043 C 
BRANCH   8   9
HETATM    9  C10 UNL     1     -35.275  13.203  -7.339  1.00 20.00     0.223 C 
HETATM   10  F12 UNL     1     -33.962  13.491  -7.540  1.00 20.00    -0.255 F 
ENDBRANCH   8   9
ENDBRANCH   5   8
BRANCH   6  11
HETATM   11  C9  UNL     1     -33.741  16.600  -2.617  1.00 20.00     0.000 C 
HETATM   12  C7  UNL     1     -34.306  17.177  -1.361  1.00 20.00     0.005 C 
ENDBRANCH   6  11
TORSDOF 3
ENDMDL
MODEL 3
REMARK VINA RESULT:      -4.5     11.371     12.170
REMARK  3 active torsions:
REMARK  status: ('A' for Active; 'I' for Inactive)
REMARK    1  A    between atoms: C5_5  and  C8_8 
REMARK    2  A    between atoms: C6_6  and  C9_9 
REMARK    3  A    between atoms: C8_8  and  C10_10 
ROOT
HETATM    1  C1  UNL     1     -33.540  17.467  -3.089  1.00 20.00     0.131 C 
HETATM    2  C2  UNL     1     -32.922  18.230  -1.938  1.00 20.00     0.079 C 
HETATM    3  C3  UNL     1     -33.985  18.614  -0.919  1.00 20.00     0.012 C 
HETATM    4  C4  UNL     1     -35.450  16.707  -1.670  1.00 20.00     0.017 C 
HETATM    5  C5  UNL     1     -34.410  16.274  -2.708  1.00 20.00     0.058 C 
HETATM    6  C6  UNL     1     -34.800  17.397  -0.461  1.00 20.00    -0.014 C 
HETATM    7  O11 UNL     1     -33.273  17.753  -4.255  1.00 20.00    -0.298 OA
ENDROOT
BRANCH   5   8
HETATM    8  C8  UNL     1     -35.088  15.657  -3.927  1.00 20.00     0.043 C 
BRANCH   8   9
HETATM    9  C10 UNL     1     -34.546  14.272  -4.224  1.00 20.00     0.223 C 
HETATM   10  F12 UNL     1     -33.194  14.280  -4.085  1.00 20.00    -0.255 F 
ENDBRANCH   8   9
ENDBRANCH   5   8
BRANCH   6  11
HETATM   11  C9  UNL     1     -35.861  17.813   0.556  1.00 20.00     0.000 C 
HETATM   12  C7  UNL     1     -35.246  18.332   1.814  1.00 20.00     0.005 C 
ENDBRANCH   6  11
TORSDOF 3
ENDMDL
MODEL 4
REMARK VINA RESULT:      -4.5      1.442      1.712
REMARK  3 active torsions:
REMARK  status: ('A' for Active; 'I' for Inactive)
REMARK    1  A    between atoms: C5_5  and  C8_8 
REMARK    2  A    between atoms: C6_6  and  C9_9 
REMARK    3  A    between atoms: C8_8  and  C10_10 
ROOT
HETATM    1  C1  UNL     1     -34.135   5.919   5.279  1.00 20.00     0.131 C 
HETATM    2  C2  UNL     1     -33.975   7.333   5.792  1.00 20.00     0.079 C 
HETATM    3  C3  UNL     1     -32.787   8.011   5.126  1.00 20.00     0.012 C 
HETATM    4  C4  UNL     1     -32.972   6.473   3.139  1.00 20.00     0.017 C 
HETATM    5  C5  UNL     1     -34.176   5.760   3.763  1.00 20.00     0.058 C 
HETATM    6  C6  UNL     1     -32.874   7.937   3.596  1.00 20.00    -0.014 C 
HETATM    7  O11 UNL     1     -34.311   4.979   6.053  1.00 20.00    -0.298 OA
ENDROOT
BRANCH   5   8
HETATM    8  C8  UNL     1     -34.208   4.292   3.349  1.00 20.00     0.043 C 
BRANCH   8   9
HETATM    9  C10 UNL     1     -32.851   3.823   2.860  1.00 20.00     0.223 C 
HETATM   10  F12 UNL     1     -32.863   3.754   1.502  1.00 20.00    -0.255 F 
ENDBRANCH   8   9
ENDBRANCH   5   8
BRANCH   6  11
HETATM   11  C9  UNL     1     -31.668   8.621   2.954  1.00 20.00     0.000 C 
HETATM   12  C7  UNL     1     -31.787   8.667   1.467  1.00 20.00     0.005 C 
ENDBRANCH   6  11
TORSDOF 3
ENDMDL
MODEL 5
REMARK VINA RESULT:      -4.5     11.836     12.363
REMARK  3 active torsions:
REMARK  status: ('A' for Active; 'I' for Inactive)
REMARK    1  A    between atoms: C5_5  and  C8_8 
REMARK    2  A    between atoms: C6_6  and  C9_9 
REMARK    3  A    between atoms: C8_8  and  C10_10 
ROOT
HETATM    1  C1  UNL     1     -34.248  14.835  -5.801  1.00 20.00     0.131 C 
HETATM    2  C2  UNL     1     -33.007  15.535  -5.293  1.00 20.00     0.079 C 
HETATM    3  C3  UNL     1     -33.371  16.565  -4.233  1.00 20.00     0.012 C 
HETATM    4  C4  UNL     1     -35.487  15.311  -3.686  1.00 20.00     0.017 C 
HETATM    5  C5  UNL     1     -35.164  14.243  -4.736  1.00 20.00     0.058 C 
HETATM    6  C6  UNL     1     -34.214  15.949  -3.108  1.00 20.00    -0.014 C 
HETATM    7  O11 UNL     1     -34.441  14.684  -7.007  1.00 20.00    -0.298 OA
ENDROOT
BRANCH   5   8
HETATM    8  C8  UNL     1     -36.444  13.678  -5.343  1.00 20.00     0.043 C 
BRANCH   8   9
HETATM    9  C10 UNL     1     -37.561  14.704  -5.339  1.00 20.00     0.223 C 
HETATM   10  F12 UNL     1     -38.757  14.065  -5.237  1.00 20.00    -0.255 F 
ENDBRANCH   8   9
ENDBRANCH   5   8
BRANCH   6  11
HETATM   11  C9  UNL     1     -34.569  17.005  -2.063  1.00 20.00     0.000 C 
HETATM   12  C7  UNL     1     -33.349  17.662  -1.506  1.00 20.00     0.005 C 
ENDBRANCH   6  11
TORSDOF 3
ENDMDL
MODEL 6
REMARK VINA RESULT:      -4.3     11.815     12.420
REMARK  3 active torsions:
REMARK  status: ('A' for Active; 'I' for Inactive)
REMARK    1  A    between atoms: C5_5  and  C8_8 
REMARK    2  A    between atoms: C6_6  and  C9_9 
REMARK    3  A    between atoms: C8_8  and  C10_10 
ROOT
HETATM    1  C1  UNL     1     -35.964  17.243  -2.369  1.00 20.00     0.131 C 
HETATM    2  C2  UNL     1     -36.502  16.280  -3.404  1.00 20.00     0.079 C 
HETATM    3  C3  UNL     1     -35.435  15.960  -4.441  1.00 20.00     0.012 C 
HETATM    4  C4  UNL     1     -33.612  16.521  -2.795  1.00 20.00     0.017 C 
HETATM    5  C5  UNL     1     -34.645  16.849  -1.713  1.00 20.00     0.058 C 
HETATM    6  C6  UNL     1     -34.136  15.471  -3.787  1.00 20.00    -0.014 C 
HETATM    7  O11 UNL     1     -36.612  18.231  -2.026  1.00 20.00    -0.298 OA
ENDROOT
BRANCH   5   8
HETATM    8  C8  UNL     1     -34.127  17.944  -0.786  1.00 20.00     0.043 C 
BRANCH   8   9
HETATM    9  C10 UNL     1     -32.707  18.345  -1.139  1.00 20.00     0.223 C 
HETATM   10  F12 UNL     1     -31.948  18.351  -0.011  1.00 20.00    -0.255 F 
ENDBRANCH   8   9
ENDBRANCH   5   8
BRANCH   6  11
HETATM   11  C9  UNL     1     -33.082  15.162  -4.850  1.00 20.00     0.000 C 
HETATM   12  C7  UNL     1     -33.358  15.887  -6.125  1.00 20.00     0.005 C 
ENDBRANCH   6  11
TORSDOF 3
ENDMDL
MODEL 7
REMARK VINA RESULT:      -4.2     11.702     12.751
REMARK  3 active torsions:
REMARK  status: ('A' for Active; 'I' for Inactive)
REMARK    1  A    between atoms: C5_5  and  C8_8 
REMARK    2  A    between atoms: C6_6  and  C9_9 
REMARK    3  A    between atoms: C8_8  and  C10_10 
ROOT
HETATM    1  C1  UNL     1     -33.980  16.913  -5.634  1.00 20.00     0.131 C 
HETATM    2  C2  UNL     1     -33.625  18.274  -5.076  1.00 20.00     0.079 C 
HETATM    3  C3  UNL     1     -34.048  18.380  -3.618  1.00 20.00     0.012 C 
HETATM    4  C4  UNL     1     -33.938  15.876  -3.363  1.00 20.00     0.017 C 
HETATM    5  C5  UNL     1     -33.503  15.714  -4.823  1.00 20.00     0.058 C 
HETATM    6  C6  UNL     1     -33.488  17.224  -2.778  1.00 20.00    -0.014 C 
HETATM    7  O11 UNL     1     -34.541  16.802  -6.723  1.00 20.00    -0.298 OA
ENDROOT
BRANCH   5   8
HETATM    8  C8  UNL     1     -34.023  14.400  -5.398  1.00 20.00     0.043 C 
BRANCH   8   9
HETATM    9  C10 UNL     1     -35.298  13.957  -4.707  1.00 20.00     0.223 C 
HETATM   10  F12 UNL     1     -35.980  13.109  -5.523  1.00 20.00    -0.255 F 
ENDBRANCH   8   9
ENDBRANCH   5   8
BRANCH   6  11
HETATM   11  C9  UNL     1     -33.932  17.353  -1.322  1.00 20.00     0.000 C 
HETATM   12  C7  UNL     1     -35.380  17.029  -1.156  1.00 20.00     0.005 C 
ENDBRANCH   6  11
TORSDOF 3
ENDMDL
MODEL 8
REMARK VINA RESULT:      -4.2      2.649      4.524
REMARK  3 active torsions:
REMARK  status: ('A' for Active; 'I' for Inactive)
REMARK    1  A    between atoms: C5_5  and  C8_8 
REMARK    2  A    between atoms: C6_6  and  C9_9 
REMARK    3  A    between atoms: C8_8  and  C10_10 
ROOT
HETATM    1  C1  UNL     1     -33.475   4.752   2.875  1.00 20.00     0.131 C 
HETATM    2  C2  UNL     1     -34.220   4.024   3.973  1.00 20.00     0.079 C 
HETATM    3  C3  UNL     1     -34.079   4.764   5.295  1.00 20.00     0.012 C 
HETATM    4  C4  UNL     1     -33.653   6.931   4.082  1.00 20.00     0.017 C 
HETATM    5  C5  UNL     1     -33.792   6.236   2.724  1.00 20.00     0.058 C 
HETATM    6  C6  UNL     1     -34.490   6.237   5.168  1.00 20.00    -0.014 C 
HETATM    7  O11 UNL     1     -32.731   4.146   2.104  1.00 20.00    -0.298 OA
ENDROOT
BRANCH   5   8
HETATM    8  C8  UNL     1     -32.897   6.901   1.683  1.00 20.00     0.043 C 
BRANCH   8   9
HETATM    9  C10 UNL     1     -32.153   8.087   2.266  1.00 20.00     0.223 C 
HETATM   10  F12 UNL     1     -31.402   8.669   1.294  1.00 20.00    -0.255 F 
ENDBRANCH   8   9
ENDBRANCH   5   8
BRANCH   6  11
HETATM   11  C9  UNL     1     -34.334   6.956   6.508  1.00 20.00     0.000 C 
HETATM   12  C7  UNL     1     -33.297   8.027   6.441  1.00 20.00     0.005 C 
ENDBRANCH   6  11
TORSDOF 3
ENDMDL
MODEL 9
REMARK VINA RESULT:      -4.2     11.593     12.040
REMARK  3 active torsions:
REMARK  status: ('A' for Active; 'I' for Inactive)
REMARK    1  A    between atoms: C5_5  and  C8_8 
REMARK    2  A    between atoms: C6_6  and  C9_9 
REMARK    3  A    between atoms: C8_8  and  C10_10 
ROOT
HETATM    1  C1  UNL     1     -33.685  18.554   0.972  1.00 20.00     0.131 C 
HETATM    2  C2  UNL     1     -32.563  18.961   0.041  1.00 20.00     0.079 C 
HETATM    3  C3  UNL     1     -32.434  17.969  -1.106  1.00 20.00     0.012 C 
HETATM    4  C4  UNL     1     -34.847  17.291  -0.842  1.00 20.00     0.017 C 
HETATM    5  C5  UNL     1     -35.032  18.279   0.313  1.00 20.00     0.058 C 
HETATM    6  C6  UNL     1     -33.770  17.763  -1.832  1.00 20.00    -0.014 C 
HETATM    7  O11 UNL     1     -33.522  18.539   2.191  1.00 20.00    -0.298 OA
ENDROOT
BRANCH   5   8
HETATM    8  C8  UNL     1     -36.054  17.752   1.315  1.00 20.00     0.043 C 
BRANCH   8   9
HETATM    9  C10 UNL     1     -37.348  18.540   1.258  1.00 20.00     0.223 C 
HETATM   10  F12 UNL     1     -37.999  18.250   0.100  1.00 20.00    -0.255 F 
ENDBRANCH   8   9
ENDBRANCH   5   8
BRANCH   6  11
HETATM   11  C9  UNL     1     -33.612  16.760  -2.974  1.00 20.00     0.000 C 
HETATM   12  C7  UNL     1     -34.812  15.882  -3.106  1.00 20.00     0.005 C 
ENDBRANCH   6  11
TORSDOF 3
ENDMDL
