MODEL 1
REMARK VINA RESULT:      -4.7      0.000      0.000
REMARK  2 active torsions:
REMARK  status: ('A' for Active; 'I' for Inactive)
REMARK    1  A    between atoms: C5_5  and  C6_6 
REMARK    2  A    between atoms: C5_5  and  N7_7 
ROOT
HETATM    1  C1  UNL     1     -34.141   5.504   3.193  1.00 20.00     0.052 C 
HETATM    2  C2  UNL     1     -33.269   6.491   2.439  1.00 20.00     0.274 C 
HETATM    3  C3  UNL     1     -33.442   7.352   4.609  1.00 20.00     0.292 C 
HETATM    4  C4  UNL     1     -34.504   6.258   4.468  1.00 20.00     0.112 C 
HETATM    5  N7  UNL     1     -32.489   7.080   3.527  1.00 20.00     0.092 N 
HETATM    6 CL9  UNL     1     -34.553   5.175   5.874  1.00 20.00    -0.123 Cl
ENDROOT
BRANCH   5   7
HETATM    7  C5  UNL     1     -31.756   8.266   3.114  1.00 20.00     0.303 C 
BRANCH   7   8
HETATM    8  C6  UNL     1     -32.145   8.699   1.716  1.00 20.00     0.252 C 
HETATM    9  F8  UNL     1     -31.115   8.432   0.867  1.00 20.00    -0.254 F 
ENDBRANCH   7   8
ENDBRANCH   5   7
TORSDOF 2
ENDMDL
MODEL 2
REMARK VINA RESULT:      -4.3      1.408      2.002
REMARK  2 active torsions:
REMARK  status: ('A' for Active; 'I' for Inactive)
REMARK    1  A    between atoms: C5_5  and  C6_6 
REMARK    2  A    between atoms: C5_5  and  N7_7 
ROOT
HETATM    1  C1  UNL     1     -33.326   7.292   4.865  1.00 20.00     0.052 C 
HETATM    2  C2  UNL     1     -32.276   8.077   4.099  1.00 20.00     0.274 C 
HETATM    3  C3  UNL     1     -33.242   6.636   2.526  1.00 20.00     0.292 C 
HETATM    4  C4  UNL     1     -33.682   6.156   3.911  1.00 20.00     0.112 C 
HETATM    5  N7  UNL     1     -32.809   8.022   2.738  1.00 20.00     0.092 N 
HETATM    6 CL9  UNL     1     -35.413   5.767   3.977  1.00 20.00    -0.123 Cl
ENDROOT
BRANCH   5   7
HETATM    7  C5  UNL     1     -31.849   8.469   1.742  1.00 20.00     0.303 C 
BRANCH   7   8
HETATM    8  C6  UNL     1     -32.457   9.491   0.804  1.00 20.00     0.252 C 
HETATM    9  F8  UNL     1     -32.545  10.686   1.449  1.00 20.00    -0.254 F 
ENDBRANCH   7   8
ENDBRANCH   5   7
TORSDOF 2
ENDMDL
MODEL 3
REMARK VINA RESULT:      -4.2      3.346      4.193
REMARK  2 active torsions:
REMARK  status: ('A' for Active; 'I' for Inactive)
REMARK    1  A    between atoms: C5_5  and  C6_6 
REMARK    2  A    between atoms: C5_5  and  N7_7 
ROOT
HETATM    1  C1  UNL     1     -33.152   6.828   2.056  1.00 20.00     0.052 C 
HETATM    2  C2  UNL     1     -33.706   6.124   3.282  1.00 20.00     0.274 C 
HETATM    3  C3  UNL     1     -32.469   7.931   4.112  1.00 20.00     0.292 C 
HETATM    4  C4  UNL     1     -32.099   7.767   2.635  1.00 20.00     0.112 C 
HETATM    5  N7  UNL     1     -33.744   7.218   4.251  1.00 20.00     0.092 N 
HETATM    6 CL9  UNL     1     -32.060   9.317   1.769  1.00 20.00    -0.123 Cl
ENDROOT
BRANCH   5   7
HETATM    7  C5  UNL     1     -33.983   6.756   5.609  1.00 20.00     0.303 C 
BRANCH   7   8
HETATM    8  C6  UNL     1     -34.772   5.464   5.624  1.00 20.00     0.252 C 
HETATM    9  F8  UNL     1     -33.993   4.474   6.140  1.00 20.00    -0.254 F 
ENDBRANCH   7   8
ENDBRANCH   5   7
TORSDOF 2
ENDMDL
MODEL 4
REMARK VINA RESULT:      -4.0      3.386      4.448
REMARK  2 active torsions:
REMARK  status: ('A' for Active; 'I' for Inactive)
REMARK    1  A    between atoms: C5_5  and  C6_6 
REMARK    2  A    between atoms: C5_5  and  N7_7 
ROOT
HETATM    1  C1  UNL     1     -31.607   8.367   3.427  1.00 20.00     0.052 C 
HETATM    2  C2  UNL     1     -32.560   7.527   4.259  1.00 20.00     0.274 C 
HETATM    3  C3  UNL     1     -33.430   7.480   2.086  1.00 20.00     0.292 C 
HETATM    4  C4  UNL     1     -32.376   8.590   2.129  1.00 20.00     0.112 C 
HETATM    5  N7  UNL     1     -33.120   6.635   3.245  1.00 20.00     0.092 N 
HETATM    6 CL9  UNL     1     -31.298   8.557   0.718  1.00 20.00    -0.123 Cl
ENDROOT
BRANCH   5   7
HETATM    7  C5  UNL     1     -34.277   5.897   3.726  1.00 20.00     0.303 C 
BRANCH   7   8
HETATM    8  C6  UNL     1     -34.443   6.040   5.224  1.00 20.00     0.252 C 
HETATM    9  F8  UNL     1     -34.808   4.837   5.746  1.00 20.00    -0.254 F 
ENDBRANCH   7   8
ENDBRANCH   5   7
TORSDOF 2
ENDMDL
MODEL 5
REMARK VINA RESULT:      -3.7      3.010      4.178
REMARK  2 active torsions:
REMARK  status: ('A' for Active; 'I' for Inactive)
REMARK    1  A    between atoms: C5_5  and  C6_6 
REMARK    2  A    between atoms: C5_5  and  N7_7 
ROOT
HETATM    1  C1  UNL     1     -31.515   8.371   3.425  1.00 20.00     0.052 C 
HETATM    2  C2  UNL     1     -32.528   7.653   4.298  1.00 20.00     0.274 C 
HETATM    3  C3  UNL     1     -33.479   7.701   2.160  1.00 20.00     0.292 C 
HETATM    4  C4  UNL     1     -32.301   8.678   2.154  1.00 20.00     0.112 C 
HETATM    5  N7  UNL     1     -33.228   6.830   3.313  1.00 20.00     0.092 N 
HETATM    6 CL9  UNL     1     -31.288   8.512   0.705  1.00 20.00    -0.123 Cl
ENDROOT
BRANCH   5   7
HETATM    7  C5  UNL     1     -34.446   6.236   3.843  1.00 20.00     0.303 C 
BRANCH   7   8
HETATM    8  C6  UNL     1     -34.292   4.743   4.046  1.00 20.00     0.252 C 
HETATM    9  F8  UNL     1     -33.344   4.275   3.189  1.00 20.00    -0.254 F 
ENDBRANCH   7   8
ENDBRANCH   5   7
TORSDOF 2
ENDMDL
MODEL 6
REMARK VINA RESULT:      -3.4      3.350      4.404
REMARK  2 active torsions:
REMARK  status: ('A' for Active; 'I' for Inactive)
REMARK    1  A    between atoms: C5_5  and  C6_6 
REMARK    2  A    between atoms: C5_5  and  N7_7 
ROOT
HETATM    1  C1  UNL     1     -31.345   8.741   1.876  1.00 20.00     0.052 C 
HETATM    2  C2  UNL     1     -31.657   8.025   3.178  1.00 20.00     0.274 C 
HETATM    3  C3  UNL     1     -33.738   8.456   2.195  1.00 20.00     0.292 C 
HETATM    4  C4  UNL     1     -32.699   9.295   1.446  1.00 20.00     0.112 C 
HETATM    5  N7  UNL     1     -32.952   7.418   2.872  1.00 20.00     0.092 N 
HETATM    6 CL9  UNL     1     -32.906   9.217  -0.316  1.00 20.00    -0.123 Cl
ENDROOT
BRANCH   5   7
HETATM    7  C5  UNL     1     -33.617   6.892   4.053  1.00 20.00     0.303 C 
BRANCH   7   8
HETATM    8  C6  UNL     1     -34.412   5.644   3.732  1.00 20.00     0.252 C 
HETATM    9  F8  UNL     1     -35.731   5.888   3.962  1.00 20.00    -0.254 F 
ENDBRANCH   7   8
ENDBRANCH   5   7
TORSDOF 2
ENDMDL
MODEL 7
REMARK VINA RESULT:      -3.3     11.195     11.685
REMARK  2 active torsions:
REMARK  status: ('A' for Active; 'I' for Inactive)
REMARK    1  A    between atoms: C5_5  and  C6_6 
REMARK    2  A    between atoms: C5_5  and  N7_7 
ROOT
HETATM    1  C1  UNL     1     -34.443  17.772  -0.197  1.00 20.00     0.052 C 
HETATM    2  C2  UNL     1     -35.281  17.048  -1.235  1.00 20.00     0.274 C 
HETATM    3  C3  UNL     1     -33.353  17.740  -2.370  1.00 20.00     0.292 C 
HETATM    4  C4  UNL     1     -33.387  18.487  -1.034  1.00 20.00     0.112 C 
HETATM    5  N7  UNL     1     -34.254  16.598  -2.174  1.00 20.00     0.092 N 
HETATM    6 CL9  UNL     1     -31.808  18.496  -0.222  1.00 20.00    -0.123 Cl
ENDROOT
BRANCH   5   7
HETATM    7  C5  UNL     1     -34.814  16.105  -3.423  1.00 20.00     0.303 C 
BRANCH   7   8
HETATM    8  C6  UNL     1     -33.938  15.034  -4.039  1.00 20.00     0.252 C 
HETATM    9  F8  UNL     1     -34.473  13.813  -3.765  1.00 20.00    -0.254 F 
ENDBRANCH   7   8
ENDBRANCH   5   7
TORSDOF 2
ENDMDL
MODEL 8
REMARK VINA RESULT:      -3.3     11.214     11.569
REMARK  2 active torsions:
REMARK  status: ('A' for Active; 'I' for Inactive)
REMARK    1  A    between atoms: C5_5  and  C6_6 
REMARK    2  A    between atoms: C5_5  and  N7_7 
ROOT
HETATM    1  C1  UNL     1     -36.845  14.664  -4.974  1.00 20.00     0.052 C 
HETATM    2  C2  UNL     1     -36.391  15.598  -3.867  1.00 20.00     0.274 C 
HETATM    3  C3  UNL     1     -34.530  14.262  -4.349  1.00 20.00     0.292 C 
HETATM    4  C4  UNL     1     -35.743  13.610  -5.018  1.00 20.00     0.112 C 
HETATM    5  N7  UNL     1     -34.948  15.647  -4.101  1.00 20.00     0.092 N 
HETATM    6 CL9  UNL     1     -35.403  13.091  -6.682  1.00 20.00    -0.123 Cl
ENDROOT
BRANCH   5   7
HETATM    7  C5  UNL     1     -34.223  16.263  -3.002  1.00 20.00     0.303 C 
BRANCH   7   8
HETATM    8  C6  UNL     1     -35.158  16.691  -1.891  1.00 20.00     0.252 C 
HETATM    9  F8  UNL     1     -34.421  17.017  -0.794  1.00 20.00    -0.254 F 
ENDBRANCH   7   8
ENDBRANCH   5   7
TORSDOF 2
ENDMDL
MODEL 9
REMARK VINA RESULT:      -3.2     11.433     12.241
REMARK  2 active torsions:
REMARK  status: ('A' for Active; 'I' for Inactive)
REMARK    1  A    between atoms: C5_5  and  C6_6 
REMARK    2  A    between atoms: C5_5  and  N7_7 
ROOT
HETATM    1  C1  UNL     1     -33.374  16.587  -5.024  1.00 20.00     0.052 C 
HETATM    2  C2  UNL     1     -33.969  15.800  -6.178  1.00 20.00     0.274 C 
HETATM    3  C3  UNL     1     -34.767  14.754  -4.241  1.00 20.00     0.292 C 
HETATM    4  C4  UNL     1     -33.631  15.689  -3.818  1.00 20.00     0.112 C 
HETATM    5  N7  UNL     1     -35.174  15.248  -5.562  1.00 20.00     0.092 N 
HETATM    6 CL9  UNL     1     -34.036  16.639  -2.373  1.00 20.00    -0.123 Cl
ENDROOT
BRANCH   5   7
HETATM    7  C5  UNL     1     -35.799  14.218  -6.376  1.00 20.00     0.303 C 
BRANCH   7   8
HETATM    8  C6  UNL     1     -34.772  13.446  -7.178  1.00 20.00     0.252 C 
HETATM    9  F8  UNL     1     -35.167  12.146  -7.269  1.00 20.00    -0.254 F 
ENDBRANCH   7   8
ENDBRANCH   5   7
TORSDOF 2
ENDMDL
