MODEL 1
REMARK VINA RESULT:      -5.3      0.000      0.000
REMARK  3 active torsions:
REMARK  status: ('A' for Active; 'I' for Inactive)
REMARK    1  A    between atoms: C2_2  and  C8_8 
REMARK    2  A    between atoms: C6_6  and  N9_9 
REMARK    3  A    between atoms: C8_8  and  N9_9 
ROOT
HETATM    1  N9  UNL     1     -32.165   8.303   2.976  1.00 20.00     0.094 N 
HETATM    2  H25 UNL     1     -32.399   9.245   3.297  1.00 20.00     0.316 HD
ENDROOT
BRANCH   1   3
HETATM    3  C6  UNL     1     -33.297   7.420   3.191  1.00 20.00     0.246 C 
HETATM    4  C3  UNL     1     -33.664   7.237   4.648  1.00 20.00     0.064 C 
HETATM    5  C4  UNL     1     -34.478   5.962   4.594  1.00 20.00     0.170 C 
HETATM    6  O10 UNL     1     -33.926   5.165   3.535  1.00 20.00    -0.389 OA
HETATM    7  C5  UNL     1     -33.036   5.987   2.763  1.00 20.00     0.203 C 
ENDBRANCH   1   3
BRANCH   1   8
HETATM    8  C8  UNL     1     -31.803   8.362   1.564  1.00 20.00     0.303 C 
BRANCH   8   9
HETATM    9  C2  UNL     1     -32.517   9.506   0.903  1.00 20.00    -0.066 C 
HETATM   10  C1  UNL     1     -32.659  10.691   1.518  1.00 20.00     0.015 C 
HETATM   11  C7  UNL     1     -33.099   9.256  -0.458  1.00 20.00     0.044 C 
ENDBRANCH   8   9
ENDBRANCH   1   8
TORSDOF 3
ENDMDL
MODEL 2
REMARK VINA RESULT:      -5.1      1.245      1.614
REMARK  3 active torsions:
REMARK  status: ('A' for Active; 'I' for Inactive)
REMARK    1  A    between atoms: C2_2  and  C8_8 
REMARK    2  A    between atoms: C6_6  and  N9_9 
REMARK    3  A    between atoms: C8_8  and  N9_9 
ROOT
HETATM    1  N9  UNL     1     -32.904   7.130   2.573  1.00 20.00     0.094 N 
HETATM    2  H25 UNL     1     -32.272   6.326   2.557  1.00 20.00     0.316 HD
ENDROOT
BRANCH   1   3
HETATM    3  C6  UNL     1     -33.844   6.989   3.670  1.00 20.00     0.246 C 
HETATM    4  C3  UNL     1     -33.263   7.335   5.025  1.00 20.00     0.064 C 
HETATM    5  C4  UNL     1     -34.240   6.648   5.954  1.00 20.00     0.170 C 
HETATM    6  O10 UNL     1     -34.701   5.471   5.271  1.00 20.00    -0.389 OA
HETATM    7  C5  UNL     1     -34.300   5.558   3.895  1.00 20.00     0.203 C 
ENDBRANCH   1   3
BRANCH   1   8
HETATM    8  C8  UNL     1     -32.113   8.348   2.710  1.00 20.00     0.303 C 
BRANCH   8   9
HETATM    9  C2  UNL     1     -32.076   9.081   1.399  1.00 20.00    -0.066 C 
HETATM   10  C1  UNL     1     -31.360   8.622   0.360  1.00 20.00     0.015 C 
HETATM   11  C7  UNL     1     -32.846  10.367   1.312  1.00 20.00     0.044 C 
ENDBRANCH   8   9
ENDBRANCH   1   8
TORSDOF 3
ENDMDL
MODEL 3
REMARK VINA RESULT:      -4.9      1.437      2.030
REMARK  3 active torsions:
REMARK  status: ('A' for Active; 'I' for Inactive)
REMARK    1  A    between atoms: C2_2  and  C8_8 
REMARK    2  A    between atoms: C6_6  and  N9_9 
REMARK    3  A    between atoms: C8_8  and  N9_9 
ROOT
HETATM    1  N9  UNL     1     -33.889   7.451   3.660  1.00 20.00     0.094 N 
HETATM    2  H25 UNL     1     -34.588   8.182   3.512  1.00 20.00     0.316 HD
ENDROOT
BRANCH   1   3
HETATM    3  C6  UNL     1     -34.545   6.231   4.094  1.00 20.00     0.246 C 
HETATM    4  C3  UNL     1     -34.388   5.942   5.572  1.00 20.00     0.064 C 
HETATM    5  C4  UNL     1     -34.707   4.464   5.623  1.00 20.00     0.170 C 
HETATM    6  O10 UNL     1     -34.254   3.900   4.382  1.00 20.00    -0.389 OA
HETATM    7  C5  UNL     1     -33.956   4.975   3.477  1.00 20.00     0.203 C 
ENDBRANCH   1   3
BRANCH   1   8
HETATM    8  C8  UNL     1     -33.155   7.241   2.417  1.00 20.00     0.303 C 
BRANCH   8   9
HETATM    9  C2  UNL     1     -32.020   8.221   2.325  1.00 20.00    -0.066 C 
HETATM   10  C1  UNL     1     -31.223   8.469   3.376  1.00 20.00     0.015 C 
HETATM   11  C7  UNL     1     -31.840   8.939   1.018  1.00 20.00     0.044 C 
ENDBRANCH   8   9
ENDBRANCH   1   8
TORSDOF 3
ENDMDL
MODEL 4
REMARK VINA RESULT:      -4.6      2.070      4.585
REMARK  3 active torsions:
REMARK  status: ('A' for Active; 'I' for Inactive)
REMARK    1  A    between atoms: C2_2  and  C8_8 
REMARK    2  A    between atoms: C6_6  and  N9_9 
REMARK    3  A    between atoms: C8_8  and  N9_9 
ROOT
HETATM    1  N9  UNL     1     -32.193   7.359   3.167  1.00 20.00     0.094 N 
HETATM    2  H25 UNL     1     -31.634   6.608   2.756  1.00 20.00     0.316 HD
ENDROOT
BRANCH   1   3
HETATM    3  C6  UNL     1     -31.962   8.593   2.437  1.00 20.00     0.246 C 
HETATM    4  C3  UNL     1     -33.219   9.392   2.169  1.00 20.00     0.064 C 
HETATM    5  C4  UNL     1     -32.770  10.286   1.033  1.00 20.00     0.170 C 
HETATM    6  O10 UNL     1     -31.813   9.535   0.271  1.00 20.00    -0.389 OA
HETATM    7  C5  UNL     1     -31.439   8.372   1.028  1.00 20.00     0.203 C 
ENDBRANCH   1   3
BRANCH   1   8
HETATM    8  C8  UNL     1     -33.600   6.977   3.124  1.00 20.00     0.303 C 
BRANCH   8   9
HETATM    9  C2  UNL     1     -34.047   6.531   4.487  1.00 20.00    -0.066 C 
HETATM   10  C1  UNL     1     -34.826   5.450   4.650  1.00 20.00     0.015 C 
HETATM   11  C7  UNL     1     -33.617   7.370   5.656  1.00 20.00     0.044 C 
ENDBRANCH   8   9
ENDBRANCH   1   8
TORSDOF 3
ENDMDL
MODEL 5
REMARK VINA RESULT:      -4.5      2.082      4.829
REMARK  3 active torsions:
REMARK  status: ('A' for Active; 'I' for Inactive)
REMARK    1  A    between atoms: C2_2  and  C8_8 
REMARK    2  A    between atoms: C6_6  and  N9_9 
REMARK    3  A    between atoms: C8_8  and  N9_9 
ROOT
HETATM    1  N9  UNL     1     -33.377   6.258   2.931  1.00 20.00     0.094 N 
HETATM    2  H25 UNL     1     -33.400   5.817   2.009  1.00 20.00     0.316 HD
ENDROOT
BRANCH   1   3
HETATM    3  C6  UNL     1     -33.085   7.673   2.787  1.00 20.00     0.246 C 
HETATM    4  C3  UNL     1     -32.943   8.127   1.350  1.00 20.00     0.064 C 
HETATM    5  C4  UNL     1     -32.186   9.427   1.520  1.00 20.00     0.170 C 
HETATM    6  O10 UNL     1     -31.335   9.262   2.665  1.00 20.00    -0.389 OA
HETATM    7  C5  UNL     1     -31.738   8.073   3.364  1.00 20.00     0.203 C 
ENDBRANCH   1   3
BRANCH   1   8
HETATM    8  C8  UNL     1     -34.664   6.050   3.586  1.00 20.00     0.303 C 
BRANCH   8   9
HETATM    9  C2  UNL     1     -34.451   5.762   5.045  1.00 20.00    -0.066 C 
HETATM   10  C1  UNL     1     -34.617   4.527   5.546  1.00 20.00     0.015 C 
HETATM   11  C7  UNL     1     -34.082   6.921   5.924  1.00 20.00     0.044 C 
ENDBRANCH   8   9
ENDBRANCH   1   8
TORSDOF 3
ENDMDL
MODEL 6
REMARK VINA RESULT:      -4.4      2.108      4.806
REMARK  3 active torsions:
REMARK  status: ('A' for Active; 'I' for Inactive)
REMARK    1  A    between atoms: C2_2  and  C8_8 
REMARK    2  A    between atoms: C6_6  and  N9_9 
REMARK    3  A    between atoms: C8_8  and  N9_9 
ROOT
HETATM    1  N9  UNL     1     -32.682   7.588   3.343  1.00 20.00     0.094 N 
HETATM    2  H25 UNL     1     -31.767   7.137   3.409  1.00 20.00     0.316 HD
ENDROOT
BRANCH   1   3
HETATM    3  C6  UNL     1     -32.812   8.237   2.050  1.00 20.00     0.246 C 
HETATM    4  C3  UNL     1     -31.505   8.375   1.299  1.00 20.00     0.064 C 
HETATM    5  C4  UNL     1     -31.844   9.464   0.305  1.00 20.00     0.170 C 
HETATM    6  O10 UNL     1     -32.788  10.333   0.951  1.00 20.00    -0.389 OA
HETATM    7  C5  UNL     1     -33.260   9.685   2.143  1.00 20.00     0.203 C 
ENDBRANCH   1   3
BRANCH   1   8
HETATM    8  C8  UNL     1     -33.720   6.581   3.534  1.00 20.00     0.303 C 
BRANCH   8   9
HETATM    9  C2  UNL     1     -34.019   6.431   4.998  1.00 20.00    -0.066 C 
HETATM   10  C1  UNL     1     -33.686   7.384   5.882  1.00 20.00     0.015 C 
HETATM   11  C7  UNL     1     -34.673   5.151   5.435  1.00 20.00     0.044 C 
ENDBRANCH   8   9
ENDBRANCH   1   8
TORSDOF 3
ENDMDL
MODEL 7
REMARK VINA RESULT:      -4.1      9.895     10.663
REMARK  3 active torsions:
REMARK  status: ('A' for Active; 'I' for Inactive)
REMARK    1  A    between atoms: C2_2  and  C8_8 
REMARK    2  A    between atoms: C6_6  and  N9_9 
REMARK    3  A    between atoms: C8_8  and  N9_9 
ROOT
HETATM    1  N9  UNL     1     -33.743  15.681  -4.163  1.00 20.00     0.094 N 
HETATM    2  H25 UNL     1     -32.888  15.604  -3.608  1.00 20.00     0.316 HD
ENDROOT
BRANCH   1   3
HETATM    3  C6  UNL     1     -33.926  14.473  -4.946  1.00 20.00     0.246 C 
HETATM    4  C3  UNL     1     -34.143  14.726  -6.423  1.00 20.00     0.064 C 
HETATM    5  C4  UNL     1     -34.772  13.421  -6.861  1.00 20.00     0.170 C 
HETATM    6  O10 UNL     1     -35.540  12.939  -5.747  1.00 20.00    -0.389 OA
HETATM    7  C5  UNL     1     -35.184  13.703  -4.584  1.00 20.00     0.203 C 
ENDBRANCH   1   3
BRANCH   1   8
HETATM    8  C8  UNL     1     -34.870  15.903  -3.264  1.00 20.00     0.303 C 
BRANCH   8   9
HETATM    9  C2  UNL     1     -34.451  16.801  -2.135  1.00 20.00    -0.066 C 
HETATM   10  C1  UNL     1     -33.231  17.362  -2.102  1.00 20.00     0.015 C 
HETATM   11  C7  UNL     1     -35.441  17.014  -1.027  1.00 20.00     0.044 C 
ENDBRANCH   8   9
ENDBRANCH   1   8
TORSDOF 3
ENDMDL
MODEL 8
REMARK VINA RESULT:      -4.0      9.899     10.615
REMARK  3 active torsions:
REMARK  status: ('A' for Active; 'I' for Inactive)
REMARK    1  A    between atoms: C2_2  and  C8_8 
REMARK    2  A    between atoms: C6_6  and  N9_9 
REMARK    3  A    between atoms: C8_8  and  N9_9 
ROOT
HETATM    1  N9  UNL     1     -34.871  16.735  -4.002  1.00 20.00     0.094 N 
HETATM    2  H25 UNL     1     -34.725  17.535  -4.622  1.00 20.00     0.316 HD
ENDROOT
BRANCH   1   3
HETATM    3  C6  UNL     1     -35.098  15.540  -4.796  1.00 20.00     0.246 C 
HETATM    4  C3  UNL     1     -36.547  15.107  -4.853  1.00 20.00     0.064 C 
HETATM    5  C4  UNL     1     -36.412  13.662  -5.281  1.00 20.00     0.170 C 
HETATM    6  O10 UNL     1     -35.186  13.177  -4.712  1.00 20.00    -0.389 OA
HETATM    7  C5  UNL     1     -34.435  14.300  -4.223  1.00 20.00     0.203 C 
ENDBRANCH   1   3
BRANCH   1   8
HETATM    8  C8  UNL     1     -33.702  16.583  -3.143  1.00 20.00     0.303 C 
BRANCH   8   9
HETATM    9  C2  UNL     1     -33.985  17.174  -1.791  1.00 20.00    -0.066 C 
HETATM   10  C1  UNL     1     -35.170  16.999  -1.185  1.00 20.00     0.015 C 
HETATM   11  C7  UNL     1     -32.899  18.001  -1.165  1.00 20.00     0.044 C 
ENDBRANCH   8   9
ENDBRANCH   1   8
TORSDOF 3
ENDMDL
MODEL 9
REMARK VINA RESULT:      -4.0      9.875     10.610
REMARK  3 active torsions:
REMARK  status: ('A' for Active; 'I' for Inactive)
REMARK    1  A    between atoms: C2_2  and  C8_8 
REMARK    2  A    between atoms: C6_6  and  N9_9 
REMARK    3  A    between atoms: C8_8  and  N9_9 
ROOT
HETATM    1  N9  UNL     1     -34.984  16.704  -3.917  1.00 20.00     0.094 N 
HETATM    2  H25 UNL     1     -35.027  17.546  -4.495  1.00 20.00     0.316 HD
ENDROOT
BRANCH   1   3
HETATM    3  C6  UNL     1     -35.156  15.531  -4.755  1.00 20.00     0.246 C 
HETATM    4  C3  UNL     1     -36.595  15.084  -4.898  1.00 20.00     0.064 C 
HETATM    5  C4  UNL     1     -36.420  13.653  -5.361  1.00 20.00     0.170 C 
HETATM    6  O10 UNL     1     -35.218  13.165  -4.745  1.00 20.00    -0.389 OA
HETATM    7  C5  UNL     1     -34.507  14.281  -4.186  1.00 20.00     0.203 C 
ENDBRANCH   1   3
BRANCH   1   8
HETATM    8  C8  UNL     1     -33.702  16.673  -3.222  1.00 20.00     0.303 C 
BRANCH   8   9
HETATM    9  C2  UNL     1     -33.855  17.261  -1.848  1.00 20.00    -0.066 C 
HETATM   10  C1  UNL     1     -32.854  17.935  -1.260  1.00 20.00     0.015 C 
HETATM   11  C7  UNL     1     -35.162  17.031  -1.147  1.00 20.00     0.044 C 
ENDBRANCH   8   9
ENDBRANCH   1   8
TORSDOF 3
ENDMDL
