MODEL 1
REMARK VINA RESULT:      -4.9      0.000      0.000
REMARK  0 active torsions:
REMARK  status: ('A' for Active; 'I' for Inactive)
ROOT
HETATM    1  C1  UNL     1     -32.428   5.925   2.777  1.00 20.00     0.021 C 
HETATM    2  C2  UNL     1     -33.676   5.078   3.020  1.00 20.00     0.010 C 
HETATM    3  C3  UNL     1     -33.670   7.090   4.432  1.00 20.00     0.029 C 
HETATM    4  C4  UNL     1     -32.877   7.326   3.153  1.00 20.00     0.083 C 
HETATM    5  C5  UNL     1     -34.459   5.789   4.153  1.00 20.00    -0.046 C 
HETATM    6  C6  UNL     1     -34.527   4.918   5.412  1.00 20.00     0.015 C 
HETATM    7  C7  UNL     1     -35.888   6.114   3.689  1.00 20.00     0.015 C 
HETATM    8 CL8  UNL     1     -31.513   8.425   3.399  1.00 20.00    -0.125 Cl
ENDROOT
TORSDOF 0
ENDMDL
MODEL 2
REMARK VINA RESULT:      -4.8      0.989      2.004
REMARK  0 active torsions:
REMARK  status: ('A' for Active; 'I' for Inactive)
ROOT
HETATM    1  C1  UNL     1     -33.082   7.758   4.789  1.00 20.00     0.021 C 
HETATM    2  C2  UNL     1     -33.992   6.626   5.261  1.00 20.00     0.010 C 
HETATM    3  C3  UNL     1     -33.559   6.480   2.845  1.00 20.00     0.029 C 
HETATM    4  C4  UNL     1     -32.407   7.176   3.559  1.00 20.00     0.083 C 
HETATM    5  C5  UNL     1     -34.373   5.828   3.988  1.00 20.00    -0.046 C 
HETATM    6  C6  UNL     1     -35.876   5.922   3.703  1.00 20.00     0.015 C 
HETATM    7  C7  UNL     1     -33.985   4.350   4.150  1.00 20.00     0.015 C 
HETATM    8 CL8  UNL     1     -31.647   8.420   2.558  1.00 20.00    -0.125 Cl
ENDROOT
TORSDOF 0
ENDMDL
MODEL 3
REMARK VINA RESULT:      -4.4      2.143      3.525
REMARK  0 active torsions:
REMARK  status: ('A' for Active; 'I' for Inactive)
ROOT
HETATM    1  C1  UNL     1     -34.149   6.529   4.982  1.00 20.00     0.021 C 
HETATM    2  C2  UNL     1     -33.677   7.875   4.433  1.00 20.00     0.010 C 
HETATM    3  C3  UNL     1     -32.846   6.009   3.065  1.00 20.00     0.029 C 
HETATM    4  C4  UNL     1     -34.151   5.633   3.755  1.00 20.00     0.083 C 
HETATM    5  C5  UNL     1     -32.763   7.546   3.225  1.00 20.00    -0.046 C 
HETATM    6  C6  UNL     1     -31.318   7.985   3.487  1.00 20.00     0.015 C 
HETATM    7  C7  UNL     1     -33.280   8.248   1.960  1.00 20.00     0.015 C 
HETATM    8 CL8  UNL     1     -34.218   3.917   4.179  1.00 20.00    -0.125 Cl
ENDROOT
TORSDOF 0
ENDMDL
MODEL 4
REMARK VINA RESULT:      -4.1      1.848      2.835
REMARK  0 active torsions:
REMARK  status: ('A' for Active; 'I' for Inactive)
ROOT
HETATM    1  C1  UNL     1     -31.511   8.946   2.752  1.00 20.00     0.021 C 
HETATM    2  C2  UNL     1     -31.658   7.680   3.594  1.00 20.00     0.010 C 
HETATM    3  C3  UNL     1     -33.618   8.030   2.151  1.00 20.00     0.029 C 
HETATM    4  C4  UNL     1     -32.375   8.660   1.536  1.00 20.00     0.083 C 
HETATM    5  C5  UNL     1     -33.063   7.113   3.267  1.00 20.00    -0.046 C 
HETATM    6  C6  UNL     1     -33.976   7.148   4.498  1.00 20.00     0.015 C 
HETATM    7  C7  UNL     1     -32.949   5.665   2.768  1.00 20.00     0.015 C 
HETATM    8 CL8  UNL     1     -32.747  10.125   0.618  1.00 20.00    -0.125 Cl
ENDROOT
TORSDOF 0
ENDMDL
MODEL 5
REMARK VINA RESULT:      -3.9      2.102      3.465
REMARK  0 active torsions:
REMARK  status: ('A' for Active; 'I' for Inactive)
ROOT
HETATM    1  C1  UNL     1     -33.495   5.376   2.976  1.00 20.00     0.021 C 
HETATM    2  C2  UNL     1     -32.479   6.287   2.289  1.00 20.00     0.010 C 
HETATM    3  C3  UNL     1     -33.736   7.494   4.023  1.00 20.00     0.029 C 
HETATM    4  C4  UNL     1     -33.661   6.008   4.347  1.00 20.00     0.083 C 
HETATM    5  C5  UNL     1     -32.679   7.693   2.911  1.00 20.00    -0.046 C 
HETATM    6  C6  UNL     1     -33.176   8.697   1.865  1.00 20.00     0.015 C 
HETATM    7  C7  UNL     1     -31.358   8.202   3.508  1.00 20.00     0.015 C 
HETATM    8 CL8  UNL     1     -35.106   5.427   5.185  1.00 20.00    -0.125 Cl
ENDROOT
TORSDOF 0
ENDMDL
MODEL 6
REMARK VINA RESULT:      -3.8      1.659      2.790
REMARK  0 active torsions:
REMARK  status: ('A' for Active; 'I' for Inactive)
ROOT
HETATM    1  C1  UNL     1     -34.787   5.771   5.532  1.00 20.00     0.021 C 
HETATM    2  C2  UNL     1     -34.764   4.905   4.273  1.00 20.00     0.010 C 
HETATM    3  C3  UNL     1     -33.496   6.987   3.953  1.00 20.00     0.029 C 
HETATM    4  C4  UNL     1     -33.509   6.583   5.422  1.00 20.00     0.083 C 
HETATM    5  C5  UNL     1     -33.987   5.722   3.209  1.00 20.00    -0.046 C 
HETATM    6  C6  UNL     1     -34.893   6.105   2.034  1.00 20.00     0.015 C 
HETATM    7  C7  UNL     1     -32.795   4.910   2.681  1.00 20.00     0.015 C 
HETATM    8 CL8  UNL     1     -33.507   7.981   6.505  1.00 20.00    -0.125 Cl
ENDROOT
TORSDOF 0
ENDMDL
MODEL 7
REMARK VINA RESULT:      -3.8      1.762      2.527
REMARK  0 active torsions:
REMARK  status: ('A' for Active; 'I' for Inactive)
ROOT
HETATM    1  C1  UNL     1     -32.543   7.600   4.115  1.00 20.00     0.021 C 
HETATM    2  C2  UNL     1     -32.607   7.057   2.688  1.00 20.00     0.010 C 
HETATM    3  C3  UNL     1     -34.165   5.866   4.171  1.00 20.00     0.029 C 
HETATM    4  C4  UNL     1     -33.921   7.284   4.672  1.00 20.00     0.083 C 
HETATM    5  C5  UNL     1     -33.607   5.873   2.728  1.00 20.00    -0.046 C 
HETATM    6  C6  UNL     1     -32.909   4.546   2.412  1.00 20.00     0.015 C 
HETATM    7  C7  UNL     1     -34.739   6.099   1.714  1.00 20.00     0.015 C 
HETATM    8 CL8  UNL     1     -33.973   7.394   6.436  1.00 20.00    -0.125 Cl
ENDROOT
TORSDOF 0
ENDMDL
MODEL 8
REMARK VINA RESULT:      -3.8      2.534      4.280
REMARK  0 active torsions:
REMARK  status: ('A' for Active; 'I' for Inactive)
ROOT
HETATM    1  C1  UNL     1     -32.030   7.681   3.713  1.00 20.00     0.021 C 
HETATM    2  C2  UNL     1     -31.479   8.872   2.930  1.00 20.00     0.010 C 
HETATM    3  C3  UNL     1     -33.245   7.712   1.673  1.00 20.00     0.029 C 
HETATM    4  C4  UNL     1     -33.441   7.529   3.172  1.00 20.00     0.083 C 
HETATM    5  C5  UNL     1     -32.211   8.858   1.564  1.00 20.00    -0.046 C 
HETATM    6  C6  UNL     1     -31.234   8.597   0.413  1.00 20.00     0.015 C 
HETATM    7  C7  UNL     1     -32.919  10.201   1.327  1.00 20.00     0.015 C 
HETATM    8 CL8  UNL     1     -34.148   5.958   3.573  1.00 20.00    -0.125 Cl
ENDROOT
TORSDOF 0
ENDMDL
MODEL 9
REMARK VINA RESULT:      -3.5     11.938     12.703
REMARK  0 active torsions:
REMARK  status: ('A' for Active; 'I' for Inactive)
ROOT
HETATM    1  C1  UNL     1     -33.548  17.937  -0.705  1.00 20.00     0.021 C 
HETATM    2  C2  UNL     1     -33.176  17.905  -2.187  1.00 20.00     0.010 C 
HETATM    3  C3  UNL     1     -35.304  16.747  -1.771  1.00 20.00     0.029 C 
HETATM    4  C4  UNL     1     -35.062  17.824  -0.722  1.00 20.00     0.083 C 
HETATM    5  C5  UNL     1     -34.277  17.065  -2.883  1.00 20.00    -0.046 C 
HETATM    6  C6  UNL     1     -33.700  15.773  -3.472  1.00 20.00     0.015 C 
HETATM    7  C7  UNL     1     -34.934  17.879  -4.008  1.00 20.00     0.015 C 
HETATM    8 CL8  UNL     1     -35.720  17.383   0.860  1.00 20.00    -0.125 Cl
ENDROOT
TORSDOF 0
ENDMDL
