MODEL 1
REMARK VINA RESULT:      -4.5      0.000      0.000
REMARK  2 active torsions:
REMARK  status: ('A' for Active; 'I' for Inactive)
REMARK    1  A    between atoms: C5_5  and  C6_6 
REMARK    2  A    between atoms: C5_5  and  N7_7 
ROOT
HETATM    1  C1  UNL     1     -33.993   5.169   3.025  1.00 20.00     0.048 C 
HETATM    2  C2  UNL     1     -32.775   5.937   2.528  1.00 20.00     0.273 C 
HETATM    3  C3  UNL     1     -33.681   7.274   4.197  1.00 20.00     0.288 C 
HETATM    4  C4  UNL     1     -34.567   6.038   4.139  1.00 20.00     0.087 C 
HETATM    5  N7  UNL     1     -33.119   7.324   2.845  1.00 20.00     0.091 N 
HETATM    6 BR9  UNL     1     -34.562   5.105   5.841  1.00 20.00    -0.089 Br
ENDROOT
BRANCH   5   7
HETATM    7  C5  UNL     1     -31.970   8.215   2.754  1.00 20.00     0.303 C 
BRANCH   7   8
HETATM    8  C6  UNL     1     -31.987   9.011   1.466  1.00 20.00     0.252 C 
HETATM    9  F8  UNL     1     -31.058   8.497   0.616  1.00 20.00    -0.254 F 
ENDBRANCH   7   8
ENDBRANCH   5   7
TORSDOF 2
ENDMDL
MODEL 2
REMARK VINA RESULT:      -3.9      3.468      4.344
REMARK  2 active torsions:
REMARK  status: ('A' for Active; 'I' for Inactive)
REMARK    1  A    between atoms: C5_5  and  C6_6 
REMARK    2  A    between atoms: C5_5  and  N7_7 
ROOT
HETATM    1  C1  UNL     1     -33.132   6.606   2.136  1.00 20.00     0.048 C 
HETATM    2  C2  UNL     1     -34.021   6.403   3.356  1.00 20.00     0.273 C 
HETATM    3  C3  UNL     1     -32.488   8.024   4.000  1.00 20.00     0.288 C 
HETATM    4  C4  UNL     1     -32.146   7.691   2.555  1.00 20.00     0.087 C 
HETATM    5  N7  UNL     1     -33.146   6.798   4.460  1.00 20.00     0.091 N 
HETATM    6 BR9  UNL     1     -32.300   9.265   1.429  1.00 20.00    -0.089 Br
ENDROOT
BRANCH   5   7
HETATM    7  C5  UNL     1     -33.877   6.994   5.705  1.00 20.00     0.303 C 
BRANCH   7   8
HETATM    8  C6  UNL     1     -34.823   5.844   5.979  1.00 20.00     0.252 C 
HETATM    9  F8  UNL     1     -34.104   4.694   6.079  1.00 20.00    -0.254 F 
ENDBRANCH   7   8
ENDBRANCH   5   7
TORSDOF 2
ENDMDL
MODEL 3
REMARK VINA RESULT:      -3.5      3.389      4.488
REMARK  2 active torsions:
REMARK  status: ('A' for Active; 'I' for Inactive)
REMARK    1  A    between atoms: C5_5  and  C6_6 
REMARK    2  A    between atoms: C5_5  and  N7_7 
ROOT
HETATM    1  C1  UNL     1     -33.274   8.017   5.216  1.00 20.00     0.048 C 
HETATM    2  C2  UNL     1     -33.739   6.694   5.812  1.00 20.00     0.273 C 
HETATM    3  C3  UNL     1     -33.982   6.431   3.517  1.00 20.00     0.288 C 
HETATM    4  C4  UNL     1     -33.408   7.828   3.709  1.00 20.00     0.087 C 
HETATM    5  N7  UNL     1     -34.661   6.190   4.793  1.00 20.00     0.091 N 
HETATM    6 BR9  UNL     1     -31.694   7.998   2.815  1.00 20.00    -0.089 Br
ENDROOT
BRANCH   5   7
HETATM    7  C5  UNL     1     -34.991   4.785   4.990  1.00 20.00     0.303 C 
BRANCH   7   8
HETATM    8  C6  UNL     1     -34.141   3.888   4.116  1.00 20.00     0.252 C 
HETATM    9  F8  UNL     1     -33.343   3.124   4.910  1.00 20.00    -0.254 F 
ENDBRANCH   7   8
ENDBRANCH   5   7
TORSDOF 2
ENDMDL
MODEL 4
REMARK VINA RESULT:      -3.5      1.921      2.703
REMARK  2 active torsions:
REMARK  status: ('A' for Active; 'I' for Inactive)
REMARK    1  A    between atoms: C5_5  and  C6_6 
REMARK    2  A    between atoms: C5_5  and  N7_7 
ROOT
HETATM    1  C1  UNL     1     -31.669   7.858   3.672  1.00 20.00     0.048 C 
HETATM    2  C2  UNL     1     -31.672   9.182   2.916  1.00 20.00     0.273 C 
HETATM    3  C3  UNL     1     -33.177   7.837   1.767  1.00 20.00     0.288 C 
HETATM    4  C4  UNL     1     -32.680   6.990   2.930  1.00 20.00     0.087 C 
HETATM    5  N7  UNL     1     -32.074   8.781   1.568  1.00 20.00     0.091 N 
HETATM    6 BR9  UNL     1     -34.152   6.469   4.083  1.00 20.00    -0.089 Br
ENDROOT
BRANCH   5   7
HETATM    7  C5  UNL     1     -32.457   9.917   0.741  1.00 20.00     0.303 C 
BRANCH   7   8
HETATM    8  C6  UNL     1     -33.255   9.480  -0.468  1.00 20.00     0.252 C 
HETATM    9  F8  UNL     1     -32.442   8.779  -1.304  1.00 20.00    -0.254 F 
ENDBRANCH   7   8
ENDBRANCH   5   7
TORSDOF 2
ENDMDL
MODEL 5
REMARK VINA RESULT:      -3.5      1.880      2.542
REMARK  2 active torsions:
REMARK  status: ('A' for Active; 'I' for Inactive)
REMARK    1  A    between atoms: C5_5  and  C6_6 
REMARK    2  A    between atoms: C5_5  and  N7_7 
ROOT
HETATM    1  C1  UNL     1     -32.170   7.610   4.069  1.00 20.00     0.048 C 
HETATM    2  C2  UNL     1     -31.901   8.822   3.185  1.00 20.00     0.273 C 
HETATM    3  C3  UNL     1     -32.920   7.277   1.783  1.00 20.00     0.288 C 
HETATM    4  C4  UNL     1     -32.864   6.611   3.150  1.00 20.00     0.087 C 
HETATM    5  N7  UNL     1     -31.810   8.231   1.850  1.00 20.00     0.091 N 
HETATM    6 BR9  UNL     1     -34.649   6.184   3.783  1.00 20.00    -0.089 Br
ENDROOT
BRANCH   5   7
HETATM    7  C5  UNL     1     -31.874   9.233   0.794  1.00 20.00     0.303 C 
BRANCH   7   8
HETATM    8  C6  UNL     1     -33.015  10.202   1.018  1.00 20.00     0.252 C 
HETATM    9  F8  UNL     1     -32.516  11.366   1.514  1.00 20.00    -0.254 F 
ENDBRANCH   7   8
ENDBRANCH   5   7
TORSDOF 2
ENDMDL
MODEL 6
REMARK VINA RESULT:      -3.4     11.390     11.841
REMARK  2 active torsions:
REMARK  status: ('A' for Active; 'I' for Inactive)
REMARK    1  A    between atoms: C5_5  and  C6_6 
REMARK    2  A    between atoms: C5_5  and  N7_7 
ROOT
HETATM    1  C1  UNL     1     -35.114  14.190  -4.585  1.00 20.00     0.048 C 
HETATM    2  C2  UNL     1     -35.242  15.479  -3.783  1.00 20.00     0.273 C 
HETATM    3  C3  UNL     1     -33.307  15.749  -5.038  1.00 20.00     0.288 C 
HETATM    4  C4  UNL     1     -33.859  14.385  -5.427  1.00 20.00     0.087 C 
HETATM    5  N7  UNL     1     -33.857  15.941  -3.693  1.00 20.00     0.091 N 
HETATM    6 BR9  UNL     1     -34.259  14.319  -7.326  1.00 20.00    -0.089 Br
ENDROOT
BRANCH   5   7
HETATM    7  C5  UNL     1     -33.759  17.323  -3.245  1.00 20.00     0.303 C 
BRANCH   7   8
HETATM    8  C6  UNL     1     -33.285  17.408  -1.810  1.00 20.00     0.252 C 
HETATM    9  F8  UNL     1     -34.269  16.949  -0.990  1.00 20.00    -0.254 F 
ENDBRANCH   7   8
ENDBRANCH   5   7
TORSDOF 2
ENDMDL
MODEL 7
REMARK VINA RESULT:      -3.3     11.115     12.003
REMARK  2 active torsions:
REMARK  status: ('A' for Active; 'I' for Inactive)
REMARK    1  A    between atoms: C5_5  and  C6_6 
REMARK    2  A    between atoms: C5_5  and  N7_7 
ROOT
HETATM    1  C1  UNL     1     -33.310  15.978  -5.457  1.00 20.00     0.048 C 
HETATM    2  C2  UNL     1     -34.444  15.316  -6.230  1.00 20.00     0.273 C 
HETATM    3  C3  UNL     1     -34.590  14.433  -4.087  1.00 20.00     0.288 C 
HETATM    4  C4  UNL     1     -33.429  15.416  -4.044  1.00 20.00     0.087 C 
HETATM    5  N7  UNL     1     -34.638  14.061  -5.504  1.00 20.00     0.091 N 
HETATM    6 BR9  UNL     1     -33.762  16.820  -2.746  1.00 20.00    -0.089 Br
ENDROOT
BRANCH   5   7
HETATM    7  C5  UNL     1     -35.884  13.398  -5.863  1.00 20.00     0.303 C 
BRANCH   7   8
HETATM    8  C6  UNL     1     -37.038  14.377  -5.914  1.00 20.00     0.252 C 
HETATM    9  F8  UNL     1     -37.908  14.088  -4.909  1.00 20.00    -0.254 F 
ENDBRANCH   7   8
ENDBRANCH   5   7
TORSDOF 2
ENDMDL
MODEL 8
REMARK VINA RESULT:      -3.3     11.177     12.093
REMARK  2 active torsions:
REMARK  status: ('A' for Active; 'I' for Inactive)
REMARK    1  A    between atoms: C5_5  and  C6_6 
REMARK    2  A    between atoms: C5_5  and  N7_7 
ROOT
HETATM    1  C1  UNL     1     -33.603  16.730  -5.075  1.00 20.00     0.048 C 
HETATM    2  C2  UNL     1     -34.613  16.020  -5.968  1.00 20.00     0.273 C 
HETATM    3  C3  UNL     1     -34.467  14.697  -4.065  1.00 20.00     0.288 C 
HETATM    4  C4  UNL     1     -33.532  15.872  -3.817  1.00 20.00     0.087 C 
HETATM    5  N7  UNL     1     -34.508  14.629  -5.528  1.00 20.00     0.091 N 
HETATM    6 BR9  UNL     1     -34.082  16.870  -2.245  1.00 20.00    -0.089 Br
ENDROOT
BRANCH   5   7
HETATM    7  C5  UNL     1     -35.607  13.808  -6.016  1.00 20.00     0.303 C 
BRANCH   7   8
HETATM    8  C6  UNL     1     -35.222  13.053  -7.270  1.00 20.00     0.252 C 
HETATM    9  F8  UNL     1     -33.958  13.405  -7.627  1.00 20.00    -0.254 F 
ENDBRANCH   7   8
ENDBRANCH   5   7
TORSDOF 2
ENDMDL
MODEL 9
REMARK VINA RESULT:      -3.3     11.149     11.571
REMARK  2 active torsions:
REMARK  status: ('A' for Active; 'I' for Inactive)
REMARK    1  A    between atoms: C5_5  and  C6_6 
REMARK    2  A    between atoms: C5_5  and  N7_7 
ROOT
HETATM    1  C1  UNL     1     -33.213  17.424  -2.004  1.00 20.00     0.048 C 
HETATM    2  C2  UNL     1     -33.733  16.914  -3.342  1.00 20.00     0.273 C 
HETATM    3  C3  UNL     1     -35.524  16.685  -1.882  1.00 20.00     0.288 C 
HETATM    4  C4  UNL     1     -34.402  17.297  -1.057  1.00 20.00     0.087 C 
HETATM    5  N7  UNL     1     -34.793  15.987  -2.944  1.00 20.00     0.091 N 
HETATM    6 BR9  UNL     1     -34.932  19.024  -0.346  1.00 20.00    -0.089 Br
ENDROOT
BRANCH   5   7
HETATM    7  C5  UNL     1     -35.652  15.614  -4.058  1.00 20.00     0.303 C 
BRANCH   7   8
HETATM    8  C6  UNL     1     -35.295  14.247  -4.601  1.00 20.00     0.252 C 
HETATM    9  F8  UNL     1     -34.393  13.662  -3.767  1.00 20.00    -0.254 F 
ENDBRANCH   7   8
ENDBRANCH   5   7
TORSDOF 2
ENDMDL
