MODEL 1
REMARK VINA RESULT:      -5.3      0.000      0.000
REMARK  4 active torsions:
REMARK  status: ('A' for Active; 'I' for Inactive)
REMARK    1  A    between atoms: C1_1  and  C4_4 
REMARK    2  A    between atoms: C1_1  and  C7_7 
REMARK    3  A    between atoms: C4_4  and  C5_5 
REMARK    4  A    between atoms: C5_5  and  C6_6 
ROOT
HETATM    1  C1  UNL     1     -33.042   6.722   3.379  1.00 20.00     0.130 C 
HETATM    2  O8  UNL     1     -32.905   5.730   2.663  1.00 20.00    -0.298 OA
ENDROOT
BRANCH   1   3
HETATM    3  C4  UNL     1     -32.151   7.948   3.231  1.00 20.00     0.081 C 
BRANCH   3   4
HETATM    4  C5  UNL     1     -31.883   8.337   1.779  1.00 20.00     0.038 C 
BRANCH   4   5
HETATM    5  C6  UNL     1     -32.549   9.648   1.390  1.00 20.00     0.222 C 
HETATM    6  F9  UNL     1     -32.734   9.674   0.044  1.00 20.00    -0.255 F 
ENDBRANCH   4   5
ENDBRANCH   3   4
ENDBRANCH   1   3
BRANCH   1   7
HETATM    7  C7  UNL     1     -34.151   6.809   4.426  1.00 20.00     0.047 C 
HETATM    8  C2  UNL     1     -34.814   5.448   4.601  1.00 20.00     0.017 C 
HETATM    9  C3  UNL     1     -33.611   7.322   5.760  1.00 20.00     0.017 C 
ENDBRANCH   1   7
TORSDOF 4
ENDMDL
MODEL 2
REMARK VINA RESULT:      -5.2      1.497      1.757
REMARK  4 active torsions:
REMARK  status: ('A' for Active; 'I' for Inactive)
REMARK    1  A    between atoms: C1_1  and  C4_4 
REMARK    2  A    between atoms: C1_1  and  C7_7 
REMARK    3  A    between atoms: C4_4  and  C5_5 
REMARK    4  A    between atoms: C5_5  and  C6_6 
ROOT
HETATM    1  C1  UNL     1     -33.592   6.824   4.159  1.00 20.00     0.130 C 
HETATM    2  O8  UNL     1     -33.335   7.588   5.089  1.00 20.00    -0.298 OA
ENDROOT
BRANCH   1   3
HETATM    3  C4  UNL     1     -32.993   7.017   2.772  1.00 20.00     0.081 C 
BRANCH   3   4
HETATM    4  C5  UNL     1     -31.995   8.172   2.694  1.00 20.00     0.038 C 
BRANCH   4   5
HETATM    5  C6  UNL     1     -32.101   8.951   1.391  1.00 20.00     0.222 C 
HETATM    6  F9  UNL     1     -31.091   8.574   0.563  1.00 20.00    -0.255 F 
ENDBRANCH   4   5
ENDBRANCH   3   4
ENDBRANCH   1   3
BRANCH   1   7
HETATM    7  C7  UNL     1     -34.487   5.600   4.348  1.00 20.00     0.047 C 
HETATM    8  C2  UNL     1     -33.915   4.411   3.586  1.00 20.00     0.017 C 
HETATM    9  C3  UNL     1     -34.656   5.264   5.828  1.00 20.00     0.017 C 
ENDBRANCH   1   7
TORSDOF 4
ENDMDL
MODEL 3
REMARK VINA RESULT:      -5.2      1.456      1.528
REMARK  4 active torsions:
REMARK  status: ('A' for Active; 'I' for Inactive)
REMARK    1  A    between atoms: C1_1  and  C4_4 
REMARK    2  A    between atoms: C1_1  and  C7_7 
REMARK    3  A    between atoms: C4_4  and  C5_5 
REMARK    4  A    between atoms: C5_5  and  C6_6 
ROOT
HETATM    1  C1  UNL     1     -32.554   7.784   3.384  1.00 20.00     0.130 C 
HETATM    2  O8  UNL     1     -31.593   8.202   4.030  1.00 20.00    -0.298 OA
ENDROOT
BRANCH   1   3
HETATM    3  C4  UNL     1     -32.552   7.765   1.862  1.00 20.00     0.081 C 
BRANCH   3   4
HETATM    4  C5  UNL     1     -31.832   8.959   1.238  1.00 20.00     0.038 C 
BRANCH   4   5
HETATM    5  C6  UNL     1     -32.791  10.039   0.760  1.00 20.00     0.222 C 
HETATM    6  F9  UNL     1     -32.632  11.149   1.529  1.00 20.00    -0.255 F 
ENDBRANCH   4   5
ENDBRANCH   3   4
ENDBRANCH   1   3
BRANCH   1   7
HETATM    7  C7  UNL     1     -33.792   7.206   4.069  1.00 20.00     0.047 C 
HETATM    8  C2  UNL     1     -34.047   5.787   3.577  1.00 20.00     0.017 C 
HETATM    9  C3  UNL     1     -33.644   7.231   5.589  1.00 20.00     0.017 C 
ENDBRANCH   1   7
TORSDOF 4
ENDMDL
MODEL 4
REMARK VINA RESULT:      -5.1      1.861      2.023
REMARK  4 active torsions:
REMARK  status: ('A' for Active; 'I' for Inactive)
REMARK    1  A    between atoms: C1_1  and  C4_4 
REMARK    2  A    between atoms: C1_1  and  C7_7 
REMARK    3  A    between atoms: C4_4  and  C5_5 
REMARK    4  A    between atoms: C5_5  and  C6_6 
ROOT
HETATM    1  C1  UNL     1     -33.796   6.121   3.436  1.00 20.00     0.130 C 
HETATM    2  O8  UNL     1     -33.316   5.217   2.752  1.00 20.00    -0.298 OA
ENDROOT
BRANCH   1   3
HETATM    3  C4  UNL     1     -33.666   7.585   3.038  1.00 20.00     0.081 C 
BRANCH   3   4
HETATM    4  C5  UNL     1     -32.380   7.898   2.275  1.00 20.00     0.038 C 
BRANCH   4   5
HETATM    5  C6  UNL     1     -31.244   8.326   3.192  1.00 20.00     0.222 C 
HETATM    6  F9  UNL     1     -31.709   8.421   4.466  1.00 20.00    -0.255 F 
ENDBRANCH   4   5
ENDBRANCH   3   4
ENDBRANCH   1   3
BRANCH   1   7
HETATM    7  C7  UNL     1     -34.601   5.830   4.702  1.00 20.00     0.047 C 
HETATM    8  C2  UNL     1     -34.490   4.354   5.065  1.00 20.00     0.017 C 
HETATM    9  C3  UNL     1     -34.139   6.707   5.864  1.00 20.00     0.017 C 
ENDBRANCH   1   7
TORSDOF 4
ENDMDL
MODEL 5
REMARK VINA RESULT:      -5.0      2.560      4.196
REMARK  4 active torsions:
REMARK  status: ('A' for Active; 'I' for Inactive)
REMARK    1  A    between atoms: C1_1  and  C4_4 
REMARK    2  A    between atoms: C1_1  and  C7_7 
REMARK    3  A    between atoms: C4_4  and  C5_5 
REMARK    4  A    between atoms: C5_5  and  C6_6 
ROOT
HETATM    1  C1  UNL     1     -33.143   6.205   2.955  1.00 20.00     0.130 C 
HETATM    2  O8  UNL     1     -32.828   5.072   2.591  1.00 20.00    -0.298 OA
ENDROOT
BRANCH   1   3
HETATM    3  C4  UNL     1     -34.525   6.513   3.514  1.00 20.00     0.081 C 
BRANCH   3   4
HETATM    4  C5  UNL     1     -35.077   5.412   4.419  1.00 20.00     0.038 C 
BRANCH   4   5
HETATM    5  C6  UNL     1     -34.454   5.426   5.807  1.00 20.00     0.222 C 
HETATM    6  F9  UNL     1     -34.362   6.710   6.242  1.00 20.00    -0.255 F 
ENDBRANCH   4   5
ENDBRANCH   3   4
ENDBRANCH   1   3
BRANCH   1   7
HETATM    7  C7  UNL     1     -32.149   7.366   2.920  1.00 20.00     0.047 C 
HETATM    8  C2  UNL     1     -32.489   8.311   1.774  1.00 20.00     0.017 C 
HETATM    9  C3  UNL     1     -32.129   8.115   4.251  1.00 20.00     0.017 C 
ENDBRANCH   1   7
TORSDOF 4
ENDMDL
MODEL 6
REMARK VINA RESULT:      -4.9      2.802      4.749
REMARK  4 active torsions:
REMARK  status: ('A' for Active; 'I' for Inactive)
REMARK    1  A    between atoms: C1_1  and  C4_4 
REMARK    2  A    between atoms: C1_1  and  C7_7 
REMARK    3  A    between atoms: C4_4  and  C5_5 
REMARK    4  A    between atoms: C5_5  and  C6_6 
ROOT
HETATM    1  C1  UNL     1     -32.276   8.051   2.634  1.00 20.00     0.130 C 
HETATM    2  O8  UNL     1     -31.443   8.430   3.457  1.00 20.00    -0.298 OA
ENDROOT
BRANCH   1   3
HETATM    3  C4  UNL     1     -33.214   6.886   2.918  1.00 20.00     0.081 C 
BRANCH   3   4
HETATM    4  C5  UNL     1     -33.824   6.921   4.318  1.00 20.00     0.038 C 
BRANCH   4   5
HETATM    5  C6  UNL     1     -34.751   5.744   4.584  1.00 20.00     0.222 C 
HETATM    6  F9  UNL     1     -34.768   5.482   5.918  1.00 20.00    -0.255 F 
ENDBRANCH   4   5
ENDBRANCH   3   4
ENDBRANCH   1   3
BRANCH   1   7
HETATM    7  C7  UNL     1     -32.461   8.761   1.293  1.00 20.00     0.047 C 
HETATM    8  C2  UNL     1     -32.785  10.232   1.521  1.00 20.00     0.017 C 
HETATM    9  C3  UNL     1     -31.221   8.611   0.414  1.00 20.00     0.017 C 
ENDBRANCH   1   7
TORSDOF 4
ENDMDL
MODEL 7
REMARK VINA RESULT:      -4.9      2.437      4.291
REMARK  4 active torsions:
REMARK  status: ('A' for Active; 'I' for Inactive)
REMARK    1  A    between atoms: C1_1  and  C4_4 
REMARK    2  A    between atoms: C1_1  and  C7_7 
REMARK    3  A    between atoms: C4_4  and  C5_5 
REMARK    4  A    between atoms: C5_5  and  C6_6 
ROOT
HETATM    1  C1  UNL     1     -33.324   6.473   2.924  1.00 20.00     0.130 C 
HETATM    2  O8  UNL     1     -32.630   5.520   2.570  1.00 20.00    -0.298 OA
ENDROOT
BRANCH   1   3
HETATM    3  C4  UNL     1     -34.725   6.279   3.488  1.00 20.00     0.081 C 
BRANCH   3   4
HETATM    4  C5  UNL     1     -34.821   5.148   4.510  1.00 20.00     0.038 C 
BRANCH   4   5
HETATM    5  C6  UNL     1     -34.423   5.588   5.911  1.00 20.00     0.222 C 
HETATM    6  F9  UNL     1     -34.347   6.944   5.949  1.00 20.00    -0.255 F 
ENDBRANCH   4   5
ENDBRANCH   3   4
ENDBRANCH   1   3
BRANCH   1   7
HETATM    7  C7  UNL     1     -32.805   7.909   2.871  1.00 20.00     0.047 C 
HETATM    8  C2  UNL     1     -31.625   8.074   3.821  1.00 20.00     0.017 C 
HETATM    9  C3  UNL     1     -32.411   8.301   1.448  1.00 20.00     0.017 C 
ENDBRANCH   1   7
TORSDOF 4
ENDMDL
MODEL 8
REMARK VINA RESULT:      -4.9      2.639      4.404
REMARK  4 active torsions:
REMARK  status: ('A' for Active; 'I' for Inactive)
REMARK    1  A    between atoms: C1_1  and  C4_4 
REMARK    2  A    between atoms: C1_1  and  C7_7 
REMARK    3  A    between atoms: C4_4  and  C5_5 
REMARK    4  A    between atoms: C5_5  and  C6_6 
ROOT
HETATM    1  C1  UNL     1     -33.306   6.756   2.969  1.00 20.00     0.130 C 
HETATM    2  O8  UNL     1     -33.819   5.971   2.172  1.00 20.00    -0.298 OA
ENDROOT
BRANCH   1   3
HETATM    3  C4  UNL     1     -33.800   6.882   4.404  1.00 20.00     0.081 C 
BRANCH   3   4
HETATM    4  C5  UNL     1     -34.931   5.913   4.746  1.00 20.00     0.038 C 
BRANCH   4   5
HETATM    5  C6  UNL     1     -34.435   4.651   5.434  1.00 20.00     0.222 C 
HETATM    6  F9  UNL     1     -34.072   3.741   4.491  1.00 20.00    -0.255 F 
ENDBRANCH   4   5
ENDBRANCH   3   4
ENDBRANCH   1   3
BRANCH   1   7
HETATM    7  C7  UNL     1     -32.103   7.619   2.587  1.00 20.00     0.047 C 
HETATM    8  C2  UNL     1     -32.515   8.661   1.554  1.00 20.00     0.017 C 
HETATM    9  C3  UNL     1     -31.492   8.288   3.815  1.00 20.00     0.017 C 
ENDBRANCH   1   7
TORSDOF 4
ENDMDL
MODEL 9
REMARK VINA RESULT:      -4.7      2.477      4.545
REMARK  4 active torsions:
REMARK  status: ('A' for Active; 'I' for Inactive)
REMARK    1  A    between atoms: C1_1  and  C4_4 
REMARK    2  A    between atoms: C1_1  and  C7_7 
REMARK    3  A    between atoms: C4_4  and  C5_5 
REMARK    4  A    between atoms: C5_5  and  C6_6 
ROOT
HETATM    1  C1  UNL     1     -31.845   8.638   1.469  1.00 20.00     0.130 C 
HETATM    2  O8  UNL     1     -30.927   8.372   0.693  1.00 20.00    -0.298 OA
ENDROOT
BRANCH   1   3
HETATM    3  C4  UNL     1     -31.880   8.088   2.889  1.00 20.00     0.081 C 
BRANCH   3   4
HETATM    4  C5  UNL     1     -32.846   6.918   3.066  1.00 20.00     0.038 C 
BRANCH   4   5
HETATM    5  C6  UNL     1     -33.782   7.103   4.251  1.00 20.00     0.222 C 
HETATM    6  F9  UNL     1     -33.055   7.464   5.342  1.00 20.00    -0.255 F 
ENDBRANCH   4   5
ENDBRANCH   3   4
ENDBRANCH   1   3
BRANCH   1   7
HETATM    7  C7  UNL     1     -32.981   9.582   1.077  1.00 20.00     0.047 C 
HETATM    8  C2  UNL     1     -32.684  10.992   1.571  1.00 20.00     0.017 C 
HETATM    9  C3  UNL     1     -33.207   9.575  -0.434  1.00 20.00     0.017 C 
ENDBRANCH   1   7
TORSDOF 4
ENDMDL
