MODEL 1
REMARK VINA RESULT:      -4.4      0.000      0.000
REMARK  1 active torsions:
REMARK  status: ('A' for Active; 'I' for Inactive)
REMARK    1  A    between atoms: C5_5  and  O11_11 
ROOT
HETATM    1  C1  UNL     1     -35.590  13.940  -5.075  1.00 20.00     0.098 C 
HETATM    2  C2  UNL     1     -33.791  15.591  -4.606  1.00 20.00     0.054 C 
HETATM    3  C3  UNL     1     -33.696  16.037  -3.149  1.00 20.00     0.013 C 
HETATM    4  C4  UNL     1     -36.032  15.925  -3.641  1.00 20.00     0.062 C 
HETATM    5  C5  UNL     1     -35.289  15.363  -4.870  1.00 20.00     0.148 C 
HETATM    6  C6  UNL     1     -35.004  16.794  -2.891  1.00 20.00    -0.044 C 
HETATM    7  C7  UNL     1     -35.318  16.873  -1.395  1.00 20.00     0.015 C 
HETATM    8  C8  UNL     1     -34.954  18.220  -3.466  1.00 20.00     0.015 C 
HETATM    9  N10 UNL     1     -35.829  12.815  -5.236  1.00 20.00    -0.194 NA
ENDROOT
BRANCH   5  10
HETATM   10  O11 UNL     1     -35.658  16.094  -6.037  1.00 20.00    -0.370 OA
HETATM   11  C9  UNL     1     -34.523  16.432  -6.821  1.00 20.00     0.204 C 
ENDBRANCH   5  10
TORSDOF 1
ENDMDL
MODEL 2
REMARK VINA RESULT:      -4.4      1.652      2.452
REMARK  1 active torsions:
REMARK  status: ('A' for Active; 'I' for Inactive)
REMARK    1  A    between atoms: C5_5  and  O11_11 
ROOT
HETATM    1  C1  UNL     1     -35.531  13.257  -6.155  1.00 20.00     0.098 C 
HETATM    2  C2  UNL     1     -36.174  15.645  -5.893  1.00 20.00     0.054 C 
HETATM    3  C3  UNL     1     -35.102  16.531  -5.265  1.00 20.00     0.013 C 
HETATM    4  C4  UNL     1     -35.044  14.478  -4.042  1.00 20.00     0.062 C 
HETATM    5  C5  UNL     1     -36.025  14.273  -5.214  1.00 20.00     0.148 C 
HETATM    6  C6  UNL     1     -34.954  16.003  -3.833  1.00 20.00    -0.044 C 
HETATM    7  C7  UNL     1     -33.610  16.409  -3.223  1.00 20.00     0.015 C 
HETATM    8  C8  UNL     1     -36.088  16.508  -2.925  1.00 20.00     0.015 C 
HETATM    9  N10 UNL     1     -35.141  12.455  -6.897  1.00 20.00    -0.194 NA
ENDROOT
BRANCH   5  10
HETATM   10  O11 UNL     1     -37.299  13.873  -4.717  1.00 20.00    -0.370 OA
HETATM   11  C9  UNL     1     -38.349  14.626  -5.309  1.00 20.00     0.204 C 
ENDBRANCH   5  10
TORSDOF 1
ENDMDL
MODEL 3
REMARK VINA RESULT:      -4.2     10.571     11.387
REMARK  1 active torsions:
REMARK  status: ('A' for Active; 'I' for Inactive)
REMARK    1  A    between atoms: C5_5  and  O11_11 
ROOT
HETATM    1  C1  UNL     1     -33.543   7.156   4.518  1.00 20.00     0.098 C 
HETATM    2  C2  UNL     1     -31.403   8.056   3.628  1.00 20.00     0.054 C 
HETATM    3  C3  UNL     1     -31.524   9.391   2.899  1.00 20.00     0.013 C 
HETATM    4  C4  UNL     1     -33.423   8.108   2.222  1.00 20.00     0.062 C 
HETATM    5  C5  UNL     1     -32.705   7.297   3.319  1.00 20.00     0.148 C 
HETATM    6  C6  UNL     1     -32.366   9.077   1.657  1.00 20.00    -0.044 C 
HETATM    7  C7  UNL     1     -33.011  10.343   1.085  1.00 20.00     0.015 C 
HETATM    8  C8  UNL     1     -31.525   8.406   0.559  1.00 20.00     0.015 C 
HETATM    9  N10 UNL     1     -34.206   7.043   5.463  1.00 20.00    -0.194 NA
ENDROOT
BRANCH   5  10
HETATM   10  O11 UNL     1     -32.367   6.003   2.826  1.00 20.00    -0.370 OA
HETATM   11  C9  UNL     1     -33.506   5.156   2.765  1.00 20.00     0.204 C 
ENDBRANCH   5  10
TORSDOF 1
ENDMDL
MODEL 4
REMARK VINA RESULT:      -4.2      1.906      2.828
REMARK  1 active torsions:
REMARK  status: ('A' for Active; 'I' for Inactive)
REMARK    1  A    between atoms: C5_5  and  O11_11 
ROOT
HETATM    1  C1  UNL     1     -37.160  14.174  -5.142  1.00 20.00     0.098 C 
HETATM    2  C2  UNL     1     -35.034  14.593  -3.921  1.00 20.00     0.054 C 
HETATM    3  C3  UNL     1     -34.545  16.038  -3.964  1.00 20.00     0.013 C 
HETATM    4  C4  UNL     1     -35.364  15.565  -6.159  1.00 20.00     0.062 C 
HETATM    5  C5  UNL     1     -35.707  14.344  -5.281  1.00 20.00     0.148 C 
HETATM    6  C6  UNL     1     -34.209  16.288  -5.439  1.00 20.00    -0.044 C 
HETATM    7  C7  UNL     1     -34.192  17.784  -5.762  1.00 20.00     0.015 C 
HETATM    8  C8  UNL     1     -32.848  15.680  -5.818  1.00 20.00     0.015 C 
HETATM    9  N10 UNL     1     -38.307  14.041  -5.032  1.00 20.00    -0.194 NA
ENDROOT
BRANCH   5  10
HETATM   10  O11 UNL     1     -35.148  13.163  -5.852  1.00 20.00    -0.370 OA
HETATM   11  C9  UNL     1     -35.228  13.182  -7.270  1.00 20.00     0.204 C 
ENDBRANCH   5  10
TORSDOF 1
ENDMDL
MODEL 5
REMARK VINA RESULT:      -4.1      1.540      1.907
REMARK  1 active torsions:
REMARK  status: ('A' for Active; 'I' for Inactive)
REMARK    1  A    between atoms: C5_5  and  O11_11 
ROOT
HETATM    1  C1  UNL     1     -37.392  14.488  -5.174  1.00 20.00     0.098 C 
HETATM    2  C2  UNL     1     -34.953  14.006  -5.230  1.00 20.00     0.054 C 
HETATM    3  C3  UNL     1     -34.186  14.443  -3.985  1.00 20.00     0.013 C 
HETATM    4  C4  UNL     1     -35.743  16.199  -4.435  1.00 20.00     0.062 C 
HETATM    5  C5  UNL     1     -36.060  15.057  -5.422  1.00 20.00     0.148 C 
HETATM    6  C6  UNL     1     -34.286  15.973  -3.985  1.00 20.00    -0.044 C 
HETATM    7  C7  UNL     1     -34.031  16.550  -2.591  1.00 20.00     0.015 C 
HETATM    8  C8  UNL     1     -33.293  16.603  -4.976  1.00 20.00     0.015 C 
HETATM    9  N10 UNL     1     -38.444  14.039  -4.979  1.00 20.00    -0.194 NA
ENDROOT
BRANCH   5  10
HETATM   10  O11 UNL     1     -35.996  15.541  -6.761  1.00 20.00    -0.370 OA
HETATM   11  C9  UNL     1     -35.287  14.646  -7.605  1.00 20.00     0.204 C 
ENDBRANCH   5  10
TORSDOF 1
ENDMDL
MODEL 6
REMARK VINA RESULT:      -4.1      1.047      1.639
REMARK  1 active torsions:
REMARK  status: ('A' for Active; 'I' for Inactive)
REMARK    1  A    between atoms: C5_5  and  O11_11 
ROOT
HETATM    1  C1  UNL     1     -35.765  13.962  -5.084  1.00 20.00     0.098 C 
HETATM    2  C2  UNL     1     -34.530  16.024  -5.724  1.00 20.00     0.054 C 
HETATM    3  C3  UNL     1     -33.532  16.520  -4.682  1.00 20.00     0.013 C 
HETATM    4  C4  UNL     1     -35.454  15.813  -3.451  1.00 20.00     0.062 C 
HETATM    5  C5  UNL     1     -35.696  15.421  -4.922  1.00 20.00     0.148 C 
HETATM    6  C6  UNL     1     -34.395  16.933  -3.484  1.00 20.00    -0.044 C 
HETATM    7  C7  UNL     1     -33.576  16.973  -2.192  1.00 20.00     0.015 C 
HETATM    8  C8  UNL     1     -35.046  18.309  -3.705  1.00 20.00     0.015 C 
HETATM    9  N10 UNL     1     -35.819  12.810  -5.212  1.00 20.00    -0.194 NA
ENDROOT
BRANCH   5  10
HETATM   10  O11 UNL     1     -36.912  16.003  -5.386  1.00 20.00    -0.370 OA
HETATM   11  C9  UNL     1     -37.982  15.766  -4.482  1.00 20.00     0.204 C 
ENDBRANCH   5  10
TORSDOF 1
ENDMDL
MODEL 7
REMARK VINA RESULT:      -3.9      1.787      2.661
REMARK  1 active torsions:
REMARK  status: ('A' for Active; 'I' for Inactive)
REMARK    1  A    between atoms: C5_5  and  O11_11 
ROOT
HETATM    1  C1  UNL     1     -33.925  15.974  -5.491  1.00 20.00     0.098 C 
HETATM    2  C2  UNL     1     -35.390  17.509  -4.196  1.00 20.00     0.054 C 
HETATM    3  C3  UNL     1     -34.661  18.381  -3.177  1.00 20.00     0.013 C 
HETATM    4  C4  UNL     1     -33.641  16.225  -3.032  1.00 20.00     0.062 C 
HETATM    5  C5  UNL     1     -34.628  16.174  -4.216  1.00 20.00     0.148 C 
HETATM    6  C6  UNL     1     -34.115  17.390  -2.142  1.00 20.00    -0.044 C 
HETATM    7  C7  UNL     1     -32.956  17.997  -1.346  1.00 20.00     0.015 C 
HETATM    8  C8  UNL     1     -35.209  16.935  -1.163  1.00 20.00     0.015 C 
HETATM    9  N10 UNL     1     -33.370  15.815  -6.498  1.00 20.00    -0.194 NA
ENDROOT
BRANCH   5  10
HETATM   10  O11 UNL     1     -35.564  15.116  -4.024  1.00 20.00    -0.370 OA
HETATM   11  C9  UNL     1     -36.897  15.555  -4.237  1.00 20.00     0.204 C 
ENDBRANCH   5  10
TORSDOF 1
ENDMDL
MODEL 8
REMARK VINA RESULT:      -3.8      1.853      2.845
REMARK  1 active torsions:
REMARK  status: ('A' for Active; 'I' for Inactive)
REMARK    1  A    between atoms: C5_5  and  O11_11 
ROOT
HETATM    1  C1  UNL     1     -37.465  14.692  -5.079  1.00 20.00     0.098 C 
HETATM    2  C2  UNL     1     -35.609  15.411  -6.570  1.00 20.00     0.054 C 
HETATM    3  C3  UNL     1     -34.270  14.730  -6.298  1.00 20.00     0.013 C 
HETATM    4  C4  UNL     1     -35.211  15.189  -4.150  1.00 20.00     0.062 C 
HETATM    5  C5  UNL     1     -36.283  15.558  -5.195  1.00 20.00     0.148 C 
HETATM    6  C6  UNL     1     -33.866  15.217  -4.902  1.00 20.00    -0.044 C 
HETATM    7  C7  UNL     1     -32.842  14.278  -4.258  1.00 20.00     0.015 C 
HETATM    8  C8  UNL     1     -33.281  16.638  -4.946  1.00 20.00     0.015 C 
HETATM    9  N10 UNL     1     -38.398  14.009  -4.987  1.00 20.00    -0.194 NA
ENDROOT
BRANCH   5  10
HETATM   10  O11 UNL     1     -36.678  16.917  -5.028  1.00 20.00    -0.370 OA
HETATM   11  C9  UNL     1     -36.822  17.253  -3.656  1.00 20.00     0.204 C 
ENDBRANCH   5  10
TORSDOF 1
ENDMDL
MODEL 9
REMARK VINA RESULT:      -3.7      2.059      3.710
REMARK  1 active torsions:
REMARK  status: ('A' for Active; 'I' for Inactive)
REMARK    1  A    between atoms: C5_5  and  O11_11 
ROOT
HETATM    1  C1  UNL     1     -35.376  15.897  -3.324  1.00 20.00     0.098 C 
HETATM    2  C2  UNL     1     -33.482  14.874  -4.568  1.00 20.00     0.054 C 
HETATM    3  C3  UNL     1     -32.913  15.738  -5.691  1.00 20.00     0.013 C 
HETATM    4  C4  UNL     1     -35.285  16.003  -5.808  1.00 20.00     0.062 C 
HETATM    5  C5  UNL     1     -34.991  15.173  -4.543  1.00 20.00     0.148 C 
HETATM    6  C6  UNL     1     -34.050  15.838  -6.715  1.00 20.00    -0.044 C 
HETATM    7  C7  UNL     1     -33.864  17.044  -7.639  1.00 20.00     0.015 C 
HETATM    8  C8  UNL     1     -34.152  14.565  -7.571  1.00 20.00     0.015 C 
HETATM    9  N10 UNL     1     -35.681  16.470  -2.362  1.00 20.00    -0.194 NA
ENDROOT
BRANCH   5  10
HETATM   10  O11 UNL     1     -35.697  13.936  -4.597  1.00 20.00    -0.370 OA
HETATM   11  C9  UNL     1     -37.000  14.103  -5.138  1.00 20.00     0.204 C 
ENDBRANCH   5  10
TORSDOF 1
ENDMDL
