MODEL 1
REMARK VINA RESULT:      -4.3      0.000      0.000
REMARK  0 active torsions:
REMARK  status: ('A' for Active; 'I' for Inactive)
ROOT
HETATM    1  C1  UNL     1     -32.571   7.599   4.556  1.00 20.00     0.016 C 
HETATM    2  C2  UNL     1     -34.066   7.396   4.773  1.00 20.00     0.010 C 
HETATM    3  C3  UNL     1     -33.304   5.938   2.949  1.00 20.00     0.024 C 
HETATM    4  C4  UNL     1     -32.341   7.109   3.138  1.00 20.00     0.058 C 
HETATM    5  C5  UNL     1     -34.390   6.076   4.048  1.00 20.00    -0.047 C 
HETATM    6  C6  UNL     1     -35.796   6.122   3.438  1.00 20.00     0.015 C 
HETATM    7  C7  UNL     1     -34.311   4.894   5.027  1.00 20.00     0.015 C 
HETATM    8 BR8  UNL     1     -32.745   8.529   1.855  1.00 20.00    -0.091 Br
ENDROOT
TORSDOF 0
ENDMDL
MODEL 2
REMARK VINA RESULT:      -3.6      2.801      4.234
REMARK  0 active torsions:
REMARK  status: ('A' for Active; 'I' for Inactive)
ROOT
HETATM    1  C1  UNL     1     -31.507   8.174   2.990  1.00 20.00     0.016 C 
HETATM    2  C2  UNL     1     -31.334   8.547   1.523  1.00 20.00     0.010 C 
HETATM    3  C3  UNL     1     -33.709   8.716   2.130  1.00 20.00     0.024 C 
HETATM    4  C4  UNL     1     -32.972   7.789   3.096  1.00 20.00     0.058 C 
HETATM    5  C5  UNL     1     -32.644   9.266   1.146  1.00 20.00    -0.047 C 
HETATM    6  C6  UNL     1     -33.027   8.972  -0.310  1.00 20.00     0.015 C 
HETATM    7  C7  UNL     1     -32.490  10.785   1.322  1.00 20.00     0.015 C 
HETATM    8 BR8  UNL     1     -33.224   5.923   2.568  1.00 20.00    -0.091 Br
ENDROOT
TORSDOF 0
ENDMDL
MODEL 3
REMARK VINA RESULT:      -3.6      1.287      2.091
REMARK  0 active torsions:
REMARK  status: ('A' for Active; 'I' for Inactive)
ROOT
HETATM    1  C1  UNL     1     -32.843   6.016   2.349  1.00 20.00     0.016 C 
HETATM    2  C2  UNL     1     -33.147   5.356   3.688  1.00 20.00     0.010 C 
HETATM    3  C3  UNL     1     -34.108   7.617   3.659  1.00 20.00     0.024 C 
HETATM    4  C4  UNL     1     -32.978   7.500   2.637  1.00 20.00     0.058 C 
HETATM    5  C5  UNL     1     -34.272   6.214   4.300  1.00 20.00    -0.047 C 
HETATM    6  C6  UNL     1     -34.138   6.279   5.825  1.00 20.00     0.015 C 
HETATM    7  C7  UNL     1     -35.647   5.624   3.946  1.00 20.00     0.015 C 
HETATM    8 BR8  UNL     1     -31.313   8.200   3.387  1.00 20.00    -0.091 Br
ENDROOT
TORSDOF 0
ENDMDL
MODEL 4
REMARK VINA RESULT:      -3.4     11.527     12.315
REMARK  0 active torsions:
REMARK  status: ('A' for Active; 'I' for Inactive)
ROOT
HETATM    1  C1  UNL     1     -33.205  15.958  -5.504  1.00 20.00     0.016 C 
HETATM    2  C2  UNL     1     -34.419  16.740  -5.016  1.00 20.00     0.010 C 
HETATM    3  C3  UNL     1     -34.454  14.487  -4.036  1.00 20.00     0.024 C 
HETATM    4  C4  UNL     1     -33.604  14.507  -5.305  1.00 20.00     0.058 C 
HETATM    5  C5  UNL     1     -34.933  15.943  -3.801  1.00 20.00    -0.047 C 
HETATM    6  C6  UNL     1     -36.461  16.019  -3.708  1.00 20.00     0.015 C 
HETATM    7  C7  UNL     1     -34.328  16.500  -2.502  1.00 20.00     0.015 C 
HETATM    8 BR8  UNL     1     -34.653  13.876  -6.831  1.00 20.00    -0.091 Br
ENDROOT
TORSDOF 0
ENDMDL
MODEL 5
REMARK VINA RESULT:      -3.4     11.825     12.715
REMARK  0 active torsions:
REMARK  status: ('A' for Active; 'I' for Inactive)
ROOT
HETATM    1  C1  UNL     1     -34.398  14.057  -4.172  1.00 20.00     0.016 C 
HETATM    2  C2  UNL     1     -35.398  14.537  -5.218  1.00 20.00     0.010 C 
HETATM    3  C3  UNL     1     -33.217  15.588  -5.635  1.00 20.00     0.024 C 
HETATM    4  C4  UNL     1     -33.321  15.127  -4.182  1.00 20.00     0.058 C 
HETATM    5  C5  UNL     1     -34.530  15.151  -6.334  1.00 20.00    -0.047 C 
HETATM    6  C6  UNL     1     -35.242  16.346  -6.980  1.00 20.00     0.015 C 
HETATM    7  C7  UNL     1     -34.234  14.103  -7.419  1.00 20.00     0.015 C 
HETATM    8 BR8  UNL     1     -33.840  16.623  -3.034  1.00 20.00    -0.091 Br
ENDROOT
TORSDOF 0
ENDMDL
MODEL 6
REMARK VINA RESULT:      -3.4      2.371      3.932
REMARK  0 active torsions:
REMARK  status: ('A' for Active; 'I' for Inactive)
ROOT
HETATM    1  C1  UNL     1     -32.972   6.594   2.587  1.00 20.00     0.016 C 
HETATM    2  C2  UNL     1     -33.448   7.780   1.757  1.00 20.00     0.010 C 
HETATM    3  C3  UNL     1     -31.544   8.473   3.146  1.00 20.00     0.024 C 
HETATM    4  C4  UNL     1     -32.220   7.237   3.738  1.00 20.00     0.058 C 
HETATM    5  C5  UNL     1     -32.290   8.795   1.825  1.00 20.00    -0.047 C 
HETATM    6  C6  UNL     1     -32.825  10.231   1.823  1.00 20.00     0.015 C 
HETATM    7  C7  UNL     1     -31.348   8.614   0.624  1.00 20.00     0.015 C 
HETATM    8 BR8  UNL     1     -33.463   7.759   5.154  1.00 20.00    -0.091 Br
ENDROOT
TORSDOF 0
ENDMDL
MODEL 7
REMARK VINA RESULT:      -3.3      1.409      1.766
REMARK  0 active torsions:
REMARK  status: ('A' for Active; 'I' for Inactive)
ROOT
HETATM    1  C1  UNL     1     -31.537   8.158   3.345  1.00 20.00     0.016 C 
HETATM    2  C2  UNL     1     -32.788   7.539   3.957  1.00 20.00     0.010 C 
HETATM    3  C3  UNL     1     -32.807   7.175   1.528  1.00 20.00     0.024 C 
HETATM    4  C4  UNL     1     -31.908   8.358   1.887  1.00 20.00     0.058 C 
HETATM    5  C5  UNL     1     -33.330   6.595   2.867  1.00 20.00    -0.047 C 
HETATM    6  C6  UNL     1     -34.863   6.554   2.896  1.00 20.00     0.015 C 
HETATM    7  C7  UNL     1     -32.791   5.170   3.077  1.00 20.00     0.015 C 
HETATM    8 BR8  UNL     1     -32.880  10.039   1.658  1.00 20.00    -0.091 Br
ENDROOT
TORSDOF 0
ENDMDL
MODEL 8
REMARK VINA RESULT:      -3.3     11.459     12.218
REMARK  0 active torsions:
REMARK  status: ('A' for Active; 'I' for Inactive)
ROOT
HETATM    1  C1  UNL     1     -33.209  14.801  -4.281  1.00 20.00     0.016 C 
HETATM    2  C2  UNL     1     -34.571  14.126  -4.176  1.00 20.00     0.010 C 
HETATM    3  C3  UNL     1     -34.857  16.403  -5.052  1.00 20.00     0.024 C 
HETATM    4  C4  UNL     1     -33.538  16.283  -4.290  1.00 20.00     0.058 C 
HETATM    5  C5  UNL     1     -35.505  14.994  -5.042  1.00 20.00    -0.047 C 
HETATM    6  C6  UNL     1     -36.917  15.033  -4.447  1.00 20.00     0.015 C 
HETATM    7  C7  UNL     1     -35.583  14.433  -6.471  1.00 20.00     0.015 C 
HETATM    8 BR8  UNL     1     -33.750  16.943  -2.462  1.00 20.00    -0.091 Br
ENDROOT
TORSDOF 0
ENDMDL
MODEL 9
REMARK VINA RESULT:      -3.3     11.368     12.328
REMARK  0 active torsions:
REMARK  status: ('A' for Active; 'I' for Inactive)
ROOT
HETATM    1  C1  UNL     1     -34.458  14.041  -6.852  1.00 20.00     0.016 C 
HETATM    2  C2  UNL     1     -33.807  15.209  -6.123  1.00 20.00     0.010 C 
HETATM    3  C3  UNL     1     -35.087  13.861  -4.517  1.00 20.00     0.024 C 
HETATM    4  C4  UNL     1     -35.600  13.634  -5.938  1.00 20.00     0.058 C 
HETATM    5  C5  UNL     1     -33.881  14.829  -4.631  1.00 20.00    -0.047 C 
HETATM    6  C6  UNL     1     -34.083  16.075  -3.761  1.00 20.00     0.015 C 
HETATM    7  C7  UNL     1     -32.588  14.122  -4.194  1.00 20.00     0.015 C 
HETATM    8 BR8  UNL     1     -37.170  14.750  -6.276  1.00 20.00    -0.091 Br
ENDROOT
TORSDOF 0
ENDMDL
