MODEL 1
REMARK VINA RESULT:      -4.9      0.000      0.000
REMARK  1 active torsions:
REMARK  status: ('A' for Active; 'I' for Inactive)
REMARK    1  A    between atoms: C3_3  and  C8_8 
ROOT
HETATM    1  C1  UNL     1     -31.769   8.759   0.769  1.00 20.00     0.021 C 
HETATM    2  C2  UNL     1     -31.916   8.383   1.900  1.00 20.00    -0.037 C 
HETATM    3  C3  UNL     1     -32.092   7.932   3.259  1.00 20.00     0.235 C 
HETATM    4  O10 UNL     1     -31.266   8.232   4.113  1.00 20.00    -0.280 OA
ENDROOT
BRANCH   3   5
HETATM    5  C8  UNL     1     -33.314   7.104   3.533  1.00 20.00     0.129 C 
HETATM    6  C6  UNL     1     -33.590   7.080   5.041  1.00 20.00     0.047 C 
HETATM    7  C4  UNL     1     -34.544   5.955   5.429  1.00 20.00     0.006 C 
HETATM    8  C5  UNL     1     -34.068   4.632   4.842  1.00 20.00     0.026 C 
HETATM    9  C7  UNL     1     -33.822   4.761   3.346  1.00 20.00     0.169 C 
HETATM   10  O11 UNL     1     -32.905   5.816   3.059  1.00 20.00    -0.372 OA
HETATM   11  C9  UNL     1     -34.476   7.664   2.714  1.00 20.00     0.055 C 
ENDBRANCH   3   5
TORSDOF 1
ENDMDL
MODEL 2
REMARK VINA RESULT:      -4.7      1.568      4.371
REMARK  1 active torsions:
REMARK  status: ('A' for Active; 'I' for Inactive)
REMARK    1  A    between atoms: C3_3  and  C8_8 
ROOT
HETATM    1  C1  UNL     1     -33.924   7.113   5.705  1.00 20.00     0.021 C 
HETATM    2  C2  UNL     1     -33.633   7.065   4.541  1.00 20.00    -0.037 C 
HETATM    3  C3  UNL     1     -33.284   7.007   3.142  1.00 20.00     0.235 C 
HETATM    4  O10 UNL     1     -33.617   6.039   2.470  1.00 20.00    -0.280 OA
ENDROOT
BRANCH   3   5
HETATM    5  C8  UNL     1     -32.515   8.176   2.598  1.00 20.00     0.129 C 
HETATM    6  C6  UNL     1     -33.464   9.360   2.385  1.00 20.00     0.047 C 
HETATM    7  C4  UNL     1     -32.857  10.422   1.473  1.00 20.00     0.006 C 
HETATM    8  C5  UNL     1     -32.328   9.783   0.196  1.00 20.00     0.026 C 
HETATM    9  C7  UNL     1     -31.399   8.621   0.516  1.00 20.00     0.169 C 
HETATM   10  O11 UNL     1     -32.039   7.658   1.352  1.00 20.00    -0.372 OA
HETATM   11  C9  UNL     1     -31.364   8.490   3.555  1.00 20.00     0.055 C 
ENDBRANCH   3   5
TORSDOF 1
ENDMDL
MODEL 3
REMARK VINA RESULT:      -4.6     11.329     12.141
REMARK  1 active torsions:
REMARK  status: ('A' for Active; 'I' for Inactive)
REMARK    1  A    between atoms: C3_3  and  C8_8 
ROOT
HETATM    1  C1  UNL     1     -34.054  13.989  -7.917  1.00 20.00     0.021 C 
HETATM    2  C2  UNL     1     -34.489  14.038  -6.798  1.00 20.00    -0.037 C 
HETATM    3  C3  UNL     1     -35.010  14.096  -5.454  1.00 20.00     0.235 C 
HETATM    4  O10 UNL     1     -35.482  13.090  -4.940  1.00 20.00    -0.280 OA
ENDROOT
BRANCH   3   5
HETATM    5  C8  UNL     1     -34.932  15.428  -4.766  1.00 20.00     0.129 C 
HETATM    6  C6  UNL     1     -33.647  15.501  -3.933  1.00 20.00     0.047 C 
HETATM    7  C4  UNL     1     -33.695  16.628  -2.907  1.00 20.00     0.006 C 
HETATM    8  C5  UNL     1     -34.983  16.551  -2.097  1.00 20.00     0.026 C 
HETATM    9  C7  UNL     1     -36.196  16.481  -3.013  1.00 20.00     0.169 C 
HETATM   10  O11 UNL     1     -36.093  15.393  -3.930  1.00 20.00    -0.372 OA
HETATM   11  C9  UNL     1     -35.030  16.529  -5.823  1.00 20.00     0.055 C 
ENDBRANCH   3   5
TORSDOF 1
ENDMDL
MODEL 4
REMARK VINA RESULT:      -4.5     11.140     12.437
REMARK  1 active torsions:
REMARK  status: ('A' for Active; 'I' for Inactive)
REMARK    1  A    between atoms: C3_3  and  C8_8 
ROOT
HETATM    1  C1  UNL     1     -33.778  16.650  -2.674  1.00 20.00     0.021 C 
HETATM    2  C2  UNL     1     -33.696  15.765  -3.482  1.00 20.00    -0.037 C 
HETATM    3  C3  UNL     1     -33.597  14.701  -4.452  1.00 20.00     0.235 C 
HETATM    4  O10 UNL     1     -33.016  13.663  -4.161  1.00 20.00    -0.280 OA
ENDROOT
BRANCH   3   5
HETATM    5  C8  UNL     1     -34.236  14.954  -5.787  1.00 20.00     0.129 C 
HETATM    6  C6  UNL     1     -35.682  15.423  -5.583  1.00 20.00     0.047 C 
HETATM    7  C4  UNL     1     -36.505  15.308  -6.862  1.00 20.00     0.006 C 
HETATM    8  C5  UNL     1     -36.358  13.915  -7.462  1.00 20.00     0.026 C 
HETATM    9  C7  UNL     1     -34.891  13.546  -7.621  1.00 20.00     0.169 C 
HETATM   10  O11 UNL     1     -34.189  13.654  -6.384  1.00 20.00    -0.372 OA
HETATM   11  C9  UNL     1     -33.378  15.960  -6.555  1.00 20.00     0.055 C 
ENDBRANCH   3   5
TORSDOF 1
ENDMDL
MODEL 5
REMARK VINA RESULT:      -4.5     11.036     12.390
REMARK  1 active torsions:
REMARK  status: ('A' for Active; 'I' for Inactive)
REMARK    1  A    between atoms: C3_3  and  C8_8 
ROOT
HETATM    1  C1  UNL     1     -38.255  14.852  -4.913  1.00 20.00     0.021 C 
HETATM    2  C2  UNL     1     -37.121  14.457  -4.903  1.00 20.00    -0.037 C 
HETATM    3  C3  UNL     1     -35.759  13.981  -4.891  1.00 20.00     0.235 C 
HETATM    4  O10 UNL     1     -35.518  12.816  -5.182  1.00 20.00    -0.280 OA
ENDROOT
BRANCH   3   5
HETATM    5  C8  UNL     1     -34.707  14.982  -4.511  1.00 20.00     0.129 C 
HETATM    6  C6  UNL     1     -35.096  15.660  -3.192  1.00 20.00     0.047 C 
HETATM    7  C4  UNL     1     -34.310  16.946  -2.957  1.00 20.00     0.006 C 
HETATM    8  C5  UNL     1     -34.383  17.842  -4.187  1.00 20.00     0.026 C 
HETATM    9  C7  UNL     1     -33.980  17.078  -5.440  1.00 20.00     0.169 C 
HETATM   10  O11 UNL     1     -34.769  15.901  -5.607  1.00 20.00    -0.372 OA
HETATM   11  C9  UNL     1     -33.356  14.270  -4.449  1.00 20.00     0.055 C 
ENDBRANCH   3   5
TORSDOF 1
ENDMDL
MODEL 6
REMARK VINA RESULT:      -4.4     11.094     12.274
REMARK  1 active torsions:
REMARK  status: ('A' for Active; 'I' for Inactive)
REMARK    1  A    between atoms: C3_3  and  C8_8 
ROOT
HETATM    1  C1  UNL     1     -34.038  16.945  -1.850  1.00 20.00     0.021 C 
HETATM    2  C2  UNL     1     -33.894  16.787  -3.032  1.00 20.00    -0.037 C 
HETATM    3  C3  UNL     1     -33.721  16.598  -4.452  1.00 20.00     0.235 C 
HETATM    4  O10 UNL     1     -33.443  17.554  -5.165  1.00 20.00    -0.280 OA
ENDROOT
BRANCH   3   5
HETATM    5  C8  UNL     1     -33.898  15.197  -4.964  1.00 20.00     0.129 C 
HETATM    6  C6  UNL     1     -33.805  15.194  -6.494  1.00 20.00     0.047 C 
HETATM    7  C4  UNL     1     -34.370  13.913  -7.098  1.00 20.00     0.006 C 
HETATM    8  C5  UNL     1     -35.758  13.631  -6.538  1.00 20.00     0.026 C 
HETATM    9  C7  UNL     1     -35.744  13.658  -5.017  1.00 20.00     0.169 C 
HETATM   10  O11 UNL     1     -35.225  14.891  -4.522  1.00 20.00    -0.372 OA
HETATM   11  C9  UNL     1     -32.859  14.298  -4.293  1.00 20.00     0.055 C 
ENDBRANCH   3   5
TORSDOF 1
ENDMDL
MODEL 7
REMARK VINA RESULT:      -4.4     11.192     12.535
REMARK  1 active torsions:
REMARK  status: ('A' for Active; 'I' for Inactive)
REMARK    1  A    between atoms: C3_3  and  C8_8 
ROOT
HETATM    1  C1  UNL     1     -37.429  17.124  -3.674  1.00 20.00     0.021 C 
HETATM    2  C2  UNL     1     -37.242  16.051  -4.180  1.00 20.00    -0.037 C 
HETATM    3  C3  UNL     1     -37.018  14.762  -4.788  1.00 20.00     0.235 C 
HETATM    4  O10 UNL     1     -37.943  13.965  -4.885  1.00 20.00    -0.280 OA
ENDROOT
BRANCH   3   5
HETATM    5  C8  UNL     1     -35.623  14.486  -5.271  1.00 20.00     0.129 C 
HETATM    6  C6  UNL     1     -34.682  14.345  -4.069  1.00 20.00     0.047 C 
HETATM    7  C4  UNL     1     -33.217  14.471  -4.472  1.00 20.00     0.006 C 
HETATM    8  C5  UNL     1     -33.006  15.726  -5.310  1.00 20.00     0.026 C 
HETATM    9  C7  UNL     1     -33.986  15.772  -6.473  1.00 20.00     0.169 C 
HETATM   10  O11 UNL     1     -35.335  15.671  -6.021  1.00 20.00    -0.372 OA
HETATM   11  C9  UNL     1     -35.653  13.246  -6.164  1.00 20.00     0.055 C 
ENDBRANCH   3   5
TORSDOF 1
ENDMDL
MODEL 8
REMARK VINA RESULT:      -4.4     11.170     12.280
REMARK  1 active torsions:
REMARK  status: ('A' for Active; 'I' for Inactive)
REMARK    1  A    between atoms: C3_3  and  C8_8 
ROOT
HETATM    1  C1  UNL     1     -39.027  14.589  -5.303  1.00 20.00     0.021 C 
HETATM    2  C2  UNL     1     -37.853  14.364  -5.183  1.00 20.00    -0.037 C 
HETATM    3  C3  UNL     1     -36.443  14.093  -5.040  1.00 20.00     0.235 C 
HETATM    4  O10 UNL     1     -36.022  12.955  -5.204  1.00 20.00    -0.280 OA
ENDROOT
BRANCH   3   5
HETATM    5  C8  UNL     1     -35.572  15.264  -4.689  1.00 20.00     0.129 C 
HETATM    6  C6  UNL     1     -34.271  14.763  -4.052  1.00 20.00     0.047 C 
HETATM    7  C4  UNL     1     -33.533  15.875  -3.312  1.00 20.00     0.006 C 
HETATM    8  C5  UNL     1     -34.479  16.596  -2.361  1.00 20.00     0.026 C 
HETATM    9  C7  UNL     1     -35.736  17.050  -3.088  1.00 20.00     0.169 C 
HETATM   10  O11 UNL     1     -36.385  15.958  -3.737  1.00 20.00    -0.372 OA
HETATM   11  C9  UNL     1     -35.345  16.097  -5.951  1.00 20.00     0.055 C 
ENDBRANCH   3   5
TORSDOF 1
ENDMDL
MODEL 9
REMARK VINA RESULT:      -4.4     11.104     12.408
REMARK  1 active torsions:
REMARK  status: ('A' for Active; 'I' for Inactive)
REMARK    1  A    between atoms: C3_3  and  C8_8 
ROOT
HETATM    1  C1  UNL     1     -33.407  14.718  -4.148  1.00 20.00     0.021 C 
HETATM    2  C2  UNL     1     -34.464  14.311  -4.549  1.00 20.00    -0.037 C 
HETATM    3  C3  UNL     1     -35.733  13.821  -5.029  1.00 20.00     0.235 C 
HETATM    4  O10 UNL     1     -35.905  12.618  -5.179  1.00 20.00    -0.280 OA
ENDROOT
BRANCH   3   5
HETATM    5  C8  UNL     1     -36.782  14.857  -5.317  1.00 20.00     0.129 C 
HETATM    6  C6  UNL     1     -36.809  15.888  -4.183  1.00 20.00     0.047 C 
HETATM    7  C4  UNL     1     -38.090  16.717  -4.195  1.00 20.00     0.006 C 
HETATM    8  C5  UNL     1     -39.308  15.805  -4.266  1.00 20.00     0.026 C 
HETATM    9  C7  UNL     1     -39.183  14.822  -5.420  1.00 20.00     0.169 C 
HETATM   10  O11 UNL     1     -37.975  14.067  -5.332  1.00 20.00    -0.372 OA
HETATM   11  C9  UNL     1     -36.495  15.473  -6.687  1.00 20.00     0.055 C 
ENDBRANCH   3   5
TORSDOF 1
ENDMDL
