MODEL 1
REMARK VINA RESULT:      -6.1      0.000      0.000
REMARK  2 active torsions:
REMARK  status: ('A' for Active; 'I' for Inactive)
REMARK    1  A    between atoms: C1_1  and  C5_5 
REMARK    2  A    between atoms: C1_1  and  C11_11 
ROOT
HETATM    1  C2  UNL     1     -31.481   8.055   3.631  1.00 20.00     0.013 C 
HETATM    2  C3  UNL     1     -31.633   9.412   2.950  1.00 20.00     0.009 C 
HETATM    3  C4  UNL     1     -33.338   8.026   2.023  1.00 20.00     0.021 C 
HETATM    4  C5  UNL     1     -32.649   7.203   3.119  1.00 20.00     0.056 C 
HETATM    5  C6  UNL     1     -32.320   9.103   1.614  1.00 20.00    -0.047 C 
HETATM    6  C7  UNL     1     -31.321   8.556   0.582  1.00 20.00     0.015 C 
HETATM    7  C8  UNL     1     -33.010  10.342   1.039  1.00 20.00     0.015 C 
ENDROOT
BRANCH   4   8
HETATM    8  C1  UNL     1     -33.605   6.863   4.222  1.00 20.00     0.134 C 
HETATM    9  O12 UNL     1     -33.712   7.592   5.208  1.00 20.00    -0.297 OA
BRANCH   8  10
HETATM   10  C11 UNL     1     -34.398   5.569   4.073  1.00 20.00     0.047 C 
HETATM   11  C9  UNL     1     -33.643   4.596   3.175  1.00 20.00     0.017 C 
HETATM   12  C10 UNL     1     -34.684   4.941   5.435  1.00 20.00     0.017 C 
ENDBRANCH   8  10
ENDBRANCH   4   8
TORSDOF 2
ENDMDL
MODEL 2
REMARK VINA RESULT:      -5.6      1.299      4.561
REMARK  2 active torsions:
REMARK  status: ('A' for Active; 'I' for Inactive)
REMARK    1  A    between atoms: C1_1  and  C5_5 
REMARK    2  A    between atoms: C1_1  and  C11_11 
ROOT
HETATM    1  C2  UNL     1     -33.672   7.943   4.624  1.00 20.00     0.013 C 
HETATM    2  C3  UNL     1     -33.797   6.528   5.180  1.00 20.00     0.009 C 
HETATM    3  C4  UNL     1     -33.420   6.275   2.839  1.00 20.00     0.021 C 
HETATM    4  C5  UNL     1     -33.315   7.775   3.142  1.00 20.00     0.056 C 
HETATM    5  C6  UNL     1     -34.251   5.679   3.986  1.00 20.00    -0.047 C 
HETATM    6  C7  UNL     1     -35.756   5.842   3.721  1.00 20.00     0.015 C 
HETATM    7  C8  UNL     1     -33.935   4.197   4.201  1.00 20.00     0.015 C 
ENDROOT
BRANCH   4   8
HETATM    8  C1  UNL     1     -31.940   8.293   2.847  1.00 20.00     0.134 C 
HETATM    9  O12 UNL     1     -30.987   7.990   3.566  1.00 20.00    -0.297 OA
BRANCH   8  10
HETATM   10  C11 UNL     1     -31.796   9.225   1.648  1.00 20.00     0.047 C 
HETATM   11  C9  UNL     1     -31.432   8.422   0.405  1.00 20.00     0.017 C 
HETATM   12  C10 UNL     1     -33.075  10.027   1.421  1.00 20.00     0.017 C 
ENDBRANCH   8  10
ENDBRANCH   4   8
TORSDOF 2
ENDMDL
MODEL 3
REMARK VINA RESULT:      -5.4      1.245      4.781
REMARK  2 active torsions:
REMARK  status: ('A' for Active; 'I' for Inactive)
REMARK    1  A    between atoms: C1_1  and  C5_5 
REMARK    2  A    between atoms: C1_1  and  C11_11 
ROOT
HETATM    1  C2  UNL     1     -34.169   6.506   2.268  1.00 20.00     0.013 C 
HETATM    2  C3  UNL     1     -35.124   6.314   3.443  1.00 20.00     0.009 C 
HETATM    3  C4  UNL     1     -32.934   6.370   4.388  1.00 20.00     0.021 C 
HETATM    4  C5  UNL     1     -32.775   6.657   2.889  1.00 20.00     0.056 C 
HETATM    5  C6  UNL     1     -34.277   5.634   4.527  1.00 20.00    -0.047 C 
HETATM    6  C7  UNL     1     -34.114   4.131   4.251  1.00 20.00     0.015 C 
HETATM    7  C8  UNL     1     -34.886   5.829   5.917  1.00 20.00     0.015 C 
ENDROOT
BRANCH   4   8
HETATM    8  C1  UNL     1     -32.217   8.028   2.657  1.00 20.00     0.134 C 
HETATM    9  O12 UNL     1     -31.573   8.602   3.536  1.00 20.00    -0.297 OA
BRANCH   8  10
HETATM   10  C11 UNL     1     -32.515   8.676   1.309  1.00 20.00     0.047 C 
HETATM   11  C9  UNL     1     -32.904  10.136   1.507  1.00 20.00     0.017 C 
HETATM   12  C10 UNL     1     -31.319   8.556   0.367  1.00 20.00     0.017 C 
ENDBRANCH   8  10
ENDBRANCH   4   8
TORSDOF 2
ENDMDL
MODEL 4
REMARK VINA RESULT:      -5.1      1.839      4.740
REMARK  2 active torsions:
REMARK  status: ('A' for Active; 'I' for Inactive)
REMARK    1  A    between atoms: C1_1  and  C5_5 
REMARK    2  A    between atoms: C1_1  and  C11_11 
ROOT
HETATM    1  C2  UNL     1     -31.961   6.454   2.889  1.00 20.00     0.013 C 
HETATM    2  C3  UNL     1     -33.243   5.637   3.021  1.00 20.00     0.009 C 
HETATM    3  C4  UNL     1     -33.905   7.922   3.201  1.00 20.00     0.021 C 
HETATM    4  C5  UNL     1     -32.404   7.922   2.889  1.00 20.00     0.056 C 
HETATM    5  C6  UNL     1     -34.201   6.540   3.808  1.00 20.00    -0.047 C 
HETATM    6  C7  UNL     1     -33.884   6.519   5.312  1.00 20.00     0.015 C 
HETATM    7  C8  UNL     1     -35.659   6.130   3.595  1.00 20.00     0.015 C 
ENDROOT
BRANCH   4   8
HETATM    8  C1  UNL     1     -32.125   8.579   1.572  1.00 20.00     0.134 C 
HETATM    9  O12 UNL     1     -31.128   8.274   0.915  1.00 20.00    -0.297 OA
BRANCH   8  10
HETATM   10  C11 UNL     1     -33.107   9.652   1.114  1.00 20.00     0.047 C 
HETATM   11  C9  UNL     1     -32.643  11.022   1.593  1.00 20.00     0.017 C 
HETATM   12  C10 UNL     1     -33.270   9.635  -0.404  1.00 20.00     0.017 C 
ENDBRANCH   8  10
ENDBRANCH   4   8
TORSDOF 2
ENDMDL
MODEL 5
REMARK VINA RESULT:      -4.9     10.683     11.832
REMARK  2 active torsions:
REMARK  status: ('A' for Active; 'I' for Inactive)
REMARK    1  A    between atoms: C1_1  and  C5_5 
REMARK    2  A    between atoms: C1_1  and  C11_11 
ROOT
HETATM    1  C2  UNL     1     -36.204  15.654  -3.717  1.00 20.00     0.013 C 
HETATM    2  C3  UNL     1     -35.662  17.058  -3.971  1.00 20.00     0.009 C 
HETATM    3  C4  UNL     1     -33.860  15.569  -4.445  1.00 20.00     0.021 C 
HETATM    4  C5  UNL     1     -35.082  14.696  -4.134  1.00 20.00     0.056 C 
HETATM    5  C6  UNL     1     -34.145  16.928  -3.786  1.00 20.00    -0.047 C 
HETATM    6  C7  UNL     1     -33.759  16.912  -2.298  1.00 20.00     0.015 C 
HETATM    7  C8  UNL     1     -33.397  18.064  -4.487  1.00 20.00     0.015 C 
ENDROOT
BRANCH   4   8
HETATM    8  C1  UNL     1     -35.476  13.873  -5.322  1.00 20.00     0.134 C 
HETATM    9  O12 UNL     1     -35.870  12.714  -5.182  1.00 20.00    -0.297 OA
BRANCH   8  10
HETATM   10  C11 UNL     1     -35.332  14.526  -6.693  1.00 20.00     0.047 C 
HETATM   11  C9  UNL     1     -34.410  13.690  -7.574  1.00 20.00     0.017 C 
HETATM   12  C10 UNL     1     -36.694  14.713  -7.357  1.00 20.00     0.017 C 
ENDBRANCH   8  10
ENDBRANCH   4   8
TORSDOF 2
ENDMDL
MODEL 6
REMARK VINA RESULT:      -4.7     10.638     11.515
REMARK  2 active torsions:
REMARK  status: ('A' for Active; 'I' for Inactive)
REMARK    1  A    between atoms: C1_1  and  C5_5 
REMARK    2  A    between atoms: C1_1  and  C11_11 
ROOT
HETATM    1  C2  UNL     1     -33.646  16.197  -4.335  1.00 20.00     0.013 C 
HETATM    2  C3  UNL     1     -33.611  16.666  -2.883  1.00 20.00     0.009 C 
HETATM    3  C4  UNL     1     -35.843  15.918  -3.272  1.00 20.00     0.021 C 
HETATM    4  C5  UNL     1     -35.047  15.611  -4.547  1.00 20.00     0.056 C 
HETATM    5  C6  UNL     1     -35.064  17.035  -2.558  1.00 20.00    -0.047 C 
HETATM    6  C7  UNL     1     -35.433  18.415  -3.126  1.00 20.00     0.015 C 
HETATM    7  C8  UNL     1     -35.320  17.027  -1.050  1.00 20.00     0.015 C 
ENDROOT
BRANCH   4   8
HETATM    8  C1  UNL     1     -34.991  14.136  -4.808  1.00 20.00     0.134 C 
HETATM    9  O12 UNL     1     -34.478  13.372  -3.990  1.00 20.00    -0.297 OA
BRANCH   8  10
HETATM   10  C11 UNL     1     -35.564  13.648  -6.134  1.00 20.00     0.047 C 
HETATM   11  C9  UNL     1     -36.753  14.512  -6.538  1.00 20.00     0.017 C 
HETATM   12  C10 UNL     1     -34.497  13.650  -7.226  1.00 20.00     0.017 C 
ENDBRANCH   8  10
ENDBRANCH   4   8
TORSDOF 2
ENDMDL
MODEL 7
REMARK VINA RESULT:      -4.7     10.824     11.676
REMARK  2 active torsions:
REMARK  status: ('A' for Active; 'I' for Inactive)
REMARK    1  A    between atoms: C1_1  and  C5_5 
REMARK    2  A    between atoms: C1_1  and  C11_11 
ROOT
HETATM    1  C2  UNL     1     -33.376  14.739  -4.499  1.00 20.00     0.013 C 
HETATM    2  C3  UNL     1     -33.964  14.677  -5.906  1.00 20.00     0.009 C 
HETATM    3  C4  UNL     1     -35.607  15.766  -4.562  1.00 20.00     0.021 C 
HETATM    4  C5  UNL     1     -34.383  15.541  -3.666  1.00 20.00     0.056 C 
HETATM    5  C6  UNL     1     -35.482  14.735  -5.697  1.00 20.00    -0.047 C 
HETATM    6  C7  UNL     1     -36.042  13.370  -5.266  1.00 20.00     0.015 C 
HETATM    7  C8  UNL     1     -36.205  15.199  -6.963  1.00 20.00     0.015 C 
ENDROOT
BRANCH   4   8
HETATM    8  C1  UNL     1     -33.802  16.844  -3.207  1.00 20.00     0.134 C 
HETATM    9  O12 UNL     1     -33.379  17.665  -4.022  1.00 20.00    -0.297 OA
BRANCH   8  10
HETATM   10  C11 UNL     1     -33.734  17.078  -1.701  1.00 20.00     0.047 C 
HETATM   11  C9  UNL     1     -32.961  18.358  -1.407  1.00 20.00     0.017 C 
HETATM   12  C10 UNL     1     -35.133  17.138  -1.092  1.00 20.00     0.017 C 
ENDBRANCH   8  10
ENDBRANCH   4   8
TORSDOF 2
ENDMDL
MODEL 8
REMARK VINA RESULT:      -4.5     10.881     11.817
REMARK  2 active torsions:
REMARK  status: ('A' for Active; 'I' for Inactive)
REMARK    1  A    between atoms: C1_1  and  C5_5 
REMARK    2  A    between atoms: C1_1  and  C11_11 
ROOT
HETATM    1  C2  UNL     1     -35.634  17.231  -4.254  1.00 20.00     0.013 C 
HETATM    2  C3  UNL     1     -34.785  18.148  -3.379  1.00 20.00     0.009 C 
HETATM    3  C4  UNL     1     -33.903  15.953  -3.068  1.00 20.00     0.021 C 
HETATM    4  C5  UNL     1     -34.992  15.842  -4.142  1.00 20.00     0.056 C 
HETATM    5  C6  UNL     1     -34.229  17.233  -2.280  1.00 20.00    -0.047 C 
HETATM    6  C7  UNL     1     -35.279  16.959  -1.192  1.00 20.00     0.015 C 
HETATM    7  C8  UNL     1     -32.978  17.832  -1.633  1.00 20.00     0.015 C 
ENDROOT
BRANCH   4   8
HETATM    8  C1  UNL     1     -34.418  15.396  -5.452  1.00 20.00     0.134 C 
HETATM    9  O12 UNL     1     -33.332  15.827  -5.842  1.00 20.00    -0.297 OA
BRANCH   8  10
HETATM   10  C11 UNL     1     -35.253  14.421  -6.275  1.00 20.00     0.047 C 
HETATM   11  C9  UNL     1     -34.365  13.694  -7.279  1.00 20.00     0.017 C 
HETATM   12  C10 UNL     1     -35.980  13.425  -5.375  1.00 20.00     0.017 C 
ENDBRANCH   8  10
ENDBRANCH   4   8
TORSDOF 2
ENDMDL
MODEL 9
REMARK VINA RESULT:      -4.5     10.401     11.650
REMARK  2 active torsions:
REMARK  status: ('A' for Active; 'I' for Inactive)
REMARK    1  A    between atoms: C1_1  and  C5_5 
REMARK    2  A    between atoms: C1_1  and  C11_11 
ROOT
HETATM    1  C2  UNL     1     -34.588  14.205  -4.060  1.00 20.00     0.013 C 
HETATM    2  C3  UNL     1     -33.668  14.357  -5.268  1.00 20.00     0.009 C 
HETATM    3  C4  UNL     1     -35.668  15.530  -5.825  1.00 20.00     0.021 C 
HETATM    4  C5  UNL     1     -35.825  15.056  -4.374  1.00 20.00     0.056 C 
HETATM    5  C6  UNL     1     -34.613  14.603  -6.450  1.00 20.00    -0.047 C 
HETATM    6  C7  UNL     1     -35.250  13.293  -6.942  1.00 20.00     0.015 C 
HETATM    7  C8  UNL     1     -33.887  15.279  -7.616  1.00 20.00     0.015 C 
ENDROOT
BRANCH   4   8
HETATM    8  C1  UNL     1     -35.945  16.217  -3.436  1.00 20.00     0.134 C 
HETATM    9  O12 UNL     1     -36.941  16.942  -3.456  1.00 20.00    -0.297 OA
BRANCH   8  10
HETATM   10  C11 UNL     1     -34.773  16.467  -2.493  1.00 20.00     0.047 C 
HETATM   11  C9  UNL     1     -33.811  17.474  -3.114  1.00 20.00     0.017 C 
HETATM   12  C10 UNL     1     -35.259  16.952  -1.129  1.00 20.00     0.017 C 
ENDBRANCH   8  10
ENDBRANCH   4   8
TORSDOF 2
ENDMDL
