MODEL 1
REMARK VINA RESULT:      -4.1      0.000      0.000
REMARK  1 active torsions:
REMARK  status: ('A' for Active; 'I' for Inactive)
REMARK    1  A    between atoms: C4_4  and  S8_8 
ROOT
HETATM    1  C1  UNL     1     -32.575   7.568   4.576  1.00 20.00     0.015 C 
HETATM    2  C2  UNL     1     -34.058   7.339   4.834  1.00 20.00     0.010 C 
HETATM    3  C3  UNL     1     -33.305   5.916   2.974  1.00 20.00     0.023 C 
HETATM    4  C4  UNL     1     -32.370   7.120   3.133  1.00 20.00     0.045 C 
HETATM    5  C5  UNL     1     -34.393   6.041   4.072  1.00 20.00    -0.047 C 
HETATM    6  C6  UNL     1     -34.330   4.833   5.021  1.00 20.00     0.015 C 
HETATM    7  C7  UNL     1     -35.797   6.116   3.460  1.00 20.00     0.015 C 
ENDROOT
BRANCH   4   8
HETATM    8  S8  UNL     1     -32.773   8.448   1.944  1.00 20.00    -0.177 SA
HETATM    9  H22 UNL     1     -34.053   8.091   1.780  1.00 20.00     0.102 HD
ENDBRANCH   4   8
TORSDOF 1
ENDMDL
MODEL 2
REMARK VINA RESULT:      -3.4      1.264      2.104
REMARK  1 active torsions:
REMARK  status: ('A' for Active; 'I' for Inactive)
REMARK    1  A    between atoms: C4_4  and  S8_8 
ROOT
HETATM    1  C1  UNL     1     -32.852   6.232   2.280  1.00 20.00     0.015 C 
HETATM    2  C2  UNL     1     -33.210   5.400   3.504  1.00 20.00     0.010 C 
HETATM    3  C3  UNL     1     -34.079   7.687   3.766  1.00 20.00     0.023 C 
HETATM    4  C4  UNL     1     -32.912   7.673   2.773  1.00 20.00     0.045 C 
HETATM    5  C5  UNL     1     -34.288   6.224   4.237  1.00 20.00    -0.047 C 
HETATM    6  C6  UNL     1     -35.692   5.736   3.844  1.00 20.00     0.015 C 
HETATM    7  C7  UNL     1     -34.128   6.099   5.757  1.00 20.00     0.015 C 
ENDROOT
BRANCH   4   8
HETATM    8  S8  UNL     1     -31.347   8.185   3.568  1.00 20.00    -0.177 SA
HETATM    9  H22 UNL     1     -30.695   8.430   2.424  1.00 20.00     0.102 HD
ENDBRANCH   4   8
TORSDOF 1
ENDMDL
MODEL 3
REMARK VINA RESULT:      -3.2     11.544     12.395
REMARK  1 active torsions:
REMARK  status: ('A' for Active; 'I' for Inactive)
REMARK    1  A    between atoms: C4_4  and  S8_8 
ROOT
HETATM    1  C1  UNL     1     -33.280  15.921  -5.641  1.00 20.00     0.015 C 
HETATM    2  C2  UNL     1     -34.384  16.778  -5.035  1.00 20.00     0.010 C 
HETATM    3  C3  UNL     1     -34.411  14.538  -4.016  1.00 20.00     0.023 C 
HETATM    4  C4  UNL     1     -33.734  14.488  -5.390  1.00 20.00     0.045 C 
HETATM    5  C5  UNL     1     -34.825  16.012  -3.771  1.00 20.00    -0.047 C 
HETATM    6  C6  UNL     1     -34.103  16.567  -2.532  1.00 20.00     0.015 C 
HETATM    7  C7  UNL     1     -36.338  16.138  -3.559  1.00 20.00     0.015 C 
ENDROOT
BRANCH   4   8
HETATM    8  S8  UNL     1     -34.885  13.903  -6.685  1.00 20.00    -0.177 SA
HETATM    9  H22 UNL     1     -35.110  12.706  -6.127  1.00 20.00     0.102 HD
ENDBRANCH   4   8
TORSDOF 1
ENDMDL
MODEL 4
REMARK VINA RESULT:      -3.2     11.494     12.498
REMARK  1 active torsions:
REMARK  status: ('A' for Active; 'I' for Inactive)
REMARK    1  A    between atoms: C4_4  and  S8_8 
ROOT
HETATM    1  C1  UNL     1     -34.413  14.085  -4.112  1.00 20.00     0.015 C 
HETATM    2  C2  UNL     1     -33.340  15.150  -4.290  1.00 20.00     0.010 C 
HETATM    3  C3  UNL     1     -35.545  16.217  -4.062  1.00 20.00     0.023 C 
HETATM    4  C4  UNL     1     -35.703  14.772  -4.547  1.00 20.00     0.045 C 
HETATM    5  C5  UNL     1     -34.025  16.470  -3.882  1.00 20.00    -0.047 C 
HETATM    6  C6  UNL     1     -33.712  16.802  -2.414  1.00 20.00     0.015 C 
HETATM    7  C7  UNL     1     -33.544  17.627  -4.764  1.00 20.00     0.015 C 
ENDROOT
BRANCH   4   8
HETATM    8  S8  UNL     1     -35.938  14.693  -6.359  1.00 20.00    -0.177 SA
HETATM    9  H22 UNL     1     -34.745  15.219  -6.667  1.00 20.00     0.102 HD
ENDBRANCH   4   8
TORSDOF 1
ENDMDL
MODEL 5
REMARK VINA RESULT:      -3.2     11.948     12.770
REMARK  1 active torsions:
REMARK  status: ('A' for Active; 'I' for Inactive)
REMARK    1  A    between atoms: C4_4  and  S8_8 
ROOT
HETATM    1  C1  UNL     1     -33.442  14.501  -4.449  1.00 20.00     0.015 C 
HETATM    2  C2  UNL     1     -34.883  14.185  -4.825  1.00 20.00     0.010 C 
HETATM    3  C3  UNL     1     -33.836  15.539  -6.593  1.00 20.00     0.023 C 
HETATM    4  C4  UNL     1     -33.103  15.745  -5.263  1.00 20.00     0.045 C 
HETATM    5  C5  UNL     1     -34.981  14.528  -6.326  1.00 20.00    -0.047 C 
HETATM    6  C6  UNL     1     -34.779  13.263  -7.176  1.00 20.00     0.015 C 
HETATM    7  C7  UNL     1     -36.349  15.133  -6.658  1.00 20.00     0.015 C 
ENDROOT
BRANCH   4   8
HETATM    8  S8  UNL     1     -33.647  17.275  -4.424  1.00 20.00    -0.177 SA
HETATM    9  H22 UNL     1     -32.658  18.042  -4.900  1.00 20.00     0.102 HD
ENDBRANCH   4   8
TORSDOF 1
ENDMDL
MODEL 6
REMARK VINA RESULT:      -3.1     11.557     12.531
REMARK  1 active torsions:
REMARK  status: ('A' for Active; 'I' for Inactive)
REMARK    1  A    between atoms: C4_4  and  S8_8 
ROOT
HETATM    1  C1  UNL     1     -35.999  14.691  -5.664  1.00 20.00     0.015 C 
HETATM    2  C2  UNL     1     -35.127  14.044  -4.597  1.00 20.00     0.010 C 
HETATM    3  C3  UNL     1     -33.870  15.827  -5.736  1.00 20.00     0.023 C 
HETATM    4  C4  UNL     1     -35.006  15.323  -6.633  1.00 20.00     0.045 C 
HETATM    5  C5  UNL     1     -33.943  15.017  -4.415  1.00 20.00    -0.047 C 
HETATM    6  C6  UNL     1     -34.204  15.959  -3.229  1.00 20.00     0.015 C 
HETATM    7  C7  UNL     1     -32.642  14.248  -4.159  1.00 20.00     0.015 C 
ENDROOT
BRANCH   4   8
HETATM    8  S8  UNL     1     -34.403  14.119  -7.870  1.00 20.00    -0.177 SA
HETATM    9  H22 UNL     1     -34.154  15.027  -8.823  1.00 20.00     0.102 HD
ENDBRANCH   4   8
TORSDOF 1
ENDMDL
MODEL 7
REMARK VINA RESULT:      -3.1     11.568     12.500
REMARK  1 active torsions:
REMARK  status: ('A' for Active; 'I' for Inactive)
REMARK    1  A    between atoms: C4_4  and  S8_8 
ROOT
HETATM    1  C1  UNL     1     -35.476  15.110  -6.602  1.00 20.00     0.015 C 
HETATM    2  C2  UNL     1     -34.911  16.108  -5.600  1.00 20.00     0.010 C 
HETATM    3  C3  UNL     1     -35.239  13.925  -4.512  1.00 20.00     0.023 C 
HETATM    4  C4  UNL     1     -36.148  14.048  -5.740  1.00 20.00     0.045 C 
HETATM    5  C5  UNL     1     -34.428  15.244  -4.417  1.00 20.00    -0.047 C 
HETATM    6  C6  UNL     1     -32.924  14.953  -4.548  1.00 20.00     0.015 C 
HETATM    7  C7  UNL     1     -34.679  15.958  -3.084  1.00 20.00     0.015 C 
ENDROOT
BRANCH   4   8
HETATM    8  S8  UNL     1     -37.849  14.527  -5.271  1.00 20.00    -0.177 SA
HETATM    9  H22 UNL     1     -38.161  15.069  -6.456  1.00 20.00     0.102 HD
ENDBRANCH   4   8
TORSDOF 1
ENDMDL
MODEL 8
REMARK VINA RESULT:      -3.1     11.956     12.829
REMARK  1 active torsions:
REMARK  status: ('A' for Active; 'I' for Inactive)
REMARK    1  A    between atoms: C4_4  and  S8_8 
ROOT
HETATM    1  C1  UNL     1     -33.660  17.978  -4.746  1.00 20.00     0.015 C 
HETATM    2  C2  UNL     1     -34.498  18.304  -3.516  1.00 20.00     0.010 C 
HETATM    3  C3  UNL     1     -33.583  16.028  -3.324  1.00 20.00     0.023 C 
HETATM    4  C4  UNL     1     -33.639  16.455  -4.795  1.00 20.00     0.045 C 
HETATM    5  C5  UNL     1     -34.125  17.216  -2.488  1.00 20.00    -0.047 C 
HETATM    6  C6  UNL     1     -33.036  17.735  -1.535  1.00 20.00     0.015 C 
HETATM    7  C7  UNL     1     -35.350  16.805  -1.663  1.00 20.00     0.015 C 
ENDROOT
BRANCH   4   8
HETATM    8  S8  UNL     1     -35.116  15.781  -5.635  1.00 20.00    -0.177 SA
HETATM    9  H22 UNL     1     -35.794  16.936  -5.650  1.00 20.00     0.102 HD
ENDBRANCH   4   8
TORSDOF 1
ENDMDL
MODEL 9
REMARK VINA RESULT:      -3.1      2.322      3.899
REMARK  1 active torsions:
REMARK  status: ('A' for Active; 'I' for Inactive)
REMARK    1  A    between atoms: C4_4  and  S8_8 
ROOT
HETATM    1  C1  UNL     1     -32.477   7.859   4.060  1.00 20.00     0.015 C 
HETATM    2  C2  UNL     1     -31.417   8.354   3.086  1.00 20.00     0.010 C 
HETATM    3  C3  UNL     1     -33.533   7.971   1.891  1.00 20.00     0.023 C 
HETATM    4  C4  UNL     1     -33.493   7.140   3.178  1.00 20.00     0.045 C 
HETATM    5  C5  UNL     1     -32.204   8.766   1.825  1.00 20.00    -0.047 C 
HETATM    6  C6  UNL     1     -32.488  10.277   1.844  1.00 20.00     0.015 C 
HETATM    7  C7  UNL     1     -31.414   8.428   0.555  1.00 20.00     0.015 C 
ENDROOT
BRANCH   4   8
HETATM    8  S8  UNL     1     -33.003   5.410   2.847  1.00 20.00    -0.177 SA
HETATM    9  H22 UNL     1     -33.992   4.857   3.560  1.00 20.00     0.102 HD
ENDBRANCH   4   8
TORSDOF 1
ENDMDL
