MODEL 1
REMARK VINA RESULT:      -4.6      0.000      0.000
REMARK  1 active torsions:
REMARK  status: ('A' for Active; 'I' for Inactive)
REMARK    1  A    between atoms: C7_7  and  N8_8 
ROOT
HETATM    1  C1  UNL     1     -33.963   4.949   3.130  1.00 20.00     0.048 C 
HETATM    2  C2  UNL     1     -32.755   5.656   2.528  1.00 20.00     0.274 C 
HETATM    3  C3  UNL     1     -33.755   7.245   3.896  1.00 20.00     0.288 C 
HETATM    4  C4  UNL     1     -34.598   5.987   4.049  1.00 20.00     0.087 C 
HETATM    5  N8  UNL     1     -33.153   7.065   2.572  1.00 20.00     0.093 N 
HETATM    6 BR9  UNL     1     -34.612   5.388   5.896  1.00 20.00    -0.089 Br
ENDROOT
BRANCH   5   7
HETATM    7  C7  UNL     1     -32.032   7.965   2.344  1.00 20.00     0.215 C 
HETATM    8  C5  UNL     1     -31.451   8.388   3.686  1.00 20.00     0.042 C 
HETATM    9  C6  UNL     1     -32.517   9.161   1.538  1.00 20.00     0.042 C 
ENDBRANCH   5   7
TORSDOF 1
ENDMDL
MODEL 2
REMARK VINA RESULT:      -4.2      2.501      3.796
REMARK  1 active torsions:
REMARK  status: ('A' for Active; 'I' for Inactive)
REMARK    1  A    between atoms: C7_7  and  N8_8 
ROOT
HETATM    1  C1  UNL     1     -32.925   6.405   1.790  1.00 20.00     0.048 C 
HETATM    2  C2  UNL     1     -33.997   5.972   2.783  1.00 20.00     0.274 C 
HETATM    3  C3  UNL     1     -32.862   7.696   3.847  1.00 20.00     0.288 C 
HETATM    4  C4  UNL     1     -32.203   7.556   2.483  1.00 20.00     0.087 C 
HETATM    5  N8  UNL     1     -33.418   6.359   4.071  1.00 20.00     0.093 N 
HETATM    6 BR9  UNL     1     -32.358   9.205   1.469  1.00 20.00    -0.089 Br
ENDROOT
BRANCH   5   7
HETATM    7  C7  UNL     1     -34.396   6.336   5.148  1.00 20.00     0.215 C 
HETATM    8  C5  UNL     1     -33.912   7.232   6.280  1.00 20.00     0.042 C 
HETATM    9  C6  UNL     1     -34.587   4.899   5.610  1.00 20.00     0.042 C 
ENDBRANCH   5   7
TORSDOF 1
ENDMDL
MODEL 3
REMARK VINA RESULT:      -4.0      1.730      2.746
REMARK  1 active torsions:
REMARK  status: ('A' for Active; 'I' for Inactive)
REMARK    1  A    between atoms: C7_7  and  N8_8 
ROOT
HETATM    1  C1  UNL     1     -31.867   7.695   3.769  1.00 20.00     0.048 C 
HETATM    2  C2  UNL     1     -31.733   8.979   2.961  1.00 20.00     0.274 C 
HETATM    3  C3  UNL     1     -33.042   7.581   1.646  1.00 20.00     0.288 C 
HETATM    4  C4  UNL     1     -32.751   6.793   2.915  1.00 20.00     0.087 C 
HETATM    5  N8  UNL     1     -31.913   8.512   1.584  1.00 20.00     0.093 N 
HETATM    6 BR9  UNL     1     -34.398   6.334   3.835  1.00 20.00    -0.089 Br
ENDROOT
BRANCH   5   7
HETATM    7  C7  UNL     1     -32.144   9.606   0.653  1.00 20.00     0.215 C 
HETATM    8  C5  UNL     1     -32.737  10.787   1.410  1.00 20.00     0.042 C 
HETATM    9  C6  UNL     1     -33.070   9.125  -0.454  1.00 20.00     0.042 C 
ENDBRANCH   5   7
TORSDOF 1
ENDMDL
MODEL 4
REMARK VINA RESULT:      -3.6     11.115     12.253
REMARK  1 active torsions:
REMARK  status: ('A' for Active; 'I' for Inactive)
REMARK    1  A    between atoms: C7_7  and  N8_8 
ROOT
HETATM    1  C1  UNL     1     -33.281  16.152  -5.331  1.00 20.00     0.048 C 
HETATM    2  C2  UNL     1     -34.288  15.485  -6.259  1.00 20.00     0.274 C 
HETATM    3  C3  UNL     1     -34.559  14.413  -4.217  1.00 20.00     0.288 C 
HETATM    4  C4  UNL     1     -33.484  15.465  -3.985  1.00 20.00     0.087 C 
HETATM    5  N8  UNL     1     -34.452  14.160  -5.656  1.00 20.00     0.093 N 
HETATM    6 BR9  UNL     1     -34.038  16.728  -2.618  1.00 20.00    -0.089 Br
ENDROOT
BRANCH   5   7
HETATM    7  C7  UNL     1     -35.607  13.450  -6.184  1.00 20.00     0.215 C 
HETATM    8  C5  UNL     1     -35.583  13.521  -7.705  1.00 20.00     0.042 C 
HETATM    9  C6  UNL     1     -36.872  14.071  -5.611  1.00 20.00     0.042 C 
ENDBRANCH   5   7
TORSDOF 1
ENDMDL
MODEL 5
REMARK VINA RESULT:      -3.6     11.730     12.313
REMARK  1 active torsions:
REMARK  status: ('A' for Active; 'I' for Inactive)
REMARK    1  A    between atoms: C7_7  and  N8_8 
ROOT
HETATM    1  C1  UNL     1     -34.114  14.605  -4.799  1.00 20.00     0.048 C 
HETATM    2  C2  UNL     1     -34.655  15.319  -3.566  1.00 20.00     0.274 C 
HETATM    3  C3  UNL     1     -33.390  16.920  -4.675  1.00 20.00     0.288 C 
HETATM    4  C4  UNL     1     -33.309  15.668  -5.537  1.00 20.00     0.087 C 
HETATM    5  N8  UNL     1     -33.662  16.372  -3.344  1.00 20.00     0.093 N 
HETATM    6 BR9  UNL     1     -34.030  16.003  -7.309  1.00 20.00    -0.089 Br
ENDROOT
BRANCH   5   7
HETATM    7  C7  UNL     1     -34.129  17.386  -2.410  1.00 20.00     0.215 C 
HETATM    8  C5  UNL     1     -32.955  17.864  -1.566  1.00 20.00     0.042 C 
HETATM    9  C6  UNL     1     -35.235  16.792  -1.550  1.00 20.00     0.042 C 
ENDBRANCH   5   7
TORSDOF 1
ENDMDL
MODEL 6
REMARK VINA RESULT:      -3.5      2.547      4.010
REMARK  1 active torsions:
REMARK  status: ('A' for Active; 'I' for Inactive)
REMARK    1  A    between atoms: C7_7  and  N8_8 
ROOT
HETATM    1  C1  UNL     1     -31.712   8.575   3.403  1.00 20.00     0.048 C 
HETATM    2  C2  UNL     1     -32.293   7.301   4.003  1.00 20.00     0.274 C 
HETATM    3  C3  UNL     1     -33.547   7.682   2.086  1.00 20.00     0.288 C 
HETATM    4  C4  UNL     1     -32.519   8.803   2.130  1.00 20.00     0.087 C 
HETATM    5  N8  UNL     1     -33.667   7.306   3.497  1.00 20.00     0.093 N 
HETATM    6 BR9  UNL     1     -31.387   8.762   0.552  1.00 20.00    -0.089 Br
ENDROOT
BRANCH   5   7
HETATM    7  C7  UNL     1     -34.328   6.021   3.676  1.00 20.00     0.215 C 
HETATM    8  C5  UNL     1     -34.535   5.772   5.164  1.00 20.00     0.042 C 
HETATM    9  C6  UNL     1     -33.476   4.935   3.037  1.00 20.00     0.042 C 
ENDBRANCH   5   7
TORSDOF 1
ENDMDL
MODEL 7
REMARK VINA RESULT:      -3.5     11.285     12.262
REMARK  1 active torsions:
REMARK  status: ('A' for Active; 'I' for Inactive)
REMARK    1  A    between atoms: C7_7  and  N8_8 
ROOT
HETATM    1  C1  UNL     1     -33.548  17.116  -4.551  1.00 20.00     0.048 C 
HETATM    2  C2  UNL     1     -34.329  16.519  -5.715  1.00 20.00     0.274 C 
HETATM    3  C3  UNL     1     -34.557  14.977  -3.993  1.00 20.00     0.288 C 
HETATM    4  C4  UNL     1     -33.726  16.114  -3.415  1.00 20.00     0.087 C 
HETATM    5  N8  UNL     1     -34.285  15.083  -5.428  1.00 20.00     0.093 N 
HETATM    6 BR9  UNL     1     -34.622  16.919  -1.892  1.00 20.00    -0.089 Br
ENDROOT
BRANCH   5   7
HETATM    7  C7  UNL     1     -35.235  14.328  -6.231  1.00 20.00     0.215 C 
HETATM    8  C5  UNL     1     -36.025  13.395  -5.323  1.00 20.00     0.042 C 
HETATM    9  C6  UNL     1     -34.475  13.560  -7.302  1.00 20.00     0.042 C 
ENDBRANCH   5   7
TORSDOF 1
ENDMDL
MODEL 8
REMARK VINA RESULT:      -3.5     11.407     11.781
REMARK  1 active torsions:
REMARK  status: ('A' for Active; 'I' for Inactive)
REMARK    1  A    between atoms: C7_7  and  N8_8 
ROOT
HETATM    1  C1  UNL     1     -37.181  14.316  -5.156  1.00 20.00     0.048 C 
HETATM    2  C2  UNL     1     -36.892  15.654  -4.486  1.00 20.00     0.274 C 
HETATM    3  C3  UNL     1     -34.861  14.527  -4.466  1.00 20.00     0.288 C 
HETATM    4  C4  UNL     1     -35.838  13.594  -5.166  1.00 20.00     0.087 C 
HETATM    5  N8  UNL     1     -35.745  15.343  -3.629  1.00 20.00     0.093 N 
HETATM    6 BR9  UNL     1     -35.250  13.213  -6.977  1.00 20.00    -0.089 Br
ENDROOT
BRANCH   5   7
HETATM    7  C7  UNL     1     -35.087  16.540  -3.128  1.00 20.00     0.215 C 
HETATM    8  C5  UNL     1     -33.581  16.383  -3.283  1.00 20.00     0.042 C 
HETATM    9  C6  UNL     1     -35.485  16.748  -1.674  1.00 20.00     0.042 C 
ENDBRANCH   5   7
TORSDOF 1
ENDMDL
MODEL 9
REMARK VINA RESULT:      -3.4     11.728     12.045
REMARK  1 active torsions:
REMARK  status: ('A' for Active; 'I' for Inactive)
REMARK    1  A    between atoms: C7_7  and  N8_8 
ROOT
HETATM    1  C1  UNL     1     -35.452  14.420  -4.863  1.00 20.00     0.048 C 
HETATM    2  C2  UNL     1     -35.402  15.532  -3.822  1.00 20.00     0.274 C 
HETATM    3  C3  UNL     1     -33.276  15.496  -4.755  1.00 20.00     0.288 C 
HETATM    4  C4  UNL     1     -34.063  14.421  -5.492  1.00 20.00     0.087 C 
HETATM    5  N8  UNL     1     -33.980  15.583  -3.474  1.00 20.00     0.093 N 
HETATM    6 BR9  UNL     1     -34.144  14.807  -7.393  1.00 20.00    -0.089 Br
ENDROOT
BRANCH   5   7
HETATM    7  C7  UNL     1     -33.635  16.785  -2.730  1.00 20.00     0.215 C 
HETATM    8  C5  UNL     1     -34.639  16.979  -1.602  1.00 20.00     0.042 C 
HETATM    9  C6  UNL     1     -33.625  17.970  -3.684  1.00 20.00     0.042 C 
ENDBRANCH   5   7
TORSDOF 1
ENDMDL
