MODEL 1
REMARK VINA RESULT:      -5.7      0.000      0.000
REMARK  3 active torsions:
REMARK  status: ('A' for Active; 'I' for Inactive)
REMARK    1  A    between atoms: C3_3  and  C7_7 
REMARK    2  A    between atoms: C6_6  and  C8_8 
REMARK    3  A    between atoms: C7_7  and  C8_8 
ROOT
HETATM    1  C1  UNL     1     -34.696   5.018   5.621  1.00 20.00     0.012 C 
HETATM    2  C2  UNL     1     -34.312   6.008   5.060  1.00 20.00    -0.117 C 
HETATM    3  C6  UNL     1     -33.842   7.224   4.380  1.00 20.00     0.098 C 
ENDROOT
BRANCH   3   4
HETATM    4  C8  UNL     1     -33.335   6.976   2.942  1.00 20.00     0.006 C 
HETATM    5  C5  UNL     1     -33.262   5.468   2.652  1.00 20.00     0.011 C 
BRANCH   4   6
HETATM    6  C7  UNL     1     -31.986   7.664   2.622  1.00 20.00     0.087 C 
HETATM    7  C4  UNL     1     -31.398   8.430   3.808  1.00 20.00     0.021 C 
BRANCH   6   8
HETATM    8  C3  UNL     1     -32.109   8.724   1.508  1.00 20.00     0.177 C 
HETATM    9  O9  UNL     1     -33.030   9.577   1.649  1.00 20.00    -0.648 OA
HETATM   10  O10 UNL     1     -31.260   8.608   0.577  1.00 20.00    -0.648 OA
ENDBRANCH   6   8
ENDBRANCH   4   6
ENDBRANCH   3   4
TORSDOF 3
ENDMDL
MODEL 2
REMARK VINA RESULT:      -5.7      2.742      4.559
REMARK  3 active torsions:
REMARK  status: ('A' for Active; 'I' for Inactive)
REMARK    1  A    between atoms: C3_3  and  C7_7 
REMARK    2  A    between atoms: C6_6  and  C8_8 
REMARK    3  A    between atoms: C7_7  and  C8_8 
ROOT
HETATM    1  C1  UNL     1     -32.356   9.399   1.184  1.00 20.00     0.012 C 
HETATM    2  C2  UNL     1     -32.170   8.710   2.150  1.00 20.00    -0.117 C 
HETATM    3  C6  UNL     1     -31.935   7.868   3.333  1.00 20.00     0.098 C 
ENDROOT
BRANCH   3   4
HETATM    4  C8  UNL     1     -33.224   7.263   3.930  1.00 20.00     0.006 C 
HETATM    5  C5  UNL     1     -33.376   7.672   5.404  1.00 20.00     0.011 C 
BRANCH   4   6
HETATM    6  C7  UNL     1     -33.331   5.727   3.771  1.00 20.00     0.087 C 
HETATM    7  C4  UNL     1     -33.137   5.250   2.331  1.00 20.00     0.021 C 
BRANCH   6   8
HETATM    8  C3  UNL     1     -34.719   5.184   4.169  1.00 20.00     0.177 C 
HETATM    9  O9  UNL     1     -35.715   5.837   3.748  1.00 20.00    -0.648 OA
HETATM   10  O10 UNL     1     -34.690   4.134   4.875  1.00 20.00    -0.648 OA
ENDBRANCH   6   8
ENDBRANCH   4   6
ENDBRANCH   3   4
TORSDOF 3
ENDMDL
MODEL 3
REMARK VINA RESULT:      -5.6      2.630      4.359
REMARK  3 active torsions:
REMARK  status: ('A' for Active; 'I' for Inactive)
REMARK    1  A    between atoms: C3_3  and  C7_7 
REMARK    2  A    between atoms: C6_6  and  C8_8 
REMARK    3  A    between atoms: C7_7  and  C8_8 
ROOT
HETATM    1  C1  UNL     1     -32.499   9.320   0.993  1.00 20.00     0.012 C 
HETATM    2  C2  UNL     1     -32.185   8.758   2.007  1.00 20.00    -0.117 C 
HETATM    3  C6  UNL     1     -31.796   8.076   3.251  1.00 20.00     0.098 C 
ENDROOT
BRANCH   3   4
HETATM    4  C8  UNL     1     -32.624   6.806   3.548  1.00 20.00     0.006 C 
HETATM    5  C5  UNL     1     -32.962   6.068   2.242  1.00 20.00     0.011 C 
BRANCH   4   6
HETATM    6  C7  UNL     1     -33.903   7.068   4.379  1.00 20.00     0.087 C 
HETATM    7  C4  UNL     1     -33.618   7.393   5.846  1.00 20.00     0.021 C 
BRANCH   6   8
HETATM    8  C3  UNL     1     -34.837   5.841   4.435  1.00 20.00     0.177 C 
HETATM    9  O9  UNL     1     -34.494   4.915   5.222  1.00 20.00    -0.648 OA
HETATM   10  O10 UNL     1     -35.847   5.916   3.677  1.00 20.00    -0.648 OA
ENDBRANCH   6   8
ENDBRANCH   4   6
ENDBRANCH   3   4
TORSDOF 3
ENDMDL
MODEL 4
REMARK VINA RESULT:      -5.5      2.612      4.454
REMARK  3 active torsions:
REMARK  status: ('A' for Active; 'I' for Inactive)
REMARK    1  A    between atoms: C3_3  and  C7_7 
REMARK    2  A    between atoms: C6_6  and  C8_8 
REMARK    3  A    between atoms: C7_7  and  C8_8 
ROOT
HETATM    1  C1  UNL     1     -32.147   9.089   1.124  1.00 20.00     0.012 C 
HETATM    2  C2  UNL     1     -32.164   8.435   2.130  1.00 20.00    -0.117 C 
HETATM    3  C6  UNL     1     -32.177   7.634   3.364  1.00 20.00     0.098 C 
ENDROOT
BRANCH   3   4
HETATM    4  C8  UNL     1     -33.594   7.374   3.921  1.00 20.00     0.006 C 
HETATM    5  C5  UNL     1     -33.540   7.151   5.441  1.00 20.00     0.011 C 
BRANCH   4   6
HETATM    6  C7  UNL     1     -34.343   6.216   3.221  1.00 20.00     0.087 C 
HETATM    7  C4  UNL     1     -35.731   5.948   3.805  1.00 20.00     0.021 C 
BRANCH   6   8
HETATM    8  C3  UNL     1     -33.608   4.866   3.353  1.00 20.00     0.177 C 
HETATM    9  O9  UNL     1     -32.657   4.667   2.546  1.00 20.00    -0.648 OA
HETATM   10  O10 UNL     1     -34.053   4.113   4.268  1.00 20.00    -0.648 OA
ENDBRANCH   6   8
ENDBRANCH   4   6
ENDBRANCH   3   4
TORSDOF 3
ENDMDL
MODEL 5
REMARK VINA RESULT:      -5.4      2.622      4.610
REMARK  3 active torsions:
REMARK  status: ('A' for Active; 'I' for Inactive)
REMARK    1  A    between atoms: C3_3  and  C7_7 
REMARK    2  A    between atoms: C6_6  and  C8_8 
REMARK    3  A    between atoms: C7_7  and  C8_8 
ROOT
HETATM    1  C1  UNL     1     -32.504  10.246   0.595  1.00 20.00     0.012 C 
HETATM    2  C2  UNL     1     -32.532   9.136   1.052  1.00 20.00    -0.117 C 
HETATM    3  C6  UNL     1     -32.564   7.773   1.604  1.00 20.00     0.098 C 
ENDROOT
BRANCH   3   4
HETATM    4  C8  UNL     1     -32.722   7.729   3.140  1.00 20.00     0.006 C 
HETATM    5  C5  UNL     1     -31.475   8.312   3.824  1.00 20.00     0.011 C 
BRANCH   4   6
HETATM    6  C7  UNL     1     -33.051   6.324   3.699  1.00 20.00     0.087 C 
HETATM    7  C4  UNL     1     -33.326   5.285   2.611  1.00 20.00     0.021 C 
BRANCH   6   8
HETATM    8  C3  UNL     1     -34.327   6.314   4.566  1.00 20.00     0.177 C 
HETATM    9  O9  UNL     1     -35.342   5.758   4.059  1.00 20.00    -0.648 OA
HETATM   10  O10 UNL     1     -34.199   6.868   5.697  1.00 20.00    -0.648 OA
ENDBRANCH   6   8
ENDBRANCH   4   6
ENDBRANCH   3   4
TORSDOF 3
ENDMDL
MODEL 6
REMARK VINA RESULT:      -4.9      1.810      2.139
REMARK  3 active torsions:
REMARK  status: ('A' for Active; 'I' for Inactive)
REMARK    1  A    between atoms: C3_3  and  C7_7 
REMARK    2  A    between atoms: C6_6  and  C8_8 
REMARK    3  A    between atoms: C7_7  and  C8_8 
ROOT
HETATM    1  C1  UNL     1     -34.558   4.637   5.644  1.00 20.00     0.012 C 
HETATM    2  C2  UNL     1     -34.794   5.285   4.661  1.00 20.00    -0.117 C 
HETATM    3  C6  UNL     1     -35.092   6.080   3.460  1.00 20.00     0.098 C 
ENDROOT
BRANCH   3   4
HETATM    4  C8  UNL     1     -33.850   6.387   2.596  1.00 20.00     0.006 C 
HETATM    5  C5  UNL     1     -32.763   5.323   2.820  1.00 20.00     0.011 C 
BRANCH   4   6
HETATM    6  C7  UNL     1     -33.277   7.810   2.799  1.00 20.00     0.087 C 
HETATM    7  C4  UNL     1     -32.471   8.318   1.602  1.00 20.00     0.021 C 
BRANCH   6   8
HETATM    8  C3  UNL     1     -32.291   7.891   3.984  1.00 20.00     0.177 C 
HETATM    9  O9  UNL     1     -32.789   7.738   5.134  1.00 20.00    -0.648 OA
HETATM   10  O10 UNL     1     -31.088   8.101   3.652  1.00 20.00    -0.648 OA
ENDBRANCH   6   8
ENDBRANCH   4   6
ENDBRANCH   3   4
TORSDOF 3
ENDMDL
MODEL 7
REMARK VINA RESULT:      -4.7     10.482     11.273
REMARK  3 active torsions:
REMARK  status: ('A' for Active; 'I' for Inactive)
REMARK    1  A    between atoms: C3_3  and  C7_7 
REMARK    2  A    between atoms: C6_6  and  C8_8 
REMARK    3  A    between atoms: C7_7  and  C8_8 
ROOT
HETATM    1  C1  UNL     1     -35.187  16.921  -0.985  1.00 20.00     0.012 C 
HETATM    2  C2  UNL     1     -34.757  16.719  -2.087  1.00 20.00    -0.117 C 
HETATM    3  C6  UNL     1     -34.227  16.479  -3.438  1.00 20.00     0.098 C 
ENDROOT
BRANCH   3   4
HETATM    4  C8  UNL     1     -34.443  15.036  -3.942  1.00 20.00     0.006 C 
HETATM    5  C5  UNL     1     -33.093  14.354  -4.215  1.00 20.00     0.011 C 
BRANCH   4   6
HETATM    6  C7  UNL     1     -35.371  14.933  -5.177  1.00 20.00     0.087 C 
HETATM    7  C4  UNL     1     -36.278  16.151  -5.359  1.00 20.00     0.021 C 
BRANCH   6   8
HETATM    8  C3  UNL     1     -36.347  13.741  -5.089  1.00 20.00     0.177 C 
HETATM    9  O9  UNL     1     -37.524  14.011  -4.721  1.00 20.00    -0.648 OA
HETATM   10  O10 UNL     1     -35.841  12.624  -5.403  1.00 20.00    -0.648 OA
ENDBRANCH   6   8
ENDBRANCH   4   6
ENDBRANCH   3   4
TORSDOF 3
ENDMDL
MODEL 8
REMARK VINA RESULT:      -4.6      2.862      4.489
REMARK  3 active torsions:
REMARK  status: ('A' for Active; 'I' for Inactive)
REMARK    1  A    between atoms: C3_3  and  C7_7 
REMARK    2  A    between atoms: C6_6  and  C8_8 
REMARK    3  A    between atoms: C7_7  and  C8_8 
ROOT
HETATM    1  C1  UNL     1     -31.397   8.558   3.478  1.00 20.00     0.012 C 
HETATM    2  C2  UNL     1     -32.165   7.765   3.006  1.00 20.00    -0.117 C 
HETATM    3  C6  UNL     1     -33.106   6.798   2.421  1.00 20.00     0.098 C 
ENDROOT
BRANCH   3   4
HETATM    4  C8  UNL     1     -33.231   5.487   3.228  1.00 20.00     0.006 C 
HETATM    5  C5  UNL     1     -32.982   4.272   2.320  1.00 20.00     0.011 C 
BRANCH   4   6
HETATM    6  C7  UNL     1     -34.571   5.340   3.988  1.00 20.00     0.087 C 
HETATM    7  C4  UNL     1     -35.663   6.284   3.482  1.00 20.00     0.021 C 
BRANCH   6   8
HETATM    8  C3  UNL     1     -34.443   5.677   5.489  1.00 20.00     0.177 C 
HETATM    9  O9  UNL     1     -34.628   4.720   6.292  1.00 20.00    -0.648 OA
HETATM   10  O10 UNL     1     -34.163   6.886   5.734  1.00 20.00    -0.648 OA
ENDBRANCH   6   8
ENDBRANCH   4   6
ENDBRANCH   3   4
TORSDOF 3
ENDMDL
MODEL 9
REMARK VINA RESULT:      -4.5     10.466     11.094
REMARK  3 active torsions:
REMARK  status: ('A' for Active; 'I' for Inactive)
REMARK    1  A    between atoms: C3_3  and  C7_7 
REMARK    2  A    between atoms: C6_6  and  C8_8 
REMARK    3  A    between atoms: C7_7  and  C8_8 
ROOT
HETATM    1  C1  UNL     1     -35.551  17.442  -0.566  1.00 20.00     0.012 C 
HETATM    2  C2  UNL     1     -34.880  17.046  -1.480  1.00 20.00    -0.117 C 
HETATM    3  C6  UNL     1     -34.051  16.562  -2.594  1.00 20.00     0.098 C 
ENDROOT
BRANCH   3   4
HETATM    4  C8  UNL     1     -34.866  15.937  -3.748  1.00 20.00     0.006 C 
HETATM    5  C5  UNL     1     -36.373  16.069  -3.474  1.00 20.00     0.011 C 
BRANCH   4   6
HETATM    6  C7  UNL     1     -34.490  14.470  -4.063  1.00 20.00     0.087 C 
HETATM    7  C4  UNL     1     -33.004  14.275  -4.369  1.00 20.00     0.021 C 
BRANCH   6   8
HETATM    8  C3  UNL     1     -35.210  13.927  -5.315  1.00 20.00     0.177 C 
HETATM    9  O9  UNL     1     -35.080  14.607  -6.372  1.00 20.00    -0.648 OA
HETATM   10  O10 UNL     1     -35.850  12.852  -5.128  1.00 20.00    -0.648 OA
ENDBRANCH   6   8
ENDBRANCH   4   6
ENDBRANCH   3   4
TORSDOF 3
ENDMDL
