MODEL 1
REMARK VINA RESULT:      -5.8      0.000      0.000
REMARK  2 active torsions:
REMARK  status: ('A' for Active; 'I' for Inactive)
REMARK    1  A    between atoms: C1_1  and  C5_5 
REMARK    2  A    between atoms: C6_6  and  C10_10 
ROOT
HETATM    1  C2  UNL     1     -33.007   7.298   4.643  1.00 20.00     0.016 C 
HETATM    2  C3  UNL     1     -32.478   8.367   3.690  1.00 20.00     0.005 C 
HETATM    3  C4  UNL     1     -33.329   7.020   1.720  1.00 20.00     0.009 C 
HETATM    4  C5  UNL     1     -34.190   6.554   4.034  1.00 20.00     0.090 C 
HETATM    5  C6  UNL     1     -32.136   7.791   2.309  1.00 20.00    -0.014 C 
HETATM    6  C7  UNL     1     -33.868   5.931   2.667  1.00 20.00    -0.004 C 
HETATM    7  C8  UNL     1     -32.899   4.743   2.737  1.00 20.00     0.011 C 
ENDROOT
BRANCH   4   8
HETATM    8  C1  UNL     1     -34.668   5.498   5.015  1.00 20.00     0.177 C 
HETATM    9  O11 UNL     1     -35.185   4.472   4.495  1.00 20.00    -0.648 OA
HETATM   10  O12 UNL     1     -34.485   5.786   6.232  1.00 20.00    -0.648 OA
ENDBRANCH   4   8
BRANCH   5  11
HETATM   11  C10 UNL     1     -31.695   8.903   1.357  1.00 20.00     0.000 C 
HETATM   12  C9  UNL     1     -32.767   9.924   1.169  1.00 20.00     0.005 C 
ENDBRANCH   5  11
TORSDOF 2
ENDMDL
MODEL 2
REMARK VINA RESULT:      -5.1     11.052     11.920
REMARK  2 active torsions:
REMARK  status: ('A' for Active; 'I' for Inactive)
REMARK    1  A    between atoms: C1_1  and  C5_5 
REMARK    2  A    between atoms: C6_6  and  C10_10 
ROOT
HETATM    1  C2  UNL     1     -33.599  15.282  -4.256  1.00 20.00     0.016 C 
HETATM    2  C3  UNL     1     -33.403  16.251  -3.092  1.00 20.00     0.005 C 
HETATM    3  C4  UNL     1     -35.916  16.455  -2.848  1.00 20.00     0.009 C 
HETATM    4  C5  UNL     1     -34.925  14.538  -4.135  1.00 20.00     0.090 C 
HETATM    5  C6  UNL     1     -34.585  17.218  -2.941  1.00 20.00    -0.014 C 
HETATM    6  C7  UNL     1     -36.134  15.480  -4.020  1.00 20.00    -0.004 C 
HETATM    7  C8  UNL     1     -36.451  16.246  -5.313  1.00 20.00     0.011 C 
ENDROOT
BRANCH   4   8
HETATM    8  C1  UNL     1     -35.075  13.600  -5.320  1.00 20.00     0.177 C 
HETATM    9  O11 UNL     1     -34.222  13.748  -6.237  1.00 20.00    -0.648 OA
HETATM   10  O12 UNL     1     -36.040  12.789  -5.233  1.00 20.00    -0.648 OA
ENDBRANCH   4   8
BRANCH   5  11
HETATM   11  C10 UNL     1     -34.393  18.112  -1.715  1.00 20.00     0.000 C 
HETATM   12  C9  UNL     1     -32.977  18.102  -1.243  1.00 20.00     0.005 C 
ENDBRANCH   5  11
TORSDOF 2
ENDMDL
MODEL 3
REMARK VINA RESULT:      -5.1     11.191     12.228
REMARK  2 active torsions:
REMARK  status: ('A' for Active; 'I' for Inactive)
REMARK    1  A    between atoms: C1_1  and  C5_5 
REMARK    2  A    between atoms: C6_6  and  C10_10 
ROOT
HETATM    1  C2  UNL     1     -35.758  14.524  -4.935  1.00 20.00     0.016 C 
HETATM    2  C3  UNL     1     -36.105  15.508  -3.821  1.00 20.00     0.005 C 
HETATM    3  C4  UNL     1     -33.743  16.420  -3.899  1.00 20.00     0.009 C 
HETATM    4  C5  UNL     1     -34.637  15.064  -5.817  1.00 20.00     0.090 C 
HETATM    5  C6  UNL     1     -34.874  15.903  -2.994  1.00 20.00    -0.014 C 
HETATM    6  C7  UNL     1     -33.374  15.434  -5.023  1.00 20.00    -0.004 C 
HETATM    7  C8  UNL     1     -32.617  14.224  -4.458  1.00 20.00     0.011 C 
ENDROOT
BRANCH   4   8
HETATM    8  C1  UNL     1     -34.323  14.045  -6.898  1.00 20.00     0.177 C 
HETATM    9  O11 UNL     1     -33.631  14.476  -7.861  1.00 20.00    -0.648 OA
HETATM   10  O12 UNL     1     -34.798  12.893  -6.692  1.00 20.00    -0.648 OA
ENDBRANCH   4   8
BRANCH   5  11
HETATM   11  C10 UNL     1     -35.244  16.954  -1.948  1.00 20.00     0.000 C 
HETATM   12  C9  UNL     1     -34.047  17.421  -1.188  1.00 20.00     0.005 C 
ENDBRANCH   5  11
TORSDOF 2
ENDMDL
MODEL 4
REMARK VINA RESULT:      -4.9      2.934      4.802
REMARK  2 active torsions:
REMARK  status: ('A' for Active; 'I' for Inactive)
REMARK    1  A    between atoms: C1_1  and  C5_5 
REMARK    2  A    between atoms: C6_6  and  C10_10 
ROOT
HETATM    1  C2  UNL     1     -32.951   6.818   1.475  1.00 20.00     0.016 C 
HETATM    2  C3  UNL     1     -33.801   5.797   2.229  1.00 20.00     0.005 C 
HETATM    3  C4  UNL     1     -33.689   7.248   4.303  1.00 20.00     0.009 C 
HETATM    4  C5  UNL     1     -33.130   8.218   2.053  1.00 20.00     0.090 C 
HETATM    5  C6  UNL     1     -33.532   5.826   3.740  1.00 20.00    -0.014 C 
HETATM    6  C7  UNL     1     -32.831   8.288   3.558  1.00 20.00    -0.004 C 
HETATM    7  C8  UNL     1     -31.346   8.117   3.907  1.00 20.00     0.011 C 
ENDROOT
BRANCH   4   8
HETATM    8  C1  UNL     1     -32.258   9.188   1.277  1.00 20.00     0.177 C 
HETATM    9  O11 UNL     1     -31.316   8.663   0.623  1.00 20.00    -0.648 OA
HETATM   10  O12 UNL     1     -32.589  10.403   1.388  1.00 20.00    -0.648 OA
ENDBRANCH   4   8
BRANCH   5  11
HETATM   11  C10 UNL     1     -34.462   4.855   4.468  1.00 20.00     0.000 C 
HETATM   12  C9  UNL     1     -34.660   5.249   5.895  1.00 20.00     0.005 C 
ENDBRANCH   5  11
TORSDOF 2
ENDMDL
MODEL 5
REMARK VINA RESULT:      -4.7     11.242     12.315
REMARK  2 active torsions:
REMARK  status: ('A' for Active; 'I' for Inactive)
REMARK    1  A    between atoms: C1_1  and  C5_5 
REMARK    2  A    between atoms: C6_6  and  C10_10 
ROOT
HETATM    1  C2  UNL     1     -36.142  15.504  -4.159  1.00 20.00     0.016 C 
HETATM    2  C3  UNL     1     -36.015  16.416  -2.941  1.00 20.00     0.005 C 
HETATM    3  C4  UNL     1     -33.544  16.702  -3.422  1.00 20.00     0.009 C 
HETATM    4  C5  UNL     1     -35.085  15.835  -5.208  1.00 20.00     0.090 C 
HETATM    5  C6  UNL     1     -34.600  16.393  -2.347  1.00 20.00    -0.014 C 
HETATM    6  C7  UNL     1     -33.653  15.783  -4.653  1.00 20.00    -0.004 C 
HETATM    7  C8  UNL     1     -33.166  14.366  -4.320  1.00 20.00     0.011 C 
ENDROOT
BRANCH   4   8
HETATM    8  C1  UNL     1     -35.248  14.895  -6.388  1.00 20.00     0.177 C 
HETATM    9  O11 UNL     1     -34.532  15.161  -7.393  1.00 20.00    -0.648 OA
HETATM   10  O12 UNL     1     -36.083  13.963  -6.212  1.00 20.00    -0.648 OA
ENDBRANCH   4   8
BRANCH   5  11
HETATM   11  C10 UNL     1     -34.489  17.382  -1.187  1.00 20.00     0.000 C 
HETATM   12  C9  UNL     1     -33.150  18.041  -1.152  1.00 20.00     0.005 C 
ENDBRANCH   5  11
TORSDOF 2
ENDMDL
MODEL 6
REMARK VINA RESULT:      -4.6     11.447     12.376
REMARK  2 active torsions:
REMARK  status: ('A' for Active; 'I' for Inactive)
REMARK    1  A    between atoms: C1_1  and  C5_5 
REMARK    2  A    between atoms: C6_6  and  C10_10 
ROOT
HETATM    1  C2  UNL     1     -35.405  15.287  -3.826  1.00 20.00     0.016 C 
HETATM    2  C3  UNL     1     -35.214  14.413  -5.064  1.00 20.00     0.005 C 
HETATM    3  C4  UNL     1     -33.203  15.806  -5.725  1.00 20.00     0.009 C 
HETATM    4  C5  UNL     1     -34.084  15.899  -3.374  1.00 20.00     0.090 C 
HETATM    5  C6  UNL     1     -34.520  15.172  -6.204  1.00 20.00    -0.014 C 
HETATM    6  C7  UNL     1     -33.382  16.698  -4.483  1.00 20.00    -0.004 C 
HETATM    7  C8  UNL     1     -34.092  18.008  -4.852  1.00 20.00     0.011 C 
ENDROOT
BRANCH   4   8
HETATM    8  C1  UNL     1     -34.332  16.765  -2.152  1.00 20.00     0.177 C 
HETATM    9  O11 UNL     1     -35.536  16.847  -1.784  1.00 20.00    -0.648 OA
HETATM   10  O12 UNL     1     -33.296  17.294  -1.658  1.00 20.00    -0.648 OA
ENDBRANCH   4   8
BRANCH   5  11
HETATM   11  C10 UNL     1     -34.267  14.242  -7.390  1.00 20.00     0.000 C 
HETATM   12  C9  UNL     1     -35.132  13.026  -7.332  1.00 20.00     0.005 C 
ENDBRANCH   5  11
TORSDOF 2
ENDMDL
MODEL 7
REMARK VINA RESULT:      -4.6      0.763      2.176
REMARK  2 active torsions:
REMARK  status: ('A' for Active; 'I' for Inactive)
REMARK    1  A    between atoms: C1_1  and  C5_5 
REMARK    2  A    between atoms: C6_6  and  C10_10 
ROOT
HETATM    1  C2  UNL     1     -34.245   6.118   2.687  1.00 20.00     0.016 C 
HETATM    2  C3  UNL     1     -33.404   6.973   1.741  1.00 20.00     0.005 C 
HETATM    3  C4  UNL     1     -32.066   7.826   3.716  1.00 20.00     0.009 C 
HETATM    4  C5  UNL     1     -33.459   5.747   3.940  1.00 20.00     0.090 C 
HETATM    5  C6  UNL     1     -32.832   8.214   2.440  1.00 20.00    -0.014 C 
HETATM    6  C7  UNL     1     -32.904   6.971   4.684  1.00 20.00    -0.004 C 
HETATM    7  C8  UNL     1     -33.981   7.824   5.370  1.00 20.00     0.011 C 
ENDROOT
BRANCH   4   8
HETATM    8  C1  UNL     1     -34.342   4.910   4.847  1.00 20.00     0.177 C 
HETATM    9  O11 UNL     1     -34.569   5.405   5.986  1.00 20.00    -0.648 OA
HETATM   10  O12 UNL     1     -34.738   3.821   4.343  1.00 20.00    -0.648 OA
ENDBRANCH   4   8
BRANCH   5  11
HETATM   11  C10 UNL     1     -31.927   8.996   1.489  1.00 20.00     0.000 C 
HETATM   12  C9  UNL     1     -32.645  10.148   0.868  1.00 20.00     0.005 C 
ENDBRANCH   5  11
TORSDOF 2
ENDMDL
MODEL 8
REMARK VINA RESULT:      -4.5     11.307     12.104
REMARK  2 active torsions:
REMARK  status: ('A' for Active; 'I' for Inactive)
REMARK    1  A    between atoms: C1_1  and  C5_5 
REMARK    2  A    between atoms: C6_6  and  C10_10 
ROOT
HETATM    1  C2  UNL     1     -36.285  16.761  -2.811  1.00 20.00     0.016 C 
HETATM    2  C3  UNL     1     -36.219  15.632  -3.837  1.00 20.00     0.005 C 
HETATM    3  C4  UNL     1     -33.695  15.599  -3.627  1.00 20.00     0.009 C 
HETATM    4  C5  UNL     1     -35.093  16.713  -1.861  1.00 20.00     0.090 C 
HETATM    5  C6  UNL     1     -34.887  15.621  -4.599  1.00 20.00    -0.014 C 
HETATM    6  C7  UNL     1     -33.742  16.739  -2.592  1.00 20.00    -0.004 C 
HETATM    7  C8  UNL     1     -33.417  18.086  -3.252  1.00 20.00     0.011 C 
ENDROOT
BRANCH   4   8
HETATM    8  C1  UNL     1     -35.201  17.860  -0.873  1.00 20.00     0.177 C 
HETATM    9  O11 UNL     1     -34.354  17.849   0.062  1.00 20.00    -0.648 OA
HETATM   10  O12 UNL     1     -36.130  18.681  -1.115  1.00 20.00    -0.648 OA
ENDBRANCH   4   8
BRANCH   5  11
HETATM   11  C10 UNL     1     -34.823  14.427  -5.551  1.00 20.00     0.000 C 
HETATM   12  C9  UNL     1     -35.929  13.457  -5.294  1.00 20.00     0.005 C 
ENDBRANCH   5  11
TORSDOF 2
ENDMDL
MODEL 9
REMARK VINA RESULT:      -4.4     11.202     12.513
REMARK  2 active torsions:
REMARK  status: ('A' for Active; 'I' for Inactive)
REMARK    1  A    between atoms: C1_1  and  C5_5 
REMARK    2  A    between atoms: C6_6  and  C10_10 
ROOT
HETATM    1  C2  UNL     1     -35.708  13.960  -4.859  1.00 20.00     0.016 C 
HETATM    2  C3  UNL     1     -37.188  14.298  -5.028  1.00 20.00     0.005 C 
HETATM    3  C4  UNL     1     -36.701  16.706  -4.409  1.00 20.00     0.009 C 
HETATM    4  C5  UNL     1     -34.832  15.182  -5.115  1.00 20.00     0.090 C 
HETATM    5  C6  UNL     1     -37.610  15.491  -4.160  1.00 20.00    -0.014 C 
HETATM    6  C7  UNL     1     -35.205  16.384  -4.233  1.00 20.00    -0.004 C 
HETATM    7  C8  UNL     1     -34.860  16.198  -2.748  1.00 20.00     0.011 C 
ENDROOT
BRANCH   4   8
HETATM    8  C1  UNL     1     -33.376  14.796  -4.922  1.00 20.00     0.177 C 
HETATM    9  O11 UNL     1     -32.534  15.632  -5.351  1.00 20.00    -0.648 OA
HETATM   10  O12 UNL     1     -33.195  13.682  -4.354  1.00 20.00    -0.648 OA
ENDBRANCH   4   8
BRANCH   5  11
HETATM   11  C10 UNL     1     -39.072  15.854  -4.422  1.00 20.00     0.000 C 
HETATM   12  C9  UNL     1     -39.621  15.114  -5.597  1.00 20.00     0.005 C 
ENDBRANCH   5  11
TORSDOF 2
ENDMDL
