MODEL 1
REMARK VINA RESULT:      -6.0      0.000      0.000
REMARK  5 active torsions:
REMARK  status: ('A' for Active; 'I' for Inactive)
REMARK    1  A    between atoms: C2_2  and  C6_6 
REMARK    2  A    between atoms: C3_3  and  C7_7 
REMARK    3  A    between atoms: C3_3  and  O10_10 
REMARK    4  A    between atoms: C6_6  and  C8_8 
REMARK    5  A    between atoms: C7_7  and  C8_8 
ROOT
HETATM    1  C1  UNL     1     -32.491   9.166   1.498  1.00 20.00    -0.111 C 
HETATM    2  C2  UNL     1     -32.538   8.240   2.260  1.00 20.00    -0.107 C 
HETATM    3  C4  UNL     1     -32.432  10.296   0.572  1.00 20.00     0.112 C 
ENDROOT
BRANCH   2   4
HETATM    4  C6  UNL     1     -32.599   7.103   3.192  1.00 20.00     0.098 C 
BRANCH   4   5
HETATM    5  C8  UNL     1     -33.670   6.056   2.823  1.00 20.00     0.002 C 
HETATM    6  C5  UNL     1     -33.087   4.638   2.808  1.00 20.00     0.011 C 
BRANCH   5   7
HETATM    7  C7  UNL     1     -34.913   6.101   3.727  1.00 20.00     0.115 C 
BRANCH   7   8
HETATM    8  C3  UNL     1     -34.587   5.825   5.174  1.00 20.00     0.139 C 
HETATM    9  O9  UNL     1     -34.089   6.646   5.931  1.00 20.00    -0.650 OA
BRANCH   8  10
HETATM   10  O10 UNL     1     -34.913   4.563   5.549  1.00 20.00    -0.776 OA
HETATM   11  H22 UNL     1     -35.848   4.438   5.819  1.00 20.00     0.167 HD
ENDBRANCH   8  10
ENDBRANCH   7   8
ENDBRANCH   5   7
ENDBRANCH   4   5
ENDBRANCH   2   4
TORSDOF 5
ENDMDL
MODEL 2
REMARK VINA RESULT:      -5.6      3.353      5.379
REMARK  5 active torsions:
REMARK  status: ('A' for Active; 'I' for Inactive)
REMARK    1  A    between atoms: C2_2  and  C6_6 
REMARK    2  A    between atoms: C3_3  and  C7_7 
REMARK    3  A    between atoms: C3_3  and  O10_10 
REMARK    4  A    between atoms: C6_6  and  C8_8 
REMARK    5  A    between atoms: C7_7  and  C8_8 
ROOT
HETATM    1  C1  UNL     1     -34.203   5.616   4.445  1.00 20.00    -0.111 C 
HETATM    2  C2  UNL     1     -33.718   6.108   3.464  1.00 20.00    -0.107 C 
HETATM    3  C4  UNL     1     -34.794   5.021   5.643  1.00 20.00     0.112 C 
ENDROOT
BRANCH   2   4
HETATM    4  C6  UNL     1     -33.122   6.706   2.259  1.00 20.00     0.098 C 
BRANCH   4   5
HETATM    5  C8  UNL     1     -32.517   8.105   2.494  1.00 20.00     0.002 C 
HETATM    6  C5  UNL     1     -31.549   8.106   3.682  1.00 20.00     0.011 C 
BRANCH   5   7
HETATM    7  C7  UNL     1     -31.825   8.694   1.254  1.00 20.00     0.115 C 
BRANCH   7   8
HETATM    8  C3  UNL     1     -32.664   9.745   0.568  1.00 20.00     0.139 C 
HETATM    9  O9  UNL     1     -33.219   9.579  -0.510  1.00 20.00    -0.650 OA
BRANCH   8  10
HETATM   10  O10 UNL     1     -32.741  10.896   1.280  1.00 20.00    -0.776 OA
HETATM   11  H22 UNL     1     -32.197  10.917   2.096  1.00 20.00     0.167 HD
ENDBRANCH   8  10
ENDBRANCH   7   8
ENDBRANCH   5   7
ENDBRANCH   4   5
ENDBRANCH   2   4
TORSDOF 5
ENDMDL
MODEL 3
REMARK VINA RESULT:      -5.5      1.452      2.066
REMARK  5 active torsions:
REMARK  status: ('A' for Active; 'I' for Inactive)
REMARK    1  A    between atoms: C2_2  and  C6_6 
REMARK    2  A    between atoms: C3_3  and  C7_7 
REMARK    3  A    between atoms: C3_3  and  O10_10 
REMARK    4  A    between atoms: C6_6  and  C8_8 
REMARK    5  A    between atoms: C7_7  and  C8_8 
ROOT
HETATM    1  C1  UNL     1     -32.531   9.018   0.960  1.00 20.00    -0.111 C 
HETATM    2  C2  UNL     1     -32.159   8.654   2.042  1.00 20.00    -0.107 C 
HETATM    3  C4  UNL     1     -32.987   9.456  -0.358  1.00 20.00     0.112 C 
ENDROOT
BRANCH   2   4
HETATM    4  C6  UNL     1     -31.699   8.214   3.368  1.00 20.00     0.098 C 
BRANCH   4   5
HETATM    5  C8  UNL     1     -32.609   7.153   4.020  1.00 20.00     0.002 C 
HETATM    6  C5  UNL     1     -33.270   7.686   5.295  1.00 20.00     0.011 C 
BRANCH   5   7
HETATM    7  C7  UNL     1     -33.679   6.591   3.070  1.00 20.00     0.115 C 
BRANCH   7   8
HETATM    8  C3  UNL     1     -34.430   5.427   3.668  1.00 20.00     0.139 C 
HETATM    9  O9  UNL     1     -33.930   4.333   3.891  1.00 20.00    -0.650 OA
BRANCH   8  10
HETATM   10  O10 UNL     1     -35.725   5.726   3.938  1.00 20.00    -0.776 OA
HETATM   11  H22 UNL     1     -36.241   5.002   4.353  1.00 20.00     0.167 HD
ENDBRANCH   8  10
ENDBRANCH   7   8
ENDBRANCH   5   7
ENDBRANCH   4   5
ENDBRANCH   2   4
TORSDOF 5
ENDMDL
MODEL 4
REMARK VINA RESULT:      -4.6     11.338     11.791
REMARK  5 active torsions:
REMARK  status: ('A' for Active; 'I' for Inactive)
REMARK    1  A    between atoms: C2_2  and  C6_6 
REMARK    2  A    between atoms: C3_3  and  C7_7 
REMARK    3  A    between atoms: C3_3  and  O10_10 
REMARK    4  A    between atoms: C6_6  and  C8_8 
REMARK    5  A    between atoms: C7_7  and  C8_8 
ROOT
HETATM    1  C1  UNL     1     -33.443  17.592  -1.410  1.00 20.00    -0.111 C 
HETATM    2  C2  UNL     1     -33.636  16.867  -2.346  1.00 20.00    -0.107 C 
HETATM    3  C4  UNL     1     -33.203  18.474  -0.268  1.00 20.00     0.112 C 
ENDROOT
BRANCH   2   4
HETATM    4  C6  UNL     1     -33.879  15.979  -3.494  1.00 20.00     0.098 C 
BRANCH   4   5
HETATM    5  C8  UNL     1     -35.347  15.529  -3.632  1.00 20.00     0.002 C 
HETATM    6  C5  UNL     1     -36.316  16.626  -3.179  1.00 20.00     0.011 C 
BRANCH   5   7
HETATM    7  C7  UNL     1     -35.716  15.054  -5.047  1.00 20.00     0.115 C 
BRANCH   7   8
HETATM    8  C3  UNL     1     -36.605  13.834  -5.035  1.00 20.00     0.139 C 
HETATM    9  O9  UNL     1     -37.827  13.880  -4.998  1.00 20.00    -0.650 OA
BRANCH   8  10
HETATM   10  O10 UNL     1     -35.900  12.676  -5.074  1.00 20.00    -0.776 OA
HETATM   11  H22 UNL     1     -36.192  11.990  -4.436  1.00 20.00     0.167 HD
ENDBRANCH   8  10
ENDBRANCH   7   8
ENDBRANCH   5   7
ENDBRANCH   4   5
ENDBRANCH   2   4
TORSDOF 5
ENDMDL
MODEL 5
REMARK VINA RESULT:      -4.6     11.244     11.716
REMARK  5 active torsions:
REMARK  status: ('A' for Active; 'I' for Inactive)
REMARK    1  A    between atoms: C2_2  and  C6_6 
REMARK    2  A    between atoms: C3_3  and  C7_7 
REMARK    3  A    between atoms: C3_3  and  O10_10 
REMARK    4  A    between atoms: C6_6  and  C8_8 
REMARK    5  A    between atoms: C7_7  and  C8_8 
ROOT
HETATM    1  C1  UNL     1     -33.699  17.269  -1.885  1.00 20.00    -0.111 C 
HETATM    2  C2  UNL     1     -34.394  16.583  -2.583  1.00 20.00    -0.107 C 
HETATM    3  C4  UNL     1     -32.856  18.104  -1.031  1.00 20.00     0.112 C 
ENDROOT
BRANCH   2   4
HETATM    4  C6  UNL     1     -35.242  15.744  -3.444  1.00 20.00     0.098 C 
BRANCH   4   5
HETATM    5  C8  UNL     1     -34.635  15.469  -4.835  1.00 20.00     0.002 C 
HETATM    6  C5  UNL     1     -33.375  14.602  -4.736  1.00 20.00     0.011 C 
BRANCH   5   7
HETATM    7  C7  UNL     1     -35.627  14.841  -5.827  1.00 20.00     0.115 C 
BRANCH   7   8
HETATM    8  C3  UNL     1     -36.522  13.813  -5.178  1.00 20.00     0.139 C 
HETATM    9  O9  UNL     1     -37.674  14.034  -4.828  1.00 20.00    -0.650 OA
BRANCH   8  10
HETATM   10  O10 UNL     1     -35.912  12.611  -5.028  1.00 20.00    -0.776 OA
HETATM   11  H22 UNL     1     -35.598  12.198  -5.860  1.00 20.00     0.167 HD
ENDBRANCH   8  10
ENDBRANCH   7   8
ENDBRANCH   5   7
ENDBRANCH   4   5
ENDBRANCH   2   4
TORSDOF 5
ENDMDL
MODEL 6
REMARK VINA RESULT:      -4.5     11.379     11.866
REMARK  5 active torsions:
REMARK  status: ('A' for Active; 'I' for Inactive)
REMARK    1  A    between atoms: C2_2  and  C6_6 
REMARK    2  A    between atoms: C3_3  and  C7_7 
REMARK    3  A    between atoms: C3_3  and  O10_10 
REMARK    4  A    between atoms: C6_6  and  C8_8 
REMARK    5  A    between atoms: C7_7  and  C8_8 
ROOT
HETATM    1  C1  UNL     1     -33.698  17.346  -1.613  1.00 20.00    -0.111 C 
HETATM    2  C2  UNL     1     -33.708  16.666  -2.602  1.00 20.00    -0.107 C 
HETATM    3  C4  UNL     1     -33.683  18.173  -0.407  1.00 20.00     0.112 C 
ENDROOT
BRANCH   2   4
HETATM    4  C6  UNL     1     -33.725  15.833  -3.814  1.00 20.00     0.098 C 
BRANCH   4   5
HETATM    5  C8  UNL     1     -35.098  15.195  -4.110  1.00 20.00     0.002 C 
HETATM    6  C5  UNL     1     -36.245  16.049  -3.558  1.00 20.00     0.011 C 
BRANCH   5   7
HETATM    7  C7  UNL     1     -35.333  14.902  -5.601  1.00 20.00     0.115 C 
BRANCH   7   8
HETATM    8  C3  UNL     1     -35.305  13.426  -5.912  1.00 20.00     0.139 C 
HETATM    9  O9  UNL     1     -34.717  12.940  -6.868  1.00 20.00    -0.650 OA
BRANCH   8  10
HETATM   10  O10 UNL     1     -36.002  12.690  -5.010  1.00 20.00    -0.776 OA
HETATM   11  H22 UNL     1     -35.992  13.039  -4.093  1.00 20.00     0.167 HD
ENDBRANCH   8  10
ENDBRANCH   7   8
ENDBRANCH   5   7
ENDBRANCH   4   5
ENDBRANCH   2   4
TORSDOF 5
ENDMDL
MODEL 7
REMARK VINA RESULT:      -4.5     10.759     11.762
REMARK  5 active torsions:
REMARK  status: ('A' for Active; 'I' for Inactive)
REMARK    1  A    between atoms: C2_2  and  C6_6 
REMARK    2  A    between atoms: C3_3  and  C7_7 
REMARK    3  A    between atoms: C3_3  and  O10_10 
REMARK    4  A    between atoms: C6_6  and  C8_8 
REMARK    5  A    between atoms: C7_7  and  C8_8 
ROOT
HETATM    1  C1  UNL     1     -33.328  17.884  -0.983  1.00 20.00    -0.111 C 
HETATM    2  C2  UNL     1     -34.291  17.319  -1.424  1.00 20.00    -0.107 C 
HETATM    3  C4  UNL     1     -32.158  18.575  -0.443  1.00 20.00     0.112 C 
ENDROOT
BRANCH   2   4
HETATM    4  C6  UNL     1     -35.467  16.624  -1.969  1.00 20.00     0.098 C 
BRANCH   4   5
HETATM    5  C8  UNL     1     -35.270  16.100  -3.406  1.00 20.00     0.002 C 
HETATM    6  C5  UNL     1     -35.697  17.141  -4.446  1.00 20.00     0.011 C 
BRANCH   5   7
HETATM    7  C7  UNL     1     -33.837  15.626  -3.697  1.00 20.00     0.115 C 
BRANCH   7   8
HETATM    8  C3  UNL     1     -33.788  14.197  -4.182  1.00 20.00     0.139 C 
HETATM    9  O9  UNL     1     -34.777  13.493  -4.333  1.00 20.00    -0.650 OA
BRANCH   8  10
HETATM   10  O10 UNL     1     -32.524  13.778  -4.440  1.00 20.00    -0.776 OA
HETATM   11  H22 UNL     1     -32.412  12.804  -4.491  1.00 20.00     0.167 HD
ENDBRANCH   8  10
ENDBRANCH   7   8
ENDBRANCH   5   7
ENDBRANCH   4   5
ENDBRANCH   2   4
TORSDOF 5
ENDMDL
MODEL 8
REMARK VINA RESULT:      -4.5     11.013     11.945
REMARK  5 active torsions:
REMARK  status: ('A' for Active; 'I' for Inactive)
REMARK    1  A    between atoms: C2_2  and  C6_6 
REMARK    2  A    between atoms: C3_3  and  C7_7 
REMARK    3  A    between atoms: C3_3  and  O10_10 
REMARK    4  A    between atoms: C6_6  and  C8_8 
REMARK    5  A    between atoms: C7_7  and  C8_8 
ROOT
HETATM    1  C1  UNL     1     -32.148  18.495  -0.279  1.00 20.00    -0.111 C 
HETATM    2  C2  UNL     1     -32.657  18.190  -1.322  1.00 20.00    -0.107 C 
HETATM    3  C4  UNL     1     -31.526  18.863   0.992  1.00 20.00     0.112 C 
ENDROOT
BRANCH   2   4
HETATM    4  C6  UNL     1     -33.283  17.821  -2.601  1.00 20.00     0.098 C 
BRANCH   4   5
HETATM    5  C8  UNL     1     -34.134  16.537  -2.528  1.00 20.00     0.002 C 
HETATM    6  C5  UNL     1     -35.368  16.731  -1.640  1.00 20.00     0.011 C 
BRANCH   5   7
HETATM    7  C7  UNL     1     -34.558  16.000  -3.905  1.00 20.00     0.115 C 
BRANCH   7   8
HETATM    8  C3  UNL     1     -33.878  14.697  -4.251  1.00 20.00     0.139 C 
HETATM    9  O9  UNL     1     -34.356  13.595  -4.020  1.00 20.00    -0.650 OA
BRANCH   8  10
HETATM   10  O10 UNL     1     -32.678  14.880  -4.855  1.00 20.00    -0.776 OA
HETATM   11  H22 UNL     1     -32.163  15.651  -4.532  1.00 20.00     0.167 HD
ENDBRANCH   8  10
ENDBRANCH   7   8
ENDBRANCH   5   7
ENDBRANCH   4   5
ENDBRANCH   2   4
TORSDOF 5
ENDMDL
MODEL 9
REMARK VINA RESULT:      -4.4     11.163     11.810
REMARK  5 active torsions:
REMARK  status: ('A' for Active; 'I' for Inactive)
REMARK    1  A    between atoms: C2_2  and  C6_6 
REMARK    2  A    between atoms: C3_3  and  C7_7 
REMARK    3  A    between atoms: C3_3  and  O10_10 
REMARK    4  A    between atoms: C6_6  and  C8_8 
REMARK    5  A    between atoms: C7_7  and  C8_8 
ROOT
HETATM    1  C1  UNL     1     -35.193  17.533  -0.040  1.00 20.00    -0.111 C 
HETATM    2  C2  UNL     1     -34.534  17.315  -1.019  1.00 20.00    -0.107 C 
HETATM    3  C4  UNL     1     -36.000  17.799   1.150  1.00 20.00     0.112 C 
ENDROOT
BRANCH   2   4
HETATM    4  C6  UNL     1     -33.721  17.050  -2.216  1.00 20.00     0.098 C 
BRANCH   4   5
HETATM    5  C8  UNL     1     -34.303  15.953  -3.131  1.00 20.00     0.002 C 
HETATM    6  C5  UNL     1     -35.780  16.211  -3.448  1.00 20.00     0.011 C 
BRANCH   5   7
HETATM    7  C7  UNL     1     -33.513  15.755  -4.434  1.00 20.00     0.115 C 
BRANCH   7   8
HETATM    8  C3  UNL     1     -33.426  14.305  -4.844  1.00 20.00     0.139 C 
HETATM    9  O9  UNL     1     -34.226  13.757  -5.591  1.00 20.00    -0.650 OA
BRANCH   8  10
HETATM   10  O10 UNL     1     -32.359  13.672  -4.298  1.00 20.00    -0.776 OA
HETATM   11  H22 UNL     1     -32.143  13.939  -3.379  1.00 20.00     0.167 HD
ENDBRANCH   8  10
ENDBRANCH   7   8
ENDBRANCH   5   7
ENDBRANCH   4   5
ENDBRANCH   2   4
TORSDOF 5
ENDMDL
