MODEL 1
REMARK VINA RESULT:      -5.7      0.000      0.000
REMARK  3 active torsions:
REMARK  status: ('A' for Active; 'I' for Inactive)
REMARK    1  A    between atoms: C2_2  and  C9_9 
REMARK    2  A    between atoms: C3_3  and  C6_6 
REMARK    3  A    between atoms: C7_7  and  C9_9 
ROOT
HETATM    1  C4  UNL     1     -34.650   6.456   5.322  1.00 20.00     0.016 C 
HETATM    2  C5  UNL     1     -33.335   7.257   5.239  1.00 20.00     0.007 C 
HETATM    3  C6  UNL     1     -34.489   6.127   3.818  1.00 20.00     0.091 C 
HETATM    4  C7  UNL     1     -33.589   7.395   3.717  1.00 20.00     0.004 C 
ENDROOT
BRANCH   4   5
HETATM    5  C9  UNL     1     -32.362   7.378   2.827  1.00 20.00     0.038 C 
BRANCH   5   6
HETATM    6  C2  UNL     1     -32.317   8.545   1.871  1.00 20.00    -0.093 C 
HETATM    7  C1  UNL     1     -33.104   9.619   2.040  1.00 20.00     0.014 C 
HETATM    8  C8  UNL     1     -31.382   8.437   0.702  1.00 20.00     0.042 C 
ENDBRANCH   5   6
ENDBRANCH   4   5
BRANCH   3   9
HETATM    9  C3  UNL     1     -33.832   4.820   3.524  1.00 20.00     0.177 C 
HETATM   10  O10 UNL     1     -33.005   4.833   2.570  1.00 20.00    -0.648 OA
HETATM   11  O11 UNL     1     -34.190   3.866   4.272  1.00 20.00    -0.648 OA
ENDBRANCH   3   9
TORSDOF 3
ENDMDL
MODEL 2
REMARK VINA RESULT:      -5.6      0.083      1.059
REMARK  3 active torsions:
REMARK  status: ('A' for Active; 'I' for Inactive)
REMARK    1  A    between atoms: C2_2  and  C9_9 
REMARK    2  A    between atoms: C3_3  and  C6_6 
REMARK    3  A    between atoms: C7_7  and  C9_9 
ROOT
HETATM    1  C4  UNL     1     -34.611   6.486   5.277  1.00 20.00     0.016 C 
HETATM    2  C5  UNL     1     -33.290   7.276   5.186  1.00 20.00     0.007 C 
HETATM    3  C6  UNL     1     -34.451   6.139   3.777  1.00 20.00     0.091 C 
HETATM    4  C7  UNL     1     -33.542   7.400   3.663  1.00 20.00     0.004 C 
ENDROOT
BRANCH   4   5
HETATM    5  C9  UNL     1     -32.314   7.364   2.774  1.00 20.00     0.038 C 
BRANCH   5   6
HETATM    6  C2  UNL     1     -32.274   8.505   1.787  1.00 20.00    -0.093 C 
HETATM    7  C1  UNL     1     -31.382   8.531   0.784  1.00 20.00     0.014 C 
HETATM    8  C8  UNL     1     -33.248   9.627   1.997  1.00 20.00     0.042 C 
ENDBRANCH   5   6
ENDBRANCH   4   5
BRANCH   3   9
HETATM    9  C3  UNL     1     -33.803   4.824   3.499  1.00 20.00     0.177 C 
HETATM   10  O10 UNL     1     -32.967   4.823   2.552  1.00 20.00    -0.648 OA
HETATM   11  O11 UNL     1     -34.178   3.879   4.249  1.00 20.00    -0.648 OA
ENDBRANCH   3   9
TORSDOF 3
ENDMDL
MODEL 3
REMARK VINA RESULT:      -5.0      1.679      2.540
REMARK  3 active torsions:
REMARK  status: ('A' for Active; 'I' for Inactive)
REMARK    1  A    between atoms: C2_2  and  C9_9 
REMARK    2  A    between atoms: C3_3  and  C6_6 
REMARK    3  A    between atoms: C7_7  and  C9_9 
ROOT
HETATM    1  C4  UNL     1     -33.359   4.876   2.984  1.00 20.00     0.016 C 
HETATM    2  C5  UNL     1     -33.654   5.897   1.867  1.00 20.00     0.007 C 
HETATM    3  C6  UNL     1     -33.029   6.066   3.918  1.00 20.00     0.091 C 
HETATM    4  C7  UNL     1     -32.753   6.899   2.631  1.00 20.00     0.004 C 
ENDROOT
BRANCH   4   5
HETATM    5  C9  UNL     1     -33.169   8.356   2.574  1.00 20.00     0.038 C 
BRANCH   5   6
HETATM    6  C2  UNL     1     -32.410   9.140   1.532  1.00 20.00    -0.093 C 
HETATM    7  C1  UNL     1     -31.396   8.593   0.845  1.00 20.00     0.014 C 
HETATM    8  C8  UNL     1     -32.815  10.571   1.324  1.00 20.00     0.042 C 
ENDBRANCH   5   6
ENDBRANCH   4   5
BRANCH   3   9
HETATM    9  C3  UNL     1     -34.159   6.524   4.778  1.00 20.00     0.177 C 
HETATM   10  O10 UNL     1     -35.286   6.026   4.501  1.00 20.00    -0.648 OA
HETATM   11  O11 UNL     1     -33.840   7.355   5.675  1.00 20.00    -0.648 OA
ENDBRANCH   3   9
TORSDOF 3
ENDMDL
MODEL 4
REMARK VINA RESULT:      -5.0     11.134     12.017
REMARK  3 active torsions:
REMARK  status: ('A' for Active; 'I' for Inactive)
REMARK    1  A    between atoms: C2_2  and  C9_9 
REMARK    2  A    between atoms: C3_3  and  C6_6 
REMARK    3  A    between atoms: C7_7  and  C9_9 
ROOT
HETATM    1  C4  UNL     1     -33.161  15.647  -6.082  1.00 20.00     0.016 C 
HETATM    2  C5  UNL     1     -33.756  16.824  -5.284  1.00 20.00     0.007 C 
HETATM    3  C6  UNL     1     -33.761  14.689  -5.023  1.00 20.00     0.091 C 
HETATM    4  C7  UNL     1     -33.759  15.899  -4.041  1.00 20.00     0.004 C 
ENDROOT
BRANCH   4   5
HETATM    5  C9  UNL     1     -34.909  16.081  -3.070  1.00 20.00     0.038 C 
BRANCH   5   6
HETATM    6  C2  UNL     1     -34.526  16.888  -1.854  1.00 20.00    -0.093 C 
HETATM    7  C1  UNL     1     -35.389  17.089  -0.847  1.00 20.00     0.014 C 
HETATM    8  C8  UNL     1     -33.149  17.487  -1.836  1.00 20.00     0.042 C 
ENDBRANCH   5   6
ENDBRANCH   4   5
BRANCH   3   9
HETATM    9  C3  UNL     1     -35.094  14.117  -5.373  1.00 20.00     0.177 C 
HETATM   10  O10 UNL     1     -35.792  14.816  -6.159  1.00 20.00    -0.648 OA
HETATM   11  O11 UNL     1     -35.352  13.004  -4.834  1.00 20.00    -0.648 OA
ENDBRANCH   3   9
TORSDOF 3
ENDMDL
MODEL 5
REMARK VINA RESULT:      -4.9     11.109     11.924
REMARK  3 active torsions:
REMARK  status: ('A' for Active; 'I' for Inactive)
REMARK    1  A    between atoms: C2_2  and  C9_9 
REMARK    2  A    between atoms: C3_3  and  C6_6 
REMARK    3  A    between atoms: C7_7  and  C9_9 
ROOT
HETATM    1  C4  UNL     1     -37.401  15.083  -5.705  1.00 20.00     0.016 C 
HETATM    2  C5  UNL     1     -37.255  15.283  -4.183  1.00 20.00     0.007 C 
HETATM    3  C6  UNL     1     -35.857  15.012  -5.795  1.00 20.00     0.091 C 
HETATM    4  C7  UNL     1     -35.821  15.801  -4.452  1.00 20.00     0.004 C 
ENDROOT
BRANCH   4   5
HETATM    5  C9  UNL     1     -34.776  15.461  -3.408  1.00 20.00     0.038 C 
BRANCH   5   6
HETATM    6  C2  UNL     1     -34.483  16.612  -2.477  1.00 20.00    -0.093 C 
HETATM    7  C1  UNL     1     -33.353  17.329  -2.585  1.00 20.00     0.014 C 
HETATM    8  C8  UNL     1     -35.491  16.897  -1.402  1.00 20.00     0.042 C 
ENDBRANCH   5   6
ENDBRANCH   4   5
BRANCH   3   9
HETATM    9  C3  UNL     1     -35.286  13.633  -5.772  1.00 20.00     0.177 C 
HETATM   10  O10 UNL     1     -36.024  12.752  -5.250  1.00 20.00    -0.648 OA
HETATM   11  O11 UNL     1     -34.134  13.527  -6.280  1.00 20.00    -0.648 OA
ENDBRANCH   3   9
TORSDOF 3
ENDMDL
MODEL 6
REMARK VINA RESULT:      -4.8     11.109     12.141
REMARK  3 active torsions:
REMARK  status: ('A' for Active; 'I' for Inactive)
REMARK    1  A    between atoms: C2_2  and  C9_9 
REMARK    2  A    between atoms: C3_3  and  C6_6 
REMARK    3  A    between atoms: C7_7  and  C9_9 
ROOT
HETATM    1  C4  UNL     1     -36.963  16.149  -6.186  1.00 20.00     0.016 C 
HETATM    2  C5  UNL     1     -36.847  16.749  -4.770  1.00 20.00     0.007 C 
HETATM    3  C6  UNL     1     -35.969  15.046  -5.746  1.00 20.00     0.091 C 
HETATM    4  C7  UNL     1     -35.478  16.035  -4.647  1.00 20.00     0.004 C 
ENDROOT
BRANCH   4   5
HETATM    5  C9  UNL     1     -35.115  15.511  -3.272  1.00 20.00     0.038 C 
BRANCH   5   6
HETATM    6  C2  UNL     1     -34.592  16.589  -2.354  1.00 20.00    -0.093 C 
HETATM    7  C1  UNL     1     -33.389  17.152  -2.550  1.00 20.00     0.014 C 
HETATM    8  C8  UNL     1     -35.460  16.979  -1.193  1.00 20.00     0.042 C 
ENDBRANCH   5   6
ENDBRANCH   4   5
BRANCH   3   9
HETATM    9  C3  UNL     1     -36.600  13.780  -5.270  1.00 20.00     0.177 C 
HETATM   10  O10 UNL     1     -35.840  12.772  -5.249  1.00 20.00    -0.648 OA
HETATM   11  O11 UNL     1     -37.818  13.883  -4.948  1.00 20.00    -0.648 OA
ENDBRANCH   3   9
TORSDOF 3
ENDMDL
MODEL 7
REMARK VINA RESULT:      -4.8     11.257     12.412
REMARK  3 active torsions:
REMARK  status: ('A' for Active; 'I' for Inactive)
REMARK    1  A    between atoms: C2_2  and  C9_9 
REMARK    2  A    between atoms: C3_3  and  C6_6 
REMARK    3  A    between atoms: C7_7  and  C9_9 
ROOT
HETATM    1  C4  UNL     1     -35.465  14.138  -5.205  1.00 20.00     0.016 C 
HETATM    2  C5  UNL     1     -34.413  14.044  -4.082  1.00 20.00     0.007 C 
HETATM    3  C6  UNL     1     -35.316  15.678  -5.150  1.00 20.00     0.091 C 
HETATM    4  C7  UNL     1     -34.787  15.496  -3.696  1.00 20.00     0.004 C 
ENDROOT
BRANCH   4   5
HETATM    5  C9  UNL     1     -33.655  16.371  -3.193  1.00 20.00     0.038 C 
BRANCH   5   6
HETATM    6  C2  UNL     1     -33.990  17.075  -1.901  1.00 20.00    -0.093 C 
HETATM    7  C1  UNL     1     -35.194  16.941  -1.322  1.00 20.00     0.014 C 
HETATM    8  C8  UNL     1     -32.933  17.962  -1.310  1.00 20.00     0.042 C 
ENDBRANCH   5   6
ENDBRANCH   4   5
BRANCH   3   9
HETATM    9  C3  UNL     1     -34.359  16.255  -6.139  1.00 20.00     0.177 C 
HETATM   10  O10 UNL     1     -33.542  15.434  -6.642  1.00 20.00    -0.648 OA
HETATM   11  O11 UNL     1     -34.491  17.495  -6.345  1.00 20.00    -0.648 OA
ENDBRANCH   3   9
TORSDOF 3
ENDMDL
MODEL 8
REMARK VINA RESULT:      -4.7      2.834      4.545
REMARK  3 active torsions:
REMARK  status: ('A' for Active; 'I' for Inactive)
REMARK    1  A    between atoms: C2_2  and  C9_9 
REMARK    2  A    between atoms: C3_3  and  C6_6 
REMARK    3  A    between atoms: C7_7  and  C9_9 
ROOT
HETATM    1  C4  UNL     1     -30.851   8.889   2.436  1.00 20.00     0.016 C 
HETATM    2  C5  UNL     1     -31.823   8.399   3.528  1.00 20.00     0.007 C 
HETATM    3  C6  UNL     1     -31.839   8.339   1.378  1.00 20.00     0.091 C 
HETATM    4  C7  UNL     1     -32.382   7.394   2.490  1.00 20.00     0.004 C 
ENDROOT
BRANCH   4   5
HETATM    5  C9  UNL     1     -33.868   7.102   2.570  1.00 20.00     0.038 C 
BRANCH   5   6
HETATM    6  C2  UNL     1     -34.170   5.783   3.239  1.00 20.00    -0.093 C 
HETATM    7  C1  UNL     1     -35.142   5.670   4.157  1.00 20.00     0.014 C 
HETATM    8  C8  UNL     1     -33.312   4.611   2.860  1.00 20.00     0.042 C 
ENDBRANCH   5   6
ENDBRANCH   4   5
BRANCH   3   9
HETATM    9  C3  UNL     1     -32.798   9.341   0.828  1.00 20.00     0.177 C 
HETATM   10  O10 UNL     1     -32.967  10.373   1.537  1.00 20.00    -0.648 OA
HETATM   11  O11 UNL     1     -33.320   9.026  -0.279  1.00 20.00    -0.648 OA
ENDBRANCH   3   9
TORSDOF 3
ENDMDL
MODEL 9
REMARK VINA RESULT:      -4.5     11.662     12.306
REMARK  3 active torsions:
REMARK  status: ('A' for Active; 'I' for Inactive)
REMARK    1  A    between atoms: C2_2  and  C9_9 
REMARK    2  A    between atoms: C3_3  and  C6_6 
REMARK    3  A    between atoms: C7_7  and  C9_9 
ROOT
HETATM    1  C4  UNL     1     -34.452  14.347  -4.614  1.00 20.00     0.016 C 
HETATM    2  C5  UNL     1     -33.191  15.226  -4.490  1.00 20.00     0.007 C 
HETATM    3  C6  UNL     1     -35.213  15.407  -3.779  1.00 20.00     0.091 C 
HETATM    4  C7  UNL     1     -33.828  15.851  -3.224  1.00 20.00     0.004 C 
ENDROOT
BRANCH   4   5
HETATM    5  C9  UNL     1     -33.549  17.323  -2.987  1.00 20.00     0.038 C 
BRANCH   5   6
HETATM    6  C2  UNL     1     -33.554  17.691  -1.524  1.00 20.00    -0.093 C 
HETATM    7  C1  UNL     1     -32.479  18.239  -0.936  1.00 20.00     0.014 C 
HETATM    8  C8  UNL     1     -34.801  17.384  -0.745  1.00 20.00     0.042 C 
ENDBRANCH   5   6
ENDBRANCH   4   5
BRANCH   3   9
HETATM    9  C3  UNL     1     -35.966  16.418  -4.578  1.00 20.00     0.177 C 
HETATM   10  O10 UNL     1     -36.804  17.103  -3.929  1.00 20.00    -0.648 OA
HETATM   11  O11 UNL     1     -35.665  16.455  -5.805  1.00 20.00    -0.648 OA
ENDBRANCH   3   9
TORSDOF 3
ENDMDL
