MODEL 1
REMARK VINA RESULT:      -5.8      0.000      0.000
REMARK  5 active torsions:
REMARK  status: ('A' for Active; 'I' for Inactive)
REMARK    1  A    between atoms: C1_1  and  C4_4 
REMARK    2  A    between atoms: C1_1  and  C8_8 
REMARK    3  A    between atoms: C4_4  and  C5_5 
REMARK    4  A    between atoms: C5_5  and  C6_6 
REMARK    5  A    between atoms: C6_6  and  C7_7 
ROOT
HETATM    1  C1  UNL     1     -33.510   6.371   3.321  1.00 20.00     0.130 C 
HETATM    2  O9  UNL     1     -32.917   5.459   2.745  1.00 20.00    -0.298 OA
ENDROOT
BRANCH   1   3
HETATM    3  C4  UNL     1     -33.303   7.831   2.937  1.00 20.00     0.079 C 
BRANCH   3   4
HETATM    4  C5  UNL     1     -31.858   8.165   2.570  1.00 20.00     0.010 C 
BRANCH   4   5
HETATM    5  C6  UNL     1     -31.745   8.848   1.204  1.00 20.00     0.032 C 
BRANCH   5   6
HETATM    6  C7  UNL     1     -32.880   9.833   0.979  1.00 20.00     0.222 C 
HETATM    7  F10 UNL     1     -32.518  11.050   1.465  1.00 20.00    -0.255 F 
ENDBRANCH   5   6
ENDBRANCH   4   5
ENDBRANCH   3   4
ENDBRANCH   1   3
BRANCH   1   8
HETATM    8  C8  UNL     1     -34.452   6.105   4.496  1.00 20.00     0.047 C 
HETATM    9  C2  UNL     1     -33.986   6.878   5.725  1.00 20.00     0.017 C 
HETATM   10  C3  UNL     1     -34.543   4.611   4.799  1.00 20.00     0.017 C 
ENDBRANCH   1   8
TORSDOF 5
ENDMDL
MODEL 2
REMARK VINA RESULT:      -5.7      1.151      1.159
REMARK  5 active torsions:
REMARK  status: ('A' for Active; 'I' for Inactive)
REMARK    1  A    between atoms: C1_1  and  C4_4 
REMARK    2  A    between atoms: C1_1  and  C8_8 
REMARK    3  A    between atoms: C4_4  and  C5_5 
REMARK    4  A    between atoms: C5_5  and  C6_6 
REMARK    5  A    between atoms: C6_6  and  C7_7 
ROOT
HETATM    1  C1  UNL     1     -33.334   6.499   3.414  1.00 20.00     0.130 C 
HETATM    2  O9  UNL     1     -33.323   5.550   2.629  1.00 20.00    -0.298 OA
ENDROOT
BRANCH   1   3
HETATM    3  C4  UNL     1     -32.371   7.670   3.271  1.00 20.00     0.079 C 
BRANCH   3   4
HETATM    4  C5  UNL     1     -32.178   8.127   1.826  1.00 20.00     0.010 C 
BRANCH   4   5
HETATM    5  C6  UNL     1     -32.433   9.627   1.650  1.00 20.00     0.032 C 
BRANCH   5   6
HETATM    6  C7  UNL     1     -32.714   9.976   0.198  1.00 20.00     0.222 C 
HETATM    7  F10 UNL     1     -33.322   8.921  -0.407  1.00 20.00    -0.255 F 
ENDBRANCH   5   6
ENDBRANCH   4   5
ENDBRANCH   3   4
ENDBRANCH   1   3
BRANCH   1   8
HETATM    8  C8  UNL     1     -34.278   6.538   4.617  1.00 20.00     0.047 C 
HETATM    9  C2  UNL     1     -33.644   7.330   5.754  1.00 20.00     0.017 C 
HETATM   10  C3  UNL     1     -34.642   5.128   5.077  1.00 20.00     0.017 C 
ENDBRANCH   1   8
TORSDOF 5
ENDMDL
MODEL 3
REMARK VINA RESULT:      -5.4      2.885      5.203
REMARK  5 active torsions:
REMARK  status: ('A' for Active; 'I' for Inactive)
REMARK    1  A    between atoms: C1_1  and  C4_4 
REMARK    2  A    between atoms: C1_1  and  C8_8 
REMARK    3  A    between atoms: C4_4  and  C5_5 
REMARK    4  A    between atoms: C5_5  and  C6_6 
REMARK    5  A    between atoms: C6_6  and  C7_7 
ROOT
HETATM    1  C1  UNL     1     -32.206   8.102   2.624  1.00 20.00     0.130 C 
HETATM    2  O9  UNL     1     -31.400   8.541   3.444  1.00 20.00    -0.298 OA
ENDROOT
BRANCH   1   3
HETATM    3  C4  UNL     1     -32.962   6.800   2.859  1.00 20.00     0.079 C 
BRANCH   3   4
HETATM    4  C5  UNL     1     -33.907   6.853   4.058  1.00 20.00     0.010 C 
BRANCH   4   5
HETATM    5  C6  UNL     1     -34.991   5.773   3.995  1.00 20.00     0.032 C 
BRANCH   5   6
HETATM    6  C7  UNL     1     -34.508   4.465   4.599  1.00 20.00     0.222 C 
HETATM    7  F10 UNL     1     -34.322   4.631   5.936  1.00 20.00    -0.255 F 
ENDBRANCH   5   6
ENDBRANCH   4   5
ENDBRANCH   3   4
ENDBRANCH   1   3
BRANCH   1   8
HETATM    8  C8  UNL     1     -32.462   8.804   1.289  1.00 20.00     0.047 C 
HETATM    9  C2  UNL     1     -31.273   8.603   0.356  1.00 20.00     0.017 C 
HETATM   10  C3  UNL     1     -32.742  10.291   1.495  1.00 20.00     0.017 C 
ENDBRANCH   1   8
TORSDOF 5
ENDMDL
MODEL 4
REMARK VINA RESULT:      -5.3      0.449      1.181
REMARK  5 active torsions:
REMARK  status: ('A' for Active; 'I' for Inactive)
REMARK    1  A    between atoms: C1_1  and  C4_4 
REMARK    2  A    between atoms: C1_1  and  C8_8 
REMARK    3  A    between atoms: C4_4  and  C5_5 
REMARK    4  A    between atoms: C5_5  and  C6_6 
REMARK    5  A    between atoms: C6_6  and  C7_7 
ROOT
HETATM    1  C1  UNL     1     -33.230   6.376   3.312  1.00 20.00     0.130 C 
HETATM    2  O9  UNL     1     -32.856   5.498   2.534  1.00 20.00    -0.298 OA
ENDROOT
BRANCH   1   3
HETATM    3  C4  UNL     1     -33.158   7.853   2.949  1.00 20.00     0.079 C 
BRANCH   3   4
HETATM    4  C5  UNL     1     -31.782   8.292   2.450  1.00 20.00     0.010 C 
BRANCH   4   5
HETATM    5  C6  UNL     1     -31.850   8.981   1.083  1.00 20.00     0.032 C 
BRANCH   5   6
HETATM    6  C7  UNL     1     -32.970  10.005   1.032  1.00 20.00     0.222 C 
HETATM    7  F10 UNL     1     -32.507  11.199   1.488  1.00 20.00    -0.255 F 
ENDBRANCH   5   6
ENDBRANCH   4   5
ENDBRANCH   3   4
ENDBRANCH   1   3
BRANCH   1   8
HETATM    8  C8  UNL     1     -33.739   6.045   4.716  1.00 20.00     0.047 C 
HETATM    9  C2  UNL     1     -35.107   5.378   4.632  1.00 20.00     0.017 C 
HETATM   10  C3  UNL     1     -33.801   7.297   5.588  1.00 20.00     0.017 C 
ENDBRANCH   1   8
TORSDOF 5
ENDMDL
MODEL 5
REMARK VINA RESULT:      -4.9      2.597      4.768
REMARK  5 active torsions:
REMARK  status: ('A' for Active; 'I' for Inactive)
REMARK    1  A    between atoms: C1_1  and  C4_4 
REMARK    2  A    between atoms: C1_1  and  C8_8 
REMARK    3  A    between atoms: C4_4  and  C5_5 
REMARK    4  A    between atoms: C5_5  and  C6_6 
REMARK    5  A    between atoms: C6_6  and  C7_7 
ROOT
HETATM    1  C1  UNL     1     -32.919   6.857   2.950  1.00 20.00     0.130 C 
HETATM    2  O9  UNL     1     -32.911   5.672   2.617  1.00 20.00    -0.298 OA
ENDROOT
BRANCH   1   3
HETATM    3  C4  UNL     1     -33.953   7.409   3.923  1.00 20.00     0.079 C 
BRANCH   3   4
HETATM    4  C5  UNL     1     -33.693   7.018   5.377  1.00 20.00     0.010 C 
BRANCH   4   5
HETATM    5  C6  UNL     1     -34.725   6.018   5.906  1.00 20.00     0.032 C 
BRANCH   5   6
HETATM    6  C7  UNL     1     -34.373   4.594   5.508  1.00 20.00     0.222 C 
HETATM    7  F10 UNL     1     -35.024   4.276   4.358  1.00 20.00    -0.255 F 
ENDBRANCH   5   6
ENDBRANCH   4   5
ENDBRANCH   3   4
ENDBRANCH   1   3
BRANCH   1   8
HETATM    8  C8  UNL     1     -31.928   7.864   2.368  1.00 20.00     0.047 C 
HETATM    9  C2  UNL     1     -31.161   8.554   3.491  1.00 20.00     0.017 C 
HETATM   10  C3  UNL     1     -32.639   8.891   1.490  1.00 20.00     0.017 C 
ENDBRANCH   1   8
TORSDOF 5
ENDMDL
MODEL 6
REMARK VINA RESULT:      -4.9      2.547      4.888
REMARK  5 active torsions:
REMARK  status: ('A' for Active; 'I' for Inactive)
REMARK    1  A    between atoms: C1_1  and  C4_4 
REMARK    2  A    between atoms: C1_1  and  C8_8 
REMARK    3  A    between atoms: C4_4  and  C5_5 
REMARK    4  A    between atoms: C5_5  and  C6_6 
REMARK    5  A    between atoms: C6_6  and  C7_7 
ROOT
HETATM    1  C1  UNL     1     -31.669   8.787   1.181  1.00 20.00     0.130 C 
HETATM    2  O9  UNL     1     -30.839   8.158   0.525  1.00 20.00    -0.298 OA
ENDROOT
BRANCH   1   3
HETATM    3  C4  UNL     1     -32.047   8.379   2.600  1.00 20.00     0.079 C 
BRANCH   3   4
HETATM    4  C5  UNL     1     -32.907   7.118   2.662  1.00 20.00     0.010 C 
BRANCH   4   5
HETATM    5  C6  UNL     1     -33.702   7.019   3.968  1.00 20.00     0.032 C 
BRANCH   5   6
HETATM    6  C7  UNL     1     -34.516   5.737   4.026  1.00 20.00     0.222 C 
HETATM    7  F10 UNL     1     -35.785   5.993   3.610  1.00 20.00    -0.255 F 
ENDBRANCH   5   6
ENDBRANCH   4   5
ENDBRANCH   3   4
ENDBRANCH   1   3
BRANCH   1   8
HETATM    8  C8  UNL     1     -32.417   9.986   0.597  1.00 20.00     0.047 C 
HETATM    9  C2  UNL     1     -33.169  10.721   1.700  1.00 20.00     0.017 C 
HETATM   10  C3  UNL     1     -33.372   9.552  -0.512  1.00 20.00     0.017 C 
ENDBRANCH   1   8
TORSDOF 5
ENDMDL
MODEL 7
REMARK VINA RESULT:      -4.6      1.790      2.369
REMARK  5 active torsions:
REMARK  status: ('A' for Active; 'I' for Inactive)
REMARK    1  A    between atoms: C1_1  and  C4_4 
REMARK    2  A    between atoms: C1_1  and  C8_8 
REMARK    3  A    between atoms: C4_4  and  C5_5 
REMARK    4  A    between atoms: C5_5  and  C6_6 
REMARK    5  A    between atoms: C6_6  and  C7_7 
ROOT
HETATM    1  C1  UNL     1     -34.264   6.108   3.763  1.00 20.00     0.130 C 
HETATM    2  O9  UNL     1     -35.440   5.987   3.418  1.00 20.00    -0.298 OA
ENDROOT
BRANCH   1   3
HETATM    3  C4  UNL     1     -33.153   6.355   2.750  1.00 20.00     0.079 C 
BRANCH   3   4
HETATM    4  C5  UNL     1     -33.265   7.703   2.040  1.00 20.00     0.010 C 
BRANCH   4   5
HETATM    5  C6  UNL     1     -32.042   8.593   2.280  1.00 20.00     0.032 C 
BRANCH   5   6
HETATM    6  C7  UNL     1     -31.184   8.063   3.416  1.00 20.00     0.222 C 
HETATM    7  F10 UNL     1     -31.470   8.751   4.553  1.00 20.00    -0.255 F 
ENDBRANCH   5   6
ENDBRANCH   4   5
ENDBRANCH   3   4
ENDBRANCH   1   3
BRANCH   1   8
HETATM    8  C8  UNL     1     -33.833   5.963   5.223  1.00 20.00     0.047 C 
HETATM    9  C2  UNL     1     -34.702   4.924   5.924  1.00 20.00     0.017 C 
HETATM   10  C3  UNL     1     -33.899   7.303   5.951  1.00 20.00     0.017 C 
ENDBRANCH   1   8
TORSDOF 5
ENDMDL
MODEL 8
REMARK VINA RESULT:      -4.6      2.876      4.802
REMARK  5 active torsions:
REMARK  status: ('A' for Active; 'I' for Inactive)
REMARK    1  A    between atoms: C1_1  and  C4_4 
REMARK    2  A    between atoms: C1_1  and  C8_8 
REMARK    3  A    between atoms: C4_4  and  C5_5 
REMARK    4  A    between atoms: C5_5  and  C6_6 
REMARK    5  A    between atoms: C6_6  and  C7_7 
ROOT
HETATM    1  C1  UNL     1     -33.385   7.233   3.446  1.00 20.00     0.130 C 
HETATM    2  O9  UNL     1     -33.697   7.707   4.538  1.00 20.00    -0.298 OA
ENDROOT
BRANCH   1   3
HETATM    3  C4  UNL     1     -34.150   6.070   2.827  1.00 20.00     0.079 C 
BRANCH   3   4
HETATM    4  C5  UNL     1     -33.420   4.733   2.938  1.00 20.00     0.010 C 
BRANCH   4   5
HETATM    5  C6  UNL     1     -33.907   3.898   4.126  1.00 20.00     0.032 C 
BRANCH   5   6
HETATM    6  C7  UNL     1     -34.901   4.670   4.977  1.00 20.00     0.222 C 
HETATM    7  F10 UNL     1     -34.304   5.031   6.145  1.00 20.00    -0.255 F 
ENDBRANCH   5   6
ENDBRANCH   4   5
ENDBRANCH   3   4
ENDBRANCH   1   3
BRANCH   1   8
HETATM    8  C8  UNL     1     -32.174   7.744   2.663  1.00 20.00     0.047 C 
HETATM    9  C2  UNL     1     -31.167   8.381   3.614  1.00 20.00     0.017 C 
HETATM   10  C3  UNL     1     -32.598   8.735   1.581  1.00 20.00     0.017 C 
ENDBRANCH   1   8
TORSDOF 5
ENDMDL
MODEL 9
REMARK VINA RESULT:      -4.2      2.123      4.391
REMARK  5 active torsions:
REMARK  status: ('A' for Active; 'I' for Inactive)
REMARK    1  A    between atoms: C1_1  and  C4_4 
REMARK    2  A    between atoms: C1_1  and  C8_8 
REMARK    3  A    between atoms: C4_4  and  C5_5 
REMARK    4  A    between atoms: C5_5  and  C6_6 
REMARK    5  A    between atoms: C6_6  and  C7_7 
ROOT
HETATM    1  C1  UNL     1     -33.325   6.740   2.321  1.00 20.00     0.130 C 
HETATM    2  O9  UNL     1     -34.168   6.573   1.439  1.00 20.00    -0.298 OA
ENDROOT
BRANCH   1   3
HETATM    3  C4  UNL     1     -32.860   5.597   3.214  1.00 20.00     0.079 C 
BRANCH   3   4
HETATM    4  C5  UNL     1     -34.004   4.741   3.755  1.00 20.00     0.010 C 
BRANCH   4   5
HETATM    5  C6  UNL     1     -34.942   5.533   4.670  1.00 20.00     0.032 C 
BRANCH   5   6
HETATM    6  C7  UNL     1     -34.193   6.135   5.847  1.00 20.00     0.222 C 
HETATM    7  F10 UNL     1     -34.197   7.490   5.735  1.00 20.00    -0.255 F 
ENDBRANCH   5   6
ENDBRANCH   4   5
ENDBRANCH   3   4
ENDBRANCH   1   3
BRANCH   1   8
HETATM    8  C8  UNL     1     -32.731   8.118   2.616  1.00 20.00     0.047 C 
HETATM    9  C2  UNL     1     -32.222   8.755   1.328  1.00 20.00     0.017 C 
HETATM   10  C3  UNL     1     -31.613   8.024   3.652  1.00 20.00     0.017 C 
ENDBRANCH   1   8
TORSDOF 5
ENDMDL
