MODEL 1
REMARK VINA RESULT:      -5.2      0.000      0.000
REMARK  3 active torsions:
REMARK  status: ('A' for Active; 'I' for Inactive)
REMARK    1  A    between atoms: C6_6  and  C7_7 
REMARK    2  A    between atoms: C6_6  and  C8_8 
REMARK    3  A    between atoms: C7_7  and  N9_9 
ROOT
HETATM    1  C1  UNL     1     -34.350   5.767   2.829  1.00 20.00     0.050 C 
HETATM    2  C2  UNL     1     -34.374   7.174   4.914  1.00 20.00     0.050 C 
HETATM    3  C3  UNL     1     -32.842   6.024   2.727  1.00 20.00     0.274 C 
HETATM    4  C4  UNL     1     -32.865   7.381   4.739  1.00 20.00     0.274 C 
HETATM    5  C5  UNL     1     -34.868   5.880   4.263  1.00 20.00     0.085 C 
HETATM    6  N9  UNL     1     -32.402   7.279   3.349  1.00 20.00     0.088 N 
HETATM    7 CL11 UNL     1     -34.347   4.462   5.228  1.00 20.00    -0.125 Cl
ENDROOT
BRANCH   6   8
HETATM    8  C7  UNL     1     -32.772   8.450   2.555  1.00 20.00     0.275 C 
BRANCH   8   9
HETATM    9  C6  UNL     1     -31.816   8.613   1.375  1.00 20.00     0.061 C 
BRANCH   9  10
HETATM   10  C8  UNL     1     -32.390   9.545   0.321  1.00 20.00     0.223 C 
HETATM   11  F10 UNL     1     -32.477  10.800   0.835  1.00 20.00    -0.255 F 
ENDBRANCH   9  10
ENDBRANCH   8   9
ENDBRANCH   6   8
TORSDOF 3
ENDMDL
MODEL 2
REMARK VINA RESULT:      -4.0     10.511     11.558
REMARK  3 active torsions:
REMARK  status: ('A' for Active; 'I' for Inactive)
REMARK    1  A    between atoms: C6_6  and  C7_7 
REMARK    2  A    between atoms: C6_6  and  C8_8 
REMARK    3  A    between atoms: C7_7  and  N9_9 
ROOT
HETATM    1  C1  UNL     1     -34.726  16.002  -6.201  1.00 20.00     0.050 C 
HETATM    2  C2  UNL     1     -35.555  13.957  -4.993  1.00 20.00     0.050 C 
HETATM    3  C3  UNL     1     -33.498  15.991  -5.284  1.00 20.00     0.274 C 
HETATM    4  C4  UNL     1     -34.297  14.018  -4.119  1.00 20.00     0.274 C 
HETATM    5  C5  UNL     1     -35.352  14.615  -6.359  1.00 20.00     0.085 C 
HETATM    6  N9  UNL     1     -33.730  15.364  -3.977  1.00 20.00     0.088 N 
HETATM    7 CL11 UNL     1     -34.322  13.582  -7.400  1.00 20.00    -0.125 Cl
ENDROOT
BRANCH   6   8
HETATM    8  C7  UNL     1     -34.526  16.211  -3.091  1.00 20.00     0.275 C 
BRANCH   8   9
HETATM    9  C6  UNL     1     -33.615  17.047  -2.195  1.00 20.00     0.061 C 
BRANCH   9  10
HETATM   10  C8  UNL     1     -34.317  17.447  -0.908  1.00 20.00     0.223 C 
HETATM   11  F10 UNL     1     -35.444  16.701  -0.763  1.00 20.00    -0.255 F 
ENDBRANCH   9  10
ENDBRANCH   8   9
ENDBRANCH   6   8
TORSDOF 3
ENDMDL
MODEL 3
REMARK VINA RESULT:      -3.8     10.957     12.060
REMARK  3 active torsions:
REMARK  status: ('A' for Active; 'I' for Inactive)
REMARK    1  A    between atoms: C6_6  and  C7_7 
REMARK    2  A    between atoms: C6_6  and  C8_8 
REMARK    3  A    between atoms: C7_7  and  N9_9 
ROOT
HETATM    1  C1  UNL     1     -34.467  14.978  -3.818  1.00 20.00     0.050 C 
HETATM    2  C2  UNL     1     -34.924  17.372  -4.441  1.00 20.00     0.050 C 
HETATM    3  C3  UNL     1     -33.299  14.990  -4.812  1.00 20.00     0.274 C 
HETATM    4  C4  UNL     1     -33.740  17.299  -5.413  1.00 20.00     0.274 C 
HETATM    5  C5  UNL     1     -34.799  16.374  -3.288  1.00 20.00     0.085 C 
HETATM    6  N9  UNL     1     -33.457  15.948  -5.913  1.00 20.00     0.088 N 
HETATM    7 CL11 UNL     1     -33.543  16.916  -2.131  1.00 20.00    -0.125 Cl
ENDROOT
BRANCH   6   8
HETATM    8  C7  UNL     1     -34.441  15.503  -6.898  1.00 20.00     0.275 C 
BRANCH   8   9
HETATM    9  C6  UNL     1     -34.077  14.116  -7.422  1.00 20.00     0.061 C 
BRANCH   9  10
HETATM   10  C8  UNL     1     -35.288  13.198  -7.450  1.00 20.00     0.223 C 
HETATM   11  F10 UNL     1     -35.631  12.873  -6.176  1.00 20.00    -0.255 F 
ENDBRANCH   9  10
ENDBRANCH   8   9
ENDBRANCH   6   8
TORSDOF 3
ENDMDL
MODEL 4
REMARK VINA RESULT:      -3.8     10.837     11.899
REMARK  3 active torsions:
REMARK  status: ('A' for Active; 'I' for Inactive)
REMARK    1  A    between atoms: C6_6  and  C7_7 
REMARK    2  A    between atoms: C6_6  and  C8_8 
REMARK    3  A    between atoms: C7_7  and  N9_9 
ROOT
HETATM    1  C1  UNL     1     -33.331  15.133  -4.927  1.00 20.00     0.050 C 
HETATM    2  C2  UNL     1     -35.054  16.247  -6.384  1.00 20.00     0.050 C 
HETATM    3  C3  UNL     1     -34.464  14.726  -3.977  1.00 20.00     0.274 C 
HETATM    4  C4  UNL     1     -36.126  15.799  -5.383  1.00 20.00     0.274 C 
HETATM    5  C5  UNL     1     -33.818  15.345  -6.361  1.00 20.00     0.085 C 
HETATM    6  N9  UNL     1     -35.629  15.618  -4.013  1.00 20.00     0.088 N 
HETATM    7 CL11 UNL     1     -34.183  13.770  -7.134  1.00 20.00    -0.125 Cl
ENDROOT
BRANCH   6   8
HETATM    8  C7  UNL     1     -35.371  16.892  -3.344  1.00 20.00     0.275 C 
BRANCH   8   9
HETATM    9  C6  UNL     1     -35.350  16.701  -1.829  1.00 20.00     0.061 C 
BRANCH   9  10
HETATM   10  C8  UNL     1     -34.138  17.369  -1.202  1.00 20.00     0.223 C 
HETATM   11  F10 UNL     1     -33.021  16.990  -1.875  1.00 20.00    -0.255 F 
ENDBRANCH   9  10
ENDBRANCH   8   9
ENDBRANCH   6   8
TORSDOF 3
ENDMDL
MODEL 5
REMARK VINA RESULT:      -3.7      1.018      1.845
REMARK  3 active torsions:
REMARK  status: ('A' for Active; 'I' for Inactive)
REMARK    1  A    between atoms: C6_6  and  C7_7 
REMARK    2  A    between atoms: C6_6  and  C8_8 
REMARK    3  A    between atoms: C7_7  and  N9_9 
ROOT
HETATM    1  C1  UNL     1     -33.366   6.954   4.916  1.00 20.00     0.050 C 
HETATM    2  C2  UNL     1     -33.067   5.337   3.012  1.00 20.00     0.050 C 
HETATM    3  C3  UNL     1     -33.838   7.998   3.897  1.00 20.00     0.274 C 
HETATM    4  C4  UNL     1     -33.550   6.438   2.060  1.00 20.00     0.274 C 
HETATM    5  C5  UNL     1     -33.596   5.520   4.436  1.00 20.00     0.085 C 
HETATM    6  N9  UNL     1     -33.303   7.801   2.543  1.00 20.00     0.088 N 
HETATM    7 CL11 UNL     1     -35.340   5.111   4.509  1.00 20.00    -0.125 Cl
ENDROOT
BRANCH   6   8
HETATM    8  C7  UNL     1     -31.893   8.177   2.446  1.00 20.00     0.275 C 
BRANCH   8   9
HETATM    9  C6  UNL     1     -31.609   8.826   1.094  1.00 20.00     0.061 C 
BRANCH   9  10
HETATM   10  C8  UNL     1     -32.695   9.820   0.716  1.00 20.00     0.223 C 
HETATM   11  F10 UNL     1     -32.556  10.941   1.470  1.00 20.00    -0.255 F 
ENDBRANCH   9  10
ENDBRANCH   8   9
ENDBRANCH   6   8
TORSDOF 3
ENDMDL
MODEL 6
REMARK VINA RESULT:      -3.7     10.742     11.818
REMARK  3 active torsions:
REMARK  status: ('A' for Active; 'I' for Inactive)
REMARK    1  A    between atoms: C6_6  and  C7_7 
REMARK    2  A    between atoms: C6_6  and  C8_8 
REMARK    3  A    between atoms: C7_7  and  N9_9 
ROOT
HETATM    1  C1  UNL     1     -35.255  17.318  -4.122  1.00 20.00     0.050 C 
HETATM    2  C2  UNL     1     -33.431  15.587  -4.182  1.00 20.00     0.050 C 
HETATM    3  C3  UNL     1     -36.264  16.183  -3.915  1.00 20.00     0.274 C 
HETATM    4  C4  UNL     1     -34.504  14.513  -3.972  1.00 20.00     0.274 C 
HETATM    5  C5  UNL     1     -33.853  16.952  -3.634  1.00 20.00     0.085 C 
HETATM    6  N9  UNL     1     -35.835  14.890  -4.463  1.00 20.00     0.088 N 
HETATM    7 CL11 UNL     1     -33.798  16.947  -1.843  1.00 20.00    -0.125 Cl
ENDROOT
BRANCH   6   8
HETATM    8  C7  UNL     1     -35.919  14.853  -5.922  1.00 20.00     0.275 C 
BRANCH   8   9
HETATM    9  C6  UNL     1     -35.523  13.473  -6.441  1.00 20.00     0.061 C 
BRANCH   9  10
HETATM   10  C8  UNL     1     -34.472  13.571  -7.534  1.00 20.00     0.223 C 
HETATM   11  F10 UNL     1     -33.774  14.726  -7.380  1.00 20.00    -0.255 F 
ENDBRANCH   9  10
ENDBRANCH   8   9
ENDBRANCH   6   8
TORSDOF 3
ENDMDL
MODEL 7
REMARK VINA RESULT:      -3.6     11.026     11.627
REMARK  3 active torsions:
REMARK  status: ('A' for Active; 'I' for Inactive)
REMARK    1  A    between atoms: C6_6  and  C7_7 
REMARK    2  A    between atoms: C6_6  and  C8_8 
REMARK    3  A    between atoms: C7_7  and  N9_9 
ROOT
HETATM    1  C1  UNL     1     -36.707  15.851  -4.209  1.00 20.00     0.050 C 
HETATM    2  C2  UNL     1     -35.427  13.794  -4.886  1.00 20.00     0.050 C 
HETATM    3  C3  UNL     1     -35.542  16.696  -4.739  1.00 20.00     0.274 C 
HETATM    4  C4  UNL     1     -34.307  14.711  -5.393  1.00 20.00     0.274 C 
HETATM    5  C5  UNL     1     -36.793  14.482  -4.886  1.00 20.00     0.085 C 
HETATM    6  N9  UNL     1     -34.243  16.011  -4.714  1.00 20.00     0.088 N 
HETATM    7 CL11 UNL     1     -37.404  14.653  -6.562  1.00 20.00    -0.125 Cl
ENDROOT
BRANCH   6   8
HETATM    8  C7  UNL     1     -33.701  15.904  -3.361  1.00 20.00     0.275 C 
BRANCH   8   9
HETATM    9  C6  UNL     1     -33.646  17.280  -2.700  1.00 20.00     0.061 C 
BRANCH   9  10
HETATM   10  C8  UNL     1     -34.193  17.237  -1.283  1.00 20.00     0.223 C 
HETATM   11  F10 UNL     1     -35.300  16.450  -1.255  1.00 20.00    -0.255 F 
ENDBRANCH   9  10
ENDBRANCH   8   9
ENDBRANCH   6   8
TORSDOF 3
ENDMDL
MODEL 8
REMARK VINA RESULT:      -3.6      3.410      4.918
REMARK  3 active torsions:
REMARK  status: ('A' for Active; 'I' for Inactive)
REMARK    1  A    between atoms: C6_6  and  C7_7 
REMARK    2  A    between atoms: C6_6  and  C8_8 
REMARK    3  A    between atoms: C7_7  and  N9_9 
ROOT
HETATM    1  C1  UNL     1     -32.002   9.287   2.990  1.00 20.00     0.050 C 
HETATM    2  C2  UNL     1     -33.499   7.869   1.550  1.00 20.00     0.050 C 
HETATM    3  C3  UNL     1     -31.568   8.010   3.719  1.00 20.00     0.274 C 
HETATM    4  C4  UNL     1     -33.012   6.641   2.329  1.00 20.00     0.274 C 
HETATM    5  C5  UNL     1     -32.484   9.014   1.565  1.00 20.00     0.085 C 
HETATM    6  N9  UNL     1     -32.569   6.936   3.697  1.00 20.00     0.088 N 
HETATM    7 CL11 UNL     1     -31.095   8.627   0.500  1.00 20.00    -0.125 Cl
ENDROOT
BRANCH   6   8
HETATM    8  C7  UNL     1     -33.689   7.205   4.597  1.00 20.00     0.275 C 
BRANCH   8   9
HETATM    9  C6  UNL     1     -34.749   6.115   4.465  1.00 20.00     0.061 C 
BRANCH   9  10
HETATM   10  C8  UNL     1     -34.511   4.986   5.454  1.00 20.00     0.223 C 
HETATM   11  F10 UNL     1     -34.201   3.852   4.771  1.00 20.00    -0.255 F 
ENDBRANCH   9  10
ENDBRANCH   8   9
ENDBRANCH   6   8
TORSDOF 3
ENDMDL
MODEL 9
REMARK VINA RESULT:      -3.4      3.250      4.603
REMARK  3 active torsions:
REMARK  status: ('A' for Active; 'I' for Inactive)
REMARK    1  A    between atoms: C6_6  and  C7_7 
REMARK    2  A    between atoms: C6_6  and  C8_8 
REMARK    3  A    between atoms: C7_7  and  N9_9 
ROOT
HETATM    1  C1  UNL     1     -33.180   7.043   2.327  1.00 20.00     0.050 C 
HETATM    2  C2  UNL     1     -31.412   8.058   3.800  1.00 20.00     0.050 C 
HETATM    3  C3  UNL     1     -34.224   7.457   3.371  1.00 20.00     0.274 C 
HETATM    4  C4  UNL     1     -32.518   8.436   4.792  1.00 20.00     0.274 C 
HETATM    5  C5  UNL     1     -31.931   7.924   2.367  1.00 20.00     0.085 C 
HETATM    6  N9  UNL     1     -33.697   7.564   4.738  1.00 20.00     0.088 N 
HETATM    7 CL11 UNL     1     -32.286   9.541   1.680  1.00 20.00    -0.125 Cl
ENDROOT
BRANCH   6   8
HETATM    8  C7  UNL     1     -33.447   6.255   5.338  1.00 20.00     0.275 C 
BRANCH   8   9
HETATM    9  C6  UNL     1     -34.687   5.372   5.222  1.00 20.00     0.061 C 
BRANCH   9  10
HETATM   10  C8  UNL     1     -34.353   4.026   4.600  1.00 20.00     0.223 C 
HETATM   11  F10 UNL     1     -33.617   4.224   3.475  1.00 20.00    -0.255 F 
ENDBRANCH   9  10
ENDBRANCH   8   9
ENDBRANCH   6   8
TORSDOF 3
ENDMDL
