MODEL 1
REMARK VINA RESULT:      -4.8      0.000      0.000
REMARK  3 active torsions:
REMARK  status: ('A' for Active; 'I' for Inactive)
REMARK    1  A    between atoms: C6_6  and  C7_7 
REMARK    2  A    between atoms: C6_6  and  C8_8 
REMARK    3  A    between atoms: C7_7  and  N9_9 
ROOT
HETATM    1  C1  UNL     1     -33.647   5.158   2.541  1.00 20.00     0.029 C 
HETATM    2  C2  UNL     1     -34.055   5.014   4.004  1.00 20.00     0.023 C 
HETATM    3  C3  UNL     1     -32.531   6.178   2.363  1.00 20.00     0.235 C 
HETATM    4  C4  UNL     1     -33.298   7.387   4.427  1.00 20.00     0.254 C 
HETATM    5  C5  UNL     1     -34.420   6.371   4.603  1.00 20.00     0.108 C 
HETATM    6  N9  UNL     1     -32.957   7.499   2.959  1.00 20.00    -0.070 N 
HETATM    7 CL11 UNL     1     -34.789   6.183   6.342  1.00 20.00    -0.123 Cl
HETATM    8  H27 UNL     1     -33.814   7.792   2.468  1.00 20.00     0.279 HD
ENDROOT
BRANCH   6   9
HETATM    9  C7  UNL     1     -31.937   8.575   2.707  1.00 20.00     0.237 C 
BRANCH   9  10
HETATM   10  C6  UNL     1     -31.879   8.868   1.215  1.00 20.00     0.059 C 
BRANCH  10  11
HETATM   11  C8  UNL     1     -32.863   9.960   0.830  1.00 20.00     0.223 C 
HETATM   12  F10 UNL     1     -32.541  11.104   1.489  1.00 20.00    -0.255 F 
ENDBRANCH  10  11
ENDBRANCH   9  10
ENDBRANCH   6   9
TORSDOF 3
ENDMDL
MODEL 2
REMARK VINA RESULT:      -4.4      1.260      2.029
REMARK  3 active torsions:
REMARK  status: ('A' for Active; 'I' for Inactive)
REMARK    1  A    between atoms: C6_6  and  C7_7 
REMARK    2  A    between atoms: C6_6  and  C8_8 
REMARK    3  A    between atoms: C7_7  and  N9_9 
ROOT
HETATM    1  C1  UNL     1     -33.652   7.464   5.509  1.00 20.00     0.029 C 
HETATM    2  C2  UNL     1     -34.340   6.105   5.440  1.00 20.00     0.023 C 
HETATM    3  C3  UNL     1     -33.513   8.097   4.131  1.00 20.00     0.235 C 
HETATM    4  C4  UNL     1     -33.493   5.817   3.077  1.00 20.00     0.254 C 
HETATM    5  C5  UNL     1     -33.625   5.182   4.456  1.00 20.00     0.108 C 
HETATM    6  N9  UNL     1     -32.785   7.146   3.211  1.00 20.00    -0.070 N 
HETATM    7 CL11 UNL     1     -34.517   3.639   4.320  1.00 20.00    -0.123 Cl
HETATM    8  H27 UNL     1     -31.864   6.960   3.632  1.00 20.00     0.279 HD
ENDROOT
BRANCH   6   9
HETATM    9  C7  UNL     1     -32.518   7.769   1.868  1.00 20.00     0.237 C 
BRANCH   9  10
HETATM   10  C6  UNL     1     -32.003   9.187   2.070  1.00 20.00     0.059 C 
BRANCH  10  11
HETATM   11  C8  UNL     1     -32.626  10.146   1.070  1.00 20.00     0.223 C 
HETATM   12  F10 UNL     1     -32.630  11.400   1.597  1.00 20.00    -0.255 F 
ENDBRANCH  10  11
ENDBRANCH   9  10
ENDBRANCH   6   9
TORSDOF 3
ENDMDL
MODEL 3
REMARK VINA RESULT:      -4.3      3.269      4.936
REMARK  3 active torsions:
REMARK  status: ('A' for Active; 'I' for Inactive)
REMARK    1  A    between atoms: C6_6  and  C7_7 
REMARK    2  A    between atoms: C6_6  and  C8_8 
REMARK    3  A    between atoms: C7_7  and  N9_9 
ROOT
HETATM    1  C1  UNL     1     -32.214   8.407   4.817  1.00 20.00     0.029 C 
HETATM    2  C2  UNL     1     -31.428   8.477   3.513  1.00 20.00     0.023 C 
HETATM    3  C3  UNL     1     -33.143   7.202   4.854  1.00 20.00     0.235 C 
HETATM    4  C4  UNL     1     -33.291   7.231   2.347  1.00 20.00     0.254 C 
HETATM    5  C5  UNL     1     -32.367   8.443   2.309  1.00 20.00     0.108 C 
HETATM    6  N9  UNL     1     -34.055   7.232   3.651  1.00 20.00    -0.070 N 
HETATM    7 CL11 UNL     1     -31.412   8.418   0.798  1.00 20.00    -0.123 Cl
HETATM    8  H27 UNL     1     -34.585   8.114   3.694  1.00 20.00     0.279 HD
ENDROOT
BRANCH   6   9
HETATM    9  C7  UNL     1     -35.072   6.125   3.699  1.00 20.00     0.237 C 
BRANCH   9  10
HETATM   10  C6  UNL     1     -34.775   5.226   4.891  1.00 20.00     0.059 C 
BRANCH  10  11
HETATM   11  C8  UNL     1     -34.163   3.909   4.447  1.00 20.00     0.223 C 
HETATM   12  F10 UNL     1     -33.452   4.109   3.305  1.00 20.00    -0.255 F 
ENDBRANCH  10  11
ENDBRANCH   9  10
ENDBRANCH   6   9
TORSDOF 3
ENDMDL
MODEL 4
REMARK VINA RESULT:      -3.9      3.510      5.135
REMARK  3 active torsions:
REMARK  status: ('A' for Active; 'I' for Inactive)
REMARK    1  A    between atoms: C6_6  and  C7_7 
REMARK    2  A    between atoms: C6_6  and  C8_8 
REMARK    3  A    between atoms: C7_7  and  N9_9 
ROOT
HETATM    1  C1  UNL     1     -31.399   8.447   3.351  1.00 20.00     0.029 C 
HETATM    2  C2  UNL     1     -31.454   8.791   1.866  1.00 20.00     0.023 C 
HETATM    3  C3  UNL     1     -32.223   7.210   3.677  1.00 20.00     0.235 C 
HETATM    4  C4  UNL     1     -33.720   7.682   1.716  1.00 20.00     0.254 C 
HETATM    5  C5  UNL     1     -32.900   8.926   1.393  1.00 20.00     0.108 C 
HETATM    6  N9  UNL     1     -33.642   7.410   3.201  1.00 20.00    -0.070 N 
HETATM    7 CL11 UNL     1     -32.932   9.222  -0.370  1.00 20.00    -0.123 Cl
HETATM    8  H27 UNL     1     -34.010   8.242   3.683  1.00 20.00     0.279 HD
ENDROOT
BRANCH   6   9
HETATM    9  C7  UNL     1     -34.528   6.263   3.601  1.00 20.00     0.237 C 
BRANCH   9  10
HETATM   10  C6  UNL     1     -34.477   6.097   5.113  1.00 20.00     0.059 C 
BRANCH  10  11
HETATM   11  C8  UNL     1     -34.507   4.630   5.507  1.00 20.00     0.223 C 
HETATM   12  F10 UNL     1     -34.477   3.865   4.383  1.00 20.00    -0.255 F 
ENDBRANCH  10  11
ENDBRANCH   9  10
ENDBRANCH   6   9
TORSDOF 3
ENDMDL
MODEL 5
REMARK VINA RESULT:      -3.8     10.408     11.146
REMARK  3 active torsions:
REMARK  status: ('A' for Active; 'I' for Inactive)
REMARK    1  A    between atoms: C6_6  and  C7_7 
REMARK    2  A    between atoms: C6_6  and  C8_8 
REMARK    3  A    between atoms: C7_7  and  N9_9 
ROOT
HETATM    1  C1  UNL     1     -32.876  18.107  -1.205  1.00 20.00     0.029 C 
HETATM    2  C2  UNL     1     -34.020  18.514  -0.283  1.00 20.00     0.023 C 
HETATM    3  C3  UNL     1     -33.379  17.696  -2.582  1.00 20.00     0.235 C 
HETATM    4  C4  UNL     1     -35.577  17.005  -1.581  1.00 20.00     0.254 C 
HETATM    5  C5  UNL     1     -35.072  17.410  -0.201  1.00 20.00     0.108 C 
HETATM    6  N9  UNL     1     -34.400  16.593  -2.437  1.00 20.00    -0.070 N 
HETATM    7 CL11 UNL     1     -36.447  17.960   0.800  1.00 20.00    -0.123 Cl
HETATM    8  H27 UNL     1     -33.935  15.809  -1.958  1.00 20.00     0.279 HD
ENDROOT
BRANCH   6   9
HETATM    9  C7  UNL     1     -34.845  16.069  -3.774  1.00 20.00     0.237 C 
BRANCH   9  10
HETATM   10  C6  UNL     1     -34.334  14.645  -3.947  1.00 20.00     0.059 C 
BRANCH  10  11
HETATM   11  C8  UNL     1     -32.958  14.629  -4.590  1.00 20.00     0.223 C 
HETATM   12  F10 UNL     1     -32.204  13.658  -4.008  1.00 20.00    -0.255 F 
ENDBRANCH  10  11
ENDBRANCH   9  10
ENDBRANCH   6   9
TORSDOF 3
ENDMDL
MODEL 6
REMARK VINA RESULT:      -3.8     11.030     11.443
REMARK  3 active torsions:
REMARK  status: ('A' for Active; 'I' for Inactive)
REMARK    1  A    between atoms: C6_6  and  C7_7 
REMARK    2  A    between atoms: C6_6  and  C8_8 
REMARK    3  A    between atoms: C7_7  and  N9_9 
ROOT
HETATM    1  C1  UNL     1     -37.689  14.854  -4.638  1.00 20.00     0.029 C 
HETATM    2  C2  UNL     1     -37.158  14.209  -5.914  1.00 20.00     0.023 C 
HETATM    3  C3  UNL     1     -36.700  15.855  -4.056  1.00 20.00     0.235 C 
HETATM    4  C4  UNL     1     -34.796  14.591  -5.100  1.00 20.00     0.254 C 
HETATM    5  C5  UNL     1     -35.784  13.584  -5.677  1.00 20.00     0.108 C 
HETATM    6  N9  UNL     1     -35.371  15.176  -3.829  1.00 20.00    -0.070 N 
HETATM    7 CL11 UNL     1     -35.145  12.933  -7.214  1.00 20.00    -0.123 Cl
HETATM    8  H27 UNL     1     -35.536  14.393  -3.181  1.00 20.00     0.279 HD
ENDROOT
BRANCH   6   9
HETATM    9  C7  UNL     1     -34.390  16.090  -3.148  1.00 20.00     0.237 C 
BRANCH   9  10
HETATM   10  C6  UNL     1     -35.034  16.666  -1.895  1.00 20.00     0.059 C 
BRANCH  10  11
HETATM   11  C8  UNL     1     -34.095  17.627  -1.186  1.00 20.00     0.223 C 
HETATM   12  F10 UNL     1     -32.811  17.312  -1.502  1.00 20.00    -0.255 F 
ENDBRANCH  10  11
ENDBRANCH   9  10
ENDBRANCH   6   9
TORSDOF 3
ENDMDL
MODEL 7
REMARK VINA RESULT:      -3.8     10.831     11.348
REMARK  3 active torsions:
REMARK  status: ('A' for Active; 'I' for Inactive)
REMARK    1  A    between atoms: C6_6  and  C7_7 
REMARK    2  A    between atoms: C6_6  and  C8_8 
REMARK    3  A    between atoms: C7_7  and  N9_9 
ROOT
HETATM    1  C1  UNL     1     -35.684  17.552  -0.626  1.00 20.00     0.029 C 
HETATM    2  C2  UNL     1     -34.540  17.916   0.314  1.00 20.00     0.023 C 
HETATM    3  C3  UNL     1     -35.198  16.743  -1.821  1.00 20.00     0.235 C 
HETATM    4  C4  UNL     1     -32.934  17.813  -1.633  1.00 20.00     0.254 C 
HETATM    5  C5  UNL     1     -33.421  18.629  -0.442  1.00 20.00     0.108 C 
HETATM    6  N9  UNL     1     -34.108  17.505  -2.535  1.00 20.00    -0.070 N 
HETATM    7 CL11 UNL     1     -32.053  18.946   0.664  1.00 20.00    -0.123 Cl
HETATM    8  H27 UNL     1     -34.510  18.405  -2.831  1.00 20.00     0.279 HD
ENDROOT
BRANCH   6   9
HETATM    9  C7  UNL     1     -33.672  16.802  -3.791  1.00 20.00     0.237 C 
BRANCH   9  10
HETATM   10  C6  UNL     1     -34.201  15.375  -3.774  1.00 20.00     0.059 C 
BRANCH  10  11
HETATM   11  C8  UNL     1     -33.414  14.485  -4.720  1.00 20.00     0.223 C 
HETATM   12  F10 UNL     1     -32.379  13.919  -4.044  1.00 20.00    -0.255 F 
ENDBRANCH  10  11
ENDBRANCH   9  10
ENDBRANCH   6   9
TORSDOF 3
ENDMDL
MODEL 8
REMARK VINA RESULT:      -3.8     11.084     12.011
REMARK  3 active torsions:
REMARK  status: ('A' for Active; 'I' for Inactive)
REMARK    1  A    between atoms: C6_6  and  C7_7 
REMARK    2  A    between atoms: C6_6  and  C8_8 
REMARK    3  A    between atoms: C7_7  and  N9_9 
ROOT
HETATM    1  C1  UNL     1     -33.667  16.620  -6.629  1.00 20.00     0.029 C 
HETATM    2  C2  UNL     1     -33.849  15.232  -7.234  1.00 20.00     0.023 C 
HETATM    3  C3  UNL     1     -33.570  16.566  -5.111  1.00 20.00     0.235 C 
HETATM    4  C4  UNL     1     -34.942  14.462  -5.090  1.00 20.00     0.254 C 
HETATM    5  C5  UNL     1     -35.046  14.519  -6.610  1.00 20.00     0.108 C 
HETATM    6  N9  UNL     1     -34.786  15.866  -4.553  1.00 20.00    -0.070 N 
HETATM    7 CL11 UNL     1     -35.167  12.859  -7.263  1.00 20.00    -0.123 Cl
HETATM    8  H27 UNL     1     -35.611  16.403  -4.856  1.00 20.00     0.279 HD
ENDROOT
BRANCH   6   9
HETATM    9  C7  UNL     1     -34.797  15.888  -3.049  1.00 20.00     0.237 C 
BRANCH   9  10
HETATM   10  C6  UNL     1     -33.696  16.816  -2.556  1.00 20.00     0.059 C 
BRANCH  10  11
HETATM   11  C8  UNL     1     -34.055  17.432  -1.215  1.00 20.00     0.223 C 
HETATM   12  F10 UNL     1     -35.128  16.778  -0.695  1.00 20.00    -0.255 F 
ENDBRANCH  10  11
ENDBRANCH   9  10
ENDBRANCH   6   9
TORSDOF 3
ENDMDL
MODEL 9
REMARK VINA RESULT:      -3.7     10.808     11.312
REMARK  3 active torsions:
REMARK  status: ('A' for Active; 'I' for Inactive)
REMARK    1  A    between atoms: C6_6  and  C7_7 
REMARK    2  A    between atoms: C6_6  and  C8_8 
REMARK    3  A    between atoms: C7_7  and  N9_9 
ROOT
HETATM    1  C1  UNL     1     -33.869  14.408  -4.773  1.00 20.00     0.029 C 
HETATM    2  C2  UNL     1     -35.327  13.963  -4.714  1.00 20.00     0.023 C 
HETATM    3  C3  UNL     1     -33.580  15.532  -3.788  1.00 20.00     0.235 C 
HETATM    4  C4  UNL     1     -35.977  16.272  -3.919  1.00 20.00     0.254 C 
HETATM    5  C5  UNL     1     -36.266  15.152  -4.911  1.00 20.00     0.108 C 
HETATM    6  N9  UNL     1     -34.526  16.680  -4.043  1.00 20.00    -0.070 N 
HETATM    7 CL11 UNL     1     -37.962  14.617  -4.729  1.00 20.00    -0.123 Cl
HETATM    8  H27 UNL     1     -34.377  16.987  -5.015  1.00 20.00     0.279 HD
ENDROOT
BRANCH   6   9
HETATM    9  C7  UNL     1     -34.208  17.865  -3.173  1.00 20.00     0.237 C 
BRANCH   9  10
HETATM   10  C6  UNL     1     -33.538  17.379  -1.895  1.00 20.00     0.059 C 
BRANCH  10  11
HETATM   11  C8  UNL     1     -34.438  17.586  -0.689  1.00 20.00     0.223 C 
HETATM   12  F10 UNL     1     -35.434  16.660  -0.711  1.00 20.00    -0.255 F 
ENDBRANCH  10  11
ENDBRANCH   9  10
ENDBRANCH   6   9
TORSDOF 3
ENDMDL
