MODEL 1
REMARK VINA RESULT:      -5.6      0.000      0.000
REMARK  2 active torsions:
REMARK  status: ('A' for Active; 'I' for Inactive)
REMARK    1  A    between atoms: C5_5  and  C6_6 
REMARK    2  A    between atoms: C7_7  and  C8_8 
ROOT
HETATM    1  C1  UNL     1     -33.987   5.597   3.284  1.00 20.00     0.033 C 
HETATM    2  C3  UNL     1     -35.062   5.500   4.346  1.00 20.00     0.168 C 
HETATM    3  C4  UNL     1     -33.542   7.142   4.992  1.00 20.00     0.172 C 
HETATM    4  C5  UNL     1     -33.492   7.014   3.479  1.00 20.00     0.016 C 
HETATM    5  O9  UNL     1     -34.652   6.345   5.432  1.00 20.00    -0.391 OA
ENDROOT
BRANCH   4   6
HETATM    6  C6  UNL     1     -32.122   7.280   2.888  1.00 20.00    -0.003 A 
HETATM    7  C2  UNL     1     -31.312   8.460   3.354  1.00 20.00     0.011 A 
HETATM    8  C7  UNL     1     -31.857   8.433   1.950  1.00 20.00     0.000 A 
BRANCH   8   9
HETATM    9  C8  UNL     1     -32.919   9.392   1.537  1.00 20.00     0.090 C 
HETATM   10 BR10 UNL     1     -33.075   9.443  -0.407  1.00 20.00    -0.096 Br
ENDBRANCH   8   9
ENDBRANCH   4   6
TORSDOF 2
ENDMDL
MODEL 2
REMARK VINA RESULT:      -3.9     10.712     11.152
REMARK  2 active torsions:
REMARK  status: ('A' for Active; 'I' for Inactive)
REMARK    1  A    between atoms: C5_5  and  C6_6 
REMARK    2  A    between atoms: C7_7  and  C8_8 
ROOT
HETATM    1  C1  UNL     1     -35.630  15.333  -4.251  1.00 20.00     0.033 C 
HETATM    2  C3  UNL     1     -35.390  13.931  -4.771  1.00 20.00     0.168 C 
HETATM    3  C4  UNL     1     -33.328  14.884  -4.254  1.00 20.00     0.172 C 
HETATM    4  C5  UNL     1     -34.392  15.564  -3.411  1.00 20.00     0.016 C 
HETATM    5  O9  UNL     1     -33.969  13.774  -4.902  1.00 20.00    -0.391 OA
ENDROOT
BRANCH   4   6
HETATM    6  C6  UNL     1     -34.102  17.023  -3.120  1.00 20.00    -0.003 A 
HETATM    7  C2  UNL     1     -33.182  17.402  -1.991  1.00 20.00     0.011 A 
HETATM    8  C7  UNL     1     -34.649  17.729  -1.904  1.00 20.00     0.000 A 
BRANCH   8   9
HETATM    9  C8  UNL     1     -35.514  17.046  -0.901  1.00 20.00     0.090 C 
HETATM   10 BR10 UNL     1     -35.358  17.913   0.840  1.00 20.00    -0.096 Br
ENDBRANCH   8   9
ENDBRANCH   4   6
TORSDOF 2
ENDMDL
MODEL 3
REMARK VINA RESULT:      -3.9     10.898     11.441
REMARK  2 active torsions:
REMARK  status: ('A' for Active; 'I' for Inactive)
REMARK    1  A    between atoms: C5_5  and  C6_6 
REMARK    2  A    between atoms: C7_7  and  C8_8 
ROOT
HETATM    1  C1  UNL     1     -37.186  16.025  -4.636  1.00 20.00     0.033 C 
HETATM    2  C3  UNL     1     -38.346  15.053  -4.603  1.00 20.00     0.168 C 
HETATM    3  C4  UNL     1     -36.403  13.857  -5.073  1.00 20.00     0.172 C 
HETATM    4  C5  UNL     1     -36.017  15.117  -4.317  1.00 20.00     0.016 C 
HETATM    5  O9  UNL     1     -37.837  13.782  -5.034  1.00 20.00    -0.391 OA
ENDROOT
BRANCH   4   6
HETATM    6  C6  UNL     1     -34.667  15.679  -4.715  1.00 20.00    -0.003 A 
HETATM    7  C2  UNL     1     -33.402  15.029  -4.224  1.00 20.00     0.011 A 
HETATM    8  C7  UNL     1     -33.775  16.405  -3.738  1.00 20.00     0.000 A 
BRANCH   8   9
HETATM    9  C8  UNL     1     -34.154  16.623  -2.314  1.00 20.00     0.090 C 
HETATM   10 BR10 UNL     1     -33.045  18.016  -1.517  1.00 20.00    -0.096 Br
ENDBRANCH   8   9
ENDBRANCH   4   6
TORSDOF 2
ENDMDL
MODEL 4
REMARK VINA RESULT:      -3.8     10.352     11.248
REMARK  2 active torsions:
REMARK  status: ('A' for Active; 'I' for Inactive)
REMARK    1  A    between atoms: C5_5  and  C6_6 
REMARK    2  A    between atoms: C7_7  and  C8_8 
ROOT
HETATM    1  C1  UNL     1     -36.157  15.191  -5.511  1.00 20.00     0.033 C 
HETATM    2  C3  UNL     1     -36.467  13.714  -5.637  1.00 20.00     0.168 C 
HETATM    3  C4  UNL     1     -34.653  13.962  -4.196  1.00 20.00     0.172 C 
HETATM    4  C5  UNL     1     -35.465  15.245  -4.166  1.00 20.00     0.016 C 
HETATM    5  O9  UNL     1     -35.423  13.010  -4.946  1.00 20.00    -0.391 OA
ENDROOT
BRANCH   4   6
HETATM    6  C6  UNL     1     -34.631  16.492  -3.946  1.00 20.00    -0.003 A 
HETATM    7  C2  UNL     1     -33.538  16.498  -2.912  1.00 20.00     0.011 A 
HETATM    8  C7  UNL     1     -34.766  17.347  -2.710  1.00 20.00     0.000 A 
BRANCH   8   9
HETATM    9  C8  UNL     1     -35.728  17.030  -1.617  1.00 20.00     0.090 C 
HETATM   10 BR10 UNL     1     -35.131  17.816   0.066  1.00 20.00    -0.096 Br
ENDBRANCH   8   9
ENDBRANCH   4   6
TORSDOF 2
ENDMDL
MODEL 5
REMARK VINA RESULT:      -3.7     10.304     11.214
REMARK  2 active torsions:
REMARK  status: ('A' for Active; 'I' for Inactive)
REMARK    1  A    between atoms: C5_5  and  C6_6 
REMARK    2  A    between atoms: C7_7  and  C8_8 
ROOT
HETATM    1  C1  UNL     1     -34.062  17.383  -1.150  1.00 20.00     0.033 C 
HETATM    2  C3  UNL     1     -35.297  17.621  -0.308  1.00 20.00     0.168 C 
HETATM    3  C4  UNL     1     -35.974  17.171  -2.491  1.00 20.00     0.172 C 
HETATM    4  C5  UNL     1     -34.615  16.530  -2.271  1.00 20.00     0.016 C 
HETATM    5  O9  UNL     1     -36.417  17.639  -1.208  1.00 20.00    -0.391 OA
ENDROOT
BRANCH   4   6
HETATM    6  C6  UNL     1     -33.747  16.496  -3.513  1.00 20.00    -0.003 A 
HETATM    7  C2  UNL     1     -34.378  16.505  -4.879  1.00 20.00     0.011 A 
HETATM    8  C7  UNL     1     -33.650  15.278  -4.398  1.00 20.00     0.000 A 
BRANCH   8   9
HETATM    9  C8  UNL     1     -34.398  14.020  -4.117  1.00 20.00     0.090 C 
HETATM   10 BR10 UNL     1     -36.014  13.929  -5.208  1.00 20.00    -0.096 Br
ENDBRANCH   8   9
ENDBRANCH   4   6
TORSDOF 2
ENDMDL
MODEL 6
REMARK VINA RESULT:      -3.7     11.298     11.995
REMARK  2 active torsions:
REMARK  status: ('A' for Active; 'I' for Inactive)
REMARK    1  A    between atoms: C5_5  and  C6_6 
REMARK    2  A    between atoms: C7_7  and  C8_8 
ROOT
HETATM    1  C1  UNL     1     -33.328  15.244  -4.203  1.00 20.00     0.033 C 
HETATM    2  C3  UNL     1     -33.252  15.516  -5.690  1.00 20.00     0.168 C 
HETATM    3  C4  UNL     1     -34.849  16.938  -4.766  1.00 20.00     0.172 C 
HETATM    4  C5  UNL     1     -33.860  16.560  -3.677  1.00 20.00     0.016 C 
HETATM    5  O9  UNL     1     -34.309  16.438  -5.999  1.00 20.00    -0.391 OA
ENDROOT
BRANCH   4   6
HETATM    6  C6  UNL     1     -34.475  16.474  -2.294  1.00 20.00    -0.003 A 
HETATM    7  C2  UNL     1     -35.403  17.555  -1.810  1.00 20.00     0.011 A 
HETATM    8  C7  UNL     1     -34.053  17.381  -1.165  1.00 20.00     0.000 A 
BRANCH   8   9
HETATM    9  C8  UNL     1     -33.003  18.426  -1.324  1.00 20.00     0.090 C 
HETATM   10 BR10 UNL     1     -32.173  18.827   0.396  1.00 20.00    -0.096 Br
ENDBRANCH   8   9
ENDBRANCH   4   6
TORSDOF 2
ENDMDL
MODEL 7
REMARK VINA RESULT:      -3.7      3.249      4.644
REMARK  2 active torsions:
REMARK  status: ('A' for Active; 'I' for Inactive)
REMARK    1  A    between atoms: C5_5  and  C6_6 
REMARK    2  A    between atoms: C7_7  and  C8_8 
ROOT
HETATM    1  C1  UNL     1     -33.329   9.740   1.214  1.00 20.00     0.033 C 
HETATM    2  C3  UNL     1     -32.452   9.681  -0.020  1.00 20.00     0.168 C 
HETATM    3  C4  UNL     1     -31.507   8.318   1.616  1.00 20.00     0.172 C 
HETATM    4  C5  UNL     1     -32.997   8.425   1.888  1.00 20.00     0.016 C 
HETATM    5  O9  UNL     1     -31.280   8.932   0.338  1.00 20.00    -0.391 OA
ENDROOT
BRANCH   4   6
HETATM    6  C6  UNL     1     -33.356   8.374   3.360  1.00 20.00    -0.003 A 
HETATM    7  C2  UNL     1     -32.480   7.623   4.326  1.00 20.00     0.011 A 
HETATM    8  C7  UNL     1     -33.866   7.118   4.023  1.00 20.00     0.000 A 
BRANCH   8   9
HETATM    9  C8  UNL     1     -34.056   5.839   3.283  1.00 20.00     0.090 C 
HETATM   10 BR10 UNL     1     -34.430   4.380   4.523  1.00 20.00    -0.096 Br
ENDBRANCH   8   9
ENDBRANCH   4   6
TORSDOF 2
ENDMDL
MODEL 8
REMARK VINA RESULT:      -3.7      2.581      4.216
REMARK  2 active torsions:
REMARK  status: ('A' for Active; 'I' for Inactive)
REMARK    1  A    between atoms: C5_5  and  C6_6 
REMARK    2  A    between atoms: C7_7  and  C8_8 
ROOT
HETATM    1  C1  UNL     1     -33.211   7.864   2.217  1.00 20.00     0.033 C 
HETATM    2  C3  UNL     1     -31.814   8.402   1.989  1.00 20.00     0.168 C 
HETATM    3  C4  UNL     1     -32.093   8.034   4.272  1.00 20.00     0.172 C 
HETATM    4  C5  UNL     1     -33.042   7.115   3.522  1.00 20.00     0.016 C 
HETATM    5  O9  UNL     1     -31.241   8.635   3.285  1.00 20.00    -0.391 OA
ENDROOT
BRANCH   4   6
HETATM    6  C6  UNL     1     -34.340   6.844   4.256  1.00 20.00    -0.003 A 
HETATM    7  C2  UNL     1     -34.320   6.441   5.705  1.00 20.00     0.011 A 
HETATM    8  C7  UNL     1     -34.764   5.453   4.659  1.00 20.00     0.000 A 
BRANCH   8   9
HETATM    9  C8  UNL     1     -33.942   4.246   4.365  1.00 20.00     0.090 C 
HETATM   10 BR10 UNL     1     -33.340   4.264   2.509  1.00 20.00    -0.096 Br
ENDBRANCH   8   9
ENDBRANCH   4   6
TORSDOF 2
ENDMDL
MODEL 9
REMARK VINA RESULT:      -3.6     10.716     11.777
REMARK  2 active torsions:
REMARK  status: ('A' for Active; 'I' for Inactive)
REMARK    1  A    between atoms: C5_5  and  C6_6 
REMARK    2  A    between atoms: C7_7  and  C8_8 
ROOT
HETATM    1  C1  UNL     1     -34.203  14.244  -6.692  1.00 20.00     0.033 C 
HETATM    2  C3  UNL     1     -35.296  13.206  -6.832  1.00 20.00     0.168 C 
HETATM    3  C4  UNL     1     -35.129  13.794  -4.584  1.00 20.00     0.172 C 
HETATM    4  C5  UNL     1     -34.617  14.954  -5.420  1.00 20.00     0.016 C 
HETATM    5  O9  UNL     1     -35.710  12.855  -5.503  1.00 20.00    -0.391 OA
ENDROOT
BRANCH   4   6
HETATM    6  C6  UNL     1     -33.504  15.741  -4.758  1.00 20.00    -0.003 A 
HETATM    7  C2  UNL     1     -33.683  16.280  -3.364  1.00 20.00     0.011 A 
HETATM    8  C7  UNL     1     -33.592  17.230  -4.529  1.00 20.00     0.000 A 
BRANCH   8   9
HETATM    9  C8  UNL     1     -34.777  18.035  -4.937  1.00 20.00     0.090 C 
HETATM   10 BR10 UNL     1     -35.931  18.380  -3.401  1.00 20.00    -0.096 Br
ENDBRANCH   8   9
ENDBRANCH   4   6
TORSDOF 2
ENDMDL
