MODEL 1
REMARK VINA RESULT:      -5.1      0.000      0.000
REMARK  1 active torsions:
REMARK  status: ('A' for Active; 'I' for Inactive)
REMARK    1  A    between atoms: C5_5  and  C9_9 
ROOT
HETATM    1  C1  UNL     1     -33.704   8.202   4.251  1.00 20.00     0.036 C 
HETATM    2  C2  UNL     1     -31.525   7.578   2.973  1.00 20.00     0.016 A 
HETATM    3  C3  UNL     1     -33.601   6.005   3.032  1.00 20.00     0.041 C 
HETATM    4  C4  UNL     1     -33.767   7.394   5.544  1.00 20.00     0.169 C 
HETATM    5  C5  UNL     1     -32.487   8.063   1.921  1.00 20.00     0.009 A 
HETATM    6  C6  UNL     1     -33.659   5.321   4.401  1.00 20.00     0.118 C 
HETATM    7  C7  UNL     1     -33.013   7.393   3.177  1.00 20.00    -0.031 A 
HETATM    8  C8  UNL     1     -34.354   3.969   4.310  1.00 20.00     0.039 C 
HETATM    9  O10 UNL     1     -34.402   6.134   5.320  1.00 20.00    -0.386 OA
ENDROOT
BRANCH   5  10
HETATM   10  C9  UNL     1     -32.645   9.522   1.662  1.00 20.00     0.120 C 
HETATM   11 CL11 UNL     1     -33.018   9.838  -0.055  1.00 20.00    -0.130 Cl
ENDBRANCH   5  10
TORSDOF 1
ENDMDL
MODEL 2
REMARK VINA RESULT:      -4.4     11.234     11.989
REMARK  1 active torsions:
REMARK  status: ('A' for Active; 'I' for Inactive)
REMARK    1  A    between atoms: C5_5  and  C9_9 
ROOT
HETATM    1  C1  UNL     1     -35.024  17.660  -4.121  1.00 20.00     0.036 C 
HETATM    2  C2  UNL     1     -35.097  16.811  -1.662  1.00 20.00     0.016 A 
HETATM    3  C3  UNL     1     -34.537  15.236  -3.662  1.00 20.00     0.041 C 
HETATM    4  C4  UNL     1     -36.283  17.191  -4.844  1.00 20.00     0.169 C 
HETATM    5  C5  UNL     1     -33.638  16.994  -1.984  1.00 20.00     0.009 A 
HETATM    6  C6  UNL     1     -35.835  14.905  -4.404  1.00 20.00     0.118 C 
HETATM    7  C7  UNL     1     -34.617  16.634  -3.086  1.00 20.00    -0.031 A 
HETATM    8  C8  UNL     1     -35.742  13.552  -5.094  1.00 20.00     0.039 C 
HETATM    9  O10 UNL     1     -36.083  15.895  -5.412  1.00 20.00    -0.386 OA
ENDROOT
BRANCH   5  10
HETATM   10  C9  UNL     1     -33.008  18.340  -1.875  1.00 20.00     0.120 C 
HETATM   11 CL11 UNL     1     -32.035  18.481  -0.386  1.00 20.00    -0.130 Cl
ENDBRANCH   5  10
TORSDOF 1
ENDMDL
MODEL 3
REMARK VINA RESULT:      -4.3     11.138     12.099
REMARK  1 active torsions:
REMARK  status: ('A' for Active; 'I' for Inactive)
REMARK    1  A    between atoms: C5_5  and  C9_9 
ROOT
HETATM    1  C1  UNL     1     -34.525  16.622  -5.231  1.00 20.00     0.036 C 
HETATM    2  C2  UNL     1     -33.510  14.357  -4.450  1.00 20.00     0.016 A 
HETATM    3  C3  UNL     1     -34.554  16.063  -2.780  1.00 20.00     0.041 C 
HETATM    4  C4  UNL     1     -33.551  17.745  -4.885  1.00 20.00     0.169 C 
HETATM    5  C5  UNL     1     -35.001  14.149  -4.467  1.00 20.00     0.009 A 
HETATM    6  C6  UNL     1     -33.566  17.216  -2.575  1.00 20.00     0.118 C 
HETATM    7  C7  UNL     1     -34.432  15.529  -4.191  1.00 20.00    -0.031 A 
HETATM    8  C8  UNL     1     -33.744  17.853  -1.204  1.00 20.00     0.039 C 
HETATM    9  O10 UNL     1     -33.793  18.231  -3.563  1.00 20.00    -0.386 OA
ENDROOT
BRANCH   5  10
HETATM   10  C9  UNL     1     -35.697  13.806  -5.738  1.00 20.00     0.120 C 
HETATM   11 CL11 UNL     1     -34.531  13.388  -7.023  1.00 20.00    -0.130 Cl
ENDBRANCH   5  10
TORSDOF 1
ENDMDL
MODEL 4
REMARK VINA RESULT:      -4.3     11.128     12.122
REMARK  1 active torsions:
REMARK  status: ('A' for Active; 'I' for Inactive)
REMARK    1  A    between atoms: C5_5  and  C9_9 
ROOT
HETATM    1  C1  UNL     1     -34.487  16.798  -5.023  1.00 20.00     0.036 C 
HETATM    2  C2  UNL     1     -33.326  14.576  -4.324  1.00 20.00     0.016 A 
HETATM    3  C3  UNL     1     -34.325  16.233  -2.579  1.00 20.00     0.041 C 
HETATM    4  C4  UNL     1     -33.541  17.960  -4.739  1.00 20.00     0.169 C 
HETATM    5  C5  UNL     1     -34.804  14.304  -4.241  1.00 20.00     0.009 A 
HETATM    6  C6  UNL     1     -33.375  17.426  -2.436  1.00 20.00     0.118 C 
HETATM    7  C7  UNL     1     -34.277  15.707  -3.998  1.00 20.00    -0.031 A 
HETATM    8  C8  UNL     1     -33.487  18.053  -1.053  1.00 20.00     0.039 C 
HETATM    9  O10 UNL     1     -33.712  18.433  -3.401  1.00 20.00    -0.386 OA
ENDROOT
BRANCH   5  10
HETATM   10  C9  UNL     1     -35.570  13.935  -5.464  1.00 20.00     0.120 C 
HETATM   11 CL11 UNL     1     -37.324  14.167  -5.224  1.00 20.00    -0.130 Cl
ENDBRANCH   5  10
TORSDOF 1
ENDMDL
MODEL 5
REMARK VINA RESULT:      -4.2      2.965      4.570
REMARK  1 active torsions:
REMARK  status: ('A' for Active; 'I' for Inactive)
REMARK    1  A    between atoms: C5_5  and  C9_9 
ROOT
HETATM    1  C1  UNL     1     -32.085   6.945   3.703  1.00 20.00     0.036 C 
HETATM    2  C2  UNL     1     -34.679   7.122   3.830  1.00 20.00     0.016 A 
HETATM    3  C3  UNL     1     -33.360   7.570   1.627  1.00 20.00     0.041 C 
HETATM    4  C4  UNL     1     -31.495   8.352   3.672  1.00 20.00     0.169 C 
HETATM    5  C5  UNL     1     -34.394   5.787   3.196  1.00 20.00     0.009 A 
HETATM    6  C6  UNL     1     -32.702   8.950   1.722  1.00 20.00     0.118 C 
HETATM    7  C7  UNL     1     -33.425   6.939   3.002  1.00 20.00    -0.031 A 
HETATM    8  C8  UNL     1     -32.514   9.563   0.341  1.00 20.00     0.039 C 
HETATM    9  O10 UNL     1     -31.408   8.831   2.328  1.00 20.00    -0.386 OA
ENDROOT
BRANCH   5  10
HETATM   10  C9  UNL     1     -34.078   4.604   4.046  1.00 20.00     0.120 C 
HETATM   11 CL11 UNL     1     -34.564   4.876   5.741  1.00 20.00    -0.130 Cl
ENDBRANCH   5  10
TORSDOF 1
ENDMDL
MODEL 6
REMARK VINA RESULT:      -4.2     11.076     11.832
REMARK  1 active torsions:
REMARK  status: ('A' for Active; 'I' for Inactive)
REMARK    1  A    between atoms: C5_5  and  C9_9 
ROOT
HETATM    1  C1  UNL     1     -35.154  16.691  -1.662  1.00 20.00     0.036 C 
HETATM    2  C2  UNL     1     -34.324  18.256  -3.569  1.00 20.00     0.016 A 
HETATM    3  C3  UNL     1     -32.916  17.812  -1.422  1.00 20.00     0.041 C 
HETATM    4  C4  UNL     1     -35.623  17.547  -0.490  1.00 20.00     0.169 C 
HETATM    5  C5  UNL     1     -33.598  16.953  -3.769  1.00 20.00     0.009 A 
HETATM    6  C6  UNL     1     -33.519  18.615  -0.265  1.00 20.00     0.118 C 
HETATM    7  C7  UNL     1     -34.013  17.382  -2.373  1.00 20.00    -0.031 A 
HETATM    8  C8  UNL     1     -32.460  18.962   0.772  1.00 20.00     0.039 C 
HETATM    9  O10 UNL     1     -34.534  17.839   0.388  1.00 20.00    -0.386 OA
ENDROOT
BRANCH   5  10
HETATM   10  C9  UNL     1     -34.255  15.829  -4.493  1.00 20.00     0.120 C 
HETATM   11 CL11 UNL     1     -33.334  14.311  -4.306  1.00 20.00    -0.130 Cl
ENDBRANCH   5  10
TORSDOF 1
ENDMDL
MODEL 7
REMARK VINA RESULT:      -4.2      1.286      2.242
REMARK  1 active torsions:
REMARK  status: ('A' for Active; 'I' for Inactive)
REMARK    1  A    between atoms: C5_5  and  C9_9 
ROOT
HETATM    1  C1  UNL     1     -33.081   6.515   2.102  1.00 20.00     0.036 C 
HETATM    2  C2  UNL     1     -33.461   9.089   2.037  1.00 20.00     0.016 A 
HETATM    3  C3  UNL     1     -32.689   7.850   4.196  1.00 20.00     0.041 C 
HETATM    4  C4  UNL     1     -34.252   5.861   2.829  1.00 20.00     0.169 C 
HETATM    5  C5  UNL     1     -31.971   8.897   1.937  1.00 20.00     0.009 A 
HETATM    6  C6  UNL     1     -33.894   7.125   4.802  1.00 20.00     0.118 C 
HETATM    7  C7  UNL     1     -32.817   7.884   2.688  1.00 20.00    -0.031 A 
HETATM    8  C8  UNL     1     -33.739   6.970   6.309  1.00 20.00     0.039 C 
HETATM    9  O10 UNL     1     -34.005   5.811   4.236  1.00 20.00    -0.386 OA
ENDROOT
BRANCH   5  10
HETATM   10  C9  UNL     1     -31.339   8.599   0.622  1.00 20.00     0.120 C 
HETATM   11 CL11 UNL     1     -32.456   8.944  -0.727  1.00 20.00    -0.130 Cl
ENDBRANCH   5  10
TORSDOF 1
ENDMDL
MODEL 8
REMARK VINA RESULT:      -4.1     11.279     12.037
REMARK  1 active torsions:
REMARK  status: ('A' for Active; 'I' for Inactive)
REMARK    1  A    between atoms: C5_5  and  C9_9 
ROOT
HETATM    1  C1  UNL     1     -33.289  16.450  -4.568  1.00 20.00     0.036 C 
HETATM    2  C2  UNL     1     -35.395  17.324  -3.313  1.00 20.00     0.016 A 
HETATM    3  C3  UNL     1     -35.119  14.823  -3.994  1.00 20.00     0.041 C 
HETATM    4  C4  UNL     1     -33.647  16.218  -6.033  1.00 20.00     0.169 C 
HETATM    5  C5  UNL     1     -34.543  16.663  -2.263  1.00 20.00     0.009 A 
HETATM    6  C6  UNL     1     -35.380  14.693  -5.498  1.00 20.00     0.118 C 
HETATM    7  C7  UNL     1     -34.494  16.170  -3.698  1.00 20.00    -0.031 A 
HETATM    8  C8  UNL     1     -35.900  13.305  -5.845  1.00 20.00     0.039 C 
HETATM    9  O10 UNL     1     -34.160  14.898  -6.223  1.00 20.00    -0.386 OA
ENDROOT
BRANCH   5  10
HETATM   10  C9  UNL     1     -33.419  17.407  -1.630  1.00 20.00     0.120 C 
HETATM   11 CL11 UNL     1     -33.914  18.125  -0.072  1.00 20.00    -0.130 Cl
ENDBRANCH   5  10
TORSDOF 1
ENDMDL
MODEL 9
REMARK VINA RESULT:      -4.0     11.203     12.243
REMARK  1 active torsions:
REMARK  status: ('A' for Active; 'I' for Inactive)
REMARK    1  A    between atoms: C5_5  and  C9_9 
ROOT
HETATM    1  C1  UNL     1     -34.865  16.460  -5.429  1.00 20.00     0.036 C 
HETATM    2  C2  UNL     1     -34.857  14.035  -4.485  1.00 20.00     0.016 A 
HETATM    3  C3  UNL     1     -35.030  16.128  -2.942  1.00 20.00     0.041 C 
HETATM    4  C4  UNL     1     -33.500  17.094  -5.177  1.00 20.00     0.169 C 
HETATM    5  C5  UNL     1     -36.298  14.469  -4.475  1.00 20.00     0.009 A 
HETATM    6  C6  UNL     1     -33.645  16.773  -2.833  1.00 20.00     0.118 C 
HETATM    7  C7  UNL     1     -35.197  15.499  -4.309  1.00 20.00    -0.031 A 
HETATM    8  C8  UNL     1     -33.489  17.515  -1.513  1.00 20.00     0.039 C 
HETATM    9  O10 UNL     1     -33.467  17.722  -3.893  1.00 20.00    -0.386 OA
ENDROOT
BRANCH   5  10
HETATM   10  C9  UNL     1     -37.123  14.365  -5.712  1.00 20.00     0.120 C 
HETATM   11 CL11 UNL     1     -38.851  14.643  -5.362  1.00 20.00    -0.130 Cl
ENDBRANCH   5  10
TORSDOF 1
ENDMDL
