MODEL 1
REMARK VINA RESULT:      -5.4      0.000      0.000
REMARK  1 active torsions:
REMARK  status: ('A' for Active; 'I' for Inactive)
REMARK    1  A    between atoms: C5_5  and  C10_10 
ROOT
HETATM    1  C1  UNL     1     -32.575   7.615   4.202  1.00 20.00     0.036 C 
HETATM    2  C2  UNL     1     -33.158   5.739   2.488  1.00 20.00     0.016 A 
HETATM    3  C3  UNL     1     -33.606   8.269   2.006  1.00 20.00     0.047 C 
HETATM    4  C4  UNL     1     -31.313   8.341   3.755  1.00 20.00     0.169 C 
HETATM    5  C5  UNL     1     -34.455   6.113   3.153  1.00 20.00     0.009 A 
HETATM    6  C6  UNL     1     -33.357   7.152   2.997  1.00 20.00    -0.031 A 
HETATM    7  C7  UNL     1     -32.309   9.031   1.668  1.00 20.00     0.054 C 
HETATM    8  C8  UNL     1     -31.384   8.226   0.743  1.00 20.00     0.045 C 
HETATM    9  C9  UNL     1     -32.672  10.343   0.958  1.00 20.00     0.045 C 
HETATM   10  O11 UNL     1     -31.626   9.418   2.873  1.00 20.00    -0.381 OA
ENDROOT
BRANCH   5  11
HETATM   11  C10 UNL     1     -34.822   5.519   4.470  1.00 20.00     0.120 C 
HETATM   12 CL12 UNL     1     -34.128   3.885   4.657  1.00 20.00    -0.130 Cl
ENDBRANCH   5  11
TORSDOF 1
ENDMDL
MODEL 2
REMARK VINA RESULT:      -4.4     10.667     11.692
REMARK  1 active torsions:
REMARK  status: ('A' for Active; 'I' for Inactive)
REMARK    1  A    between atoms: C5_5  and  C10_10 
ROOT
HETATM    1  C1  UNL     1     -35.379  17.358  -1.631  1.00 20.00     0.036 C 
HETATM    2  C2  UNL     1     -33.349  18.595  -2.702  1.00 20.00     0.016 A 
HETATM    3  C3  UNL     1     -33.741  16.027  -2.995  1.00 20.00     0.047 C 
HETATM    4  C4  UNL     1     -36.419  17.059  -2.702  1.00 20.00     0.169 C 
HETATM    5  C5  UNL     1     -32.816  17.904  -1.476  1.00 20.00     0.009 A 
HETATM    6  C6  UNL     1     -33.994  17.308  -2.229  1.00 20.00    -0.031 A 
HETATM    7  C7  UNL     1     -34.876  15.726  -3.993  1.00 20.00     0.054 C 
HETATM    8  C8  UNL     1     -34.825  16.639  -5.227  1.00 20.00     0.045 C 
HETATM    9  C9  UNL     1     -34.750  14.271  -4.469  1.00 20.00     0.045 C 
HETATM   10  O11 UNL     1     -36.155  15.810  -3.340  1.00 20.00    -0.381 OA
ENDROOT
BRANCH   5  11
HETATM   11  C10 UNL     1     -32.955  18.541  -0.136  1.00 20.00     0.120 C 
HETATM   12 CL12 UNL     1     -31.368  18.710   0.666  1.00 20.00    -0.130 Cl
ENDBRANCH   5  11
TORSDOF 1
ENDMDL
MODEL 3
REMARK VINA RESULT:      -4.4      2.800      4.648
REMARK  1 active torsions:
REMARK  status: ('A' for Active; 'I' for Inactive)
REMARK    1  A    between atoms: C5_5  and  C10_10 
ROOT
HETATM    1  C1  UNL     1     -32.644   7.875   4.345  1.00 20.00     0.036 C 
HETATM    2  C2  UNL     1     -33.876   8.146   2.063  1.00 20.00     0.016 A 
HETATM    3  C3  UNL     1     -33.255   5.808   3.053  1.00 20.00     0.047 C 
HETATM    4  C4  UNL     1     -33.636   7.427   5.410  1.00 20.00     0.169 C 
HETATM    5  C5  UNL     1     -32.435   7.871   1.728  1.00 20.00     0.009 A 
HETATM    6  C6  UNL     1     -33.038   7.305   3.003  1.00 20.00    -0.031 A 
HETATM    7  C7  UNL     1     -34.188   5.405   4.212  1.00 20.00     0.054 C 
HETATM    8  C8  UNL     1     -35.656   5.751   3.927  1.00 20.00     0.045 C 
HETATM    9  C9  UNL     1     -34.086   3.889   4.431  1.00 20.00     0.045 C 
HETATM   10  O11 UNL     1     -33.746   6.004   5.443  1.00 20.00    -0.381 OA
ENDROOT
BRANCH   5  11
HETATM   11  C10 UNL     1     -31.440   8.980   1.730  1.00 20.00     0.120 C 
HETATM   12 CL12 UNL     1     -32.162  10.498   1.128  1.00 20.00    -0.130 Cl
ENDBRANCH   5  11
TORSDOF 1
ENDMDL
MODEL 4
REMARK VINA RESULT:      -4.4     10.672     11.744
REMARK  1 active torsions:
REMARK  status: ('A' for Active; 'I' for Inactive)
REMARK    1  A    between atoms: C5_5  and  C10_10 
ROOT
HETATM    1  C1  UNL     1     -33.467  17.371  -4.527  1.00 20.00     0.036 C 
HETATM    2  C2  UNL     1     -35.656  16.397  -3.498  1.00 20.00     0.016 A 
HETATM    3  C3  UNL     1     -33.546  16.937  -2.053  1.00 20.00     0.047 C 
HETATM    4  C4  UNL     1     -33.366  18.855  -4.200  1.00 20.00     0.169 C 
HETATM    5  C5  UNL     1     -34.703  15.239  -3.622  1.00 20.00     0.009 A 
HETATM    6  C6  UNL     1     -34.164  16.643  -3.403  1.00 20.00    -0.031 A 
HETATM    7  C7  UNL     1     -33.377  18.451  -1.821  1.00 20.00     0.054 C 
HETATM    8  C8  UNL     1     -34.711  19.148  -1.518  1.00 20.00     0.045 C 
HETATM    9  C9  UNL     1     -32.440  18.671  -0.624  1.00 20.00     0.045 C 
HETATM   10  O11 UNL     1     -32.719  19.061  -2.945  1.00 20.00    -0.381 OA
ENDROOT
BRANCH   5  11
HETATM   11  C10 UNL     1     -34.566  14.516  -4.918  1.00 20.00     0.120 C 
HETATM   12 CL12 UNL     1     -35.923  13.384  -5.174  1.00 20.00    -0.130 Cl
ENDBRANCH   5  11
TORSDOF 1
ENDMDL
MODEL 5
REMARK VINA RESULT:      -4.3     10.855     11.667
REMARK  1 active torsions:
REMARK  status: ('A' for Active; 'I' for Inactive)
REMARK    1  A    between atoms: C5_5  and  C10_10 
ROOT
HETATM    1  C1  UNL     1     -35.641  17.745  -3.898  1.00 20.00     0.036 C 
HETATM    2  C2  UNL     1     -33.777  17.064  -2.208  1.00 20.00     0.016 A 
HETATM    3  C3  UNL     1     -34.974  15.327  -3.752  1.00 20.00     0.047 C 
HETATM    4  C4  UNL     1     -35.073  17.752  -5.311  1.00 20.00     0.169 C 
HETATM    5  C5  UNL     1     -35.082  16.693  -1.559  1.00 20.00     0.009 A 
HETATM    6  C6  UNL     1     -34.959  16.681  -3.074  1.00 20.00    -0.031 A 
HETATM    7  C7  UNL     1     -34.482  15.414  -5.209  1.00 20.00     0.054 C 
HETATM    8  C8  UNL     1     -32.961  15.601  -5.302  1.00 20.00     0.045 C 
HETATM    9  C9  UNL     1     -34.851  14.114  -5.939  1.00 20.00     0.045 C 
HETATM   10  O11 UNL     1     -35.175  16.462  -5.911  1.00 20.00    -0.381 OA
ENDROOT
BRANCH   5  11
HETATM   11  C10 UNL     1     -35.873  17.720  -0.823  1.00 20.00     0.120 C 
HETATM   12 CL12 UNL     1     -35.796  17.453   0.941  1.00 20.00    -0.130 Cl
ENDBRANCH   5  11
TORSDOF 1
ENDMDL
MODEL 6
REMARK VINA RESULT:      -4.3     10.902     11.862
REMARK  1 active torsions:
REMARK  status: ('A' for Active; 'I' for Inactive)
REMARK    1  A    between atoms: C5_5  and  C10_10 
ROOT
HETATM    1  C1  UNL     1     -34.524  17.968  -4.094  1.00 20.00     0.036 C 
HETATM    2  C2  UNL     1     -34.700  15.427  -3.534  1.00 20.00     0.016 A 
HETATM    3  C3  UNL     1     -33.384  17.109  -2.026  1.00 20.00     0.047 C 
HETATM    4  C4  UNL     1     -35.451  18.758  -3.180  1.00 20.00     0.169 C 
HETATM    5  C5  UNL     1     -33.338  15.626  -4.143  1.00 20.00     0.009 A 
HETATM    6  C6  UNL     1     -33.993  16.757  -3.366  1.00 20.00    -0.031 A 
HETATM    7  C7  UNL     1     -34.328  17.992  -1.186  1.00 20.00     0.054 C 
HETATM    8  C8  UNL     1     -35.504  17.197  -0.602  1.00 20.00     0.045 C 
HETATM    9  C9  UNL     1     -33.536  18.601  -0.020  1.00 20.00     0.045 C 
HETATM   10  O11 UNL     1     -34.795  19.109  -1.963  1.00 20.00    -0.381 OA
ENDROOT
BRANCH   5  11
HETATM   11  C10 UNL     1     -33.176  15.654  -5.624  1.00 20.00     0.120 C 
HETATM   12 CL12 UNL     1     -34.194  14.415  -6.410  1.00 20.00    -0.130 Cl
ENDBRANCH   5  11
TORSDOF 1
ENDMDL
MODEL 7
REMARK VINA RESULT:      -4.3     10.340     11.812
REMARK  1 active torsions:
REMARK  status: ('A' for Active; 'I' for Inactive)
REMARK    1  A    between atoms: C5_5  and  C10_10 
ROOT
HETATM    1  C1  UNL     1     -34.233  14.756  -3.720  1.00 20.00     0.036 C 
HETATM    2  C2  UNL     1     -35.122  17.176  -4.110  1.00 20.00     0.016 A 
HETATM    3  C3  UNL     1     -33.653  15.920  -5.870  1.00 20.00     0.047 C 
HETATM    4  C4  UNL     1     -35.051  13.772  -4.546  1.00 20.00     0.169 C 
HETATM    5  C5  UNL     1     -33.682  17.323  -3.698  1.00 20.00     0.009 A 
HETATM    6  C6  UNL     1     -34.134  16.077  -4.443  1.00 20.00    -0.031 A 
HETATM    7  C7  UNL     1     -34.452  14.840  -6.626  1.00 20.00     0.054 C 
HETATM    8  C8  UNL     1     -35.862  15.317  -7.004  1.00 20.00     0.045 C 
HETATM    9  C9  UNL     1     -33.706  14.479  -7.918  1.00 20.00     0.045 C 
HETATM   10  O11 UNL     1     -34.507  13.626  -5.857  1.00 20.00    -0.381 OA
ENDROOT
BRANCH   5  11
HETATM   11  C10 UNL     1     -33.309  17.308  -2.256  1.00 20.00     0.120 C 
HETATM   12 CL12 UNL     1     -34.759  17.295  -1.214  1.00 20.00    -0.130 Cl
ENDBRANCH   5  11
TORSDOF 1
ENDMDL
MODEL 8
REMARK VINA RESULT:      -4.3     10.858     12.167
REMARK  1 active torsions:
REMARK  status: ('A' for Active; 'I' for Inactive)
REMARK    1  A    between atoms: C5_5  and  C10_10 
ROOT
HETATM    1  C1  UNL     1     -34.007  16.895  -5.689  1.00 20.00     0.036 C 
HETATM    2  C2  UNL     1     -33.451  14.765  -4.291  1.00 20.00     0.016 A 
HETATM    3  C3  UNL     1     -35.652  14.995  -5.683  1.00 20.00     0.047 C 
HETATM    4  C4  UNL     1     -33.778  16.610  -7.167  1.00 20.00     0.169 C 
HETATM    5  C5  UNL     1     -34.435  15.556  -3.471  1.00 20.00     0.009 A 
HETATM    6  C6  UNL     1     -34.472  15.641  -4.989  1.00 20.00    -0.031 A 
HETATM    7  C7  UNL     1     -35.401  14.823  -7.194  1.00 20.00     0.054 C 
HETATM    8  C8  UNL     1     -34.418  13.682  -7.496  1.00 20.00     0.045 C 
HETATM    9  C9  UNL     1     -36.733  14.505  -7.888  1.00 20.00     0.045 C 
HETATM   10  O11 UNL     1     -34.948  16.061  -7.772  1.00 20.00    -0.381 OA
ENDROOT
BRANCH   5  11
HETATM   11  C10 UNL     1     -33.964  16.679  -2.613  1.00 20.00     0.120 C 
HETATM   12 CL12 UNL     1     -35.068  16.945  -1.234  1.00 20.00    -0.130 Cl
ENDBRANCH   5  11
TORSDOF 1
ENDMDL
MODEL 9
REMARK VINA RESULT:      -4.1     10.707     11.584
REMARK  1 active torsions:
REMARK  status: ('A' for Active; 'I' for Inactive)
REMARK    1  A    between atoms: C5_5  and  C10_10 
ROOT
HETATM    1  C1  UNL     1     -32.966  17.615  -2.088  1.00 20.00     0.036 C 
HETATM    2  C2  UNL     1     -34.969  17.866  -3.738  1.00 20.00     0.016 A 
HETATM    3  C3  UNL     1     -35.250  16.900  -1.325  1.00 20.00     0.047 C 
HETATM    4  C4  UNL     1     -33.028  18.716  -1.038  1.00 20.00     0.169 C 
HETATM    5  C5  UNL     1     -34.580  16.413  -3.774  1.00 20.00     0.009 A 
HETATM    6  C6  UNL     1     -34.362  17.224  -2.507  1.00 20.00    -0.031 A 
HETATM    7  C7  UNL     1     -35.195  18.004  -0.251  1.00 20.00     0.054 C 
HETATM    8  C8  UNL     1     -35.969  19.263  -0.667  1.00 20.00     0.045 C 
HETATM    9  C9  UNL     1     -35.815  17.468   1.048  1.00 20.00     0.045 C 
HETATM   10  O11 UNL     1     -33.830  18.320   0.074  1.00 20.00    -0.381 OA
ENDROOT
BRANCH   5  11
HETATM   11  C10 UNL     1     -33.457  15.959  -4.643  1.00 20.00     0.120 C 
HETATM   12 CL12 UNL     1     -33.006  14.269  -4.286  1.00 20.00    -0.130 Cl
ENDBRANCH   5  11
TORSDOF 1
ENDMDL
