MODEL 1
REMARK VINA RESULT:      -4.8      0.000      0.000
REMARK  2 active torsions:
REMARK  status: ('A' for Active; 'I' for Inactive)
REMARK    1  A    between atoms: C4_4  and  C6_6 
REMARK    2  A    between atoms: C7_7  and  C8_8 
ROOT
HETATM    1  C1  UNL     1     -34.123   5.850   2.944  1.00 20.00     0.034 A 
HETATM    2  C2  UNL     1     -35.120   5.708   3.881  1.00 20.00     0.142 A 
HETATM    3  C3  UNL     1     -33.658   7.069   4.753  1.00 20.00     0.148 A 
HETATM    4  C4  UNL     1     -33.174   6.733   3.510  1.00 20.00    -0.029 A 
HETATM    5  O9  UNL     1     -34.843   6.447   4.987  1.00 20.00    -0.334 OA
ENDROOT
BRANCH   4   6
HETATM    6  C6  UNL     1     -31.863   7.221   2.868  1.00 20.00     0.026 A 
HETATM    7  C5  UNL     1     -31.299   8.556   3.306  1.00 20.00     0.016 A 
HETATM    8  C7  UNL     1     -31.863   8.409   1.924  1.00 20.00     0.005 A 
BRANCH   8   9
HETATM    9  C8  UNL     1     -33.110   9.132   1.545  1.00 20.00     0.090 C 
HETATM   10 BR10 UNL     1     -33.137   9.488  -0.373  1.00 20.00    -0.096 Br
ENDBRANCH   8   9
ENDBRANCH   4   6
TORSDOF 2
ENDMDL
MODEL 2
REMARK VINA RESULT:      -4.1     10.715     11.322
REMARK  2 active torsions:
REMARK  status: ('A' for Active; 'I' for Inactive)
REMARK    1  A    between atoms: C4_4  and  C6_6 
REMARK    2  A    between atoms: C7_7  and  C8_8 
ROOT
HETATM    1  C1  UNL     1     -36.675  15.475  -4.073  1.00 20.00     0.034 A 
HETATM    2  C2  UNL     1     -37.883  15.017  -4.546  1.00 20.00     0.142 A 
HETATM    3  C3  UNL     1     -36.385  13.588  -5.228  1.00 20.00     0.148 A 
HETATM    4  C4  UNL     1     -35.703  14.547  -4.516  1.00 20.00    -0.029 A 
HETATM    5  O9  UNL     1     -37.715  13.869  -5.252  1.00 20.00    -0.334 OA
ENDROOT
BRANCH   4   6
HETATM    6  C6  UNL     1     -34.187  14.597  -4.257  1.00 20.00     0.026 A 
HETATM    7  C5  UNL     1     -33.566  15.919  -3.858  1.00 20.00     0.016 A 
HETATM    8  C7  UNL     1     -33.266  15.338  -5.208  1.00 20.00     0.005 A 
BRANCH   8   9
HETATM    9  C8  UNL     1     -33.763  16.016  -6.440  1.00 20.00     0.090 C 
HETATM   10 BR10 UNL     1     -33.905  14.741  -7.910  1.00 20.00    -0.096 Br
ENDBRANCH   8   9
ENDBRANCH   4   6
TORSDOF 2
ENDMDL
MODEL 3
REMARK VINA RESULT:      -4.0      2.828      4.155
REMARK  2 active torsions:
REMARK  status: ('A' for Active; 'I' for Inactive)
REMARK    1  A    between atoms: C4_4  and  C6_6 
REMARK    2  A    between atoms: C7_7  and  C8_8 
ROOT
HETATM    1  C1  UNL     1     -32.893   8.303   1.422  1.00 20.00     0.034 A 
HETATM    2  C2  UNL     1     -32.337   9.548   1.603  1.00 20.00     0.142 A 
HETATM    3  C3  UNL     1     -31.595   8.310   3.236  1.00 20.00     0.148 A 
HETATM    4  C4  UNL     1     -32.411   7.499   2.482  1.00 20.00    -0.029 A 
HETATM    5  O9  UNL     1     -31.546   9.561   2.708  1.00 20.00    -0.334 OA
ENDROOT
BRANCH   4   6
HETATM    6  C6  UNL     1     -32.732   6.017   2.742  1.00 20.00     0.026 A 
HETATM    7  C5  UNL     1     -34.018   5.448   2.182  1.00 20.00     0.016 A 
HETATM    8  C7  UNL     1     -33.873   5.626   3.664  1.00 20.00     0.005 A 
BRANCH   8   9
HETATM    9  C8  UNL     1     -34.706   6.634   4.381  1.00 20.00     0.090 C 
HETATM   10 BR10 UNL     1     -33.833   7.189   6.035  1.00 20.00    -0.096 Br
ENDBRANCH   8   9
ENDBRANCH   4   6
TORSDOF 2
ENDMDL
MODEL 4
REMARK VINA RESULT:      -4.0      3.067      4.390
REMARK  2 active torsions:
REMARK  status: ('A' for Active; 'I' for Inactive)
REMARK    1  A    between atoms: C4_4  and  C6_6 
REMARK    2  A    between atoms: C7_7  and  C8_8 
ROOT
HETATM    1  C1  UNL     1     -33.393   9.901   0.980  1.00 20.00     0.034 A 
HETATM    2  C2  UNL     1     -33.182   9.810  -0.377  1.00 20.00     0.142 A 
HETATM    3  C3  UNL     1     -31.599   8.643   0.563  1.00 20.00     0.148 A 
HETATM    4  C4  UNL     1     -32.365   9.144   1.589  1.00 20.00    -0.029 A 
HETATM    5  O9  UNL     1     -32.090   9.046  -0.639  1.00 20.00    -0.334 OA
ENDROOT
BRANCH   4   6
HETATM    6  C6  UNL     1     -32.145   8.923   3.096  1.00 20.00     0.026 A 
HETATM    7  C5  UNL     1     -31.125   7.894   3.533  1.00 20.00     0.016 A 
HETATM    8  C7  UNL     1     -32.584   7.630   3.758  1.00 20.00     0.005 A 
BRANCH   8   9
HETATM    9  C8  UNL     1     -33.270   6.539   3.010  1.00 20.00     0.090 C 
HETATM   10 BR10 UNL     1     -34.737   5.804   4.066  1.00 20.00    -0.096 Br
ENDBRANCH   8   9
ENDBRANCH   4   6
TORSDOF 2
ENDMDL
MODEL 5
REMARK VINA RESULT:      -3.9     10.678     11.596
REMARK  2 active torsions:
REMARK  status: ('A' for Active; 'I' for Inactive)
REMARK    1  A    between atoms: C4_4  and  C6_6 
REMARK    2  A    between atoms: C7_7  and  C8_8 
ROOT
HETATM    1  C1  UNL     1     -34.352  13.974  -6.647  1.00 20.00     0.034 A 
HETATM    2  C2  UNL     1     -35.387  13.068  -6.703  1.00 20.00     0.142 A 
HETATM    3  C3  UNL     1     -35.233  13.686  -4.618  1.00 20.00     0.148 A 
HETATM    4  C4  UNL     1     -34.253  14.374  -5.294  1.00 20.00    -0.029 A 
HETATM    5  O9  UNL     1     -35.928  12.886  -5.470  1.00 20.00    -0.334 OA
ENDROOT
BRANCH   4   6
HETATM    6  C6  UNL     1     -33.251  15.377  -4.694  1.00 20.00     0.026 A 
HETATM    7  C5  UNL     1     -33.673  16.184  -3.486  1.00 20.00     0.016 A 
HETATM    8  C7  UNL     1     -33.494  16.870  -4.807  1.00 20.00     0.005 A 
BRANCH   8   9
HETATM    9  C8  UNL     1     -34.674  17.439  -5.519  1.00 20.00     0.090 C 
HETATM   10 BR10 UNL     1     -34.201  17.912  -7.352  1.00 20.00    -0.096 Br
ENDBRANCH   8   9
ENDBRANCH   4   6
TORSDOF 2
ENDMDL
MODEL 6
REMARK VINA RESULT:      -3.9     10.522     11.464
REMARK  2 active torsions:
REMARK  status: ('A' for Active; 'I' for Inactive)
REMARK    1  A    between atoms: C4_4  and  C6_6 
REMARK    2  A    between atoms: C7_7  and  C8_8 
ROOT
HETATM    1  C1  UNL     1     -34.378  13.988  -6.665  1.00 20.00     0.034 A 
HETATM    2  C2  UNL     1     -35.395  13.062  -6.690  1.00 20.00     0.142 A 
HETATM    3  C3  UNL     1     -35.202  13.695  -4.614  1.00 20.00     0.148 A 
HETATM    4  C4  UNL     1     -34.253  14.399  -5.317  1.00 20.00    -0.029 A 
HETATM    5  O9  UNL     1     -35.902  12.876  -5.443  1.00 20.00    -0.334 OA
ENDROOT
BRANCH   4   6
HETATM    6  C6  UNL     1     -33.257  15.425  -4.748  1.00 20.00     0.026 A 
HETATM    7  C5  UNL     1     -33.633  16.173  -3.487  1.00 20.00     0.016 A 
HETATM    8  C7  UNL     1     -33.570  16.909  -4.792  1.00 20.00     0.005 A 
BRANCH   8   9
HETATM    9  C8  UNL     1     -34.817  17.447  -5.407  1.00 20.00     0.090 C 
HETATM   10 BR10 UNL     1     -36.224  17.611  -4.065  1.00 20.00    -0.096 Br
ENDBRANCH   8   9
ENDBRANCH   4   6
TORSDOF 2
ENDMDL
MODEL 7
REMARK VINA RESULT:      -3.8      1.342      2.428
REMARK  2 active torsions:
REMARK  status: ('A' for Active; 'I' for Inactive)
REMARK    1  A    between atoms: C4_4  and  C6_6 
REMARK    2  A    between atoms: C7_7  and  C8_8 
ROOT
HETATM    1  C1  UNL     1     -33.751   7.320   4.969  1.00 20.00     0.034 A 
HETATM    2  C2  UNL     1     -34.052   7.137   6.299  1.00 20.00     0.142 A 
HETATM    3  C3  UNL     1     -34.737   5.342   5.269  1.00 20.00     0.148 A 
HETATM    4  C4  UNL     1     -34.195   6.155   4.301  1.00 20.00    -0.029 A 
HETATM    5  O9  UNL     1     -34.655   5.934   6.490  1.00 20.00    -0.334 OA
ENDROOT
BRANCH   4   6
HETATM    6  C6  UNL     1     -34.096   5.854   2.795  1.00 20.00     0.026 A 
HETATM    7  C5  UNL     1     -32.861   5.148   2.280  1.00 20.00     0.016 A 
HETATM    8  C7  UNL     1     -33.090   6.588   1.928  1.00 20.00     0.005 A 
BRANCH   8   9
HETATM    9  C8  UNL     1     -32.185   7.642   2.466  1.00 20.00     0.090 C 
HETATM   10 BR10 UNL     1     -32.278   9.250   1.365  1.00 20.00    -0.096 Br
ENDBRANCH   8   9
ENDBRANCH   4   6
TORSDOF 2
ENDMDL
MODEL 8
REMARK VINA RESULT:      -3.8     11.201     11.896
REMARK  2 active torsions:
REMARK  status: ('A' for Active; 'I' for Inactive)
REMARK    1  A    between atoms: C4_4  and  C6_6 
REMARK    2  A    between atoms: C7_7  and  C8_8 
ROOT
HETATM    1  C1  UNL     1     -33.269  15.365  -4.100  1.00 20.00     0.034 A 
HETATM    2  C2  UNL     1     -32.998  15.663  -5.415  1.00 20.00     0.142 A 
HETATM    3  C3  UNL     1     -34.378  17.199  -4.718  1.00 20.00     0.148 A 
HETATM    4  C4  UNL     1     -34.165  16.362  -3.647  1.00 20.00    -0.029 A 
HETATM    5  O9  UNL     1     -33.671  16.779  -5.800  1.00 20.00    -0.334 OA
ENDROOT
BRANCH   4   6
HETATM    6  C6  UNL     1     -34.781  16.487  -2.243  1.00 20.00     0.026 A 
HETATM    7  C5  UNL     1     -35.420  17.801  -1.849  1.00 20.00     0.016 A 
HETATM    8  C7  UNL     1     -34.138  17.378  -1.196  1.00 20.00     0.005 A 
BRANCH   8   9
HETATM    9  C8  UNL     1     -32.882  18.139  -1.453  1.00 20.00     0.090 C 
HETATM   10 BR10 UNL     1     -32.085  18.728   0.228  1.00 20.00    -0.096 Br
ENDBRANCH   8   9
ENDBRANCH   4   6
TORSDOF 2
ENDMDL
MODEL 9
REMARK VINA RESULT:      -3.7     10.576     11.511
REMARK  2 active torsions:
REMARK  status: ('A' for Active; 'I' for Inactive)
REMARK    1  A    between atoms: C4_4  and  C6_6 
REMARK    2  A    between atoms: C7_7  and  C8_8 
ROOT
HETATM    1  C1  UNL     1     -36.421  15.194  -6.434  1.00 20.00     0.034 A 
HETATM    2  C2  UNL     1     -37.598  14.631  -5.999  1.00 20.00     0.142 A 
HETATM    3  C3  UNL     1     -36.007  13.653  -4.875  1.00 20.00     0.148 A 
HETATM    4  C4  UNL     1     -35.388  14.559  -5.705  1.00 20.00    -0.029 A 
HETATM    5  O9  UNL     1     -37.355  13.690  -5.050  1.00 20.00    -0.334 OA
ENDROOT
BRANCH   4   6
HETATM    6  C6  UNL     1     -33.877  14.824  -5.815  1.00 20.00     0.026 A 
HETATM    7  C5  UNL     1     -33.030  14.706  -4.565  1.00 20.00     0.016 A 
HETATM    8  C7  UNL     1     -33.262  16.056  -5.176  1.00 20.00     0.005 A 
BRANCH   8   9
HETATM    9  C8  UNL     1     -34.075  17.074  -4.452  1.00 20.00     0.090 C 
HETATM   10 BR10 UNL     1     -34.030  16.742  -2.529  1.00 20.00    -0.096 Br
ENDBRANCH   8   9
ENDBRANCH   4   6
TORSDOF 2
ENDMDL
