MODEL 1
REMARK VINA RESULT:      -4.5      0.000      0.000
REMARK  2 active torsions:
REMARK  status: ('A' for Active; 'I' for Inactive)
REMARK    1  A    between atoms: C2_2  and  C6_6 
REMARK    2  A    between atoms: C7_7  and  C10_10 
ROOT
HETATM    1  C1  UNL     1     -32.224  18.809   0.832  1.00 20.00     0.022 A 
HETATM    2  C2  UNL     1     -33.568  18.500   0.474  1.00 20.00    -0.040 A 
HETATM    3  C3  UNL     1     -32.057  18.883   2.197  1.00 20.00    -0.020 A 
HETATM    4  C4  UNL     1     -34.377  18.348   1.579  1.00 20.00    -0.014 A 
HETATM    5  C8  UNL     1     -30.823  19.180   2.958  1.00 20.00     0.056 C 
HETATM    6  C9  UNL     1     -35.820  18.028   1.638  1.00 20.00     0.057 C 
HETATM    7  S11 UNL     1     -33.516  18.580   3.041  1.00 20.00    -0.100 SA
ENDROOT
BRANCH   2   8
HETATM    8  C6  UNL     1     -34.041  18.357  -0.955  1.00 20.00     0.025 A 
HETATM    9  C5  UNL     1     -33.064  17.977  -2.046  1.00 20.00     0.016 A 
HETATM   10  C7  UNL     1     -34.098  16.986  -1.598  1.00 20.00     0.008 A 
BRANCH  10  11
HETATM   11  C10 UNL     1     -35.232  16.630  -2.496  1.00 20.00     0.119 C 
HETATM   12 CL12 UNL     1     -34.775  15.330  -3.631  1.00 20.00    -0.130 Cl
ENDBRANCH  10  11
ENDBRANCH   2   8
TORSDOF 2
ENDMDL
MODEL 2
REMARK VINA RESULT:      -4.3      1.852      3.356
REMARK  2 active torsions:
REMARK  status: ('A' for Active; 'I' for Inactive)
REMARK    1  A    between atoms: C2_2  and  C6_6 
REMARK    2  A    between atoms: C7_7  and  C10_10 
ROOT
HETATM    1  C1  UNL     1     -35.581  17.331  -0.487  1.00 20.00     0.022 A 
HETATM    2  C2  UNL     1     -34.264  17.439  -1.021  1.00 20.00    -0.040 A 
HETATM    3  C3  UNL     1     -35.716  18.022   0.697  1.00 20.00    -0.020 A 
HETATM    4  C4  UNL     1     -33.444  18.208  -0.226  1.00 20.00    -0.014 A 
HETATM    5  C8  UNL     1     -36.915  18.153   1.555  1.00 20.00     0.056 C 
HETATM    6  C9  UNL     1     -32.021  18.560  -0.424  1.00 20.00     0.057 C 
HETATM    7  S11 UNL     1     -34.260  18.796   1.160  1.00 20.00    -0.100 SA
ENDROOT
BRANCH   2   8
HETATM    8  C6  UNL     1     -33.830  16.781  -2.311  1.00 20.00     0.025 A 
HETATM    9  C5  UNL     1     -34.806  15.939  -3.103  1.00 20.00     0.016 A 
HETATM   10  C7  UNL     1     -34.379  17.276  -3.633  1.00 20.00     0.008 A 
BRANCH  10  11
HETATM   11  C10 UNL     1     -33.491  17.360  -4.826  1.00 20.00     0.119 C 
HETATM   12 CL12 UNL     1     -33.036  15.736  -5.411  1.00 20.00    -0.130 Cl
ENDBRANCH  10  11
ENDBRANCH   2   8
TORSDOF 2
ENDMDL
MODEL 3
REMARK VINA RESULT:      -4.2     11.262     11.856
REMARK  2 active torsions:
REMARK  status: ('A' for Active; 'I' for Inactive)
REMARK    1  A    between atoms: C2_2  and  C6_6 
REMARK    2  A    between atoms: C7_7  and  C10_10 
ROOT
HETATM    1  C1  UNL     1     -33.358   5.823   3.093  1.00 20.00     0.022 A 
HETATM    2  C2  UNL     1     -33.295   7.026   3.854  1.00 20.00    -0.040 A 
HETATM    3  C3  UNL     1     -33.892   4.780   3.818  1.00 20.00    -0.020 A 
HETATM    4  C4  UNL     1     -33.783   6.858   5.131  1.00 20.00    -0.014 A 
HETATM    5  C8  UNL     1     -34.121   3.383   3.389  1.00 20.00     0.056 C 
HETATM    6  C9  UNL     1     -33.891   7.850   6.223  1.00 20.00     0.057 C 
HETATM    7  S11 UNL     1     -34.313   5.253   5.409  1.00 20.00    -0.100 SA
ENDROOT
BRANCH   2   8
HETATM    8  C6  UNL     1     -32.753   8.329   3.312  1.00 20.00     0.025 A 
HETATM    9  C5  UNL     1     -31.285   8.463   2.974  1.00 20.00     0.016 A 
HETATM   10  C7  UNL     1     -32.299   8.417   1.870  1.00 20.00     0.008 A 
BRANCH  10  11
HETATM   11  C10 UNL     1     -32.589   9.639   1.069  1.00 20.00     0.119 C 
HETATM   12 CL12 UNL     1     -33.129   9.219  -0.581  1.00 20.00    -0.130 Cl
ENDBRANCH  10  11
ENDBRANCH   2   8
TORSDOF 2
ENDMDL
MODEL 4
REMARK VINA RESULT:      -4.2      2.601      4.183
REMARK  2 active torsions:
REMARK  status: ('A' for Active; 'I' for Inactive)
REMARK    1  A    between atoms: C2_2  and  C6_6 
REMARK    2  A    between atoms: C7_7  and  C10_10 
ROOT
HETATM    1  C1  UNL     1     -33.673  17.004  -2.077  1.00 20.00     0.022 A 
HETATM    2  C2  UNL     1     -34.699  16.681  -3.011  1.00 20.00    -0.040 A 
HETATM    3  C3  UNL     1     -34.135  17.813  -1.061  1.00 20.00    -0.020 A 
HETATM    4  C4  UNL     1     -35.905  17.254  -2.674  1.00 20.00    -0.014 A 
HETATM    5  C8  UNL     1     -33.385  18.362   0.090  1.00 20.00     0.056 C 
HETATM    6  C9  UNL     1     -37.205  17.164  -3.376  1.00 20.00     0.057 C 
HETATM    7  S11 UNL     1     -35.798  18.179  -1.237  1.00 20.00    -0.100 SA
ENDROOT
BRANCH   2   8
HETATM    8  C6  UNL     1     -34.478  15.810  -4.226  1.00 20.00     0.025 A 
HETATM    9  C5  UNL     1     -33.406  14.743  -4.214  1.00 20.00     0.016 A 
HETATM   10  C7  UNL     1     -34.851  14.342  -4.182  1.00 20.00     0.008 A 
BRANCH  10  11
HETATM   11  C10 UNL     1     -35.475  13.694  -5.369  1.00 20.00     0.119 C 
HETATM   12 CL12 UNL     1     -37.227  14.031  -5.445  1.00 20.00    -0.130 Cl
ENDBRANCH  10  11
ENDBRANCH   2   8
TORSDOF 2
ENDMDL
MODEL 5
REMARK VINA RESULT:      -4.2      1.786      2.469
REMARK  2 active torsions:
REMARK  status: ('A' for Active; 'I' for Inactive)
REMARK    1  A    between atoms: C2_2  and  C6_6 
REMARK    2  A    between atoms: C7_7  and  C10_10 
ROOT
HETATM    1  C1  UNL     1     -32.724  17.892  -1.379  1.00 20.00     0.022 A 
HETATM    2  C2  UNL     1     -34.065  17.676  -1.810  1.00 20.00    -0.040 A 
HETATM    3  C3  UNL     1     -32.670  18.440  -0.116  1.00 20.00    -0.020 A 
HETATM    4  C4  UNL     1     -34.984  18.066  -0.861  1.00 20.00    -0.014 A 
HETATM    5  C8  UNL     1     -31.476  18.811   0.675  1.00 20.00     0.056 C 
HETATM    6  C9  UNL     1     -36.461  18.009  -0.918  1.00 20.00     0.057 C 
HETATM    7  S11 UNL     1     -34.230  18.693   0.544  1.00 20.00    -0.100 SA
ENDROOT
BRANCH   2   8
HETATM    8  C6  UNL     1     -34.426  17.086  -3.154  1.00 20.00     0.025 A 
HETATM    9  C5  UNL     1     -33.524  16.059  -3.802  1.00 20.00     0.016 A 
HETATM   10  C7  UNL     1     -34.854  15.636  -3.253  1.00 20.00     0.008 A 
BRANCH  10  11
HETATM   11  C10 UNL     1     -35.955  15.244  -4.176  1.00 20.00     0.119 C 
HETATM   12 CL12 UNL     1     -35.657  13.637  -4.894  1.00 20.00    -0.130 Cl
ENDBRANCH  10  11
ENDBRANCH   2   8
TORSDOF 2
ENDMDL
MODEL 6
REMARK VINA RESULT:      -4.2      3.770      6.526
REMARK  2 active torsions:
REMARK  status: ('A' for Active; 'I' for Inactive)
REMARK    1  A    between atoms: C2_2  and  C6_6 
REMARK    2  A    between atoms: C7_7  and  C10_10 
ROOT
HETATM    1  C1  UNL     1     -36.275  15.935  -3.403  1.00 20.00     0.022 A 
HETATM    2  C2  UNL     1     -34.862  15.792  -3.291  1.00 20.00    -0.040 A 
HETATM    3  C3  UNL     1     -36.803  15.110  -4.372  1.00 20.00    -0.020 A 
HETATM    4  C4  UNL     1     -34.363  14.863  -4.178  1.00 20.00    -0.014 A 
HETATM    5  C8  UNL     1     -38.216  14.966  -4.788  1.00 20.00     0.056 C 
HETATM    6  C9  UNL     1     -32.964  14.427  -4.378  1.00 20.00     0.057 C 
HETATM    7  S11 UNL     1     -35.597  14.168  -5.142  1.00 20.00    -0.100 SA
ENDROOT
BRANCH   2   8
HETATM    8  C6  UNL     1     -34.018  16.573  -2.311  1.00 20.00     0.025 A 
HETATM    9  C5  UNL     1     -33.444  17.917  -2.701  1.00 20.00     0.016 A 
HETATM   10  C7  UNL     1     -34.558  17.850  -1.698  1.00 20.00     0.008 A 
BRANCH  10  11
HETATM   11  C10 UNL     1     -34.296  18.160  -0.265  1.00 20.00     0.119 C 
HETATM   12 CL12 UNL     1     -35.583  17.505   0.785  1.00 20.00    -0.130 Cl
ENDBRANCH  10  11
ENDBRANCH   2   8
TORSDOF 2
ENDMDL
MODEL 7
REMARK VINA RESULT:      -4.1      4.021      6.599
REMARK  2 active torsions:
REMARK  status: ('A' for Active; 'I' for Inactive)
REMARK    1  A    between atoms: C2_2  and  C6_6 
REMARK    2  A    between atoms: C7_7  and  C10_10 
ROOT
HETATM    1  C1  UNL     1     -35.392  15.399  -3.704  1.00 20.00     0.022 A 
HETATM    2  C2  UNL     1     -34.826  16.704  -3.796  1.00 20.00    -0.040 A 
HETATM    3  C3  UNL     1     -35.427  14.764  -4.926  1.00 20.00    -0.020 A 
HETATM    4  C4  UNL     1     -34.449  17.016  -5.083  1.00 20.00    -0.014 A 
HETATM    5  C8  UNL     1     -35.936  13.412  -5.247  1.00 20.00     0.056 C 
HETATM    6  C9  UNL     1     -33.829  18.257  -5.596  1.00 20.00     0.057 C 
HETATM    7  S11 UNL     1     -34.779  15.739  -6.177  1.00 20.00    -0.100 SA
ENDROOT
BRANCH   2   8
HETATM    8  C6  UNL     1     -34.663  17.628  -2.612  1.00 20.00     0.025 A 
HETATM    9  C5  UNL     1     -34.714  17.079  -1.203  1.00 20.00     0.016 A 
HETATM   10  C7  UNL     1     -33.408  17.559  -1.766  1.00 20.00     0.008 A 
BRANCH  10  11
HETATM   11  C10 UNL     1     -32.785  18.809  -1.250  1.00 20.00     0.119 C 
HETATM   12 CL12 UNL     1     -31.605  18.459   0.044  1.00 20.00    -0.130 Cl
ENDBRANCH  10  11
ENDBRANCH   2   8
TORSDOF 2
ENDMDL
MODEL 8
REMARK VINA RESULT:      -4.1      3.281      5.406
REMARK  2 active torsions:
REMARK  status: ('A' for Active; 'I' for Inactive)
REMARK    1  A    between atoms: C2_2  and  C6_6 
REMARK    2  A    between atoms: C7_7  and  C10_10 
ROOT
HETATM    1  C1  UNL     1     -35.834  16.974  -1.812  1.00 20.00     0.022 A 
HETATM    2  C2  UNL     1     -34.894  17.713  -1.038  1.00 20.00    -0.040 A 
HETATM    3  C3  UNL     1     -35.242  16.353  -2.890  1.00 20.00    -0.020 A 
HETATM    4  C4  UNL     1     -33.619  17.629  -1.552  1.00 20.00    -0.014 A 
HETATM    5  C8  UNL     1     -35.873  15.503  -3.924  1.00 20.00     0.056 C 
HETATM    6  C9  UNL     1     -32.372  18.245  -1.050  1.00 20.00     0.057 C 
HETATM    7  S11 UNL     1     -33.559  16.663  -2.966  1.00 20.00    -0.100 SA
ENDROOT
BRANCH   2   8
HETATM    8  C6  UNL     1     -35.264  18.494   0.202  1.00 20.00     0.025 A 
HETATM    9  C5  UNL     1     -36.503  18.131   0.990  1.00 20.00     0.016 A 
HETATM   10  C7  UNL     1     -35.148  17.845   1.566  1.00 20.00     0.008 A 
BRANCH  10  11
HETATM   11  C10 UNL     1     -34.646  18.632   2.727  1.00 20.00     0.119 C 
HETATM   12 CL12 UNL     1     -32.910  18.330   3.014  1.00 20.00    -0.130 Cl
ENDBRANCH  10  11
ENDBRANCH   2   8
TORSDOF 2
ENDMDL
MODEL 9
REMARK VINA RESULT:      -4.1      3.170      4.674
REMARK  2 active torsions:
REMARK  status: ('A' for Active; 'I' for Inactive)
REMARK    1  A    between atoms: C2_2  and  C6_6 
REMARK    2  A    between atoms: C7_7  and  C10_10 
ROOT
HETATM    1  C1  UNL     1     -34.701  16.507  -1.836  1.00 20.00     0.022 A 
HETATM    2  C2  UNL     1     -34.005  16.872  -3.025  1.00 20.00    -0.040 A 
HETATM    3  C3  UNL     1     -34.991  17.601  -1.051  1.00 20.00    -0.020 A 
HETATM    4  C4  UNL     1     -33.791  18.230  -3.103  1.00 20.00    -0.014 A 
HETATM    5  C8  UNL     1     -35.695  17.638   0.250  1.00 20.00     0.056 C 
HETATM    6  C9  UNL     1     -33.113  19.005  -4.166  1.00 20.00     0.057 C 
HETATM    7  S11 UNL     1     -34.426  19.060  -1.746  1.00 20.00    -0.100 SA
ENDROOT
BRANCH   2   8
HETATM    8  C6  UNL     1     -33.559  15.877  -4.071  1.00 20.00     0.025 A 
HETATM    9  C5  UNL     1     -34.276  14.553  -4.218  1.00 20.00     0.016 A 
HETATM   10  C7  UNL     1     -34.435  15.604  -5.277  1.00 20.00     0.008 A 
BRANCH  10  11
HETATM   11  C10 UNL     1     -33.820  15.414  -6.620  1.00 20.00     0.119 C 
HETATM   12 CL12 UNL     1     -34.234  13.816  -7.301  1.00 20.00    -0.130 Cl
ENDBRANCH  10  11
ENDBRANCH   2   8
TORSDOF 2
ENDMDL
