MODEL 1
REMARK VINA RESULT:      -5.3      0.000      0.000
REMARK  1 active torsions:
REMARK  status: ('A' for Active; 'I' for Inactive)
REMARK    1  A    between atoms: C6_6  and  C8_8 
ROOT
HETATM    1  C1  UNL     1     -33.390   4.733   3.199  1.00 20.00     0.011 C 
HETATM    2  C2  UNL     1     -33.432   6.033   2.396  1.00 20.00     0.011 C 
HETATM    3  C3  UNL     1     -31.820   7.701   3.576  1.00 20.00     0.017 A 
HETATM    4  C4  UNL     1     -34.455   4.668   4.286  1.00 20.00     0.074 C 
HETATM    5  C5  UNL     1     -34.287   7.412   4.350  1.00 20.00     0.083 C 
HETATM    6  C6  UNL     1     -32.688   8.536   2.677  1.00 20.00     0.009 A 
HETATM    7  C7  UNL     1     -33.236   7.249   3.280  1.00 20.00    -0.027 A 
HETATM    8  S9  UNL     1     -34.257   6.010   5.495  1.00 20.00    -0.168 SA
ENDROOT
BRANCH   6   9
HETATM    9  C8  UNL     1     -32.354   8.680   1.232  1.00 20.00     0.120 C 
HETATM   10 CL10 UNL     1     -32.572  10.365   0.683  1.00 20.00    -0.130 Cl
ENDBRANCH   6   9
TORSDOF 1
ENDMDL
MODEL 2
REMARK VINA RESULT:      -4.6      1.259      2.063
REMARK  1 active torsions:
REMARK  status: ('A' for Active; 'I' for Inactive)
REMARK    1  A    between atoms: C6_6  and  C8_8 
ROOT
HETATM    1  C1  UNL     1     -34.011   7.125   5.748  1.00 20.00     0.011 C 
HETATM    2  C2  UNL     1     -32.912   7.480   4.746  1.00 20.00     0.011 C 
HETATM    3  C3  UNL     1     -34.064   7.746   2.428  1.00 20.00     0.017 A 
HETATM    4  C4  UNL     1     -34.209   5.622   5.909  1.00 20.00     0.074 C 
HETATM    5  C5  UNL     1     -33.313   5.419   3.316  1.00 20.00     0.083 C 
HETATM    6  C6  UNL     1     -32.596   7.592   2.141  1.00 20.00     0.009 A 
HETATM    7  C7  UNL     1     -33.205   6.923   3.367  1.00 20.00    -0.027 A 
HETATM    8  S9  UNL     1     -34.691   4.843   4.340  1.00 20.00    -0.168 SA
ENDROOT
BRANCH   6   9
HETATM    9  C8  UNL     1     -31.687   8.770   2.224  1.00 20.00     0.120 C 
HETATM   10 CL10 UNL     1     -32.336  10.155   1.303  1.00 20.00    -0.130 Cl
ENDBRANCH   6   9
TORSDOF 1
ENDMDL
MODEL 3
REMARK VINA RESULT:      -3.9     10.770     11.611
REMARK  1 active torsions:
REMARK  status: ('A' for Active; 'I' for Inactive)
REMARK    1  A    between atoms: C6_6  and  C8_8 
ROOT
HETATM    1  C1  UNL     1     -34.467  14.385  -3.987  1.00 20.00     0.011 C 
HETATM    2  C2  UNL     1     -33.854  15.749  -3.671  1.00 20.00     0.011 C 
HETATM    3  C3  UNL     1     -35.095  16.663  -1.574  1.00 20.00     0.017 A 
HETATM    4  C4  UNL     1     -35.629  14.466  -4.969  1.00 20.00     0.074 C 
HETATM    5  C5  UNL     1     -36.048  16.994  -3.971  1.00 20.00     0.083 C 
HETATM    6  C6  UNL     1     -34.401  17.847  -2.188  1.00 20.00     0.009 A 
HETATM    7  C7  UNL     1     -34.872  16.699  -3.073  1.00 20.00    -0.027 A 
HETATM    8  S9  UNL     1     -36.984  15.483  -4.315  1.00 20.00    -0.168 SA
ENDROOT
BRANCH   6   9
HETATM    9  C8  UNL     1     -32.964  18.112  -1.895  1.00 20.00     0.120 C 
HETATM   10 CL10 UNL     1     -32.724  18.555  -0.182  1.00 20.00    -0.130 Cl
ENDBRANCH   6   9
TORSDOF 1
ENDMDL
MODEL 4
REMARK VINA RESULT:      -3.8     10.760     11.597
REMARK  1 active torsions:
REMARK  status: ('A' for Active; 'I' for Inactive)
REMARK    1  A    between atoms: C6_6  and  C8_8 
ROOT
HETATM    1  C1  UNL     1     -37.111  15.670  -4.672  1.00 20.00     0.011 C 
HETATM    2  C2  UNL     1     -36.230  15.898  -3.444  1.00 20.00     0.011 C 
HETATM    3  C3  UNL     1     -33.943  16.786  -4.314  1.00 20.00     0.017 A 
HETATM    4  C4  UNL     1     -37.009  14.253  -5.224  1.00 20.00     0.074 C 
HETATM    5  C5  UNL     1     -34.459  14.239  -4.195  1.00 20.00     0.083 C 
HETATM    6  C6  UNL     1     -33.697  16.329  -2.903  1.00 20.00     0.009 A 
HETATM    7  C7  UNL     1     -34.766  15.647  -3.746  1.00 20.00    -0.027 A 
HETATM    8  S9  UNL     1     -35.314  13.862  -5.746  1.00 20.00    -0.168 SA
ENDROOT
BRANCH   6   9
HETATM    9  C8  UNL     1     -34.013  17.226  -1.756  1.00 20.00     0.120 C 
HETATM   10 CL10 UNL     1     -32.561  18.103  -1.200  1.00 20.00    -0.130 Cl
ENDBRANCH   6   9
TORSDOF 1
ENDMDL
MODEL 5
REMARK VINA RESULT:      -3.8     11.113     12.007
REMARK  1 active torsions:
REMARK  status: ('A' for Active; 'I' for Inactive)
REMARK    1  A    between atoms: C6_6  and  C8_8 
ROOT
HETATM    1  C1  UNL     1     -35.300  14.011  -4.894  1.00 20.00     0.011 C 
HETATM    2  C2  UNL     1     -34.437  14.770  -3.885  1.00 20.00     0.011 C 
HETATM    3  C3  UNL     1     -35.111  17.278  -4.054  1.00 20.00     0.017 A 
HETATM    4  C4  UNL     1     -34.642  13.879  -6.262  1.00 20.00     0.074 C 
HETATM    5  C5  UNL     1     -33.350  16.231  -5.657  1.00 20.00     0.083 C 
HETATM    6  C6  UNL     1     -33.789  17.256  -3.339  1.00 20.00     0.009 A 
HETATM    7  C7  UNL     1     -34.118  16.174  -4.360  1.00 20.00    -0.027 A 
HETATM    8  S9  UNL     1     -34.317  15.505  -7.004  1.00 20.00    -0.168 SA
ENDROOT
BRANCH   6   9
HETATM    9  C8  UNL     1     -33.733  17.001  -1.872  1.00 20.00     0.120 C 
HETATM   10 CL10 UNL     1     -35.370  16.939  -1.162  1.00 20.00    -0.130 Cl
ENDBRANCH   6   9
TORSDOF 1
ENDMDL
MODEL 6
REMARK VINA RESULT:      -3.8     11.091     12.205
REMARK  1 active torsions:
REMARK  status: ('A' for Active; 'I' for Inactive)
REMARK    1  A    between atoms: C6_6  and  C8_8 
ROOT
HETATM    1  C1  UNL     1     -34.019  15.890  -7.405  1.00 20.00     0.011 C 
HETATM    2  C2  UNL     1     -34.282  16.353  -5.972  1.00 20.00     0.011 C 
HETATM    3  C3  UNL     1     -32.985  14.727  -4.407  1.00 20.00     0.017 A 
HETATM    4  C4  UNL     1     -35.062  14.903  -7.915  1.00 20.00     0.074 C 
HETATM    5  C5  UNL     1     -35.368  14.162  -5.284  1.00 20.00     0.083 C 
HETATM    6  C6  UNL     1     -33.980  15.434  -3.530  1.00 20.00     0.009 A 
HETATM    7  C7  UNL     1     -34.301  15.190  -4.999  1.00 20.00    -0.027 A 
HETATM    8  S9  UNL     1     -35.102  13.395  -6.902  1.00 20.00    -0.168 SA
ENDROOT
BRANCH   6   9
HETATM    9  C8  UNL     1     -33.671  16.783  -2.977  1.00 20.00     0.120 C 
HETATM   10 CL10 UNL     1     -34.469  17.034  -1.400  1.00 20.00    -0.130 Cl
ENDBRANCH   6   9
TORSDOF 1
ENDMDL
MODEL 7
REMARK VINA RESULT:      -3.7     11.211     12.359
REMARK  1 active torsions:
REMARK  status: ('A' for Active; 'I' for Inactive)
REMARK    1  A    between atoms: C6_6  and  C8_8 
ROOT
HETATM    1  C1  UNL     1     -34.080  18.075  -5.208  1.00 20.00     0.011 C 
HETATM    2  C2  UNL     1     -35.011  17.813  -4.024  1.00 20.00     0.011 C 
HETATM    3  C3  UNL     1     -33.501  17.121  -2.020  1.00 20.00     0.017 A 
HETATM    4  C4  UNL     1     -33.856  16.842  -6.074  1.00 20.00     0.074 C 
HETATM    5  C5  UNL     1     -34.302  15.385  -3.784  1.00 20.00     0.083 C 
HETATM    6  C6  UNL     1     -34.895  16.694  -1.650  1.00 20.00     0.009 A 
HETATM    7  C7  UNL     1     -34.473  16.726  -3.114  1.00 20.00    -0.027 A 
HETATM    8  S9  UNL     1     -33.092  15.492  -5.127  1.00 20.00    -0.168 SA
ENDROOT
BRANCH   6   9
HETATM    9  C8  UNL     1     -35.848  17.673  -1.056  1.00 20.00     0.120 C 
HETATM   10 CL10 UNL     1     -35.866  17.559   0.726  1.00 20.00    -0.130 Cl
ENDBRANCH   6   9
TORSDOF 1
ENDMDL
MODEL 8
REMARK VINA RESULT:      -3.7     11.297     12.331
REMARK  1 active torsions:
REMARK  status: ('A' for Active; 'I' for Inactive)
REMARK    1  A    between atoms: C6_6  and  C8_8 
ROOT
HETATM    1  C1  UNL     1     -33.657  17.192  -1.889  1.00 20.00     0.011 C 
HETATM    2  C2  UNL     1     -34.554  16.290  -2.738  1.00 20.00     0.011 C 
HETATM    3  C3  UNL     1     -33.113  15.472  -4.746  1.00 20.00     0.017 A 
HETATM    4  C4  UNL     1     -33.746  18.661  -2.281  1.00 20.00     0.074 C 
HETATM    5  C5  UNL     1     -34.359  17.755  -4.805  1.00 20.00     0.083 C 
HETATM    6  C6  UNL     1     -34.542  15.210  -5.132  1.00 20.00     0.009 A 
HETATM    7  C7  UNL     1     -34.207  16.376  -4.211  1.00 20.00    -0.027 A 
HETATM    8  S9  UNL     1     -33.232  18.924  -4.004  1.00 20.00    -0.168 SA
ENDROOT
BRANCH   6   9
HETATM    9  C8  UNL     1     -35.233  13.976  -4.664  1.00 20.00     0.120 C 
HETATM   10 CL10 UNL     1     -36.938  13.948  -5.193  1.00 20.00    -0.130 Cl
ENDBRANCH   6   9
TORSDOF 1
ENDMDL
MODEL 9
REMARK VINA RESULT:      -3.6     11.062     11.866
REMARK  1 active torsions:
REMARK  status: ('A' for Active; 'I' for Inactive)
REMARK    1  A    between atoms: C6_6  and  C8_8 
ROOT
HETATM    1  C1  UNL     1     -35.264  16.896  -1.015  1.00 20.00     0.011 C 
HETATM    2  C2  UNL     1     -35.615  16.742  -2.495  1.00 20.00     0.011 C 
HETATM    3  C3  UNL     1     -33.660  15.425  -3.599  1.00 20.00     0.017 A 
HETATM    4  C4  UNL     1     -34.506  18.182  -0.712  1.00 20.00     0.074 C 
HETATM    5  C5  UNL     1     -33.561  18.006  -3.289  1.00 20.00     0.083 C 
HETATM    6  C6  UNL     1     -34.421  16.057  -4.731  1.00 20.00     0.009 A 
HETATM    7  C7  UNL     1     -34.378  16.741  -3.371  1.00 20.00    -0.027 A 
HETATM    8  S9  UNL     1     -32.928  18.252  -1.611  1.00 20.00    -0.168 SA
ENDROOT
BRANCH   6   9
HETATM    9  C8  UNL     1     -35.643  15.401  -5.275  1.00 20.00     0.120 C 
HETATM   10 CL10 UNL     1     -35.662  13.655  -4.899  1.00 20.00    -0.130 Cl
ENDBRANCH   6   9
TORSDOF 1
ENDMDL
