MODEL 1
REMARK VINA RESULT:      -5.2      0.000      0.000
REMARK  2 active torsions:
REMARK  status: ('A' for Active; 'I' for Inactive)
REMARK    1  A    between atoms: C2_2  and  C7_7 
REMARK    2  A    between atoms: C3_3  and  C8_8 
ROOT
HETATM    1  C1  UNL     1     -31.665   7.691   3.343  1.00 20.00     0.016 A 
HETATM    2  C2  UNL     1     -32.497   7.968   2.123  1.00 20.00     0.009 A 
HETATM    3  C3  UNL     1     -32.941   6.895   3.116  1.00 20.00    -0.036 A 
HETATM    4  C4  UNL     1     -32.806   5.459   2.683  1.00 20.00     0.016 C 
ENDROOT
BRANCH   3   5
HETATM    5  C8  UNL     1     -34.107   7.152   4.031  1.00 20.00    -0.014 C 
HETATM    6  C5  UNL     1     -35.142   6.021   3.948  1.00 20.00     0.010 C 
HETATM    7  C6  UNL     1     -33.649   7.329   5.485  1.00 20.00     0.010 C 
ENDBRANCH   3   5
BRANCH   2   8
HETATM    8  C7  UNL     1     -33.205   9.271   1.976  1.00 20.00     0.120 C 
HETATM    9 CL9  UNL     1     -32.483  10.255   0.673  1.00 20.00    -0.130 Cl
ENDBRANCH   2   8
TORSDOF 2
ENDMDL
MODEL 2
REMARK VINA RESULT:      -5.0      1.239      2.322
REMARK  2 active torsions:
REMARK  status: ('A' for Active; 'I' for Inactive)
REMARK    1  A    between atoms: C2_2  and  C7_7 
REMARK    2  A    between atoms: C3_3  and  C8_8 
ROOT
HETATM    1  C1  UNL     1     -33.315   5.353   2.720  1.00 20.00     0.016 A 
HETATM    2  C2  UNL     1     -33.327   6.855   2.743  1.00 20.00     0.009 A 
HETATM    3  C3  UNL     1     -34.167   6.075   3.752  1.00 20.00    -0.036 A 
HETATM    4  C4  UNL     1     -35.660   6.078   3.553  1.00 20.00     0.016 C 
ENDROOT
BRANCH   3   5
HETATM    5  C8  UNL     1     -33.741   6.007   5.194  1.00 20.00    -0.014 C 
HETATM    6  C5  UNL     1     -33.937   7.357   5.898  1.00 20.00     0.010 C 
HETATM    7  C6  UNL     1     -34.504   4.912   5.951  1.00 20.00     0.010 C 
ENDBRANCH   3   5
BRANCH   2   8
HETATM    8  C7  UNL     1     -32.101   7.611   3.128  1.00 20.00     0.120 C 
HETATM    9 CL9  UNL     1     -31.845   9.017   2.057  1.00 20.00    -0.130 Cl
ENDBRANCH   2   8
TORSDOF 2
ENDMDL
MODEL 3
REMARK VINA RESULT:      -4.1      1.417      2.495
REMARK  2 active torsions:
REMARK  status: ('A' for Active; 'I' for Inactive)
REMARK    1  A    between atoms: C2_2  and  C7_7 
REMARK    2  A    between atoms: C3_3  and  C8_8 
ROOT
HETATM    1  C1  UNL     1     -34.041   8.286   3.857  1.00 20.00     0.016 A 
HETATM    2  C2  UNL     1     -32.640   7.745   3.869  1.00 20.00     0.009 A 
HETATM    3  C3  UNL     1     -33.723   7.065   4.705  1.00 20.00    -0.036 A 
HETATM    4  C4  UNL     1     -33.653   7.245   6.199  1.00 20.00     0.016 C 
ENDROOT
BRANCH   3   5
HETATM    5  C8  UNL     1     -34.285   5.737   4.274  1.00 20.00    -0.014 C 
HETATM    6  C5  UNL     1     -34.491   4.802   5.473  1.00 20.00     0.010 C 
HETATM    7  C6  UNL     1     -35.609   5.910   3.517  1.00 20.00     0.010 C 
ENDBRANCH   3   5
BRANCH   2   8
HETATM    8  C7  UNL     1     -32.062   7.126   2.643  1.00 20.00     0.120 C 
HETATM    9 CL9  UNL     1     -31.662   8.365   1.421  1.00 20.00    -0.130 Cl
ENDBRANCH   2   8
TORSDOF 2
ENDMDL
MODEL 4
REMARK VINA RESULT:      -4.0      1.519      2.548
REMARK  2 active torsions:
REMARK  status: ('A' for Active; 'I' for Inactive)
REMARK    1  A    between atoms: C2_2  and  C7_7 
REMARK    2  A    between atoms: C3_3  and  C8_8 
ROOT
HETATM    1  C1  UNL     1     -34.112   8.017   3.786  1.00 20.00     0.016 A 
HETATM    2  C2  UNL     1     -32.707   7.858   4.293  1.00 20.00     0.009 A 
HETATM    3  C3  UNL     1     -33.709   6.718   4.466  1.00 20.00    -0.036 A 
HETATM    4  C4  UNL     1     -34.226   6.462   5.857  1.00 20.00     0.016 C 
ENDROOT
BRANCH   3   5
HETATM    5  C8  UNL     1     -33.594   5.480   3.618  1.00 20.00    -0.014 C 
HETATM    6  C5  UNL     1     -34.240   4.270   4.306  1.00 20.00     0.010 C 
HETATM    7  C6  UNL     1     -34.228   5.689   2.236  1.00 20.00     0.010 C 
ENDBRANCH   3   5
BRANCH   2   8
HETATM    8  C7  UNL     1     -31.566   7.790   3.337  1.00 20.00     0.120 C 
HETATM    9 CL9  UNL     1     -31.968   8.590   1.792  1.00 20.00    -0.130 Cl
ENDBRANCH   2   8
TORSDOF 2
ENDMDL
MODEL 5
REMARK VINA RESULT:      -4.0      2.669      3.774
REMARK  2 active torsions:
REMARK  status: ('A' for Active; 'I' for Inactive)
REMARK    1  A    between atoms: C2_2  and  C7_7 
REMARK    2  A    between atoms: C3_3  and  C8_8 
ROOT
HETATM    1  C1  UNL     1     -34.741   6.567   3.068  1.00 20.00     0.016 A 
HETATM    2  C2  UNL     1     -33.648   5.685   2.537  1.00 20.00     0.009 A 
HETATM    3  C3  UNL     1     -33.320   7.103   3.000  1.00 20.00    -0.036 A 
HETATM    4  C4  UNL     1     -33.002   8.118   1.933  1.00 20.00     0.016 C 
ENDROOT
BRANCH   3   5
HETATM    5  C8  UNL     1     -32.583   7.322   4.293  1.00 20.00    -0.014 C 
HETATM    6  C5  UNL     1     -31.622   8.515   4.194  1.00 20.00     0.010 C 
HETATM    7  C6  UNL     1     -33.554   7.534   5.461  1.00 20.00     0.010 C 
ENDBRANCH   3   5
BRANCH   2   8
HETATM    8  C7  UNL     1     -33.226   4.473   3.294  1.00 20.00     0.120 C 
HETATM    9 CL9  UNL     1     -34.370   4.105   4.615  1.00 20.00    -0.130 Cl
ENDBRANCH   2   8
TORSDOF 2
ENDMDL
MODEL 6
REMARK VINA RESULT:      -3.8     10.569     11.656
REMARK  2 active torsions:
REMARK  status: ('A' for Active; 'I' for Inactive)
REMARK    1  A    between atoms: C2_2  and  C7_7 
REMARK    2  A    between atoms: C3_3  and  C8_8 
ROOT
HETATM    1  C1  UNL     1     -34.880  16.871  -4.491  1.00 20.00     0.016 A 
HETATM    2  C2  UNL     1     -33.476  16.394  -4.737  1.00 20.00     0.009 A 
HETATM    3  C3  UNL     1     -33.749  17.409  -3.629  1.00 20.00    -0.036 A 
HETATM    4  C4  UNL     1     -33.295  18.826  -3.867  1.00 20.00     0.016 C 
ENDROOT
BRANCH   3   5
HETATM    5  C8  UNL     1     -33.693  16.983  -2.187  1.00 20.00    -0.014 C 
HETATM    6  C5  UNL     1     -32.866  17.965  -1.345  1.00 20.00     0.010 C 
HETATM    7  C6  UNL     1     -35.099  16.846  -1.590  1.00 20.00     0.010 C 
ENDBRANCH   3   5
BRANCH   2   8
HETATM    8  C7  UNL     1     -33.105  14.978  -4.459  1.00 20.00     0.120 C 
HETATM    9 CL9  UNL     1     -34.551  13.981  -4.138  1.00 20.00    -0.130 Cl
ENDBRANCH   2   8
TORSDOF 2
ENDMDL
MODEL 7
REMARK VINA RESULT:      -3.7      2.393      4.249
REMARK  2 active torsions:
REMARK  status: ('A' for Active; 'I' for Inactive)
REMARK    1  A    between atoms: C2_2  and  C7_7 
REMARK    2  A    between atoms: C3_3  and  C8_8 
ROOT
HETATM    1  C1  UNL     1     -31.480   8.442   2.918  1.00 20.00     0.016 A 
HETATM    2  C2  UNL     1     -32.915   8.006   2.996  1.00 20.00     0.009 A 
HETATM    3  C3  UNL     1     -32.474   8.968   1.895  1.00 20.00    -0.036 A 
HETATM    4  C4  UNL     1     -32.917  10.403   2.017  1.00 20.00     0.016 C 
ENDROOT
BRANCH   3   5
HETATM    5  C8  UNL     1     -32.353   8.484   0.475  1.00 20.00    -0.014 C 
HETATM    6  C5  UNL     1     -33.155   9.370  -0.488  1.00 20.00     0.010 C 
HETATM    7  C6  UNL     1     -30.887   8.426   0.028  1.00 20.00     0.010 C 
ENDBRANCH   3   5
BRANCH   2   8
HETATM    8  C7  UNL     1     -33.285   6.588   2.726  1.00 20.00     0.120 C 
HETATM    9 CL9  UNL     1     -34.732   6.108   3.657  1.00 20.00    -0.130 Cl
ENDBRANCH   2   8
TORSDOF 2
ENDMDL
MODEL 8
REMARK VINA RESULT:      -3.5      2.521      3.312
REMARK  2 active torsions:
REMARK  status: ('A' for Active; 'I' for Inactive)
REMARK    1  A    between atoms: C2_2  and  C7_7 
REMARK    2  A    between atoms: C3_3  and  C8_8 
ROOT
HETATM    1  C1  UNL     1     -32.641   7.357   2.494  1.00 20.00     0.016 A 
HETATM    2  C2  UNL     1     -33.507   7.618   3.694  1.00 20.00     0.009 A 
HETATM    3  C3  UNL     1     -33.700   6.338   2.882  1.00 20.00    -0.036 A 
HETATM    4  C4  UNL     1     -34.936   6.246   2.027  1.00 20.00     0.016 C 
ENDROOT
BRANCH   3   5
HETATM    5  C8  UNL     1     -33.241   5.017   3.438  1.00 20.00    -0.014 C 
HETATM    6  C5  UNL     1     -34.355   4.330   4.239  1.00 20.00     0.010 C 
HETATM    7  C6  UNL     1     -32.751   4.082   2.325  1.00 20.00     0.010 C 
ENDBRANCH   3   5
BRANCH   2   8
HETATM    8  C7  UNL     1     -32.913   7.623   5.061  1.00 20.00     0.120 C 
HETATM    9 CL9  UNL     1     -34.116   7.141   6.289  1.00 20.00    -0.130 Cl
ENDBRANCH   2   8
TORSDOF 2
ENDMDL
MODEL 9
REMARK VINA RESULT:      -3.5     10.233     11.749
REMARK  2 active torsions:
REMARK  status: ('A' for Active; 'I' for Inactive)
REMARK    1  A    between atoms: C2_2  and  C7_7 
REMARK    2  A    between atoms: C3_3  and  C8_8 
ROOT
HETATM    1  C1  UNL     1     -35.361  16.341  -2.819  1.00 20.00     0.016 A 
HETATM    2  C2  UNL     1     -33.893  16.542  -2.569  1.00 20.00     0.009 A 
HETATM    3  C3  UNL     1     -34.358  15.882  -3.865  1.00 20.00    -0.036 A 
HETATM    4  C4  UNL     1     -34.117  14.402  -4.008  1.00 20.00     0.016 C 
ENDROOT
BRANCH   3   5
HETATM    5  C8  UNL     1     -34.291  16.641  -5.163  1.00 20.00    -0.014 C 
HETATM    6  C5  UNL     1     -33.362  15.947  -6.169  1.00 20.00     0.010 C 
HETATM    7  C6  UNL     1     -35.685  16.815  -5.781  1.00 20.00     0.010 C 
ENDBRANCH   3   5
BRANCH   2   8
HETATM    8  C7  UNL     1     -33.320  17.917  -2.526  1.00 20.00     0.120 C 
HETATM    9 CL9  UNL     1     -32.397  18.187  -1.022  1.00 20.00    -0.130 Cl
ENDBRANCH   2   8
TORSDOF 2
ENDMDL
