MODEL 1
REMARK VINA RESULT:      -5.9      0.000      0.000
REMARK  3 active torsions:
REMARK  status: ('A' for Active; 'I' for Inactive)
REMARK    1  A    between atoms: C4_4  and  C6_6 
REMARK    2  A    between atoms: C5_5  and  C8_8 
REMARK    3  A    between atoms: C6_6  and  C9_9 
ROOT
HETATM    1  C3  UNL     1     -31.802   7.493   3.426  1.00 20.00     0.017 A 
HETATM    2  C5  UNL     1     -32.709   8.465   2.726  1.00 20.00     0.009 A 
HETATM    3  C6  UNL     1     -33.285   7.183   3.314  1.00 20.00    -0.032 A 
ENDROOT
BRANCH   3   4
HETATM    4  C4  UNL     1     -34.188   7.272   4.556  1.00 20.00    -0.006 A 
HETATM    5  C1  UNL     1     -34.417   6.106   5.477  1.00 20.00     0.006 A 
HETATM    6  C2  UNL     1     -33.641   7.300   5.956  1.00 20.00     0.006 A 
ENDBRANCH   3   4
BRANCH   3   7
HETATM    7  C9  UNL     1     -33.674   6.063   2.380  1.00 20.00     0.006 C 
HETATM    8  C7  UNL     1     -32.920   4.798   2.663  1.00 20.00     0.006 C 
ENDBRANCH   3   7
BRANCH   2   9
HETATM    9  C8  UNL     1     -32.580   8.696   1.259  1.00 20.00     0.120 C 
HETATM   10 CL10 UNL     1     -32.614  10.438   0.874  1.00 20.00    -0.130 Cl
ENDBRANCH   2   9
TORSDOF 3
ENDMDL
MODEL 2
REMARK VINA RESULT:      -4.6      1.230      2.564
REMARK  3 active torsions:
REMARK  status: ('A' for Active; 'I' for Inactive)
REMARK    1  A    between atoms: C4_4  and  C6_6 
REMARK    2  A    between atoms: C5_5  and  C8_8 
REMARK    3  A    between atoms: C6_6  and  C9_9 
ROOT
HETATM    1  C3  UNL     1     -33.929   6.532   2.384  1.00 20.00     0.017 A 
HETATM    2  C5  UNL     1     -32.521   6.800   2.834  1.00 20.00     0.009 A 
HETATM    3  C6  UNL     1     -33.596   6.482   3.866  1.00 20.00    -0.032 A 
ENDROOT
BRANCH   3   4
HETATM    4  C4  UNL     1     -33.549   5.133   4.602  1.00 20.00    -0.006 A 
HETATM    5  C1  UNL     1     -34.689   4.625   5.438  1.00 20.00     0.006 A 
HETATM    6  C2  UNL     1     -34.337   3.936   4.150  1.00 20.00     0.006 A 
ENDBRANCH   3   4
BRANCH   3   7
HETATM    7  C9  UNL     1     -34.139   7.603   4.720  1.00 20.00     0.006 C 
HETATM    8  C7  UNL     1     -33.534   7.617   6.091  1.00 20.00     0.006 C 
ENDBRANCH   3   7
BRANCH   2   9
HETATM    9  C8  UNL     1     -31.924   8.156   2.678  1.00 20.00     0.120 C 
HETATM   10 CL10 UNL     1     -32.506   8.952   1.189  1.00 20.00    -0.130 Cl
ENDBRANCH   2   9
TORSDOF 3
ENDMDL
MODEL 3
REMARK VINA RESULT:      -4.3      2.424      3.978
REMARK  3 active torsions:
REMARK  status: ('A' for Active; 'I' for Inactive)
REMARK    1  A    between atoms: C4_4  and  C6_6 
REMARK    2  A    between atoms: C5_5  and  C8_8 
REMARK    3  A    between atoms: C6_6  and  C9_9 
ROOT
HETATM    1  C3  UNL     1     -34.422   7.434   3.478  1.00 20.00     0.017 A 
HETATM    2  C5  UNL     1     -33.542   7.633   4.679  1.00 20.00     0.009 A 
HETATM    3  C6  UNL     1     -32.912   7.379   3.315  1.00 20.00    -0.032 A 
ENDROOT
BRANCH   3   4
HETATM    4  C4  UNL     1     -32.170   8.526   2.609  1.00 20.00    -0.006 A 
HETATM    5  C1  UNL     1     -31.576   8.384   1.236  1.00 20.00     0.006 A 
HETATM    6  C2  UNL     1     -32.760   9.284   1.454  1.00 20.00     0.006 A 
ENDBRANCH   3   4
BRANCH   3   7
HETATM    7  C9  UNL     1     -32.311   6.023   3.032  1.00 20.00     0.006 C 
HETATM    8  C7  UNL     1     -33.299   5.082   2.409  1.00 20.00     0.006 C 
ENDBRANCH   3   7
BRANCH   2   9
HETATM    9  C8  UNL     1     -33.526   6.627   5.778  1.00 20.00     0.120 C 
HETATM   10 CL10 UNL     1     -34.833   5.428   5.576  1.00 20.00    -0.130 Cl
ENDBRANCH   2   9
TORSDOF 3
ENDMDL
MODEL 4
REMARK VINA RESULT:      -4.3      2.660      4.340
REMARK  3 active torsions:
REMARK  status: ('A' for Active; 'I' for Inactive)
REMARK    1  A    between atoms: C4_4  and  C6_6 
REMARK    2  A    between atoms: C5_5  and  C8_8 
REMARK    3  A    between atoms: C6_6  and  C9_9 
ROOT
HETATM    1  C3  UNL     1     -32.667   5.872   2.566  1.00 20.00     0.017 A 
HETATM    2  C5  UNL     1     -34.113   6.259   2.694  1.00 20.00     0.009 A 
HETATM    3  C6  UNL     1     -33.047   7.343   2.602  1.00 20.00    -0.032 A 
ENDROOT
BRANCH   3   4
HETATM    4  C4  UNL     1     -32.956   8.194   1.325  1.00 20.00    -0.006 A 
HETATM    5  C1  UNL     1     -32.636   9.662   1.349  1.00 20.00     0.006 A 
HETATM    6  C2  UNL     1     -31.649   8.688   0.770  1.00 20.00     0.006 A 
ENDBRANCH   3   4
BRANCH   3   7
HETATM    7  C9  UNL     1     -32.676   8.108   3.850  1.00 20.00     0.006 C 
HETATM    8  C7  UNL     1     -31.192   8.242   4.014  1.00 20.00     0.006 C 
ENDBRANCH   3   7
BRANCH   2   9
HETATM    9  C8  UNL     1     -34.864   5.967   3.947  1.00 20.00     0.120 C 
HETATM   10 CL10 UNL     1     -34.504   4.325   4.549  1.00 20.00    -0.130 Cl
ENDBRANCH   2   9
TORSDOF 3
ENDMDL
MODEL 5
REMARK VINA RESULT:      -4.0     10.854     11.632
REMARK  3 active torsions:
REMARK  status: ('A' for Active; 'I' for Inactive)
REMARK    1  A    between atoms: C4_4  and  C6_6 
REMARK    2  A    between atoms: C5_5  and  C8_8 
REMARK    3  A    between atoms: C6_6  and  C9_9 
ROOT
HETATM    1  C3  UNL     1     -35.180  17.265  -3.525  1.00 20.00     0.017 A 
HETATM    2  C5  UNL     1     -34.698  15.880  -3.198  1.00 20.00     0.009 A 
HETATM    3  C6  UNL     1     -34.564  16.989  -2.163  1.00 20.00    -0.032 A 
ENDROOT
BRANCH   3   4
HETATM    4  C4  UNL     1     -35.451  16.952  -0.908  1.00 20.00    -0.006 A 
HETATM    5  C1  UNL     1     -35.141  17.747   0.329  1.00 20.00     0.006 A 
HETATM    6  C2  UNL     1     -36.339  18.096  -0.507  1.00 20.00     0.006 A 
ENDBRANCH   3   4
BRANCH   3   7
HETATM    7  C9  UNL     1     -33.200  17.583  -1.905  1.00 20.00     0.006 C 
HETATM    8  C7  UNL     1     -33.074  18.975  -2.448  1.00 20.00     0.006 C 
ENDBRANCH   3   7
BRANCH   2   9
HETATM    9  C8  UNL     1     -33.530  15.298  -3.917  1.00 20.00     0.120 C 
HETATM   10 CL10 UNL     1     -33.153  16.226  -5.395  1.00 20.00    -0.130 Cl
ENDBRANCH   2   9
TORSDOF 3
ENDMDL
MODEL 6
REMARK VINA RESULT:      -4.0     10.966     11.605
REMARK  3 active torsions:
REMARK  status: ('A' for Active; 'I' for Inactive)
REMARK    1  A    between atoms: C4_4  and  C6_6 
REMARK    2  A    between atoms: C5_5  and  C8_8 
REMARK    3  A    between atoms: C6_6  and  C9_9 
ROOT
HETATM    1  C3  UNL     1     -35.760  16.015  -5.200  1.00 20.00     0.017 A 
HETATM    2  C5  UNL     1     -36.176  14.745  -4.513  1.00 20.00     0.009 A 
HETATM    3  C6  UNL     1     -34.997  15.544  -3.973  1.00 20.00    -0.032 A 
ENDROOT
BRANCH   3   4
HETATM    4  C4  UNL     1     -35.148  16.289  -2.637  1.00 20.00    -0.006 A 
HETATM    5  C1  UNL     1     -33.990  16.943  -1.936  1.00 20.00     0.006 A 
HETATM    6  C2  UNL     1     -35.082  17.787  -2.531  1.00 20.00     0.006 A 
ENDBRANCH   3   4
BRANCH   3   7
HETATM    7  C9  UNL     1     -33.598  15.024  -4.205  1.00 20.00     0.006 C 
HETATM    8  C7  UNL     1     -32.928  15.694  -5.367  1.00 20.00     0.006 C 
ENDBRANCH   3   7
BRANCH   2   9
HETATM    9  C8  UNL     1     -36.019  13.431  -5.197  1.00 20.00     0.120 C 
HETATM   10 CL10 UNL     1     -35.709  13.643  -6.942  1.00 20.00    -0.130 Cl
ENDBRANCH   2   9
TORSDOF 3
ENDMDL
MODEL 7
REMARK VINA RESULT:      -3.9     10.980     11.945
REMARK  3 active torsions:
REMARK  status: ('A' for Active; 'I' for Inactive)
REMARK    1  A    between atoms: C4_4  and  C6_6 
REMARK    2  A    between atoms: C5_5  and  C8_8 
REMARK    3  A    between atoms: C6_6  and  C9_9 
ROOT
HETATM    1  C3  UNL     1     -33.727  19.221  -1.607  1.00 20.00     0.017 A 
HETATM    2  C5  UNL     1     -32.756  18.480  -0.732  1.00 20.00     0.009 A 
HETATM    3  C6  UNL     1     -33.906  17.728  -1.390  1.00 20.00    -0.032 A 
ENDROOT
BRANCH   3   4
HETATM    4  C4  UNL     1     -33.598  16.741  -2.528  1.00 20.00    -0.006 A 
HETATM    5  C1  UNL     1     -34.657  15.893  -3.175  1.00 20.00     0.006 A 
HETATM    6  C2  UNL     1     -33.998  16.997  -3.954  1.00 20.00     0.006 A 
ENDBRANCH   3   4
BRANCH   3   7
HETATM    7  C9  UNL     1     -35.079  17.303  -0.540  1.00 20.00     0.006 C 
HETATM    8  C7  UNL     1     -36.303  18.126  -0.809  1.00 20.00     0.006 C 
ENDBRANCH   3   7
BRANCH   2   9
HETATM    9  C8  UNL     1     -32.699  18.753   0.732  1.00 20.00     0.120 C 
HETATM   10 CL10 UNL     1     -31.016  18.735   1.328  1.00 20.00    -0.130 Cl
ENDBRANCH   2   9
TORSDOF 3
ENDMDL
MODEL 8
REMARK VINA RESULT:      -3.9     10.644     11.631
REMARK  3 active torsions:
REMARK  status: ('A' for Active; 'I' for Inactive)
REMARK    1  A    between atoms: C4_4  and  C6_6 
REMARK    2  A    between atoms: C5_5  and  C8_8 
REMARK    3  A    between atoms: C6_6  and  C9_9 
ROOT
HETATM    1  C3  UNL     1     -34.017  14.469  -4.081  1.00 20.00     0.017 A 
HETATM    2  C5  UNL     1     -33.260  15.491  -4.880  1.00 20.00     0.009 A 
HETATM    3  C6  UNL     1     -34.306  15.946  -3.871  1.00 20.00    -0.032 A 
ENDROOT
BRANCH   3   4
HETATM    4  C4  UNL     1     -33.846  16.647  -2.582  1.00 20.00    -0.006 A 
HETATM    5  C1  UNL     1     -34.249  18.053  -2.235  1.00 20.00     0.006 A 
HETATM    6  C2  UNL     1     -34.769  16.900  -1.423  1.00 20.00     0.006 A 
ENDBRANCH   3   4
BRANCH   3   7
HETATM    7  C9  UNL     1     -35.635  16.454  -4.378  1.00 20.00     0.006 C 
HETATM    8  C7  UNL     1     -36.744  15.470  -4.151  1.00 20.00     0.006 C 
ENDBRANCH   3   7
BRANCH   2   9
HETATM    9  C8  UNL     1     -33.457  15.595  -6.354  1.00 20.00     0.120 C 
HETATM   10 CL10 UNL     1     -34.192  14.107  -7.013  1.00 20.00    -0.130 Cl
ENDBRANCH   2   9
TORSDOF 3
ENDMDL
MODEL 9
REMARK VINA RESULT:      -3.8     10.711     11.660
REMARK  3 active torsions:
REMARK  status: ('A' for Active; 'I' for Inactive)
REMARK    1  A    between atoms: C4_4  and  C6_6 
REMARK    2  A    between atoms: C5_5  and  C8_8 
REMARK    3  A    between atoms: C6_6  and  C9_9 
ROOT
HETATM    1  C3  UNL     1     -33.788  17.190  -3.901  1.00 20.00     0.017 A 
HETATM    2  C5  UNL     1     -33.646  16.618  -2.519  1.00 20.00     0.009 A 
HETATM    3  C6  UNL     1     -34.656  16.014  -3.486  1.00 20.00    -0.032 A 
ENDROOT
BRANCH   3   4
HETATM    4  C4  UNL     1     -34.390  14.616  -4.068  1.00 20.00    -0.006 A 
HETATM    5  C1  UNL     1     -35.447  13.818  -4.778  1.00 20.00     0.006 A 
HETATM    6  C2  UNL     1     -34.274  14.360  -5.544  1.00 20.00     0.006 A 
ENDBRANCH   3   4
BRANCH   3   7
HETATM    7  C9  UNL     1     -36.125  16.297  -3.277  1.00 20.00     0.006 C 
HETATM    8  C7  UNL     1     -36.670  17.254  -4.295  1.00 20.00     0.006 C 
ENDBRANCH   3   7
BRANCH   2   9
HETATM    9  C8  UNL     1     -34.045  17.417  -1.327  1.00 20.00     0.120 C 
HETATM   10 CL10 UNL     1     -32.670  18.362  -0.692  1.00 20.00    -0.130 Cl
ENDBRANCH   2   9
TORSDOF 3
ENDMDL
