MODEL 1
REMARK VINA RESULT:      -4.7      0.000      0.000
REMARK  4 active torsions:
REMARK  status: ('A' for Active; 'I' for Inactive)
REMARK    1  A    between atoms: C2_2  and  C6_6 
REMARK    2  A    between atoms: C3_3  and  C7_7 
REMARK    3  A    between atoms: C3_3  and  C8_8 
REMARK    4  A    between atoms: C8_8  and  O9_9 
ROOT
HETATM    1  C1  UNL     1     -31.632   8.028   3.643  1.00 20.00     0.018 A 
HETATM    2  C2  UNL     1     -32.575   8.549   2.597  1.00 20.00     0.011 A 
HETATM    3  C3  UNL     1     -32.981   7.355   3.453  1.00 20.00    -0.014 A 
ENDROOT
BRANCH   3   4
HETATM    4  C7  UNL     1     -34.038   7.588   4.499  1.00 20.00     0.007 C 
HETATM    5  C4  UNL     1     -33.528   7.351   5.891  1.00 20.00     0.006 C 
ENDBRANCH   3   4
BRANCH   3   6
HETATM    6  C8  UNL     1     -33.005   5.974   2.855  1.00 20.00     0.176 C 
BRANCH   6   7
HETATM    7  O9  UNL     1     -34.243   5.346   3.171  1.00 20.00    -0.395 OA
HETATM    8  C5  UNL     1     -34.054   4.207   3.998  1.00 20.00     0.201 C 
ENDBRANCH   6   7
ENDBRANCH   3   6
BRANCH   2   9
HETATM    9  C6  UNL     1     -32.239   8.425   1.152  1.00 20.00     0.120 C 
HETATM   10 CL10 UNL     1     -32.805   9.847   0.232  1.00 20.00    -0.130 Cl
ENDBRANCH   2   9
TORSDOF 4
ENDMDL
MODEL 2
REMARK VINA RESULT:      -3.9     10.989     11.493
REMARK  4 active torsions:
REMARK  status: ('A' for Active; 'I' for Inactive)
REMARK    1  A    between atoms: C2_2  and  C6_6 
REMARK    2  A    between atoms: C3_3  and  C7_7 
REMARK    3  A    between atoms: C3_3  and  C8_8 
REMARK    4  A    between atoms: C8_8  and  O9_9 
ROOT
HETATM    1  C1  UNL     1     -32.809  15.170  -4.801  1.00 20.00     0.018 A 
HETATM    2  C2  UNL     1     -33.409  16.430  -5.356  1.00 20.00     0.011 A 
HETATM    3  C3  UNL     1     -33.979  15.820  -4.081  1.00 20.00    -0.014 A 
ENDROOT
BRANCH   3   4
HETATM    4  C7  UNL     1     -33.699  16.541  -2.790  1.00 20.00     0.007 C 
HETATM    5  C4  UNL     1     -34.924  16.673  -1.930  1.00 20.00     0.006 C 
ENDBRANCH   3   4
BRANCH   3   6
HETATM    6  C8  UNL     1     -35.310  15.116  -4.113  1.00 20.00     0.176 C 
BRANCH   6   7
HETATM    7  O9  UNL     1     -35.107  13.742  -4.426  1.00 20.00    -0.395 OA
HETATM    8  C5  UNL     1     -36.025  13.291  -5.411  1.00 20.00     0.201 C 
ENDBRANCH   6   7
ENDBRANCH   3   6
BRANCH   2   9
HETATM    9  C6  UNL     1     -34.139  16.410  -6.654  1.00 20.00     0.120 C 
HETATM   10 CL10 UNL     1     -33.710  14.967  -7.615  1.00 20.00    -0.130 Cl
ENDBRANCH   2   9
TORSDOF 4
ENDMDL
MODEL 3
REMARK VINA RESULT:      -3.6      2.764      3.986
REMARK  4 active torsions:
REMARK  status: ('A' for Active; 'I' for Inactive)
REMARK    1  A    between atoms: C2_2  and  C6_6 
REMARK    2  A    between atoms: C3_3  and  C7_7 
REMARK    3  A    between atoms: C3_3  and  C8_8 
REMARK    4  A    between atoms: C8_8  and  O9_9 
ROOT
HETATM    1  C1  UNL     1     -32.994   5.377   2.525  1.00 20.00     0.018 A 
HETATM    2  C2  UNL     1     -34.355   5.958   2.782  1.00 20.00     0.011 A 
HETATM    3  C3  UNL     1     -33.122   6.845   2.899  1.00 20.00    -0.014 A 
ENDROOT
BRANCH   3   4
HETATM    4  C7  UNL     1     -32.908   7.869   1.817  1.00 20.00     0.007 C 
HETATM    5  C4  UNL     1     -31.766   8.796   2.123  1.00 20.00     0.006 C 
ENDBRANCH   3   4
BRANCH   3   6
HETATM    6  C8  UNL     1     -32.629   7.275   4.255  1.00 20.00     0.176 C 
BRANCH   6   7
HETATM    7  O9  UNL     1     -33.686   7.923   4.955  1.00 20.00    -0.395 OA
HETATM    8  C5  UNL     1     -33.804   7.439   6.285  1.00 20.00     0.201 C 
ENDBRANCH   6   7
ENDBRANCH   3   6
BRANCH   2   9
HETATM    9  C6  UNL     1     -35.148   5.522   3.965  1.00 20.00     0.120 C 
HETATM   10 CL10 UNL     1     -34.381   4.133   4.783  1.00 20.00    -0.130 Cl
ENDBRANCH   2   9
TORSDOF 4
ENDMDL
MODEL 4
REMARK VINA RESULT:      -3.6     10.629     11.855
REMARK  4 active torsions:
REMARK  status: ('A' for Active; 'I' for Inactive)
REMARK    1  A    between atoms: C2_2  and  C6_6 
REMARK    2  A    between atoms: C3_3  and  C7_7 
REMARK    3  A    between atoms: C3_3  and  C8_8 
REMARK    4  A    between atoms: C8_8  and  O9_9 
ROOT
HETATM    1  C1  UNL     1     -34.909  17.028  -4.454  1.00 20.00     0.018 A 
HETATM    2  C2  UNL     1     -33.690  17.015  -3.577  1.00 20.00     0.011 A 
HETATM    3  C3  UNL     1     -33.964  15.839  -4.507  1.00 20.00    -0.014 A 
ENDROOT
BRANCH   3   4
HETATM    4  C7  UNL     1     -33.077  15.697  -5.715  1.00 20.00     0.007 C 
HETATM    5  C4  UNL     1     -33.729  16.209  -6.968  1.00 20.00     0.006 C 
ENDBRANCH   3   4
BRANCH   3   6
HETATM    6  C8  UNL     1     -34.444  14.528  -3.943  1.00 20.00     0.176 C 
BRANCH   6   7
HETATM    7  O9  UNL     1     -34.629  13.599  -5.004  1.00 20.00    -0.395 OA
HETATM    8  C5  UNL     1     -36.006  13.424  -5.309  1.00 20.00     0.201 C 
ENDBRANCH   6   7
ENDBRANCH   3   6
BRANCH   2   9
HETATM    9  C6  UNL     1     -33.828  16.919  -2.098  1.00 20.00     0.120 C 
HETATM   10 CL10 UNL     1     -32.672  17.998  -1.268  1.00 20.00    -0.130 Cl
ENDBRANCH   2   9
TORSDOF 4
ENDMDL
MODEL 5
REMARK VINA RESULT:      -3.6     10.792     11.584
REMARK  4 active torsions:
REMARK  status: ('A' for Active; 'I' for Inactive)
REMARK    1  A    between atoms: C2_2  and  C6_6 
REMARK    2  A    between atoms: C3_3  and  C7_7 
REMARK    3  A    between atoms: C3_3  and  C8_8 
REMARK    4  A    between atoms: C8_8  and  O9_9 
ROOT
HETATM    1  C1  UNL     1     -34.345  16.790  -3.954  1.00 20.00     0.018 A 
HETATM    2  C2  UNL     1     -34.596  16.168  -2.610  1.00 20.00     0.011 A 
HETATM    3  C3  UNL     1     -35.269  15.588  -3.848  1.00 20.00    -0.014 A 
ENDROOT
BRANCH   3   4
HETATM    4  C7  UNL     1     -34.760  14.263  -4.349  1.00 20.00     0.007 C 
HETATM    5  C4  UNL     1     -34.176  14.358  -5.730  1.00 20.00     0.006 C 
ENDBRANCH   3   4
BRANCH   3   6
HETATM    6  C8  UNL     1     -36.741  15.804  -4.077  1.00 20.00     0.176 C 
BRANCH   6   7
HETATM    7  O9  UNL     1     -37.371  14.548  -4.301  1.00 20.00    -0.395 OA
HETATM    8  C5  UNL     1     -38.476  14.670  -5.186  1.00 20.00     0.201 C 
ENDBRANCH   6   7
ENDBRANCH   3   6
BRANCH   2   9
HETATM    9  C6  UNL     1     -35.346  16.914  -1.563  1.00 20.00     0.120 C 
HETATM   10 CL10 UNL     1     -34.235  17.756  -0.446  1.00 20.00    -0.130 Cl
ENDBRANCH   2   9
TORSDOF 4
ENDMDL
MODEL 6
REMARK VINA RESULT:      -3.5     11.306     11.888
REMARK  4 active torsions:
REMARK  status: ('A' for Active; 'I' for Inactive)
REMARK    1  A    between atoms: C2_2  and  C6_6 
REMARK    2  A    between atoms: C3_3  and  C7_7 
REMARK    3  A    between atoms: C3_3  and  C8_8 
REMARK    4  A    between atoms: C8_8  and  O9_9 
ROOT
HETATM    1  C1  UNL     1     -35.971  17.206  -4.133  1.00 20.00     0.018 A 
HETATM    2  C2  UNL     1     -36.527  15.875  -3.714  1.00 20.00     0.011 A 
HETATM    3  C3  UNL     1     -35.174  16.330  -3.181  1.00 20.00    -0.014 A 
ENDROOT
BRANCH   3   4
HETATM    4  C7  UNL     1     -35.109  16.740  -1.733  1.00 20.00     0.007 C 
HETATM    5  C4  UNL     1     -33.813  17.415  -1.387  1.00 20.00     0.006 C 
ENDBRANCH   3   4
BRANCH   3   6
HETATM    6  C8  UNL     1     -33.909  15.695  -3.694  1.00 20.00     0.176 C 
BRANCH   6   7
HETATM    7  O9  UNL     1     -33.370  16.498  -4.738  1.00 20.00    -0.395 OA
HETATM    8  C5  UNL     1     -33.146  15.738  -5.917  1.00 20.00     0.201 C 
ENDBRANCH   6   7
ENDBRANCH   3   6
BRANCH   2   9
HETATM    9  C6  UNL     1     -36.671  14.774  -4.706  1.00 20.00     0.120 C 
HETATM   10 CL10 UNL     1     -38.388  14.470  -5.092  1.00 20.00    -0.130 Cl
ENDBRANCH   2   9
TORSDOF 4
ENDMDL
MODEL 7
REMARK VINA RESULT:      -3.5     11.050     12.064
REMARK  4 active torsions:
REMARK  status: ('A' for Active; 'I' for Inactive)
REMARK    1  A    between atoms: C2_2  and  C6_6 
REMARK    2  A    between atoms: C3_3  and  C7_7 
REMARK    3  A    between atoms: C3_3  and  C8_8 
REMARK    4  A    between atoms: C8_8  and  O9_9 
ROOT
HETATM    1  C1  UNL     1     -33.685  14.748  -4.045  1.00 20.00     0.018 A 
HETATM    2  C2  UNL     1     -34.372  15.776  -3.193  1.00 20.00     0.011 A 
HETATM    3  C3  UNL     1     -34.899  15.481  -4.591  1.00 20.00    -0.014 A 
ENDROOT
BRANCH   3   4
HETATM    4  C7  UNL     1     -36.196  14.722  -4.690  1.00 20.00     0.007 C 
HETATM    5  C4  UNL     1     -36.029  13.390  -5.364  1.00 20.00     0.006 C 
ENDBRANCH   3   4
BRANCH   3   6
HETATM    6  C8  UNL     1     -34.686  16.475  -5.702  1.00 20.00     0.176 C 
BRANCH   6   7
HETATM    7  O9  UNL     1     -33.600  16.044  -6.516  1.00 20.00    -0.395 OA
HETATM    8  C5  UNL     1     -34.054  15.512  -7.752  1.00 20.00     0.201 C 
ENDBRANCH   6   7
ENDBRANCH   3   6
BRANCH   2   9
HETATM    9  C6  UNL     1     -33.681  17.049  -2.845  1.00 20.00     0.120 C 
HETATM   10 CL10 UNL     1     -33.904  17.457  -1.121  1.00 20.00    -0.130 Cl
ENDBRANCH   2   9
TORSDOF 4
ENDMDL
MODEL 8
REMARK VINA RESULT:      -3.4      1.318      2.738
REMARK  4 active torsions:
REMARK  status: ('A' for Active; 'I' for Inactive)
REMARK    1  A    between atoms: C2_2  and  C6_6 
REMARK    2  A    between atoms: C3_3  and  C7_7 
REMARK    3  A    between atoms: C3_3  and  C8_8 
REMARK    4  A    between atoms: C8_8  and  O9_9 
ROOT
HETATM    1  C1  UNL     1     -33.881   6.439   1.811  1.00 20.00     0.018 A 
HETATM    2  C2  UNL     1     -32.605   6.754   2.538  1.00 20.00     0.011 A 
HETATM    3  C3  UNL     1     -33.725   6.018   3.263  1.00 20.00    -0.014 A 
ENDROOT
BRANCH   3   4
HETATM    4  C7  UNL     1     -33.510   4.557   3.554  1.00 20.00     0.007 C 
HETATM    5  C4  UNL     1     -34.485   4.025   4.566  1.00 20.00     0.006 C 
ENDBRANCH   3   4
BRANCH   3   6
HETATM    6  C8  UNL     1     -34.549   6.734   4.300  1.00 20.00     0.176 C 
BRANCH   6   7
HETATM    7  O9  UNL     1     -34.004   6.483   5.590  1.00 20.00    -0.395 OA
HETATM    8  C5  UNL     1     -33.480   7.667   6.175  1.00 20.00     0.201 C 
ENDBRANCH   6   7
ENDBRANCH   3   6
BRANCH   2   9
HETATM    9  C6  UNL     1     -32.241   8.166   2.843  1.00 20.00     0.120 C 
HETATM   10 CL10 UNL     1     -32.193   9.157   1.358  1.00 20.00    -0.130 Cl
ENDBRANCH   2   9
TORSDOF 4
ENDMDL
MODEL 9
REMARK VINA RESULT:      -3.4     11.079     11.965
REMARK  4 active torsions:
REMARK  status: ('A' for Active; 'I' for Inactive)
REMARK    1  A    between atoms: C2_2  and  C6_6 
REMARK    2  A    between atoms: C3_3  and  C7_7 
REMARK    3  A    between atoms: C3_3  and  C8_8 
REMARK    4  A    between atoms: C8_8  and  O9_9 
ROOT
HETATM    1  C1  UNL     1     -33.575  17.033  -2.291  1.00 20.00     0.018 A 
HETATM    2  C2  UNL     1     -34.880  16.585  -1.698  1.00 20.00     0.011 A 
HETATM    3  C3  UNL     1     -34.660  16.482  -3.202  1.00 20.00    -0.014 A 
ENDROOT
BRANCH   3   4
HETATM    4  C7  UNL     1     -34.466  15.103  -3.774  1.00 20.00     0.007 C 
HETATM    5  C4  UNL     1     -33.178  14.975  -4.537  1.00 20.00     0.006 C 
ENDBRANCH   3   4
BRANCH   3   6
HETATM    6  C8  UNL     1     -35.356  17.438  -4.133  1.00 20.00     0.176 C 
BRANCH   6   7
HETATM    7  O9  UNL     1     -36.359  16.739  -4.861  1.00 20.00    -0.395 OA
HETATM    8  C5  UNL     1     -37.658  17.021  -4.360  1.00 20.00     0.201 C 
ENDBRANCH   6   7
ENDBRANCH   3   6
BRANCH   2   9
HETATM    9  C6  UNL     1     -35.809  17.576  -1.088  1.00 20.00     0.120 C 
HETATM   10 CL10 UNL     1     -35.745  17.511   0.695  1.00 20.00    -0.130 Cl
ENDBRANCH   2   9
TORSDOF 4
ENDMDL
