MODEL 1
REMARK VINA RESULT:      -5.2      0.000      0.000
REMARK  3 active torsions:
REMARK  status: ('A' for Active; 'I' for Inactive)
REMARK    1  A    between atoms: C4_4  and  C6_6 
REMARK    2  A    between atoms: C5_5  and  C8_8 
REMARK    3  A    between atoms: C6_6  and  C9_9 
ROOT
HETATM    1  C3  UNL     1     -31.792   7.740   3.572  1.00 20.00     0.017 A 
HETATM    2  C5  UNL     1     -32.695   8.567   2.700  1.00 20.00     0.009 A 
HETATM    3  C6  UNL     1     -33.257   7.359   3.438  1.00 20.00    -0.032 A 
ENDROOT
BRANCH   3   4
HETATM    4  C4  UNL     1     -33.657   6.071   2.703  1.00 20.00    -0.006 A 
HETATM    5  C1  UNL     1     -32.796   4.839   2.702  1.00 20.00     0.006 A 
HETATM    6  C2  UNL     1     -34.113   4.835   3.426  1.00 20.00     0.006 A 
ENDBRANCH   3   4
BRANCH   3   7
HETATM    7  C9  UNL     1     -34.143   7.666   4.622  1.00 20.00     0.006 C 
HETATM    8  C7  UNL     1     -33.502   7.286   5.924  1.00 20.00     0.006 C 
ENDBRANCH   3   7
BRANCH   2   9
HETATM    9  C8  UNL     1     -32.507   8.576   1.223  1.00 20.00     0.120 C 
HETATM   10 CL10 UNL     1     -32.607  10.233   0.567  1.00 20.00    -0.130 Cl
ENDBRANCH   2   9
TORSDOF 3
ENDMDL
MODEL 2
REMARK VINA RESULT:      -4.2      1.029      2.738
REMARK  3 active torsions:
REMARK  status: ('A' for Active; 'I' for Inactive)
REMARK    1  A    between atoms: C4_4  and  C6_6 
REMARK    2  A    between atoms: C5_5  and  C8_8 
REMARK    3  A    between atoms: C6_6  and  C9_9 
ROOT
HETATM    1  C3  UNL     1     -34.070   6.479   2.067  1.00 20.00     0.017 A 
HETATM    2  C5  UNL     1     -32.674   6.897   2.438  1.00 20.00     0.009 A 
HETATM    3  C6  UNL     1     -33.568   6.241   3.482  1.00 20.00    -0.032 A 
ENDROOT
BRANCH   3   4
HETATM    4  C4  UNL     1     -34.163   7.031   4.656  1.00 20.00    -0.006 A 
HETATM    5  C1  UNL     1     -34.398   6.420   6.009  1.00 20.00     0.006 A 
HETATM    6  C2  UNL     1     -33.342   7.475   5.834  1.00 20.00     0.006 A 
ENDBRANCH   3   4
BRANCH   3   7
HETATM    7  C9  UNL     1     -33.221   4.815   3.842  1.00 20.00     0.006 C 
HETATM    8  C7  UNL     1     -34.424   4.031   4.279  1.00 20.00     0.006 C 
ENDBRANCH   3   7
BRANCH   2   9
HETATM    9  C8  UNL     1     -32.316   8.341   2.497  1.00 20.00     0.120 C 
HETATM   10 CL10 UNL     1     -32.031   9.005   0.865  1.00 20.00    -0.130 Cl
ENDBRANCH   2   9
TORSDOF 3
ENDMDL
MODEL 3
REMARK VINA RESULT:      -3.9      2.617      4.073
REMARK  3 active torsions:
REMARK  status: ('A' for Active; 'I' for Inactive)
REMARK    1  A    between atoms: C4_4  and  C6_6 
REMARK    2  A    between atoms: C5_5  and  C8_8 
REMARK    3  A    between atoms: C6_6  and  C9_9 
ROOT
HETATM    1  C3  UNL     1     -32.985   5.683   2.689  1.00 20.00     0.017 A 
HETATM    2  C5  UNL     1     -34.402   6.096   2.969  1.00 20.00     0.009 A 
HETATM    3  C6  UNL     1     -33.256   7.026   3.347  1.00 20.00    -0.032 A 
ENDROOT
BRANCH   3   4
HETATM    4  C4  UNL     1     -32.851   7.265   4.808  1.00 20.00    -0.006 A 
HETATM    5  C1  UNL     1     -33.326   8.453   5.597  1.00 20.00     0.006 A 
HETATM    6  C2  UNL     1     -33.803   7.074   5.955  1.00 20.00     0.006 A 
ENDBRANCH   3   4
BRANCH   3   7
HETATM    7  C9  UNL     1     -33.087   8.248   2.476  1.00 20.00     0.006 C 
HETATM    8  C7  UNL     1     -31.687   8.384   1.954  1.00 20.00     0.006 C 
ENDBRANCH   3   7
BRANCH   2   9
HETATM    9  C8  UNL     1     -35.204   5.372   3.994  1.00 20.00     0.120 C 
HETATM   10 CL10 UNL     1     -34.342   3.928   4.590  1.00 20.00    -0.130 Cl
ENDBRANCH   2   9
TORSDOF 3
ENDMDL
MODEL 4
REMARK VINA RESULT:      -3.8     10.744     11.640
REMARK  3 active torsions:
REMARK  status: ('A' for Active; 'I' for Inactive)
REMARK    1  A    between atoms: C4_4  and  C6_6 
REMARK    2  A    between atoms: C5_5  and  C8_8 
REMARK    3  A    between atoms: C6_6  and  C9_9 
ROOT
HETATM    1  C3  UNL     1     -35.498  17.668  -2.869  1.00 20.00     0.017 A 
HETATM    2  C5  UNL     1     -35.034  16.245  -2.725  1.00 20.00     0.009 A 
HETATM    3  C6  UNL     1     -34.673  17.268  -1.656  1.00 20.00    -0.032 A 
ENDROOT
BRANCH   3   4
HETATM    4  C4  UNL     1     -33.242  17.798  -1.487  1.00 20.00    -0.006 A 
HETATM    5  C1  UNL     1     -32.908  19.263  -1.547  1.00 20.00     0.006 A 
HETATM    6  C2  UNL     1     -32.785  18.517  -0.249  1.00 20.00     0.006 A 
ENDBRANCH   3   4
BRANCH   3   7
HETATM    7  C9  UNL     1     -35.418  17.142  -0.348  1.00 20.00     0.006 C 
HETATM    8  C7  UNL     1     -36.463  18.206  -0.184  1.00 20.00     0.006 C 
ENDBRANCH   3   7
BRANCH   2   9
HETATM    9  C8  UNL     1     -34.020  15.691  -3.665  1.00 20.00     0.120 C 
HETATM   10 CL10 UNL     1     -34.386  13.995  -4.086  1.00 20.00    -0.130 Cl
ENDBRANCH   2   9
TORSDOF 3
ENDMDL
MODEL 5
REMARK VINA RESULT:      -3.8      2.186      3.578
REMARK  3 active torsions:
REMARK  status: ('A' for Active; 'I' for Inactive)
REMARK    1  A    between atoms: C4_4  and  C6_6 
REMARK    2  A    between atoms: C5_5  and  C8_8 
REMARK    3  A    between atoms: C6_6  and  C9_9 
ROOT
HETATM    1  C3  UNL     1     -35.145   6.148   3.267  1.00 20.00     0.017 A 
HETATM    2  C5  UNL     1     -34.415   5.319   4.287  1.00 20.00     0.009 A 
HETATM    3  C6  UNL     1     -33.905   6.712   3.941  1.00 20.00    -0.032 A 
ENDROOT
BRANCH   3   4
HETATM    4  C4  UNL     1     -32.618   6.930   3.133  1.00 20.00    -0.006 A 
HETATM    5  C1  UNL     1     -32.483   8.014   2.100  1.00 20.00     0.006 A 
HETATM    6  C2  UNL     1     -31.694   8.090   3.377  1.00 20.00     0.006 A 
ENDBRANCH   3   4
BRANCH   3   7
HETATM    7  C9  UNL     1     -34.134   7.775   4.990  1.00 20.00     0.006 C 
HETATM    8  C7  UNL     1     -33.534   7.404   6.315  1.00 20.00     0.006 C 
ENDBRANCH   3   7
BRANCH   2   9
HETATM    9  C8  UNL     1     -33.692   4.086   3.870  1.00 20.00     0.120 C 
HETATM   10 CL10 UNL     1     -33.112   4.212   2.187  1.00 20.00    -0.130 Cl
ENDBRANCH   2   9
TORSDOF 3
ENDMDL
MODEL 6
REMARK VINA RESULT:      -3.6     10.774     11.645
REMARK  3 active torsions:
REMARK  status: ('A' for Active; 'I' for Inactive)
REMARK    1  A    between atoms: C4_4  and  C6_6 
REMARK    2  A    between atoms: C5_5  and  C8_8 
REMARK    3  A    between atoms: C6_6  and  C9_9 
ROOT
HETATM    1  C3  UNL     1     -34.135  17.505  -3.435  1.00 20.00     0.017 A 
HETATM    2  C5  UNL     1     -34.205  16.714  -2.160  1.00 20.00     0.009 A 
HETATM    3  C6  UNL     1     -34.655  16.077  -3.468  1.00 20.00    -0.032 A 
ENDROOT
BRANCH   3   4
HETATM    4  C4  UNL     1     -36.134  15.801  -3.771  1.00 20.00    -0.006 A 
HETATM    5  C1  UNL     1     -36.767  16.135  -5.094  1.00 20.00     0.006 A 
HETATM    6  C2  UNL     1     -36.581  14.699  -4.692  1.00 20.00     0.006 A 
ENDBRANCH   3   4
BRANCH   3   7
HETATM    7  C9  UNL     1     -33.726  15.035  -4.046  1.00 20.00     0.006 C 
HETATM    8  C7  UNL     1     -33.003  15.532  -5.263  1.00 20.00     0.006 C 
ENDBRANCH   3   7
BRANCH   2   9
HETATM    9  C8  UNL     1     -35.170  17.098  -1.093  1.00 20.00     0.120 C 
HETATM   10 CL10 UNL     1     -34.370  18.031   0.201  1.00 20.00    -0.130 Cl
ENDBRANCH   2   9
TORSDOF 3
ENDMDL
MODEL 7
REMARK VINA RESULT:      -3.5     10.638     12.067
REMARK  3 active torsions:
REMARK  status: ('A' for Active; 'I' for Inactive)
REMARK    1  A    between atoms: C4_4  and  C6_6 
REMARK    2  A    between atoms: C5_5  and  C8_8 
REMARK    3  A    between atoms: C6_6  and  C9_9 
ROOT
HETATM    1  C3  UNL     1     -33.726  14.683  -4.128  1.00 20.00     0.017 A 
HETATM    2  C5  UNL     1     -34.409  15.710  -3.269  1.00 20.00     0.009 A 
HETATM    3  C6  UNL     1     -34.862  15.508  -4.709  1.00 20.00    -0.032 A 
ENDROOT
BRANCH   3   4
HETATM    4  C4  UNL     1     -34.579  16.547  -5.804  1.00 20.00    -0.006 A 
HETATM    5  C1  UNL     1     -33.901  16.196  -7.099  1.00 20.00     0.006 A 
HETATM    6  C2  UNL     1     -35.350  16.595  -7.094  1.00 20.00     0.006 A 
ENDBRANCH   3   4
BRANCH   3   7
HETATM    7  C9  UNL     1     -36.184  14.801  -4.889  1.00 20.00     0.006 C 
HETATM    8  C7  UNL     1     -36.013  13.394  -5.381  1.00 20.00     0.006 C 
ENDBRANCH   3   7
BRANCH   2   9
HETATM    9  C8  UNL     1     -33.674  16.930  -2.834  1.00 20.00     0.120 C 
HETATM   10 CL10 UNL     1     -34.053  17.346  -1.141  1.00 20.00    -0.130 Cl
ENDBRANCH   2   9
TORSDOF 3
ENDMDL
MODEL 8
REMARK VINA RESULT:      -3.5     10.675     11.688
REMARK  3 active torsions:
REMARK  status: ('A' for Active; 'I' for Inactive)
REMARK    1  A    between atoms: C4_4  and  C6_6 
REMARK    2  A    between atoms: C5_5  and  C8_8 
REMARK    3  A    between atoms: C6_6  and  C9_9 
ROOT
HETATM    1  C3  UNL     1     -33.941  16.811  -4.359  1.00 20.00     0.017 A 
HETATM    2  C5  UNL     1     -33.750  16.289  -2.963  1.00 20.00     0.009 A 
HETATM    3  C6  UNL     1     -34.827  15.684  -3.854  1.00 20.00    -0.032 A 
ENDROOT
BRANCH   3   4
HETATM    4  C4  UNL     1     -36.322  15.930  -3.605  1.00 20.00    -0.006 A 
HETATM    5  C1  UNL     1     -37.199  16.655  -4.587  1.00 20.00     0.006 A 
HETATM    6  C2  UNL     1     -37.400  15.186  -4.343  1.00 20.00     0.006 A 
ENDBRANCH   3   4
BRANCH   3   7
HETATM    7  C9  UNL     1     -34.535  14.304  -4.394  1.00 20.00     0.006 C 
HETATM    8  C7  UNL     1     -34.316  14.309  -5.878  1.00 20.00     0.006 C 
ENDBRANCH   3   7
BRANCH   2   9
HETATM    9  C8  UNL     1     -34.082  17.147  -1.792  1.00 20.00     0.120 C 
HETATM   10 CL10 UNL     1     -32.648  18.040  -1.215  1.00 20.00    -0.130 Cl
ENDBRANCH   2   9
TORSDOF 3
ENDMDL
MODEL 9
REMARK VINA RESULT:      -3.5     10.400     12.017
REMARK  3 active torsions:
REMARK  status: ('A' for Active; 'I' for Inactive)
REMARK    1  A    between atoms: C4_4  and  C6_6 
REMARK    2  A    between atoms: C5_5  and  C8_8 
REMARK    3  A    between atoms: C6_6  and  C9_9 
ROOT
HETATM    1  C3  UNL     1     -33.639  16.751  -4.816  1.00 20.00     0.017 A 
HETATM    2  C5  UNL     1     -34.716  15.738  -4.547  1.00 20.00     0.009 A 
HETATM    3  C6  UNL     1     -34.541  16.922  -3.605  1.00 20.00    -0.032 A 
ENDROOT
BRANCH   3   4
HETATM    4  C4  UNL     1     -33.972  16.758  -2.188  1.00 20.00    -0.006 A 
HETATM    5  C1  UNL     1     -33.061  17.773  -1.558  1.00 20.00     0.006 A 
HETATM    6  C2  UNL     1     -34.451  17.577  -1.022  1.00 20.00     0.006 A 
ENDBRANCH   3   4
BRANCH   3   7
HETATM    7  C9  UNL     1     -35.597  17.998  -3.699  1.00 20.00     0.006 C 
HETATM    8  C7  UNL     1     -35.067  19.261  -4.313  1.00 20.00     0.006 C 
ENDBRANCH   3   7
BRANCH   2   9
HETATM    9  C8  UNL     1     -34.355  14.349  -4.148  1.00 20.00     0.120 C 
HETATM   10 CL10 UNL     1     -32.593  14.082  -4.254  1.00 20.00    -0.130 Cl
ENDBRANCH   2   9
TORSDOF 3
ENDMDL
