MODEL 1
REMARK VINA RESULT:      -5.0      0.000      0.000
REMARK  3 active torsions:
REMARK  status: ('A' for Active; 'I' for Inactive)
REMARK    1  A    between atoms: C4_4  and  C5_5 
REMARK    2  A    between atoms: C6_6  and  C7_7 
REMARK    3  A    between atoms: C7_7  and  O8_8 
ROOT
HETATM    1  C3  UNL     1     -33.831   7.359   6.002  1.00 20.00     0.012 A 
HETATM    2  C5  UNL     1     -33.178   6.937   4.713  1.00 20.00    -0.004 A 
HETATM    3  C6  UNL     1     -34.482   6.314   5.136  1.00 20.00     0.014 A 
ENDROOT
BRANCH   2   4
HETATM    4  C4  UNL     1     -33.068   7.860   3.509  1.00 20.00    -0.010 A 
HETATM    5  C1  UNL     1     -31.747   8.294   2.937  1.00 20.00     0.005 A 
HETATM    6  C2  UNL     1     -32.640   7.375   2.151  1.00 20.00     0.005 A 
ENDBRANCH   2   4
BRANCH   3   7
HETATM    7  C7  UNL     1     -34.528   4.893   5.582  1.00 20.00     0.169 C 
BRANCH   7   8
HETATM    8  O8  UNL     1     -35.008   4.064   4.523  1.00 20.00    -0.400 OA
HETATM    9  H20 UNL     1     -34.841   4.548   3.700  1.00 20.00     0.209 HD
ENDBRANCH   7   8
ENDBRANCH   3   7
TORSDOF 3
ENDMDL
MODEL 2
REMARK VINA RESULT:      -5.0      2.165      3.040
REMARK  3 active torsions:
REMARK  status: ('A' for Active; 'I' for Inactive)
REMARK    1  A    between atoms: C4_4  and  C5_5 
REMARK    2  A    between atoms: C6_6  and  C7_7 
REMARK    3  A    between atoms: C7_7  and  O8_8 
ROOT
HETATM    1  C3  UNL     1     -32.767   6.521   2.560  1.00 20.00     0.012 A 
HETATM    2  C5  UNL     1     -33.085   7.988   2.451  1.00 20.00    -0.004 A 
HETATM    3  C6  UNL     1     -32.711   7.396   3.784  1.00 20.00     0.014 A 
ENDROOT
BRANCH   2   4
HETATM    4  C4  UNL     1     -32.186   8.969   1.714  1.00 20.00    -0.010 A 
HETATM    5  C1  UNL     1     -32.350   9.279   0.252  1.00 20.00     0.005 A 
HETATM    6  C2  UNL     1     -32.654  10.331   1.281  1.00 20.00     0.005 A 
ENDBRANCH   2   4
BRANCH   3   7
HETATM    7  C7  UNL     1     -33.735   7.250   4.857  1.00 20.00     0.169 C 
BRANCH   7   8
HETATM    8  O8  UNL     1     -33.144   7.502   6.132  1.00 20.00    -0.400 OA
HETATM    9  H20 UNL     1     -33.786   7.204   6.794  1.00 20.00     0.209 HD
ENDBRANCH   7   8
ENDBRANCH   3   7
TORSDOF 3
ENDMDL
MODEL 3
REMARK VINA RESULT:      -4.9      2.798      4.354
REMARK  3 active torsions:
REMARK  status: ('A' for Active; 'I' for Inactive)
REMARK    1  A    between atoms: C4_4  and  C5_5 
REMARK    2  A    between atoms: C6_6  and  C7_7 
REMARK    3  A    between atoms: C7_7  and  O8_8 
ROOT
HETATM    1  C3  UNL     1     -31.790   7.954   3.727  1.00 20.00     0.012 A 
HETATM    2  C5  UNL     1     -33.228   7.578   3.486  1.00 20.00    -0.004 A 
HETATM    3  C6  UNL     1     -32.314   7.847   2.319  1.00 20.00     0.014 A 
ENDROOT
BRANCH   2   4
HETATM    4  C4  UNL     1     -33.774   6.192   3.791  1.00 20.00    -0.010 A 
HETATM    5  C1  UNL     1     -34.458   5.856   5.087  1.00 20.00     0.005 A 
HETATM    6  C2  UNL     1     -35.247   5.886   3.808  1.00 20.00     0.005 A 
ENDBRANCH   2   4
BRANCH   3   7
HETATM    7  C7  UNL     1     -32.492   9.072   1.490  1.00 20.00     0.169 C 
BRANCH   7   8
HETATM    8  O8  UNL     1     -31.586   9.051   0.387  1.00 20.00    -0.400 OA
HETATM    9  H20 UNL     1     -31.323   8.126   0.267  1.00 20.00     0.209 HD
ENDBRANCH   7   8
ENDBRANCH   3   7
TORSDOF 3
ENDMDL
MODEL 4
REMARK VINA RESULT:      -4.9      2.617      4.371
REMARK  3 active torsions:
REMARK  status: ('A' for Active; 'I' for Inactive)
REMARK    1  A    between atoms: C4_4  and  C5_5 
REMARK    2  A    between atoms: C6_6  and  C7_7 
REMARK    3  A    between atoms: C7_7  and  O8_8 
ROOT
HETATM    1  C3  UNL     1     -32.852   6.247   2.472  1.00 20.00     0.012 A 
HETATM    2  C5  UNL     1     -32.878   7.118   3.700  1.00 20.00    -0.004 A 
HETATM    3  C6  UNL     1     -32.946   7.743   2.331  1.00 20.00     0.014 A 
ENDROOT
BRANCH   2   4
HETATM    4  C4  UNL     1     -34.054   7.140   4.664  1.00 20.00    -0.010 A 
HETATM    5  C1  UNL     1     -34.453   5.944   5.484  1.00 20.00     0.005 A 
HETATM    6  C2  UNL     1     -33.878   7.159   6.158  1.00 20.00     0.005 A 
ENDBRANCH   2   4
BRANCH   3   7
HETATM    7  C7  UNL     1     -31.791   8.520   1.800  1.00 20.00     0.169 C 
BRANCH   7   8
HETATM    8  O8  UNL     1     -32.195   9.277   0.659  1.00 20.00    -0.400 OA
HETATM    9  H20 UNL     1     -31.812  10.160   0.768  1.00 20.00     0.209 HD
ENDBRANCH   7   8
ENDBRANCH   3   7
TORSDOF 3
ENDMDL
MODEL 5
REMARK VINA RESULT:      -4.8      1.442      2.068
REMARK  3 active torsions:
REMARK  status: ('A' for Active; 'I' for Inactive)
REMARK    1  A    between atoms: C4_4  and  C5_5 
REMARK    2  A    between atoms: C6_6  and  C7_7 
REMARK    3  A    between atoms: C7_7  and  O8_8 
ROOT
HETATM    1  C3  UNL     1     -32.950   5.449   2.705  1.00 20.00     0.012 A 
HETATM    2  C5  UNL     1     -33.387   6.879   2.530  1.00 20.00    -0.004 A 
HETATM    3  C6  UNL     1     -33.741   6.132   3.789  1.00 20.00     0.014 A 
ENDROOT
BRANCH   2   4
HETATM    4  C4  UNL     1     -32.406   8.041   2.521  1.00 20.00    -0.010 A 
HETATM    5  C1  UNL     1     -31.569   8.386   1.321  1.00 20.00     0.005 A 
HETATM    6  C2  UNL     1     -32.664   9.315   1.765  1.00 20.00     0.005 A 
ENDBRANCH   2   4
BRANCH   3   7
HETATM    7  C7  UNL     1     -35.151   5.729   4.054  1.00 20.00     0.169 C 
BRANCH   7   8
HETATM    8  O8  UNL     1     -35.180   4.491   4.765  1.00 20.00    -0.400 OA
HETATM    9  H20 UNL     1     -35.737   4.635   5.544  1.00 20.00     0.209 HD
ENDBRANCH   7   8
ENDBRANCH   3   7
TORSDOF 3
ENDMDL
MODEL 6
REMARK VINA RESULT:      -4.7      2.071      2.916
REMARK  3 active torsions:
REMARK  status: ('A' for Active; 'I' for Inactive)
REMARK    1  A    between atoms: C4_4  and  C5_5 
REMARK    2  A    between atoms: C6_6  and  C7_7 
REMARK    3  A    between atoms: C7_7  and  O8_8 
ROOT
HETATM    1  C3  UNL     1     -31.834   8.025   3.331  1.00 20.00     0.012 A 
HETATM    2  C5  UNL     1     -32.386   8.057   1.931  1.00 20.00    -0.004 A 
HETATM    3  C6  UNL     1     -33.069   7.233   2.991  1.00 20.00     0.014 A 
ENDROOT
BRANCH   2   4
HETATM    4  C4  UNL     1     -33.023   9.300   1.329  1.00 20.00    -0.010 A 
HETATM    5  C1  UNL     1     -32.213  10.455   0.809  1.00 20.00     0.005 A 
HETATM    6  C2  UNL     1     -32.993   9.594  -0.146  1.00 20.00     0.005 A 
ENDBRANCH   2   4
BRANCH   3   7
HETATM    7  C7  UNL     1     -33.015   5.745   2.940  1.00 20.00     0.169 C 
BRANCH   7   8
HETATM    8  O8  UNL     1     -34.127   5.191   3.644  1.00 20.00    -0.400 OA
HETATM    9  H20 UNL     1     -34.853   5.825   3.549  1.00 20.00     0.209 HD
ENDBRANCH   7   8
ENDBRANCH   3   7
TORSDOF 3
ENDMDL
MODEL 7
REMARK VINA RESULT:      -4.5      2.282      4.171
REMARK  3 active torsions:
REMARK  status: ('A' for Active; 'I' for Inactive)
REMARK    1  A    between atoms: C4_4  and  C5_5 
REMARK    2  A    between atoms: C6_6  and  C7_7 
REMARK    3  A    between atoms: C7_7  and  O8_8 
ROOT
HETATM    1  C3  UNL     1     -33.968   6.229   2.015  1.00 20.00     0.012 A 
HETATM    2  C5  UNL     1     -33.609   6.007   3.460  1.00 20.00    -0.004 A 
HETATM    3  C6  UNL     1     -33.314   7.331   2.805  1.00 20.00     0.014 A 
ENDROOT
BRANCH   2   4
HETATM    4  C4  UNL     1     -34.658   5.853   4.551  1.00 20.00    -0.010 A 
HETATM    5  C1  UNL     1     -34.560   4.811   5.630  1.00 20.00     0.005 A 
HETATM    6  C2  UNL     1     -34.413   6.267   5.976  1.00 20.00     0.005 A 
ENDBRANCH   2   4
BRANCH   3   7
HETATM    7  C7  UNL     1     -31.909   7.731   2.514  1.00 20.00     0.169 C 
BRANCH   7   8
HETATM    8  O8  UNL     1     -31.366   8.448   3.622  1.00 20.00    -0.400 OA
HETATM    9  H20 UNL     1     -30.412   8.275   3.619  1.00 20.00     0.209 HD
ENDBRANCH   7   8
ENDBRANCH   3   7
TORSDOF 3
ENDMDL
MODEL 8
REMARK VINA RESULT:      -4.1     11.649     12.174
REMARK  3 active torsions:
REMARK  status: ('A' for Active; 'I' for Inactive)
REMARK    1  A    between atoms: C4_4  and  C5_5 
REMARK    2  A    between atoms: C6_6  and  C7_7 
REMARK    3  A    between atoms: C7_7  and  O8_8 
ROOT
HETATM    1  C3  UNL     1     -33.306  15.149  -4.688  1.00 20.00     0.012 A 
HETATM    2  C5  UNL     1     -34.296  15.886  -3.827  1.00 20.00    -0.004 A 
HETATM    3  C6  UNL     1     -34.526  14.437  -4.167  1.00 20.00     0.014 A 
ENDROOT
BRANCH   2   4
HETATM    4  C4  UNL     1     -33.970  16.349  -2.415  1.00 20.00    -0.010 A 
HETATM    5  C1  UNL     1     -33.800  17.799  -2.056  1.00 20.00     0.005 A 
HETATM    6  C2  UNL     1     -34.979  17.029  -1.531  1.00 20.00     0.005 A 
ENDBRANCH   2   4
BRANCH   3   7
HETATM    7  C7  UNL     1     -35.621  14.047  -5.099  1.00 20.00     0.169 C 
BRANCH   7   8
HETATM    8  O8  UNL     1     -35.888  12.649  -4.982  1.00 20.00    -0.400 OA
HETATM    9  H20 UNL     1     -36.840  12.540  -5.121  1.00 20.00     0.209 HD
ENDBRANCH   7   8
ENDBRANCH   3   7
TORSDOF 3
ENDMDL
MODEL 9
REMARK VINA RESULT:      -3.8      3.395      5.070
REMARK  3 active torsions:
REMARK  status: ('A' for Active; 'I' for Inactive)
REMARK    1  A    between atoms: C4_4  and  C5_5 
REMARK    2  A    between atoms: C6_6  and  C7_7 
REMARK    3  A    between atoms: C7_7  and  O8_8 
ROOT
HETATM    1  C3  UNL     1     -32.427  10.210   1.719  1.00 20.00     0.012 A 
HETATM    2  C5  UNL     1     -32.967   8.810   1.844  1.00 20.00    -0.004 A 
HETATM    3  C6  UNL     1     -32.294   9.246   0.569  1.00 20.00     0.014 A 
ENDROOT
BRANCH   2   4
HETATM    4  C4  UNL     1     -32.355   7.776   2.776  1.00 20.00    -0.010 A 
HETATM    5  C1  UNL     1     -32.996   7.373   4.075  1.00 20.00     0.005 A 
HETATM    6  C2  UNL     1     -32.922   6.392   2.938  1.00 20.00     0.005 A 
ENDBRANCH   2   4
BRANCH   3   7
HETATM    7  C7  UNL     1     -33.092   9.447  -0.673  1.00 20.00     0.169 C 
BRANCH   7   8
HETATM    8  O8  UNL     1     -32.720   8.478  -1.653  1.00 20.00    -0.400 OA
HETATM    9  H20 UNL     1     -32.588   8.963  -2.481  1.00 20.00     0.209 HD
ENDBRANCH   7   8
ENDBRANCH   3   7
TORSDOF 3
ENDMDL
