MODEL 1
REMARK VINA RESULT:      -4.5      0.000      0.000
REMARK  1 active torsions:
REMARK  status: ('A' for Active; 'I' for Inactive)
REMARK    1  A    between atoms: C4_4  and  C10_10 
ROOT
HETATM    1  C1  UNL     1     -31.431   8.243   3.782  1.00 20.00     0.007 C 
HETATM    2  C2  UNL     1     -31.856   9.432   2.919  1.00 20.00     0.009 C 
HETATM    3  C3  UNL     1     -33.458   7.925   1.655  1.00 20.00     0.013 C 
HETATM    4  C4  UNL     1     -32.532   7.180   3.924  1.00 20.00     0.003 C 
HETATM    5  C5  UNL     1     -33.024   6.732   2.527  1.00 20.00    -0.013 C 
HETATM    6  C6  UNL     1     -32.377   9.023   1.524  1.00 20.00    -0.047 C 
HETATM    7  C7  UNL     1     -34.145   5.692   2.599  1.00 20.00     0.010 C 
HETATM    8  C8  UNL     1     -33.000  10.258   0.843  1.00 20.00     0.015 C 
HETATM    9  C9  UNL     1     -31.214   8.536   0.637  1.00 20.00     0.015 C 
ENDROOT
BRANCH   4  10
HETATM   10  C10 UNL     1     -33.651   7.676   4.848  1.00 20.00     0.119 C 
HETATM   11 CL11 UNL     1     -34.140   6.382   5.952  1.00 20.00    -0.130 Cl
ENDBRANCH   4  10
TORSDOF 1
ENDMDL
MODEL 2
REMARK VINA RESULT:      -4.2     10.512     11.367
REMARK  1 active torsions:
REMARK  status: ('A' for Active; 'I' for Inactive)
REMARK    1  A    between atoms: C4_4  and  C10_10 
ROOT
HETATM    1  C1  UNL     1     -33.679  16.350  -3.325  1.00 20.00     0.007 C 
HETATM    2  C2  UNL     1     -34.624  16.991  -4.342  1.00 20.00     0.009 C 
HETATM    3  C3  UNL     1     -36.255  17.520  -2.471  1.00 20.00     0.013 C 
HETATM    4  C4  UNL     1     -33.823  16.942  -1.914  1.00 20.00     0.003 C 
HETATM    5  C5  UNL     1     -35.298  16.871  -1.454  1.00 20.00    -0.013 C 
HETATM    6  C6  UNL     1     -36.106  16.962  -3.906  1.00 20.00    -0.047 C 
HETATM    7  C7  UNL     1     -35.515  17.475  -0.063  1.00 20.00     0.010 C 
HETATM    8  C8  UNL     1     -36.926  17.840  -4.871  1.00 20.00     0.015 C 
HETATM    9  C9  UNL     1     -36.662  15.526  -3.989  1.00 20.00     0.015 C 
ENDROOT
BRANCH   4  10
HETATM   10  C10 UNL     1     -33.218  18.350  -1.851  1.00 20.00     0.119 C 
HETATM   11 CL11 UNL     1     -32.043  18.445  -0.532  1.00 20.00    -0.130 Cl
ENDBRANCH   4  10
TORSDOF 1
ENDMDL
MODEL 3
REMARK VINA RESULT:      -4.2     10.310     11.978
REMARK  1 active torsions:
REMARK  status: ('A' for Active; 'I' for Inactive)
REMARK    1  A    between atoms: C4_4  and  C10_10 
ROOT
HETATM    1  C1  UNL     1     -33.168  15.044  -4.732  1.00 20.00     0.007 C 
HETATM    2  C2  UNL     1     -34.235  15.145  -3.640  1.00 20.00     0.009 C 
HETATM    3  C3  UNL     1     -34.784  17.498  -4.413  1.00 20.00     0.013 C 
HETATM    4  C4  UNL     1     -33.474  15.926  -5.954  1.00 20.00     0.003 C 
HETATM    5  C5  UNL     1     -33.708  17.390  -5.510  1.00 20.00    -0.013 C 
HETATM    6  C6  UNL     1     -34.514  16.595  -3.187  1.00 20.00    -0.047 C 
HETATM    7  C7  UNL     1     -34.048  18.317  -6.680  1.00 20.00     0.010 C 
HETATM    8  C8  UNL     1     -35.759  16.602  -2.278  1.00 20.00     0.015 C 
HETATM    9  C9  UNL     1     -33.329  17.139  -2.364  1.00 20.00     0.015 C 
ENDROOT
BRANCH   4  10
HETATM   10  C10 UNL     1     -34.625  15.335  -6.777  1.00 20.00     0.119 C 
HETATM   11 CL11 UNL     1     -34.336  13.614  -7.069  1.00 20.00    -0.130 Cl
ENDBRANCH   4  10
TORSDOF 1
ENDMDL
MODEL 4
REMARK VINA RESULT:      -4.0     10.511     11.785
REMARK  1 active torsions:
REMARK  status: ('A' for Active; 'I' for Inactive)
REMARK    1  A    between atoms: C4_4  and  C10_10 
ROOT
HETATM    1  C1  UNL     1     -35.987  17.787  -4.112  1.00 20.00     0.007 C 
HETATM    2  C2  UNL     1     -34.866  18.349  -3.236  1.00 20.00     0.009 C 
HETATM    3  C3  UNL     1     -33.924  16.010  -2.966  1.00 20.00     0.013 C 
HETATM    4  C4  UNL     1     -35.584  16.502  -4.852  1.00 20.00     0.003 C 
HETATM    5  C5  UNL     1     -35.055  15.451  -3.847  1.00 20.00    -0.013 C 
HETATM    6  C6  UNL     1     -34.295  17.321  -2.235  1.00 20.00    -0.047 C 
HETATM    7  C7  UNL     1     -34.608  14.153  -4.527  1.00 20.00     0.010 C 
HETATM    8  C8  UNL     1     -33.027  17.909  -1.587  1.00 20.00     0.015 C 
HETATM    9  C9  UNL     1     -35.312  17.045  -1.110  1.00 20.00     0.015 C 
ENDROOT
BRANCH   4  10
HETATM   10  C10 UNL     1     -34.609  16.815  -5.995  1.00 20.00     0.119 C 
HETATM   11 CL11 UNL     1     -35.232  16.160  -7.516  1.00 20.00    -0.130 Cl
ENDBRANCH   4  10
TORSDOF 1
ENDMDL
MODEL 5
REMARK VINA RESULT:      -4.0      9.894     11.532
REMARK  1 active torsions:
REMARK  status: ('A' for Active; 'I' for Inactive)
REMARK    1  A    between atoms: C4_4  and  C10_10 
ROOT
HETATM    1  C1  UNL     1     -34.606  14.239  -4.152  1.00 20.00     0.007 C 
HETATM    2  C2  UNL     1     -33.985  14.258  -5.550  1.00 20.00     0.009 C 
HETATM    3  C3  UNL     1     -35.301  16.358  -6.090  1.00 20.00     0.013 C 
HETATM    4  C4  UNL     1     -35.001  15.637  -3.652  1.00 20.00     0.003 C 
HETATM    5  C5  UNL     1     -35.922  16.332  -4.682  1.00 20.00    -0.013 C 
HETATM    6  C6  UNL     1     -34.865  14.966  -6.603  1.00 20.00    -0.047 C 
HETATM    7  C7  UNL     1     -36.329  17.746  -4.255  1.00 20.00     0.010 C 
HETATM    8  C8  UNL     1     -34.048  15.143  -7.897  1.00 20.00     0.015 C 
HETATM    9  C9  UNL     1     -36.098  14.103  -6.941  1.00 20.00     0.015 C 
ENDROOT
BRANCH   4  10
HETATM   10  C10 UNL     1     -33.757  16.453  -3.279  1.00 20.00     0.119 C 
HETATM   11 CL11 UNL     1     -33.896  17.042  -1.617  1.00 20.00    -0.130 Cl
ENDBRANCH   4  10
TORSDOF 1
ENDMDL
MODEL 6
REMARK VINA RESULT:      -4.0      9.795     11.017
REMARK  1 active torsions:
REMARK  status: ('A' for Active; 'I' for Inactive)
REMARK    1  A    between atoms: C4_4  and  C10_10 
ROOT
HETATM    1  C1  UNL     1     -33.523  16.702  -4.135  1.00 20.00     0.007 C 
HETATM    2  C2  UNL     1     -33.450  17.000  -2.637  1.00 20.00     0.009 C 
HETATM    3  C3  UNL     1     -35.940  16.557  -2.441  1.00 20.00     0.013 C 
HETATM    4  C4  UNL     1     -34.659  15.733  -4.500  1.00 20.00     0.003 C 
HETATM    5  C5  UNL     1     -36.006  16.259  -3.950  1.00 20.00    -0.013 C 
HETATM    6  C6  UNL     1     -34.784  17.505  -2.045  1.00 20.00    -0.047 C 
HETATM    7  C7  UNL     1     -37.178  15.321  -4.255  1.00 20.00     0.010 C 
HETATM    8  C8  UNL     1     -34.668  17.537  -0.509  1.00 20.00     0.015 C 
HETATM    9  C9  UNL     1     -35.075  18.942  -2.523  1.00 20.00     0.015 C 
ENDROOT
BRANCH   4  10
HETATM   10  C10 UNL     1     -34.320  14.306  -4.054  1.00 20.00     0.119 C 
HETATM   11 CL11 UNL     1     -32.584  14.013  -4.233  1.00 20.00    -0.130 Cl
ENDBRANCH   4  10
TORSDOF 1
ENDMDL
MODEL 7
REMARK VINA RESULT:      -3.9      9.932     11.079
REMARK  1 active torsions:
REMARK  status: ('A' for Active; 'I' for Inactive)
REMARK    1  A    between atoms: C4_4  and  C10_10 
ROOT
HETATM    1  C1  UNL     1     -36.307  17.493  -2.862  1.00 20.00     0.007 C 
HETATM    2  C2  UNL     1     -36.091  16.069  -3.376  1.00 20.00     0.009 C 
HETATM    3  C3  UNL     1     -33.611  16.283  -2.887  1.00 20.00     0.013 C 
HETATM    4  C4  UNL     1     -35.265  17.918  -1.815  1.00 20.00     0.003 C 
HETATM    5  C5  UNL     1     -33.836  17.717  -2.372  1.00 20.00    -0.013 C 
HETATM    6  C6  UNL     1     -34.666  15.821  -3.918  1.00 20.00    -0.047 C 
HETATM    7  C7  UNL     1     -32.747  18.096  -1.363  1.00 20.00     0.010 C 
HETATM    8  C8  UNL     1     -34.487  14.312  -4.175  1.00 20.00     0.015 C 
HETATM    9  C9  UNL     1     -34.467  16.552  -5.261  1.00 20.00     0.015 C 
ENDROOT
BRANCH   4  10
HETATM   10  C10 UNL     1     -35.517  17.210  -0.479  1.00 20.00     0.119 C 
HETATM   11 CL11 UNL     1     -36.608  18.181   0.522  1.00 20.00    -0.130 Cl
ENDBRANCH   4  10
TORSDOF 1
ENDMDL
MODEL 8
REMARK VINA RESULT:      -3.9     10.077     11.505
REMARK  1 active torsions:
REMARK  status: ('A' for Active; 'I' for Inactive)
REMARK    1  A    between atoms: C4_4  and  C10_10 
ROOT
HETATM    1  C1  UNL     1     -35.953  13.371  -5.299  1.00 20.00     0.007 C 
HETATM    2  C2  UNL     1     -36.644  14.213  -6.373  1.00 20.00     0.009 C 
HETATM    3  C3  UNL     1     -36.519  16.236  -4.848  1.00 20.00     0.013 C 
HETATM    4  C4  UNL     1     -35.038  14.199  -4.383  1.00 20.00     0.003 C 
HETATM    5  C5  UNL     1     -35.825  15.382  -3.771  1.00 20.00    -0.013 C 
HETATM    6  C6  UNL     1     -37.421  15.419  -5.802  1.00 20.00    -0.047 C 
HETATM    7  C7  UNL     1     -34.959  16.266  -2.868  1.00 20.00     0.010 C 
HETATM    8  C8  UNL     1     -37.863  16.324  -6.969  1.00 20.00     0.015 C 
HETATM    9  C9  UNL     1     -38.692  14.943  -5.070  1.00 20.00     0.015 C 
ENDROOT
BRANCH   4  10
HETATM   10  C10 UNL     1     -33.762  14.618  -5.124  1.00 20.00     0.119 C 
HETATM   11 CL11 UNL     1     -32.337  14.076  -4.227  1.00 20.00    -0.130 Cl
ENDBRANCH   4  10
TORSDOF 1
ENDMDL
MODEL 9
REMARK VINA RESULT:      -3.9     10.493     11.651
REMARK  1 active torsions:
REMARK  status: ('A' for Active; 'I' for Inactive)
REMARK    1  A    between atoms: C4_4  and  C10_10 
ROOT
HETATM    1  C1  UNL     1     -33.617  15.950  -5.319  1.00 20.00     0.007 C 
HETATM    2  C2  UNL     1     -34.943  15.672  -6.029  1.00 20.00     0.009 C 
HETATM    3  C3  UNL     1     -36.135  15.721  -3.790  1.00 20.00     0.013 C 
HETATM    4  C4  UNL     1     -33.791  16.728  -4.005  1.00 20.00     0.003 C 
HETATM    5  C5  UNL     1     -34.796  16.000  -3.083  1.00 20.00    -0.013 C 
HETATM    6  C6  UNL     1     -35.983  14.967  -5.131  1.00 20.00    -0.047 C 
HETATM    7  C7  UNL     1     -35.037  16.742  -1.764  1.00 20.00     0.010 C 
HETATM    8  C8  UNL     1     -37.343  14.958  -5.856  1.00 20.00     0.015 C 
HETATM    9  C9  UNL     1     -35.575  13.500  -4.885  1.00 20.00     0.015 C 
ENDROOT
BRANCH   4  10
HETATM   10  C10 UNL     1     -34.151  18.193  -4.284  1.00 20.00     0.119 C 
HETATM   11 CL11 UNL     1     -33.032  19.263  -3.427  1.00 20.00    -0.130 Cl
ENDBRANCH   4  10
TORSDOF 1
ENDMDL
