MODEL 1
REMARK VINA RESULT:      -4.3      0.000      0.000
REMARK  1 active torsions:
REMARK  status: ('A' for Active; 'I' for Inactive)
REMARK    1  A    between atoms: C5_5  and  C10_10 
ROOT
HETATM    1  C1  UNL     1     -33.781  18.544  -2.759  1.00 20.00     0.017 A 
HETATM    2  C2  UNL     1     -33.472  16.053  -3.483  1.00 20.00     0.020 C 
HETATM    3  C3  UNL     1     -35.569  16.748  -2.210  1.00 20.00     0.083 C 
HETATM    4  C4  UNL     1     -35.498  16.493  -4.995  1.00 20.00     0.082 C 
HETATM    5  C5  UNL     1     -33.243  17.775  -1.586  1.00 20.00     0.009 A 
HETATM    6  C6  UNL     1     -34.155  17.080  -2.593  1.00 20.00    -0.026 A 
HETATM    7  C7  UNL     1     -34.346  15.526  -4.652  1.00 20.00    -0.038 C 
HETATM    8  C8  UNL     1     -33.457  15.388  -5.909  1.00 20.00     0.015 C 
HETATM    9  C9  UNL     1     -34.885  14.116  -4.325  1.00 20.00     0.015 C 
HETATM   10  S11 UNL     1     -36.679  16.810  -3.641  1.00 20.00    -0.168 SA
ENDROOT
BRANCH   5  11
HETATM   11  C10 UNL     1     -33.668  18.122  -0.201  1.00 20.00     0.120 C 
HETATM   12 CL12 UNL     1     -32.316  18.815   0.736  1.00 20.00    -0.130 Cl
ENDBRANCH   5  11
TORSDOF 1
ENDMDL
MODEL 2
REMARK VINA RESULT:      -4.3      3.252      4.991
REMARK  1 active torsions:
REMARK  status: ('A' for Active; 'I' for Inactive)
REMARK    1  A    between atoms: C5_5  and  C10_10 
ROOT
HETATM    1  C1  UNL     1     -35.960  15.785  -4.984  1.00 20.00     0.017 A 
HETATM    2  C2  UNL     1     -34.551  15.959  -2.792  1.00 20.00     0.020 C 
HETATM    3  C3  UNL     1     -33.699  17.052  -4.932  1.00 20.00     0.083 C 
HETATM    4  C4  UNL     1     -35.068  18.468  -2.945  1.00 20.00     0.082 C 
HETATM    5  C5  UNL     1     -34.896  14.726  -5.023  1.00 20.00     0.009 A 
HETATM    6  C6  UNL     1     -34.625  16.047  -4.309  1.00 20.00    -0.026 A 
HETATM    7  C7  UNL     1     -34.510  17.330  -2.066  1.00 20.00    -0.038 C 
HETATM    8  C8  UNL     1     -35.389  17.242  -0.797  1.00 20.00     0.015 C 
HETATM    9  C9  UNL     1     -33.073  17.646  -1.597  1.00 20.00     0.015 C 
HETATM   10  S11 UNL     1     -34.179  18.750  -4.513  1.00 20.00    -0.168 SA
ENDROOT
BRANCH   5  11
HETATM   11  C10 UNL     1     -34.257  14.348  -6.315  1.00 20.00     0.120 C 
HETATM   12 CL12 UNL     1     -35.204  13.093  -7.161  1.00 20.00    -0.130 Cl
ENDBRANCH   5  11
TORSDOF 1
ENDMDL
MODEL 3
REMARK VINA RESULT:      -4.2      3.022      4.864
REMARK  1 active torsions:
REMARK  status: ('A' for Active; 'I' for Inactive)
REMARK    1  A    between atoms: C5_5  and  C10_10 
ROOT
HETATM    1  C1  UNL     1     -35.967  16.451  -3.790  1.00 20.00     0.017 A 
HETATM    2  C2  UNL     1     -34.338  16.731  -1.767  1.00 20.00     0.020 C 
HETATM    3  C3  UNL     1     -33.514  17.220  -4.130  1.00 20.00     0.083 C 
HETATM    4  C4  UNL     1     -34.387  19.221  -2.381  1.00 20.00     0.082 C 
HETATM    5  C5  UNL     1     -35.130  15.209  -3.684  1.00 20.00     0.009 A 
HETATM    6  C6  UNL     1     -34.546  16.554  -3.264  1.00 20.00    -0.026 A 
HETATM    7  C7  UNL     1     -33.968  18.173  -1.330  1.00 20.00    -0.038 C 
HETATM    8  C8  UNL     1     -34.717  18.497  -0.017  1.00 20.00     0.015 C 
HETATM    9  C9  UNL     1     -32.458  18.269  -1.024  1.00 20.00     0.015 C 
HETATM   10  S11 UNL     1     -33.623  19.026  -4.026  1.00 20.00    -0.168 SA
ENDROOT
BRANCH   5  11
HETATM   11  C10 UNL     1     -34.707  14.481  -4.913  1.00 20.00     0.120 C 
HETATM   12 CL12 UNL     1     -35.904  13.239  -5.374  1.00 20.00    -0.130 Cl
ENDBRANCH   5  11
TORSDOF 1
ENDMDL
MODEL 4
REMARK VINA RESULT:      -4.2     10.465     11.556
REMARK  1 active torsions:
REMARK  status: ('A' for Active; 'I' for Inactive)
REMARK    1  A    between atoms: C5_5  and  C10_10 
ROOT
HETATM    1  C1  UNL     1     -33.127   5.682   2.556  1.00 20.00     0.017 A 
HETATM    2  C2  UNL     1     -33.803   8.026   1.622  1.00 20.00     0.020 C 
HETATM    3  C3  UNL     1     -32.751   7.843   3.937  1.00 20.00     0.083 C 
HETATM    4  C4  UNL     1     -31.281   8.496   1.649  1.00 20.00     0.082 C 
HETATM    5  C5  UNL     1     -34.470   6.045   3.122  1.00 20.00     0.009 A 
HETATM    6  C6  UNL     1     -33.457   7.143   2.811  1.00 20.00    -0.026 A 
HETATM    7  C7  UNL     1     -32.665   8.980   1.171  1.00 20.00    -0.038 C 
HETATM    8  C8  UNL     1     -32.642   9.023  -0.374  1.00 20.00     0.015 C 
HETATM    9  C9  UNL     1     -32.948  10.418   1.657  1.00 20.00     0.015 C 
HETATM   10  S11 UNL     1     -31.082   8.363   3.458  1.00 20.00    -0.168 SA
ENDROOT
BRANCH   5  11
HETATM   11  C10 UNL     1     -34.837   5.638   4.508  1.00 20.00     0.120 C 
HETATM   12 CL12 UNL     1     -34.213   4.010   4.890  1.00 20.00    -0.130 Cl
ENDBRANCH   5  11
TORSDOF 1
ENDMDL
MODEL 5
REMARK VINA RESULT:      -4.2      1.952      2.158
REMARK  1 active torsions:
REMARK  status: ('A' for Active; 'I' for Inactive)
REMARK    1  A    between atoms: C5_5  and  C10_10 
ROOT
HETATM    1  C1  UNL     1     -33.758  17.390  -1.519  1.00 20.00     0.017 A 
HETATM    2  C2  UNL     1     -34.831  15.685  -3.181  1.00 20.00     0.020 C 
HETATM    3  C3  UNL     1     -35.358  18.170  -3.404  1.00 20.00     0.083 C 
HETATM    4  C4  UNL     1     -33.413  16.886  -4.951  1.00 20.00     0.082 C 
HETATM    5  C5  UNL     1     -35.144  17.072  -1.038  1.00 20.00     0.009 A 
HETATM    6  C6  UNL     1     -34.840  17.061  -2.533  1.00 20.00    -0.026 A 
HETATM    7  C7  UNL     1     -34.295  15.660  -4.637  1.00 20.00    -0.038 C 
HETATM    8  C8  UNL     1     -33.426  14.395  -4.820  1.00 20.00     0.015 C 
HETATM    9  C9  UNL     1     -35.466  15.550  -5.638  1.00 20.00     0.015 C 
HETATM   10  S11 UNL     1     -34.240  18.504  -4.792  1.00 20.00    -0.168 SA
ENDROOT
BRANCH   5  11
HETATM   11  C10 UNL     1     -35.971  18.122  -0.378  1.00 20.00     0.120 C 
HETATM   12 CL12 UNL     1     -36.168  17.789   1.366  1.00 20.00    -0.130 Cl
ENDBRANCH   5  11
TORSDOF 1
ENDMDL
MODEL 6
REMARK VINA RESULT:      -4.2      2.212      3.139
REMARK  1 active torsions:
REMARK  status: ('A' for Active; 'I' for Inactive)
REMARK    1  A    between atoms: C5_5  and  C10_10 
ROOT
HETATM    1  C1  UNL     1     -33.455  15.558  -3.963  1.00 20.00     0.017 A 
HETATM    2  C2  UNL     1     -35.473  14.577  -5.301  1.00 20.00     0.020 C 
HETATM    3  C3  UNL     1     -35.006  17.083  -5.375  1.00 20.00     0.083 C 
HETATM    4  C4  UNL     1     -34.151  15.320  -7.371  1.00 20.00     0.082 C 
HETATM    5  C5  UNL     1     -34.700  15.747  -3.145  1.00 20.00     0.009 A 
HETATM    6  C6  UNL     1     -34.783  15.776  -4.668  1.00 20.00    -0.026 A 
HETATM    7  C7  UNL     1     -35.347  14.500  -6.846  1.00 20.00    -0.038 C 
HETATM    8  C8  UNL     1     -35.121  13.025  -7.248  1.00 20.00     0.015 C 
HETATM    9  C9  UNL     1     -36.664  14.952  -7.514  1.00 20.00     0.015 C 
HETATM   10  S11 UNL     1     -34.205  17.105  -7.001  1.00 20.00    -0.168 SA
ENDROOT
BRANCH   5  11
HETATM   11  C10 UNL     1     -34.862  16.958  -2.292  1.00 20.00     0.120 C 
HETATM   12 CL12 UNL     1     -33.298  17.485  -1.612  1.00 20.00    -0.130 Cl
ENDBRANCH   5  11
TORSDOF 1
ENDMDL
MODEL 7
REMARK VINA RESULT:      -4.1     10.941     12.060
REMARK  1 active torsions:
REMARK  status: ('A' for Active; 'I' for Inactive)
REMARK    1  A    between atoms: C5_5  and  C10_10 
ROOT
HETATM    1  C1  UNL     1     -31.330   7.749   3.073  1.00 20.00     0.017 A 
HETATM    2  C2  UNL     1     -33.818   7.594   3.853  1.00 20.00     0.020 C 
HETATM    3  C3  UNL     1     -33.081   6.384   1.733  1.00 20.00     0.083 C 
HETATM    4  C4  UNL     1     -33.298   5.108   4.213  1.00 20.00     0.082 C 
HETATM    5  C5  UNL     1     -32.131   8.757   2.298  1.00 20.00     0.009 A 
HETATM    6  C6  UNL     1     -32.784   7.453   2.746  1.00 20.00    -0.026 A 
HETATM    7  C7  UNL     1     -34.303   6.252   4.461  1.00 20.00    -0.038 C 
HETATM    8  C8  UNL     1     -34.449   6.428   5.990  1.00 20.00     0.015 C 
HETATM    9  C9  UNL     1     -35.701   5.889   3.914  1.00 20.00     0.015 C 
HETATM   10  S11 UNL     1     -32.966   4.727   2.461  1.00 20.00    -0.168 SA
ENDROOT
BRANCH   5  11
HETATM   11  C10 UNL     1     -31.790   9.056   0.878  1.00 20.00     0.120 C 
HETATM   12 CL12 UNL     1     -33.166   9.813   0.029  1.00 20.00    -0.130 Cl
ENDBRANCH   5  11
TORSDOF 1
ENDMDL
MODEL 8
REMARK VINA RESULT:      -4.0      1.844      2.746
REMARK  1 active torsions:
REMARK  status: ('A' for Active; 'I' for Inactive)
REMARK    1  A    between atoms: C5_5  and  C10_10 
ROOT
HETATM    1  C1  UNL     1     -34.795  16.526  -2.113  1.00 20.00     0.017 A 
HETATM    2  C2  UNL     1     -36.050  16.446  -4.402  1.00 20.00     0.020 C 
HETATM    3  C3  UNL     1     -33.506  16.282  -4.350  1.00 20.00     0.083 C 
HETATM    4  C4  UNL     1     -35.169  14.039  -4.527  1.00 20.00     0.082 C 
HETATM    5  C5  UNL     1     -34.760  17.900  -2.718  1.00 20.00     0.009 A 
HETATM    6  C6  UNL     1     -34.763  16.673  -3.625  1.00 20.00    -0.026 A 
HETATM    7  C7  UNL     1     -36.131  15.080  -5.135  1.00 20.00    -0.038 C 
HETATM    8  C8  UNL     1     -37.569  14.531  -4.994  1.00 20.00     0.015 C 
HETATM    9  C9  UNL     1     -35.866  15.266  -6.644  1.00 20.00     0.015 C 
HETATM   10  S11 UNL     1     -33.401  14.487  -4.580  1.00 20.00    -0.168 SA
ENDROOT
BRANCH   5  11
HETATM   11  C10 UNL     1     -33.569  18.775  -2.528  1.00 20.00     0.120 C 
HETATM   12 CL12 UNL     1     -32.550  18.198  -1.180  1.00 20.00    -0.130 Cl
ENDBRANCH   5  11
TORSDOF 1
ENDMDL
MODEL 9
REMARK VINA RESULT:      -3.7      1.904      2.733
REMARK  1 active torsions:
REMARK  status: ('A' for Active; 'I' for Inactive)
REMARK    1  A    between atoms: C5_5  and  C10_10 
ROOT
HETATM    1  C1  UNL     1     -36.428  16.736  -3.364  1.00 20.00     0.017 A 
HETATM    2  C2  UNL     1     -34.920  16.969  -5.484  1.00 20.00     0.020 C 
HETATM    3  C3  UNL     1     -34.631  14.958  -3.944  1.00 20.00     0.083 C 
HETATM    4  C4  UNL     1     -36.147  14.866  -6.293  1.00 20.00     0.082 C 
HETATM    5  C5  UNL     1     -35.114  17.329  -2.944  1.00 20.00     0.009 A 
HETATM    6  C6  UNL     1     -35.164  16.352  -4.115  1.00 20.00    -0.026 A 
HETATM    7  C7  UNL     1     -35.202  16.023  -6.681  1.00 20.00    -0.038 C 
HETATM    8  C8  UNL     1     -35.890  16.837  -7.800  1.00 20.00     0.015 C 
HETATM    9  C9  UNL     1     -33.877  15.485  -7.263  1.00 20.00     0.015 C 
HETATM   10  S11 UNL     1     -35.535  13.768  -4.971  1.00 20.00    -0.168 SA
ENDROOT
BRANCH   5  11
HETATM   11  C10 UNL     1     -34.524  16.988  -1.619  1.00 20.00     0.120 C 
HETATM   12 CL12 UNL     1     -32.901  17.706  -1.429  1.00 20.00    -0.130 Cl
ENDBRANCH   5  11
TORSDOF 1
ENDMDL
