MODEL 1
REMARK VINA RESULT:      -5.1      0.000      0.000
REMARK  1 active torsions:
REMARK  status: ('A' for Active; 'I' for Inactive)
REMARK    1  A    between atoms: C6_6  and  C8_8 
ROOT
HETATM    1  C1  UNL     1     -34.073   6.445   5.649  1.00 20.00     0.011 C 
HETATM    2  C2  UNL     1     -34.056   7.628   4.685  1.00 20.00     0.011 C 
HETATM    3  C3  UNL     1     -31.746   7.574   3.485  1.00 20.00     0.017 A 
HETATM    4  C4  UNL     1     -34.670   5.187   5.028  1.00 20.00     0.074 C 
HETATM    5  C5  UNL     1     -33.763   6.181   2.618  1.00 20.00     0.083 C 
HETATM    6  C6  UNL     1     -32.628   8.539   2.742  1.00 20.00     0.009 A 
HETATM    7  C7  UNL     1     -33.242   7.333   3.440  1.00 20.00    -0.027 A 
HETATM    8  S9  UNL     1     -33.718   4.642   3.578  1.00 20.00    -0.168 SA
ENDROOT
BRANCH   6   9
HETATM    9  C8  UNL     1     -32.530   8.657   1.259  1.00 20.00     0.120 C 
HETATM   10 CL10 UNL     1     -32.568  10.365   0.742  1.00 20.00    -0.130 Cl
ENDBRANCH   6   9
TORSDOF 1
ENDMDL
MODEL 2
REMARK VINA RESULT:      -4.3      1.437      2.072
REMARK  1 active torsions:
REMARK  status: ('A' for Active; 'I' for Inactive)
REMARK    1  A    between atoms: C6_6  and  C8_8 
ROOT
HETATM    1  C1  UNL     1     -34.390   4.474   4.107  1.00 20.00     0.011 C 
HETATM    2  C2  UNL     1     -33.269   5.088   3.273  1.00 20.00     0.011 C 
HETATM    3  C3  UNL     1     -34.150   7.387   2.425  1.00 20.00     0.017 A 
HETATM    4  C4  UNL     1     -34.278   4.817   5.588  1.00 20.00     0.074 C 
HETATM    5  C5  UNL     1     -33.031   7.135   4.758  1.00 20.00     0.083 C 
HETATM    6  C6  UNL     1     -32.669   7.340   2.171  1.00 20.00     0.009 A 
HETATM    7  C7  UNL     1     -33.258   6.602   3.366  1.00 20.00    -0.027 A 
HETATM    8  S9  UNL     1     -34.368   6.611   5.866  1.00 20.00    -0.168 SA
ENDROOT
BRANCH   6   9
HETATM    9  C8  UNL     1     -31.844   8.575   2.305  1.00 20.00     0.120 C 
HETATM   10 CL10 UNL     1     -32.274   9.778   1.058  1.00 20.00    -0.130 Cl
ENDBRANCH   6   9
TORSDOF 1
ENDMDL
MODEL 3
REMARK VINA RESULT:      -4.0     11.180     11.925
REMARK  1 active torsions:
REMARK  status: ('A' for Active; 'I' for Inactive)
REMARK    1  A    between atoms: C6_6  and  C8_8 
ROOT
HETATM    1  C1  UNL     1     -35.172  16.911  -1.298  1.00 20.00     0.011 C 
HETATM    2  C2  UNL     1     -33.983  16.799  -2.247  1.00 20.00     0.011 C 
HETATM    3  C3  UNL     1     -34.512  14.831  -3.869  1.00 20.00     0.017 A 
HETATM    4  C4  UNL     1     -36.231  17.890  -1.792  1.00 20.00     0.074 C 
HETATM    5  C5  UNL     1     -35.365  17.243  -4.332  1.00 20.00     0.083 C 
HETATM    6  C6  UNL     1     -33.338  15.587  -4.429  1.00 20.00     0.009 A 
HETATM    7  C7  UNL     1     -34.401  16.323  -3.626  1.00 20.00    -0.027 A 
HETATM    8  S9  UNL     1     -36.914  17.380  -3.398  1.00 20.00    -0.168 SA
ENDROOT
BRANCH   6   9
HETATM    9  C8  UNL     1     -33.179  15.743  -5.903  1.00 20.00     0.120 C 
HETATM   10 CL10 UNL     1     -34.096  14.494  -6.789  1.00 20.00    -0.130 Cl
ENDBRANCH   6   9
TORSDOF 1
ENDMDL
MODEL 4
REMARK VINA RESULT:      -4.0     11.333     12.236
REMARK  1 active torsions:
REMARK  status: ('A' for Active; 'I' for Inactive)
REMARK    1  A    between atoms: C6_6  and  C8_8 
ROOT
HETATM    1  C1  UNL     1     -33.091  15.199  -4.943  1.00 20.00     0.011 C 
HETATM    2  C2  UNL     1     -34.069  15.143  -3.773  1.00 20.00     0.011 C 
HETATM    3  C3  UNL     1     -33.451  17.119  -2.193  1.00 20.00     0.017 A 
HETATM    4  C4  UNL     1     -33.620  16.017  -6.115  1.00 20.00     0.074 C 
HETATM    5  C5  UNL     1     -35.036  17.448  -4.228  1.00 20.00     0.083 C 
HETATM    6  C6  UNL     1     -34.792  16.590  -1.765  1.00 20.00     0.009 A 
HETATM    7  C7  UNL     1     -34.383  16.525  -3.230  1.00 20.00    -0.027 A 
HETATM    8  S9  UNL     1     -33.935  17.743  -5.639  1.00 20.00    -0.168 SA
ENDROOT
BRANCH   6   9
HETATM    9  C8  UNL     1     -35.838  17.520  -1.253  1.00 20.00     0.120 C 
HETATM   10 CL10 UNL     1     -35.862  17.548   0.532  1.00 20.00    -0.130 Cl
ENDBRANCH   6   9
TORSDOF 1
ENDMDL
MODEL 5
REMARK VINA RESULT:      -3.9     10.940     11.651
REMARK  1 active torsions:
REMARK  status: ('A' for Active; 'I' for Inactive)
REMARK    1  A    between atoms: C6_6  and  C8_8 
ROOT
HETATM    1  C1  UNL     1     -35.194  13.925  -5.438  1.00 20.00     0.011 C 
HETATM    2  C2  UNL     1     -34.476  14.286  -4.141  1.00 20.00     0.011 C 
HETATM    3  C3  UNL     1     -33.909  16.823  -4.288  1.00 20.00     0.017 A 
HETATM    4  C4  UNL     1     -36.710  14.048  -5.327  1.00 20.00     0.074 C 
HETATM    5  C5  UNL     1     -36.219  15.992  -3.431  1.00 20.00     0.083 C 
HETATM    6  C6  UNL     1     -33.691  16.384  -2.866  1.00 20.00     0.009 A 
HETATM    7  C7  UNL     1     -34.764  15.712  -3.712  1.00 20.00    -0.027 A 
HETATM    8  S9  UNL     1     -37.215  15.747  -4.927  1.00 20.00    -0.168 SA
ENDROOT
BRANCH   6   9
HETATM    9  C8  UNL     1     -34.005  17.308  -1.739  1.00 20.00     0.120 C 
HETATM   10 CL10 UNL     1     -32.534  18.127  -1.145  1.00 20.00    -0.130 Cl
ENDBRANCH   6   9
TORSDOF 1
ENDMDL
MODEL 6
REMARK VINA RESULT:      -3.9     11.191     12.019
REMARK  1 active torsions:
REMARK  status: ('A' for Active; 'I' for Inactive)
REMARK    1  A    between atoms: C6_6  and  C8_8 
ROOT
HETATM    1  C1  UNL     1     -35.658  13.517  -5.941  1.00 20.00     0.011 C 
HETATM    2  C2  UNL     1     -35.165  13.951  -4.563  1.00 20.00     0.011 C 
HETATM    3  C3  UNL     1     -33.295  15.718  -4.969  1.00 20.00     0.017 A 
HETATM    4  C4  UNL     1     -36.845  14.341  -6.428  1.00 20.00     0.074 C 
HETATM    5  C5  UNL     1     -35.807  16.387  -4.894  1.00 20.00     0.083 C 
HETATM    6  C6  UNL     1     -33.668  15.768  -3.513  1.00 20.00     0.009 A 
HETATM    7  C7  UNL     1     -34.718  15.401  -4.553  1.00 20.00    -0.027 A 
HETATM    8  S9  UNL     1     -36.419  16.102  -6.578  1.00 20.00    -0.168 SA
ENDROOT
BRANCH   6   9
HETATM    9  C8  UNL     1     -33.668  17.067  -2.782  1.00 20.00     0.120 C 
HETATM   10 CL10 UNL     1     -34.671  16.980  -1.307  1.00 20.00    -0.130 Cl
ENDBRANCH   6   9
TORSDOF 1
ENDMDL
MODEL 7
REMARK VINA RESULT:      -3.8     10.843     12.105
REMARK  1 active torsions:
REMARK  status: ('A' for Active; 'I' for Inactive)
REMARK    1  A    between atoms: C6_6  and  C8_8 
ROOT
HETATM    1  C1  UNL     1     -34.068  15.147  -7.130  1.00 20.00     0.011 C 
HETATM    2  C2  UNL     1     -33.295  15.768  -5.970  1.00 20.00     0.011 C 
HETATM    3  C3  UNL     1     -35.044  17.015  -4.497  1.00 20.00     0.017 A 
HETATM    4  C4  UNL     1     -34.519  13.720  -6.840  1.00 20.00     0.074 C 
HETATM    5  C5  UNL     1     -34.566  14.478  -4.187  1.00 20.00     0.083 C 
HETATM    6  C6  UNL     1     -33.763  16.927  -3.715  1.00 20.00     0.009 A 
HETATM    7  C7  UNL     1     -34.126  15.826  -4.702  1.00 20.00    -0.027 A 
HETATM    8  S9  UNL     1     -35.627  13.649  -5.402  1.00 20.00    -0.168 SA
ENDROOT
BRANCH   6   9
HETATM    9  C8  UNL     1     -33.797  16.737  -2.237  1.00 20.00     0.120 C 
HETATM   10 CL10 UNL     1     -35.468  16.812  -1.613  1.00 20.00    -0.130 Cl
ENDBRANCH   6   9
TORSDOF 1
ENDMDL
MODEL 8
REMARK VINA RESULT:      -3.7     11.150     11.716
REMARK  1 active torsions:
REMARK  status: ('A' for Active; 'I' for Inactive)
REMARK    1  A    between atoms: C6_6  and  C8_8 
ROOT
HETATM    1  C1  UNL     1     -35.381  18.368   0.392  1.00 20.00     0.011 C 
HETATM    2  C2  UNL     1     -35.371  17.080  -0.426  1.00 20.00     0.011 C 
HETATM    3  C3  UNL     1     -35.334  17.794  -2.931  1.00 20.00     0.017 A 
HETATM    4  C4  UNL     1     -33.981  18.837   0.772  1.00 20.00     0.074 C 
HETATM    5  C5  UNL     1     -33.145  17.587  -1.542  1.00 20.00     0.083 C 
HETATM    6  C6  UNL     1     -35.021  16.325  -2.866  1.00 20.00     0.009 A 
HETATM    7  C7  UNL     1     -34.602  17.241  -1.724  1.00 20.00    -0.027 A 
HETATM    8  S9  UNL     1     -32.971  19.184  -0.699  1.00 20.00    -0.168 SA
ENDROOT
BRANCH   6   9
HETATM    9  C8  UNL     1     -34.049  15.722  -3.822  1.00 20.00     0.120 C 
HETATM   10 CL10 UNL     1     -34.397  13.992  -4.093  1.00 20.00    -0.130 Cl
ENDBRANCH   6   9
TORSDOF 1
ENDMDL
MODEL 9
REMARK VINA RESULT:      -3.6     11.122     12.221
REMARK  1 active torsions:
REMARK  status: ('A' for Active; 'I' for Inactive)
REMARK    1  A    between atoms: C6_6  and  C8_8 
ROOT
HETATM    1  C1  UNL     1     -37.646  14.410  -5.538  1.00 20.00     0.011 C 
HETATM    2  C2  UNL     1     -37.062  15.187  -4.361  1.00 20.00     0.011 C 
HETATM    3  C3  UNL     1     -34.581  14.429  -4.132  1.00 20.00     0.017 A 
HETATM    4  C4  UNL     1     -37.522  15.161  -6.859  1.00 20.00     0.074 C 
HETATM    5  C5  UNL     1     -35.277  16.332  -5.761  1.00 20.00     0.083 C 
HETATM    6  C6  UNL     1     -34.768  15.655  -3.282  1.00 20.00     0.009 A 
HETATM    7  C7  UNL     1     -35.586  15.482  -4.554  1.00 20.00    -0.027 A 
HETATM    8  S9  UNL     1     -35.784  15.485  -7.283  1.00 20.00    -0.168 SA
ENDROOT
BRANCH   6   9
HETATM    9  C8  UNL     1     -33.669  16.654  -3.152  1.00 20.00     0.120 C 
HETATM   10 CL10 UNL     1     -33.612  17.343  -1.506  1.00 20.00    -0.130 Cl
ENDBRANCH   6   9
TORSDOF 1
ENDMDL
