MODEL 1
REMARK VINA RESULT:      -5.4      0.000      0.000
REMARK  1 active torsions:
REMARK  status: ('A' for Active; 'I' for Inactive)
REMARK    1  A    between atoms: C6_6  and  C8_8 
ROOT
HETATM    1  C1  UNL     1     -33.683   4.783   3.370  1.00 20.00     0.027 C 
HETATM    2  C2  UNL     1     -33.553   6.021   2.486  1.00 20.00     0.014 C 
HETATM    3  C3  UNL     1     -31.767   7.624   3.484  1.00 20.00     0.018 A 
HETATM    4  C4  UNL     1     -34.614   5.055   4.545  1.00 20.00     0.167 C 
HETATM    5  C5  UNL     1     -34.133   7.377   4.529  1.00 20.00     0.177 C 
HETATM    6  C6  UNL     1     -32.701   8.500   2.693  1.00 20.00     0.011 A 
HETATM    7  C7  UNL     1     -33.220   7.226   3.336  1.00 20.00    -0.014 A 
HETATM    8  O9  UNL     1     -34.146   6.174   5.301  1.00 20.00    -0.390 OA
ENDROOT
BRANCH   6   9
HETATM    9  C8  UNL     1     -32.530   8.645   1.220  1.00 20.00     0.120 C 
HETATM   10 CL10 UNL     1     -32.591  10.359   0.726  1.00 20.00    -0.130 Cl
ENDBRANCH   6   9
TORSDOF 1
ENDMDL
MODEL 2
REMARK VINA RESULT:      -5.1      1.201      2.064
REMARK  1 active torsions:
REMARK  status: ('A' for Active; 'I' for Inactive)
REMARK    1  A    between atoms: C6_6  and  C8_8 
ROOT
HETATM    1  C1  UNL     1     -34.449   6.441   5.883  1.00 20.00     0.027 C 
HETATM    2  C2  UNL     1     -33.346   7.026   5.005  1.00 20.00     0.014 C 
HETATM    3  C3  UNL     1     -34.223   7.317   2.576  1.00 20.00     0.018 A 
HETATM    4  C4  UNL     1     -34.502   4.925   5.744  1.00 20.00     0.167 C 
HETATM    5  C5  UNL     1     -33.607   4.987   3.548  1.00 20.00     0.177 C 
HETATM    6  C6  UNL     1     -32.731   7.158   2.452  1.00 20.00     0.011 A 
HETATM    7  C7  UNL     1     -33.471   6.490   3.597  1.00 20.00    -0.014 A 
HETATM    8  O9  UNL     1     -34.692   4.558   4.376  1.00 20.00    -0.390 OA
ENDROOT
BRANCH   6   9
HETATM    9  C8  UNL     1     -31.831   8.328   2.650  1.00 20.00     0.120 C 
HETATM   10 CL10 UNL     1     -32.230   9.651   1.520  1.00 20.00    -0.130 Cl
ENDBRANCH   6   9
TORSDOF 1
ENDMDL
MODEL 3
REMARK VINA RESULT:      -4.5     10.643     11.659
REMARK  1 active torsions:
REMARK  status: ('A' for Active; 'I' for Inactive)
REMARK    1  A    between atoms: C6_6  and  C8_8 
ROOT
HETATM    1  C1  UNL     1     -34.165  14.202  -7.502  1.00 20.00     0.027 C 
HETATM    2  C2  UNL     1     -34.226  15.250  -6.393  1.00 20.00     0.014 C 
HETATM    3  C3  UNL     1     -33.227  14.265  -4.205  1.00 20.00     0.018 A 
HETATM    4  C4  UNL     1     -35.353  13.253  -7.413  1.00 20.00     0.167 C 
HETATM    5  C5  UNL     1     -35.578  13.582  -5.075  1.00 20.00     0.177 C 
HETATM    6  C6  UNL     1     -34.196  15.330  -3.765  1.00 20.00     0.011 A 
HETATM    7  C7  UNL     1     -34.439  14.573  -5.059  1.00 20.00    -0.014 A 
HETATM    8  O9  UNL     1     -35.396  12.630  -6.127  1.00 20.00    -0.390 OA
ENDROOT
BRANCH   6   9
HETATM    9  C8  UNL     1     -33.780  16.760  -3.737  1.00 20.00     0.120 C 
HETATM   10 CL10 UNL     1     -33.353  17.279  -2.083  1.00 20.00    -0.130 Cl
ENDBRANCH   6   9
TORSDOF 1
ENDMDL
MODEL 4
REMARK VINA RESULT:      -4.5      3.053      4.348
REMARK  1 active torsions:
REMARK  status: ('A' for Active; 'I' for Inactive)
REMARK    1  A    between atoms: C6_6  and  C8_8 
ROOT
HETATM    1  C1  UNL     1     -31.422   8.227   3.855  1.00 20.00     0.027 C 
HETATM    2  C2  UNL     1     -32.787   7.604   4.136  1.00 20.00     0.014 C 
HETATM    3  C3  UNL     1     -33.028   5.388   2.801  1.00 20.00     0.018 A 
HETATM    4  C4  UNL     1     -31.453   9.034   2.563  1.00 20.00     0.167 C 
HETATM    5  C5  UNL     1     -33.200   7.712   1.652  1.00 20.00     0.177 C 
HETATM    6  C6  UNL     1     -34.432   5.889   3.009  1.00 20.00     0.011 A 
HETATM    7  C7  UNL     1     -33.282   6.876   2.907  1.00 20.00    -0.014 A 
HETATM    8  O9  UNL     1     -31.871   8.210   1.472  1.00 20.00    -0.390 OA
ENDROOT
BRANCH   6   9
HETATM    9  C8  UNL     1     -35.146   5.617   4.289  1.00 20.00     0.120 C 
HETATM   10 CL10 UNL     1     -34.409   4.246   5.162  1.00 20.00    -0.130 Cl
ENDBRANCH   6   9
TORSDOF 1
ENDMDL
MODEL 5
REMARK VINA RESULT:      -4.1     10.925     11.895
REMARK  1 active torsions:
REMARK  status: ('A' for Active; 'I' for Inactive)
REMARK    1  A    between atoms: C6_6  and  C8_8 
ROOT
HETATM    1  C1  UNL     1     -34.205  14.366  -7.498  1.00 20.00     0.027 C 
HETATM    2  C2  UNL     1     -34.512  15.384  -6.402  1.00 20.00     0.014 C 
HETATM    3  C3  UNL     1     -33.519  14.564  -4.145  1.00 20.00     0.018 A 
HETATM    4  C4  UNL     1     -35.227  13.235  -7.484  1.00 20.00     0.167 C 
HETATM    5  C5  UNL     1     -35.663  13.512  -5.169  1.00 20.00     0.177 C 
HETATM    6  C6  UNL     1     -34.676  15.455  -3.779  1.00 20.00     0.011 A 
HETATM    7  C7  UNL     1     -34.704  14.674  -5.081  1.00 20.00    -0.014 A 
HETATM    8  O9  UNL     1     -35.256  12.608  -6.200  1.00 20.00    -0.390 OA
ENDROOT
BRANCH   6   9
HETATM    9  C8  UNL     1     -34.501  16.934  -3.732  1.00 20.00     0.120 C 
HETATM   10 CL10 UNL     1     -36.076  17.773  -3.739  1.00 20.00    -0.130 Cl
ENDBRANCH   6   9
TORSDOF 1
ENDMDL
MODEL 6
REMARK VINA RESULT:      -4.1     10.561     11.391
REMARK  1 active torsions:
REMARK  status: ('A' for Active; 'I' for Inactive)
REMARK    1  A    between atoms: C6_6  and  C8_8 
ROOT
HETATM    1  C1  UNL     1     -36.765  15.066  -4.996  1.00 20.00     0.027 C 
HETATM    2  C2  UNL     1     -36.117  15.667  -3.752  1.00 20.00     0.014 C 
HETATM    3  C3  UNL     1     -33.788  16.645  -4.364  1.00 20.00     0.018 A 
HETATM    4  C4  UNL     1     -36.257  13.649  -5.237  1.00 20.00     0.167 C 
HETATM    5  C5  UNL     1     -34.195  14.087  -4.151  1.00 20.00     0.177 C 
HETATM    6  C6  UNL     1     -33.710  16.298  -2.901  1.00 20.00     0.011 A 
HETATM    7  C7  UNL     1     -34.616  15.499  -3.822  1.00 20.00    -0.014 A 
HETATM    8  O9  UNL     1     -34.833  13.645  -5.352  1.00 20.00    -0.390 OA
ENDROOT
BRANCH   6   9
HETATM    9  C8  UNL     1     -34.237  17.242  -1.875  1.00 20.00     0.120 C 
HETATM   10 CL10 UNL     1     -32.911  18.106  -1.049  1.00 20.00    -0.130 Cl
ENDBRANCH   6   9
TORSDOF 1
ENDMDL
MODEL 7
REMARK VINA RESULT:      -4.1      3.031      4.620
REMARK  1 active torsions:
REMARK  status: ('A' for Active; 'I' for Inactive)
REMARK    1  A    between atoms: C6_6  and  C8_8 
ROOT
HETATM    1  C1  UNL     1     -32.940  10.568   1.440  1.00 20.00     0.027 C 
HETATM    2  C2  UNL     1     -33.511   9.360   2.179  1.00 20.00     0.014 C 
HETATM    3  C3  UNL     1     -31.628   8.204   3.548  1.00 20.00     0.018 A 
HETATM    4  C4  UNL     1     -32.283  10.140   0.134  1.00 20.00     0.167 C 
HETATM    5  C5  UNL     1     -31.793   7.973   0.965  1.00 20.00     0.177 C 
HETATM    6  C6  UNL     1     -32.638   7.126   3.256  1.00 20.00     0.011 A 
HETATM    7  C7  UNL     1     -32.460   8.279   2.284  1.00 20.00    -0.014 A 
HETATM    8  O9  UNL     1     -31.265   9.169   0.385  1.00 20.00    -0.390 OA
ENDROOT
BRANCH   6   9
HETATM    9  C8  UNL     1     -33.848   6.977   4.113  1.00 20.00     0.120 C 
HETATM   10 CL10 UNL     1     -33.495   7.402   5.810  1.00 20.00    -0.130 Cl
ENDBRANCH   6   9
TORSDOF 1
ENDMDL
MODEL 8
REMARK VINA RESULT:      -4.0     10.626     11.528
REMARK  1 active torsions:
REMARK  status: ('A' for Active; 'I' for Inactive)
REMARK    1  A    between atoms: C6_6  and  C8_8 
ROOT
HETATM    1  C1  UNL     1     -34.516  14.208  -4.056  1.00 20.00     0.027 C 
HETATM    2  C2  UNL     1     -33.938  15.606  -3.845  1.00 20.00     0.014 C 
HETATM    3  C3  UNL     1     -35.009  16.686  -1.738  1.00 20.00     0.018 A 
HETATM    4  C4  UNL     1     -35.846  14.282  -4.796  1.00 20.00     0.167 C 
HETATM    5  C5  UNL     1     -36.304  16.461  -3.979  1.00 20.00     0.177 C 
HETATM    6  C6  UNL     1     -34.592  17.836  -2.615  1.00 20.00     0.011 A 
HETATM    7  C7  UNL     1     -34.987  16.510  -3.241  1.00 20.00    -0.014 A 
HETATM    8  O9  UNL     1     -36.766  15.111  -4.083  1.00 20.00    -0.390 OA
ENDROOT
BRANCH   6   9
HETATM    9  C8  UNL     1     -33.185  18.327  -2.595  1.00 20.00     0.120 C 
HETATM   10 CL10 UNL     1     -32.463  18.153  -0.971  1.00 20.00    -0.130 Cl
ENDBRANCH   6   9
TORSDOF 1
ENDMDL
MODEL 9
REMARK VINA RESULT:      -3.9     11.292     12.025
REMARK  1 active torsions:
REMARK  status: ('A' for Active; 'I' for Inactive)
REMARK    1  A    between atoms: C6_6  and  C8_8 
ROOT
HETATM    1  C1  UNL     1     -34.063  17.379  -1.036  1.00 20.00     0.027 C 
HETATM    2  C2  UNL     1     -34.985  16.746  -2.075  1.00 20.00     0.014 C 
HETATM    3  C3  UNL     1     -33.572  15.423  -3.809  1.00 20.00     0.018 A 
HETATM    4  C4  UNL     1     -33.498  18.698  -1.550  1.00 20.00     0.167 C 
HETATM    5  C5  UNL     1     -33.682  18.019  -3.815  1.00 20.00     0.177 C 
HETATM    6  C6  UNL     1     -34.833  15.818  -4.531  1.00 20.00     0.011 A 
HETATM    7  C7  UNL     1     -34.291  16.696  -3.417  1.00 20.00    -0.014 A 
HETATM    8  O9  UNL     1     -32.810  18.496  -2.786  1.00 20.00    -0.390 OA
ENDROOT
BRANCH   6   9
HETATM    9  C8  UNL     1     -36.072  15.003  -4.381  1.00 20.00     0.120 C 
HETATM   10 CL10 UNL     1     -35.899  13.411  -5.169  1.00 20.00    -0.130 Cl
ENDBRANCH   6   9
TORSDOF 1
ENDMDL
