MODEL 1
REMARK VINA RESULT:      -4.3      0.000      0.000
REMARK  1 active torsions:
REMARK  status: ('A' for Active; 'I' for Inactive)
REMARK    1  A    between atoms: C5_5  and  C7_7 
ROOT
HETATM    1  C1  UNL     1     -33.602   7.142   4.893  1.00 20.00     0.020 C 
HETATM    2  C2  UNL     1     -31.588   8.052   3.540  1.00 20.00     0.017 A 
HETATM    3  C3  UNL     1     -34.793   6.236   4.657  1.00 20.00     0.075 C 
HETATM    4  C4  UNL     1     -32.731   5.789   2.986  1.00 20.00     0.083 C 
HETATM    5  C5  UNL     1     -32.819   8.421   2.763  1.00 20.00     0.005 A 
HETATM    6  C6  UNL     1     -32.806   7.157   3.613  1.00 20.00    -0.026 A 
HETATM    7  S8  UNL     1     -34.104   4.846   3.729  1.00 20.00    -0.168 SA
ENDROOT
BRANCH   5   8
HETATM    8  C7  UNL     1     -32.789   8.401   1.274  1.00 20.00     0.090 C 
HETATM    9 BR9  UNL     1     -32.525  10.202   0.573  1.00 20.00    -0.096 Br
ENDBRANCH   5   8
TORSDOF 1
ENDMDL
MODEL 2
REMARK VINA RESULT:      -3.6      3.077      4.287
REMARK  1 active torsions:
REMARK  status: ('A' for Active; 'I' for Inactive)
REMARK    1  A    between atoms: C5_5  and  C7_7 
ROOT
HETATM    1  C1  UNL     1     -31.265   8.385   0.954  1.00 20.00     0.020 C 
HETATM    2  C2  UNL     1     -31.467   8.175   3.529  1.00 20.00     0.017 A 
HETATM    3  C3  UNL     1     -32.162   8.733  -0.216  1.00 20.00     0.075 C 
HETATM    4  C4  UNL     1     -32.986   9.752   2.135  1.00 20.00     0.083 C 
HETATM    5  C5  UNL     1     -32.524   7.279   2.948  1.00 20.00     0.005 A 
HETATM    6  C6  UNL     1     -32.097   8.536   2.201  1.00 20.00    -0.026 A 
HETATM    7  S8  UNL     1     -33.092  10.171   0.364  1.00 20.00    -0.168 SA
ENDROOT
BRANCH   5   8
HETATM    8  C7  UNL     1     -33.841   7.147   3.633  1.00 20.00     0.090 C 
HETATM    9 BR9  UNL     1     -33.620   7.283   5.566  1.00 20.00    -0.096 Br
ENDBRANCH   5   8
TORSDOF 1
ENDMDL
MODEL 3
REMARK VINA RESULT:      -3.6      1.622      2.357
REMARK  1 active torsions:
REMARK  status: ('A' for Active; 'I' for Inactive)
REMARK    1  A    between atoms: C5_5  and  C7_7 
ROOT
HETATM    1  C1  UNL     1     -34.116   4.529   3.705  1.00 20.00     0.020 C 
HETATM    2  C2  UNL     1     -34.007   6.497   2.022  1.00 20.00     0.017 A 
HETATM    3  C3  UNL     1     -33.905   4.311   5.189  1.00 20.00     0.075 C 
HETATM    4  C4  UNL     1     -34.548   6.842   4.537  1.00 20.00     0.083 C 
HETATM    5  C5  UNL     1     -32.674   6.458   2.713  1.00 20.00     0.005 A 
HETATM    6  C6  UNL     1     -33.926   6.003   3.450  1.00 20.00    -0.026 A 
HETATM    7  S8  UNL     1     -34.743   5.716   5.958  1.00 20.00    -0.168 SA
ENDROOT
BRANCH   5   8
HETATM    8  C7  UNL     1     -31.963   7.730   3.024  1.00 20.00     0.090 C 
HETATM    9 BR9  UNL     1     -32.212   9.020   1.582  1.00 20.00    -0.096 Br
ENDBRANCH   5   8
TORSDOF 1
ENDMDL
MODEL 4
REMARK VINA RESULT:      -3.6     10.973     11.571
REMARK  1 active torsions:
REMARK  status: ('A' for Active; 'I' for Inactive)
REMARK    1  A    between atoms: C5_5  and  C7_7 
ROOT
HETATM    1  C1  UNL     1     -35.652  13.609  -4.907  1.00 20.00     0.020 C 
HETATM    2  C2  UNL     1     -33.251  14.464  -4.434  1.00 20.00     0.017 A 
HETATM    3  C3  UNL     1     -36.961  14.173  -5.421  1.00 20.00     0.075 C 
HETATM    4  C4  UNL     1     -34.789  15.547  -6.222  1.00 20.00     0.083 C 
HETATM    5  C5  UNL     1     -34.177  15.356  -3.658  1.00 20.00     0.005 A 
HETATM    6  C6  UNL     1     -34.643  14.728  -4.965  1.00 20.00    -0.026 A 
HETATM    7  S8  UNL     1     -36.470  15.191  -6.832  1.00 20.00    -0.168 SA
ENDROOT
BRANCH   5   8
HETATM    8  C7  UNL     1     -33.863  16.805  -3.517  1.00 20.00     0.090 C 
HETATM    9 BR9  UNL     1     -33.911  17.333  -1.639  1.00 20.00    -0.096 Br
ENDBRANCH   5   8
TORSDOF 1
ENDMDL
MODEL 5
REMARK VINA RESULT:      -3.5     10.871     11.507
REMARK  1 active torsions:
REMARK  status: ('A' for Active; 'I' for Inactive)
REMARK    1  A    between atoms: C5_5  and  C7_7 
ROOT
HETATM    1  C1  UNL     1     -34.417  14.462  -4.144  1.00 20.00     0.020 C 
HETATM    2  C2  UNL     1     -33.630  16.632  -2.966  1.00 20.00     0.017 A 
HETATM    3  C3  UNL     1     -35.653  13.964  -4.865  1.00 20.00     0.075 C 
HETATM    4  C4  UNL     1     -35.386  16.642  -4.877  1.00 20.00     0.083 C 
HETATM    5  C5  UNL     1     -34.921  16.239  -2.307  1.00 20.00     0.005 A 
HETATM    6  C6  UNL     1     -34.681  15.899  -3.772  1.00 20.00    -0.026 A 
HETATM    7  S8  UNL     1     -36.122  15.347  -5.930  1.00 20.00    -0.168 SA
ENDROOT
BRANCH   5   8
HETATM    8  C7  UNL     1     -35.876  17.292  -1.861  1.00 20.00     0.090 C 
HETATM    9 BR9  UNL     1     -35.606  17.703   0.027  1.00 20.00    -0.096 Br
ENDBRANCH   5   8
TORSDOF 1
ENDMDL
MODEL 6
REMARK VINA RESULT:      -3.5     11.060     11.667
REMARK  1 active torsions:
REMARK  status: ('A' for Active; 'I' for Inactive)
REMARK    1  A    between atoms: C5_5  and  C7_7 
ROOT
HETATM    1  C1  UNL     1     -34.951  16.685  -1.887  1.00 20.00     0.020 C 
HETATM    2  C2  UNL     1     -35.761  15.575  -4.084  1.00 20.00     0.017 A 
HETATM    3  C3  UNL     1     -33.728  17.429  -1.392  1.00 20.00     0.075 C 
HETATM    4  C4  UNL     1     -34.077  17.550  -4.058  1.00 20.00     0.083 C 
HETATM    5  C5  UNL     1     -34.435  14.948  -3.758  1.00 20.00     0.005 A 
HETATM    6  C6  UNL     1     -34.718  16.387  -3.346  1.00 20.00    -0.026 A 
HETATM    7  S8  UNL     1     -33.341  18.571  -2.739  1.00 20.00    -0.168 SA
ENDROOT
BRANCH   5   8
HETATM    8  C7  UNL     1     -33.497  14.586  -4.858  1.00 20.00     0.090 C 
HETATM    9 BR9  UNL     1     -34.486  14.147  -6.481  1.00 20.00    -0.096 Br
ENDBRANCH   5   8
TORSDOF 1
ENDMDL
MODEL 7
REMARK VINA RESULT:      -3.4      3.162      4.207
REMARK  1 active torsions:
REMARK  status: ('A' for Active; 'I' for Inactive)
REMARK    1  A    between atoms: C5_5  and  C7_7 
ROOT
HETATM    1  C1  UNL     1     -31.148   8.491   1.986  1.00 20.00     0.020 C 
HETATM    2  C2  UNL     1     -32.582   7.708   3.998  1.00 20.00     0.017 A 
HETATM    3  C3  UNL     1     -31.348   8.780   0.513  1.00 20.00     0.075 C 
HETATM    4  C4  UNL     1     -33.591   8.998   1.984  1.00 20.00     0.083 C 
HETATM    5  C5  UNL     1     -32.759   6.672   2.925  1.00 20.00     0.005 A 
HETATM    6  C6  UNL     1     -32.499   8.124   2.545  1.00 20.00    -0.026 A 
HETATM    7  S8  UNL     1     -32.893   9.718   0.461  1.00 20.00    -0.168 SA
ENDROOT
BRANCH   5   8
HETATM    8  C7  UNL     1     -34.081   6.009   2.748  1.00 20.00     0.090 C 
HETATM    9 BR9  UNL     1     -34.765   5.382   4.464  1.00 20.00    -0.096 Br
ENDBRANCH   5   8
TORSDOF 1
ENDMDL
MODEL 8
REMARK VINA RESULT:      -3.4     11.028     11.777
REMARK  1 active torsions:
REMARK  status: ('A' for Active; 'I' for Inactive)
REMARK    1  A    between atoms: C5_5  and  C7_7 
ROOT
HETATM    1  C1  UNL     1     -33.651  16.617  -2.670  1.00 20.00     0.020 C 
HETATM    2  C2  UNL     1     -33.359  14.653  -4.335  1.00 20.00     0.017 A 
HETATM    3  C3  UNL     1     -34.556  17.821  -2.506  1.00 20.00     0.075 C 
HETATM    4  C4  UNL     1     -35.641  15.829  -3.954  1.00 20.00     0.083 C 
HETATM    5  C5  UNL     1     -33.285  15.912  -5.151  1.00 20.00     0.005 A 
HETATM    6  C6  UNL     1     -34.136  15.872  -3.888  1.00 20.00    -0.026 A 
HETATM    7  S8  UNL     1     -36.207  17.176  -2.863  1.00 20.00    -0.168 SA
ENDROOT
BRANCH   5   8
HETATM    8  C7  UNL     1     -33.866  15.941  -6.523  1.00 20.00     0.090 C 
HETATM    9 BR9  UNL     1     -34.262  14.131  -7.133  1.00 20.00    -0.096 Br
ENDBRANCH   5   8
TORSDOF 1
ENDMDL
MODEL 9
REMARK VINA RESULT:      -3.3      1.466      1.852
REMARK  1 active torsions:
REMARK  status: ('A' for Active; 'I' for Inactive)
REMARK    1  A    between atoms: C5_5  and  C7_7 
ROOT
HETATM    1  C1  UNL     1     -31.774   7.941   3.988  1.00 20.00     0.020 C 
HETATM    2  C2  UNL     1     -31.337   8.477   1.491  1.00 20.00     0.017 A 
HETATM    3  C3  UNL     1     -32.967   7.695   4.889  1.00 20.00     0.075 C 
HETATM    4  C4  UNL     1     -33.435   7.175   2.290  1.00 20.00     0.083 C 
HETATM    5  C5  UNL     1     -32.280   9.534   1.991  1.00 20.00     0.005 A 
HETATM    6  C6  UNL     1     -32.314   8.136   2.595  1.00 20.00    -0.026 A 
HETATM    7  S8  UNL     1     -34.028   6.600   3.916  1.00 20.00    -0.168 SA
ENDROOT
BRANCH   5   8
HETATM    8  C7  UNL     1     -33.347  10.059   1.092  1.00 20.00     0.090 C 
HETATM    9 BR9  UNL     1     -33.081   9.415  -0.730  1.00 20.00    -0.096 Br
ENDBRANCH   5   8
TORSDOF 1
ENDMDL
