MODEL 1
REMARK VINA RESULT:      -4.7      0.000      0.000
REMARK  1 active torsions:
REMARK  status: ('A' for Active; 'I' for Inactive)
REMARK    1  A    between atoms: C4_4  and  C9_9 
ROOT
HETATM    1  C1  UNL     1     -32.499   7.871   2.620  1.00 20.00     0.131 C 
HETATM    2  C2  UNL     1     -33.452   6.733   2.212  1.00 20.00     0.084 C 
HETATM    3  C3  UNL     1     -32.469   7.396   4.093  1.00 20.00     0.056 C 
HETATM    4  C4  UNL     1     -33.123   6.068   3.577  1.00 20.00     0.011 C 
HETATM    5  C5  UNL     1     -33.230   8.291   5.054  1.00 20.00     0.018 C 
HETATM    6  O10 UNL     1     -31.979   8.786   2.019  1.00 20.00    -0.298 OA
ENDROOT
BRANCH   4   7
HETATM    7  C9  UNL     1     -34.310   5.489   4.329  1.00 20.00    -0.047 C 
HETATM    8  C6  UNL     1     -35.627   5.958   3.679  1.00 20.00     0.015 C 
HETATM    9  C7  UNL     1     -34.285   5.955   5.797  1.00 20.00     0.015 C 
HETATM   10  C8  UNL     1     -34.257   3.949   4.293  1.00 20.00     0.015 C 
ENDBRANCH   4   7
TORSDOF 1
ENDMDL
MODEL 2
REMARK VINA RESULT:      -4.6      2.088      3.764
REMARK  1 active torsions:
REMARK  status: ('A' for Active; 'I' for Inactive)
REMARK    1  A    between atoms: C4_4  and  C9_9 
ROOT
HETATM    1  C1  UNL     1     -33.889   5.266   3.728  1.00 20.00     0.131 C 
HETATM    2  C2  UNL     1     -32.886   5.571   2.602  1.00 20.00     0.084 C 
HETATM    3  C3  UNL     1     -34.215   6.767   3.924  1.00 20.00     0.056 C 
HETATM    4  C4  UNL     1     -33.485   7.004   2.556  1.00 20.00     0.011 C 
HETATM    5  C5  UNL     1     -33.651   7.370   5.197  1.00 20.00     0.018 C 
HETATM    6  O10 UNL     1     -34.269   4.245   4.260  1.00 20.00    -0.298 OA
ENDROOT
BRANCH   4   7
HETATM    7  C9  UNL     1     -32.478   8.135   2.444  1.00 20.00    -0.047 C 
HETATM    8  C6  UNL     1     -31.692   8.014   1.123  1.00 20.00     0.015 C 
HETATM    9  C7  UNL     1     -31.486   8.079   3.621  1.00 20.00     0.015 C 
HETATM   10  C8  UNL     1     -33.204   9.494   2.469  1.00 20.00     0.015 C 
ENDBRANCH   4   7
TORSDOF 1
ENDMDL
MODEL 3
REMARK VINA RESULT:      -4.6     11.678     12.532
REMARK  1 active torsions:
REMARK  status: ('A' for Active; 'I' for Inactive)
REMARK    1  A    between atoms: C4_4  and  C9_9 
ROOT
HETATM    1  C1  UNL     1     -37.154  14.329  -4.934  1.00 20.00     0.131 C 
HETATM    2  C2  UNL     1     -36.614  15.570  -4.201  1.00 20.00     0.084 C 
HETATM    3  C3  UNL     1     -35.741  13.707  -5.044  1.00 20.00     0.056 C 
HETATM    4  C4  UNL     1     -35.291  14.781  -3.993  1.00 20.00     0.011 C 
HETATM    5  C5  UNL     1     -35.155  13.728  -6.444  1.00 20.00     0.018 C 
HETATM    6  O10 UNL     1     -38.259  13.980  -5.291  1.00 20.00    -0.298 OA
ENDROOT
BRANCH   4   7
HETATM    7  C9  UNL     1     -34.013  15.564  -4.238  1.00 20.00    -0.047 C 
HETATM    8  C6  UNL     1     -34.162  16.439  -5.498  1.00 20.00     0.015 C 
HETATM    9  C7  UNL     1     -32.831  14.597  -4.440  1.00 20.00     0.015 C 
HETATM   10  C8  UNL     1     -33.712  16.474  -3.031  1.00 20.00     0.015 C 
ENDBRANCH   4   7
TORSDOF 1
ENDMDL
MODEL 4
REMARK VINA RESULT:      -4.6     11.675     12.530
REMARK  1 active torsions:
REMARK  status: ('A' for Active; 'I' for Inactive)
REMARK    1  A    between atoms: C4_4  and  C9_9 
ROOT
HETATM    1  C1  UNL     1     -37.152  14.329  -4.933  1.00 20.00     0.131 C 
HETATM    2  C2  UNL     1     -36.611  15.570  -4.201  1.00 20.00     0.084 C 
HETATM    3  C3  UNL     1     -35.740  13.705  -5.043  1.00 20.00     0.056 C 
HETATM    4  C4  UNL     1     -35.289  14.779  -3.993  1.00 20.00     0.011 C 
HETATM    5  C5  UNL     1     -35.155  13.724  -6.444  1.00 20.00     0.018 C 
HETATM    6  O10 UNL     1     -38.257  13.980  -5.289  1.00 20.00    -0.298 OA
ENDROOT
BRANCH   4   7
HETATM    7  C9  UNL     1     -34.010  15.561  -4.240  1.00 20.00    -0.047 C 
HETATM    8  C6  UNL     1     -33.708  16.475  -3.036  1.00 20.00     0.015 C 
HETATM    9  C7  UNL     1     -34.157  16.432  -5.502  1.00 20.00     0.015 C 
HETATM   10  C8  UNL     1     -32.829  14.591  -4.439  1.00 20.00     0.015 C 
ENDBRANCH   4   7
TORSDOF 1
ENDMDL
MODEL 5
REMARK VINA RESULT:      -4.6     11.268     12.279
REMARK  1 active torsions:
REMARK  status: ('A' for Active; 'I' for Inactive)
REMARK    1  A    between atoms: C4_4  and  C9_9 
ROOT
HETATM    1  C1  UNL     1     -35.433  13.805  -4.903  1.00 20.00     0.131 C 
HETATM    2  C2  UNL     1     -36.358  14.954  -4.463  1.00 20.00     0.084 C 
HETATM    3  C3  UNL     1     -34.255  14.352  -4.059  1.00 20.00     0.056 C 
HETATM    4  C4  UNL     1     -35.313  15.274  -3.358  1.00 20.00     0.011 C 
HETATM    5  C5  UNL     1     -33.135  14.971  -4.875  1.00 20.00     0.018 C 
HETATM    6  O10 UNL     1     -35.573  12.848  -5.633  1.00 20.00    -0.298 OA
ENDROOT
BRANCH   4   7
HETATM    7  C9  UNL     1     -34.994  16.746  -3.161  1.00 20.00    -0.047 C 
HETATM    8  C6  UNL     1     -34.887  17.451  -4.528  1.00 20.00     0.015 C 
HETATM    9  C7  UNL     1     -33.656  16.903  -2.414  1.00 20.00     0.015 C 
HETATM   10  C8  UNL     1     -36.107  17.422  -2.337  1.00 20.00     0.015 C 
ENDBRANCH   4   7
TORSDOF 1
ENDMDL
MODEL 6
REMARK VINA RESULT:      -4.5     11.261     12.290
REMARK  1 active torsions:
REMARK  status: ('A' for Active; 'I' for Inactive)
REMARK    1  A    between atoms: C4_4  and  C9_9 
ROOT
HETATM    1  C1  UNL     1     -35.437  13.799  -4.891  1.00 20.00     0.131 C 
HETATM    2  C2  UNL     1     -36.360  14.950  -4.451  1.00 20.00     0.084 C 
HETATM    3  C3  UNL     1     -34.256  14.349  -4.054  1.00 20.00     0.056 C 
HETATM    4  C4  UNL     1     -35.310  15.274  -3.352  1.00 20.00     0.011 C 
HETATM    5  C5  UNL     1     -33.139  14.964  -4.877  1.00 20.00     0.018 C 
HETATM    6  O10 UNL     1     -35.581  12.839  -5.617  1.00 20.00    -0.298 OA
ENDROOT
BRANCH   4   7
HETATM    7  C9  UNL     1     -34.989  16.746  -3.162  1.00 20.00    -0.047 C 
HETATM    8  C6  UNL     1     -36.097  17.426  -2.334  1.00 20.00     0.015 C 
HETATM    9  C7  UNL     1     -34.889  17.447  -4.531  1.00 20.00     0.015 C 
HETATM   10  C8  UNL     1     -33.646  16.903  -2.423  1.00 20.00     0.015 C 
ENDBRANCH   4   7
TORSDOF 1
ENDMDL
MODEL 7
REMARK VINA RESULT:      -4.3     11.438     12.755
REMARK  1 active torsions:
REMARK  status: ('A' for Active; 'I' for Inactive)
REMARK    1  A    between atoms: C4_4  and  C9_9 
ROOT
HETATM    1  C1  UNL     1     -34.045  14.485  -5.243  1.00 20.00     0.131 C 
HETATM    2  C2  UNL     1     -34.795  14.697  -3.916  1.00 20.00     0.084 C 
HETATM    3  C3  UNL     1     -33.274  15.819  -5.088  1.00 20.00     0.056 C 
HETATM    4  C4  UNL     1     -33.767  15.819  -3.599  1.00 20.00     0.011 C 
HETATM    5  C5  UNL     1     -33.726  16.917  -6.033  1.00 20.00     0.018 C 
HETATM    6  O10 UNL     1     -34.059  13.613  -6.085  1.00 20.00    -0.298 OA
ENDROOT
BRANCH   4   7
HETATM    7  C9  UNL     1     -34.347  17.095  -3.013  1.00 20.00    -0.047 C 
HETATM    8  C6  UNL     1     -34.724  16.874  -1.535  1.00 20.00     0.015 C 
HETATM    9  C7  UNL     1     -35.608  17.510  -3.793  1.00 20.00     0.015 C 
HETATM   10  C8  UNL     1     -33.311  18.233  -3.098  1.00 20.00     0.015 C 
ENDBRANCH   4   7
TORSDOF 1
ENDMDL
MODEL 8
REMARK VINA RESULT:      -4.2     11.735     13.538
REMARK  1 active torsions:
REMARK  status: ('A' for Active; 'I' for Inactive)
REMARK    1  A    between atoms: C4_4  and  C9_9 
ROOT
HETATM    1  C1  UNL     1     -37.157  14.406  -5.412  1.00 20.00     0.131 C 
HETATM    2  C2  UNL     1     -36.737  14.783  -6.844  1.00 20.00     0.084 C 
HETATM    3  C3  UNL     1     -35.853  14.987  -4.814  1.00 20.00     0.056 C 
HETATM    4  C4  UNL     1     -35.634  15.673  -6.207  1.00 20.00     0.011 C 
HETATM    5  C5  UNL     1     -34.869  13.941  -4.323  1.00 20.00     0.018 C 
HETATM    6  O10 UNL     1     -38.131  13.859  -4.939  1.00 20.00    -0.298 OA
ENDROOT
BRANCH   4   7
HETATM    7  C9  UNL     1     -34.266  15.593  -6.862  1.00 20.00    -0.047 C 
HETATM    8  C6  UNL     1     -34.119  16.707  -7.918  1.00 20.00     0.015 C 
HETATM    9  C7  UNL     1     -34.087  14.227  -7.550  1.00 20.00     0.015 C 
HETATM   10  C8  UNL     1     -33.162  15.764  -5.800  1.00 20.00     0.015 C 
ENDBRANCH   4   7
TORSDOF 1
ENDMDL
MODEL 9
REMARK VINA RESULT:      -4.1     11.475     12.817
REMARK  1 active torsions:
REMARK  status: ('A' for Active; 'I' for Inactive)
REMARK    1  A    between atoms: C4_4  and  C9_9 
ROOT
HETATM    1  C1  UNL     1     -33.212  18.208  -3.059  1.00 20.00     0.131 C 
HETATM    2  C2  UNL     1     -33.461  17.931  -4.552  1.00 20.00     0.084 C 
HETATM    3  C3  UNL     1     -33.618  16.767  -2.664  1.00 20.00     0.056 C 
HETATM    4  C4  UNL     1     -33.504  16.421  -4.190  1.00 20.00     0.011 C 
HETATM    5  C5  UNL     1     -34.961  16.665  -1.964  1.00 20.00     0.018 C 
HETATM    6  O10 UNL     1     -32.847  19.181  -2.435  1.00 20.00    -0.298 OA
ENDROOT
BRANCH   4   7
HETATM    7  C9  UNL     1     -34.612  15.618  -4.849  1.00 20.00    -0.047 C 
HETATM    8  C6  UNL     1     -35.949  16.379  -4.748  1.00 20.00     0.015 C 
HETATM    9  C7  UNL     1     -34.762  14.252  -4.153  1.00 20.00     0.015 C 
HETATM   10  C8  UNL     1     -34.282  15.386  -6.337  1.00 20.00     0.015 C 
ENDBRANCH   4   7
TORSDOF 1
ENDMDL
