MODEL 1
REMARK VINA RESULT:      -4.2      0.000      0.000
REMARK  3 active torsions:
REMARK  status: ('A' for Active; 'I' for Inactive)
REMARK    1  A    between atoms: C2_2  and  C10_10 
REMARK    2  A    between atoms: C3_3  and  C9_9 
REMARK    3  A    between atoms: C4_4  and  O11_11 
ROOT
HETATM    1  C1  UNL     1     -35.401  16.798  -1.276  1.00 20.00     0.038 C 
HETATM    2  C2  UNL     1     -33.939  17.052  -1.710  1.00 20.00     0.002 C 
HETATM    3  C3  UNL     1     -34.379  16.764  -3.175  1.00 20.00     0.019 C 
HETATM    4  C4  UNL     1     -35.844  17.041  -2.734  1.00 20.00     0.123 C 
ENDROOT
BRANCH   2   5
HETATM    5  C10 UNL     1     -33.407  18.453  -1.447  1.00 20.00    -0.047 C 
HETATM    6  C6  UNL     1     -34.419  19.258  -0.609  1.00 20.00     0.015 C 
HETATM    7  C7  UNL     1     -33.170  19.191  -2.781  1.00 20.00     0.015 C 
HETATM    8  C8  UNL     1     -32.073  18.379  -0.677  1.00 20.00     0.015 C 
ENDBRANCH   2   5
BRANCH   3   9
HETATM    9  C9  UNL     1     -34.055  15.365  -3.680  1.00 20.00     0.003 C 
HETATM   10  C5  UNL     1     -33.089  15.390  -4.824  1.00 20.00     0.005 C 
ENDBRANCH   3   9
BRANCH   4  11
HETATM   11  O11 UNL     1     -36.857  16.154  -3.240  1.00 20.00    -0.395 OA
HETATM   12  H31 UNL     1     -37.664  16.681  -3.286  1.00 20.00     0.210 HD
ENDBRANCH   4  11
TORSDOF 3
ENDMDL
MODEL 2
REMARK VINA RESULT:      -4.0     11.049     12.148
REMARK  3 active torsions:
REMARK  status: ('A' for Active; 'I' for Inactive)
REMARK    1  A    between atoms: C2_2  and  C10_10 
REMARK    2  A    between atoms: C3_3  and  C9_9 
REMARK    3  A    between atoms: C4_4  and  O11_11 
ROOT
HETATM    1  C1  UNL     1     -32.831   7.918   4.786  1.00 20.00     0.038 C 
HETATM    2  C2  UNL     1     -33.880   7.477   3.740  1.00 20.00     0.002 C 
HETATM    3  C3  UNL     1     -32.795   7.681   2.642  1.00 20.00     0.019 C 
HETATM    4  C4  UNL     1     -31.721   7.598   3.764  1.00 20.00     0.123 C 
ENDROOT
BRANCH   2   5
HETATM    5  C10 UNL     1     -34.404   6.056   3.890  1.00 20.00    -0.047 C 
HETATM    6  C6  UNL     1     -34.318   5.610   5.363  1.00 20.00     0.015 C 
HETATM    7  C7  UNL     1     -33.567   5.088   3.029  1.00 20.00     0.015 C 
HETATM    8  C8  UNL     1     -35.875   5.982   3.434  1.00 20.00     0.015 C 
ENDBRANCH   2   5
BRANCH   3   9
HETATM    9  C9  UNL     1     -32.898   8.990   1.872  1.00 20.00     0.003 C 
HETATM   10  C5  UNL     1     -32.126   8.949   0.590  1.00 20.00     0.005 C 
ENDBRANCH   3   9
BRANCH   4  11
HETATM   11  O11 UNL     1     -30.634   8.537   3.698  1.00 20.00    -0.395 OA
HETATM   12  H31 UNL     1     -29.915   8.139   4.204  1.00 20.00     0.210 HD
ENDBRANCH   4  11
TORSDOF 3
ENDMDL
MODEL 3
REMARK VINA RESULT:      -4.0     11.049     12.148
REMARK  3 active torsions:
REMARK  status: ('A' for Active; 'I' for Inactive)
REMARK    1  A    between atoms: C2_2  and  C10_10 
REMARK    2  A    between atoms: C3_3  and  C9_9 
REMARK    3  A    between atoms: C4_4  and  O11_11 
ROOT
HETATM    1  C1  UNL     1     -32.832   7.918   4.784  1.00 20.00     0.038 C 
HETATM    2  C2  UNL     1     -33.883   7.475   3.740  1.00 20.00     0.002 C 
HETATM    3  C3  UNL     1     -32.800   7.679   2.640  1.00 20.00     0.019 C 
HETATM    4  C4  UNL     1     -31.724   7.597   3.760  1.00 20.00     0.123 C 
ENDROOT
BRANCH   2   5
HETATM    5  C10 UNL     1     -34.406   6.055   3.891  1.00 20.00    -0.047 C 
HETATM    6  C6  UNL     1     -33.567   5.084   3.036  1.00 20.00     0.015 C 
HETATM    7  C7  UNL     1     -35.876   5.978   3.431  1.00 20.00     0.015 C 
HETATM    8  C8  UNL     1     -34.324   5.613   5.367  1.00 20.00     0.015 C 
ENDBRANCH   2   5
BRANCH   3   9
HETATM    9  C9  UNL     1     -32.904   8.987   1.869  1.00 20.00     0.003 C 
HETATM   10  C5  UNL     1     -32.136   8.945   0.584  1.00 20.00     0.005 C 
ENDBRANCH   3   9
BRANCH   4  11
HETATM   11  O11 UNL     1     -30.638   8.537   3.692  1.00 20.00    -0.395 OA
HETATM   12  H31 UNL     1     -30.021   8.175   3.043  1.00 20.00     0.210 HD
ENDBRANCH   4  11
TORSDOF 3
ENDMDL
MODEL 4
REMARK VINA RESULT:      -3.9      2.825      4.129
REMARK  3 active torsions:
REMARK  status: ('A' for Active; 'I' for Inactive)
REMARK    1  A    between atoms: C2_2  and  C10_10 
REMARK    2  A    between atoms: C3_3  and  C9_9 
REMARK    3  A    between atoms: C4_4  and  O11_11 
ROOT
HETATM    1  C1  UNL     1     -33.426  15.927  -3.921  1.00 20.00     0.038 C 
HETATM    2  C2  UNL     1     -34.719  16.224  -4.715  1.00 20.00     0.002 C 
HETATM    3  C3  UNL     1     -34.617  14.792  -5.316  1.00 20.00     0.019 C 
HETATM    4  C4  UNL     1     -33.678  14.421  -4.134  1.00 20.00     0.123 C 
ENDROOT
BRANCH   2   5
HETATM    5  C10 UNL     1     -35.960  16.498  -3.877  1.00 20.00    -0.047 C 
HETATM    6  C6  UNL     1     -36.570  17.861  -4.261  1.00 20.00     0.015 C 
HETATM    7  C7  UNL     1     -35.594  16.523  -2.379  1.00 20.00     0.015 C 
HETATM    8  C8  UNL     1     -37.014  15.398  -4.113  1.00 20.00     0.015 C 
ENDBRANCH   2   5
BRANCH   3   9
HETATM    9  C9  UNL     1     -34.031  14.725  -6.719  1.00 20.00     0.003 C 
HETATM   10  C5  UNL     1     -34.621  13.606  -7.521  1.00 20.00     0.005 C 
ENDBRANCH   3   9
BRANCH   4  11
HETATM   11  O11 UNL     1     -32.520  13.626  -4.444  1.00 20.00    -0.395 OA
HETATM   12  H31 UNL     1     -32.684  12.761  -4.049  1.00 20.00     0.210 HD
ENDBRANCH   4  11
TORSDOF 3
ENDMDL
MODEL 5
REMARK VINA RESULT:      -3.9      2.162      4.618
REMARK  3 active torsions:
REMARK  status: ('A' for Active; 'I' for Inactive)
REMARK    1  A    between atoms: C2_2  and  C10_10 
REMARK    2  A    between atoms: C3_3  and  C9_9 
REMARK    3  A    between atoms: C4_4  and  O11_11 
ROOT
HETATM    1  C1  UNL     1     -36.742  15.748  -5.656  1.00 20.00     0.038 C 
HETATM    2  C2  UNL     1     -35.309  15.985  -5.125  1.00 20.00     0.002 C 
HETATM    3  C3  UNL     1     -35.837  15.650  -3.700  1.00 20.00     0.019 C 
HETATM    4  C4  UNL     1     -37.052  14.951  -4.373  1.00 20.00     0.123 C 
ENDROOT
BRANCH   2   5
HETATM    5  C10 UNL     1     -34.241  15.046  -5.668  1.00 20.00    -0.047 C 
HETATM    6  C6  UNL     1     -33.428  14.438  -4.507  1.00 20.00     0.015 C 
HETATM    7  C7  UNL     1     -33.280  15.814  -6.598  1.00 20.00     0.015 C 
HETATM    8  C8  UNL     1     -34.897  13.902  -6.467  1.00 20.00     0.015 C 
ENDBRANCH   2   5
BRANCH   3   9
HETATM    9  C9  UNL     1     -36.127  16.859  -2.822  1.00 20.00     0.003 C 
HETATM   10  C5  UNL     1     -35.334  16.834  -1.551  1.00 20.00     0.005 C 
ENDBRANCH   3   9
BRANCH   4  11
HETATM   11  O11 UNL     1     -38.345  15.181  -3.785  1.00 20.00    -0.395 OA
HETATM   12  H31 UNL     1     -38.172  15.573  -2.921  1.00 20.00     0.210 HD
ENDBRANCH   4  11
TORSDOF 3
ENDMDL
MODEL 6
REMARK VINA RESULT:      -3.9      2.150      4.662
REMARK  3 active torsions:
REMARK  status: ('A' for Active; 'I' for Inactive)
REMARK    1  A    between atoms: C2_2  and  C10_10 
REMARK    2  A    between atoms: C3_3  and  C9_9 
REMARK    3  A    between atoms: C4_4  and  O11_11 
ROOT
HETATM    1  C1  UNL     1     -36.741  15.750  -5.647  1.00 20.00     0.038 C 
HETATM    2  C2  UNL     1     -35.309  15.980  -5.112  1.00 20.00     0.002 C 
HETATM    3  C3  UNL     1     -35.841  15.634  -3.691  1.00 20.00     0.019 C 
HETATM    4  C4  UNL     1     -37.056  14.942  -4.372  1.00 20.00     0.123 C 
ENDROOT
BRANCH   2   5
HETATM    5  C10 UNL     1     -34.242  15.044  -5.660  1.00 20.00    -0.047 C 
HETATM    6  C6  UNL     1     -34.897  13.899  -6.458  1.00 20.00     0.015 C 
HETATM    7  C7  UNL     1     -33.423  14.437  -4.503  1.00 20.00     0.015 C 
HETATM    8  C8  UNL     1     -33.287  15.816  -6.593  1.00 20.00     0.015 C 
ENDBRANCH   2   5
BRANCH   3   9
HETATM    9  C9  UNL     1     -36.131  16.836  -2.803  1.00 20.00     0.003 C 
HETATM   10  C5  UNL     1     -35.296  16.831  -1.560  1.00 20.00     0.005 C 
ENDBRANCH   3   9
BRANCH   4  11
HETATM   11  O11 UNL     1     -38.349  15.169  -3.785  1.00 20.00    -0.395 OA
HETATM   12  H31 UNL     1     -38.966  14.635  -4.301  1.00 20.00     0.210 HD
ENDBRANCH   4  11
TORSDOF 3
ENDMDL
MODEL 7
REMARK VINA RESULT:      -3.9      2.444      3.580
REMARK  3 active torsions:
REMARK  status: ('A' for Active; 'I' for Inactive)
REMARK    1  A    between atoms: C2_2  and  C10_10 
REMARK    2  A    between atoms: C3_3  and  C9_9 
REMARK    3  A    between atoms: C4_4  and  O11_11 
ROOT
HETATM    1  C1  UNL     1     -34.064  14.374  -4.164  1.00 20.00     0.038 C 
HETATM    2  C2  UNL     1     -34.098  15.716  -4.930  1.00 20.00     0.002 C 
HETATM    3  C3  UNL     1     -35.359  15.196  -5.680  1.00 20.00     0.019 C 
HETATM    4  C4  UNL     1     -35.544  14.157  -4.538  1.00 20.00     0.123 C 
ENDROOT
BRANCH   2   5
HETATM    5  C10 UNL     1     -34.308  16.958  -4.075  1.00 20.00    -0.047 C 
HETATM    6  C6  UNL     1     -35.761  17.456  -4.208  1.00 20.00     0.015 C 
HETATM    7  C7  UNL     1     -33.355  18.082  -4.529  1.00 20.00     0.015 C 
HETATM    8  C8  UNL     1     -34.027  16.637  -2.594  1.00 20.00     0.015 C 
ENDBRANCH   2   5
BRANCH   3   9
HETATM    9  C9  UNL     1     -35.097  14.656  -7.079  1.00 20.00     0.003 C 
HETATM   10  C5  UNL     1     -36.337  14.645  -7.918  1.00 20.00     0.005 C 
ENDBRANCH   3   9
BRANCH   4  11
HETATM   11  O11 UNL     1     -35.907  12.820  -4.925  1.00 20.00    -0.395 OA
HETATM   12  H31 UNL     1     -35.086  12.313  -4.911  1.00 20.00     0.210 HD
ENDBRANCH   4  11
TORSDOF 3
ENDMDL
MODEL 8
REMARK VINA RESULT:      -3.9      2.500      3.749
REMARK  3 active torsions:
REMARK  status: ('A' for Active; 'I' for Inactive)
REMARK    1  A    between atoms: C2_2  and  C10_10 
REMARK    2  A    between atoms: C3_3  and  C9_9 
REMARK    3  A    between atoms: C4_4  and  O11_11 
ROOT
HETATM    1  C1  UNL     1     -34.060  14.358  -4.192  1.00 20.00     0.038 C 
HETATM    2  C2  UNL     1     -34.243  15.702  -4.932  1.00 20.00     0.002 C 
HETATM    3  C3  UNL     1     -35.479  15.081  -5.647  1.00 20.00     0.019 C 
HETATM    4  C4  UNL     1     -35.527  14.013  -4.518  1.00 20.00     0.123 C 
ENDROOT
BRANCH   2   5
HETATM    5  C10 UNL     1     -34.533  16.907  -4.049  1.00 20.00    -0.047 C 
HETATM    6  C6  UNL     1     -34.209  16.578  -2.578  1.00 20.00     0.015 C 
HETATM    7  C7  UNL     1     -36.021  17.298  -4.154  1.00 20.00     0.015 C 
HETATM    8  C8  UNL     1     -33.671  18.108  -4.490  1.00 20.00     0.015 C 
ENDBRANCH   2   5
BRANCH   3   9
HETATM    9  C9  UNL     1     -35.221  14.586  -7.063  1.00 20.00     0.003 C 
HETATM   10  C5  UNL     1     -36.481  14.507  -7.869  1.00 20.00     0.005 C 
ENDBRANCH   3   9
BRANCH   4  11
HETATM   11  O11 UNL     1     -35.782  12.654  -4.915  1.00 20.00    -0.395 OA
HETATM   12  H31 UNL     1     -35.564  12.612  -5.854  1.00 20.00     0.210 HD
ENDBRANCH   4  11
TORSDOF 3
ENDMDL
MODEL 9
REMARK VINA RESULT:      -3.9     10.676     11.710
REMARK  3 active torsions:
REMARK  status: ('A' for Active; 'I' for Inactive)
REMARK    1  A    between atoms: C2_2  and  C10_10 
REMARK    2  A    between atoms: C3_3  and  C9_9 
REMARK    3  A    between atoms: C4_4  and  O11_11 
ROOT
HETATM    1  C1  UNL     1     -33.716   6.507   1.705  1.00 20.00     0.038 C 
HETATM    2  C2  UNL     1     -33.453   7.815   2.486  1.00 20.00     0.002 C 
HETATM    3  C3  UNL     1     -33.149   6.943   3.739  1.00 20.00     0.019 C 
HETATM    4  C4  UNL     1     -32.923   5.739   2.781  1.00 20.00     0.123 C 
ENDROOT
BRANCH   2   5
HETATM    5  C10 UNL     1     -32.297   8.664   1.980  1.00 20.00    -0.047 C 
HETATM    6  C6  UNL     1     -31.177   8.724   3.039  1.00 20.00     0.015 C 
HETATM    7  C7  UNL     1     -32.780  10.099   1.687  1.00 20.00     0.015 C 
HETATM    8  C8  UNL     1     -31.721   8.060   0.683  1.00 20.00     0.015 C 
ENDBRANCH   2   5
BRANCH   3   9
HETATM    9  C9  UNL     1     -34.292   6.833   4.738  1.00 20.00     0.003 C 
HETATM   10  C5  UNL     1     -33.868   7.217   6.122  1.00 20.00     0.005 C 
ENDBRANCH   3   9
BRANCH   4  11
HETATM   11  O11 UNL     1     -33.470   4.472   3.185  1.00 20.00    -0.395 OA
HETATM   12  H31 UNL     1     -32.710   3.914   3.393  1.00 20.00     0.210 HD
ENDBRANCH   4  11
TORSDOF 3
ENDMDL
