MODEL 1
REMARK VINA RESULT:      -4.3      0.000      0.000
REMARK  1 active torsions:
REMARK  status: ('A' for Active; 'I' for Inactive)
REMARK    1  A    between atoms: C5_5  and  C10_10 
ROOT
HETATM    1  C1  UNL     1     -33.964  15.388  -6.317  1.00 20.00     0.019 C 
HETATM    2  C2  UNL     1     -33.625  17.203  -3.368  1.00 20.00     0.018 A 
HETATM    3  C3  UNL     1     -35.121  16.043  -7.059  1.00 20.00     0.075 C 
HETATM    4  C4  UNL     1     -35.875  17.034  -4.622  1.00 20.00     0.084 C 
HETATM    5  C5  UNL     1     -34.502  16.324  -2.522  1.00 20.00     0.010 A 
HETATM    6  C6  UNL     1     -34.664  16.319  -4.045  1.00 20.00    -0.020 A 
HETATM    7  C7  UNL     1     -34.228  15.039  -4.825  1.00 20.00    -0.038 C 
HETATM    8  C8  UNL     1     -32.922  14.392  -4.301  1.00 20.00     0.015 C 
HETATM    9  C9  UNL     1     -35.328  13.959  -4.704  1.00 20.00     0.015 C 
HETATM   10  S11 UNL     1     -35.567  17.622  -6.301  1.00 20.00    -0.168 SA
ENDROOT
BRANCH   5  11
HETATM   11  C10 UNL     1     -35.503  16.930  -1.597  1.00 20.00     0.120 C 
HETATM   12 CL12 UNL     1     -34.708  17.671  -0.181  1.00 20.00    -0.130 Cl
ENDBRANCH   5  11
TORSDOF 1
ENDMDL
MODEL 2
REMARK VINA RESULT:      -4.1      1.287      1.900
REMARK  1 active torsions:
REMARK  status: ('A' for Active; 'I' for Inactive)
REMARK    1  A    between atoms: C5_5  and  C10_10 
ROOT
HETATM    1  C1  UNL     1     -35.662  14.918  -7.060  1.00 20.00     0.019 C 
HETATM    2  C2  UNL     1     -33.247  15.147  -4.566  1.00 20.00     0.018 A 
HETATM    3  C3  UNL     1     -35.600  16.247  -7.800  1.00 20.00     0.075 C 
HETATM    4  C4  UNL     1     -34.412  17.234  -5.541  1.00 20.00     0.084 C 
HETATM    5  C5  UNL     1     -34.162  15.650  -3.484  1.00 20.00     0.010 A 
HETATM    6  C6  UNL     1     -34.547  15.839  -4.955  1.00 20.00    -0.020 A 
HETATM    7  C7  UNL     1     -35.749  15.010  -5.511  1.00 20.00    -0.038 C 
HETATM    8  C8  UNL     1     -35.801  13.549  -4.998  1.00 20.00     0.015 C 
HETATM    9  C9  UNL     1     -37.077  15.671  -5.076  1.00 20.00     0.015 C 
HETATM   10  S11 UNL     1     -34.132  17.187  -7.324  1.00 20.00    -0.168 SA
ENDROOT
BRANCH   5  11
HETATM   11  C10 UNL     1     -33.734  16.775  -2.603  1.00 20.00     0.120 C 
HETATM   12 CL12 UNL     1     -34.850  16.974  -1.224  1.00 20.00    -0.130 Cl
ENDBRANCH   5  11
TORSDOF 1
ENDMDL
MODEL 3
REMARK VINA RESULT:      -4.1      1.624      1.763
REMARK  1 active torsions:
REMARK  status: ('A' for Active; 'I' for Inactive)
REMARK    1  A    between atoms: C5_5  and  C10_10 
ROOT
HETATM    1  C1  UNL     1     -35.518  15.500  -5.865  1.00 20.00     0.019 C 
HETATM    2  C2  UNL     1     -34.162  17.989  -3.847  1.00 20.00     0.018 A 
HETATM    3  C3  UNL     1     -36.958  15.345  -5.395  1.00 20.00     0.075 C 
HETATM    4  C4  UNL     1     -36.122  16.504  -3.061  1.00 20.00     0.084 C 
HETATM    5  C5  UNL     1     -33.590  17.072  -2.802  1.00 20.00     0.010 A 
HETATM    6  C6  UNL     1     -34.741  16.589  -3.690  1.00 20.00    -0.020 A 
HETATM    7  C7  UNL     1     -34.436  15.483  -4.749  1.00 20.00    -0.038 C 
HETATM    8  C8  UNL     1     -33.076  15.654  -5.470  1.00 20.00     0.015 C 
HETATM    9  C9  UNL     1     -34.390  14.102  -4.055  1.00 20.00     0.015 C 
HETATM   10  S11 UNL     1     -37.430  16.696  -4.291  1.00 20.00    -0.168 SA
ENDROOT
BRANCH   5  11
HETATM   11  C10 UNL     1     -33.755  17.389  -1.353  1.00 20.00     0.120 C 
HETATM   12 CL12 UNL     1     -32.380  18.348  -0.742  1.00 20.00    -0.130 Cl
ENDBRANCH   5  11
TORSDOF 1
ENDMDL
MODEL 4
REMARK VINA RESULT:      -3.9      2.864      3.965
REMARK  1 active torsions:
REMARK  status: ('A' for Active; 'I' for Inactive)
REMARK    1  A    between atoms: C5_5  and  C10_10 
ROOT
HETATM    1  C1  UNL     1     -33.276  15.622  -5.940  1.00 20.00     0.019 C 
HETATM    2  C2  UNL     1     -35.872  13.472  -5.079  1.00 20.00     0.018 A 
HETATM    3  C3  UNL     1     -33.233  16.662  -4.829  1.00 20.00     0.075 C 
HETATM    4  C4  UNL     1     -35.819  15.934  -4.306  1.00 20.00     0.084 C 
HETATM    5  C5  UNL     1     -36.945  14.173  -5.865  1.00 20.00     0.010 A 
HETATM    6  C6  UNL     1     -35.686  14.938  -5.446  1.00 20.00    -0.020 A 
HETATM    7  C7  UNL     1     -34.675  15.353  -6.561  1.00 20.00    -0.038 C 
HETATM    8  C8  UNL     1     -34.457  14.274  -7.652  1.00 20.00     0.015 C 
HETATM    9  C9  UNL     1     -35.198  16.611  -7.292  1.00 20.00     0.015 C 
HETATM   10  S11 UNL     1     -34.257  16.158  -3.428  1.00 20.00    -0.168 SA
ENDROOT
BRANCH   5  11
HETATM   11  C10 UNL     1     -38.285  14.413  -5.255  1.00 20.00     0.120 C 
HETATM   12 CL12 UNL     1     -39.162  15.709  -6.116  1.00 20.00    -0.130 Cl
ENDBRANCH   5  11
TORSDOF 1
ENDMDL
MODEL 5
REMARK VINA RESULT:      -3.9      1.992      2.825
REMARK  1 active torsions:
REMARK  status: ('A' for Active; 'I' for Inactive)
REMARK    1  A    between atoms: C5_5  and  C10_10 
ROOT
HETATM    1  C1  UNL     1     -36.670  14.555  -7.782  1.00 20.00     0.019 C 
HETATM    2  C2  UNL     1     -33.845  16.443  -7.034  1.00 20.00     0.018 A 
HETATM    3  C3  UNL     1     -37.852  15.461  -7.469  1.00 20.00     0.075 C 
HETATM    4  C4  UNL     1     -36.116  16.857  -5.879  1.00 20.00     0.084 C 
HETATM    5  C5  UNL     1     -33.682  15.958  -5.620  1.00 20.00     0.010 A 
HETATM    6  C6  UNL     1     -35.049  15.862  -6.304  1.00 20.00    -0.020 A 
HETATM    7  C7  UNL     1     -35.589  14.444  -6.671  1.00 20.00    -0.038 C 
HETATM    8  C8  UNL     1     -34.509  13.478  -7.221  1.00 20.00     0.015 C 
HETATM    9  C9  UNL     1     -36.172  13.770  -5.408  1.00 20.00     0.015 C 
HETATM   10  S11 UNL     1     -37.309  17.164  -7.199  1.00 20.00    -0.168 SA
ENDROOT
BRANCH   5  11
HETATM   11  C10 UNL     1     -33.385  16.925  -4.524  1.00 20.00     0.120 C 
HETATM   12 CL12 UNL     1     -33.883  16.276  -2.938  1.00 20.00    -0.130 Cl
ENDBRANCH   5  11
TORSDOF 1
ENDMDL
MODEL 6
REMARK VINA RESULT:      -3.8      1.783      2.585
REMARK  1 active torsions:
REMARK  status: ('A' for Active; 'I' for Inactive)
REMARK    1  A    between atoms: C5_5  and  C10_10 
ROOT
HETATM    1  C1  UNL     1     -34.529  15.206  -7.215  1.00 20.00     0.019 C 
HETATM    2  C2  UNL     1     -36.635  16.990  -5.097  1.00 20.00     0.018 A 
HETATM    3  C3  UNL     1     -34.752  13.743  -6.862  1.00 20.00     0.075 C 
HETATM    4  C4  UNL     1     -35.711  14.663  -4.469  1.00 20.00     0.084 C 
HETATM    5  C5  UNL     1     -35.625  17.229  -4.009  1.00 20.00     0.010 A 
HETATM    6  C6  UNL     1     -35.431  16.064  -4.986  1.00 20.00    -0.020 A 
HETATM    7  C7  UNL     1     -34.262  16.159  -6.016  1.00 20.00    -0.038 C 
HETATM    8  C8  UNL     1     -34.068  17.570  -6.626  1.00 20.00     0.015 C 
HETATM    9  C9  UNL     1     -32.929  15.799  -5.320  1.00 20.00     0.015 C 
HETATM   10  S11 UNL     1     -36.202  13.546  -5.800  1.00 20.00    -0.168 SA
ENDROOT
BRANCH   5  11
HETATM   11  C10 UNL     1     -36.004  17.038  -2.579  1.00 20.00     0.120 C 
HETATM   12 CL12 UNL     1     -34.558  16.919  -1.539  1.00 20.00    -0.130 Cl
ENDBRANCH   5  11
TORSDOF 1
ENDMDL
MODEL 7
REMARK VINA RESULT:      -3.8      2.564      3.263
REMARK  1 active torsions:
REMARK  status: ('A' for Active; 'I' for Inactive)
REMARK    1  A    between atoms: C5_5  and  C10_10 
ROOT
HETATM    1  C1  UNL     1     -33.508  16.264  -5.057  1.00 20.00     0.019 C 
HETATM    2  C2  UNL     1     -36.906  16.942  -4.739  1.00 20.00     0.018 A 
HETATM    3  C3  UNL     1     -33.321  15.828  -6.504  1.00 20.00     0.075 C 
HETATM    4  C4  UNL     1     -36.000  15.268  -6.483  1.00 20.00     0.084 C 
HETATM    5  C5  UNL     1     -37.309  15.579  -4.249  1.00 20.00     0.010 A 
HETATM    6  C6  UNL     1     -36.009  15.749  -5.041  1.00 20.00    -0.020 A 
HETATM    7  C7  UNL     1     -34.658  15.561  -4.282  1.00 20.00    -0.038 C 
HETATM    8  C8  UNL     1     -34.643  16.166  -2.856  1.00 20.00     0.015 C 
HETATM    9  C9  UNL     1     -34.362  14.052  -4.117  1.00 20.00     0.015 C 
HETATM   10  S11 UNL     1     -34.800  16.175  -7.482  1.00 20.00    -0.168 SA
ENDROOT
BRANCH   5  11
HETATM   11  C10 UNL     1     -38.521  14.910  -4.806  1.00 20.00     0.120 C 
HETATM   12 CL12 UNL     1     -39.984  15.898  -4.536  1.00 20.00    -0.130 Cl
ENDBRANCH   5  11
TORSDOF 1
ENDMDL
MODEL 8
REMARK VINA RESULT:      -3.8      1.925      3.128
REMARK  1 active torsions:
REMARK  status: ('A' for Active; 'I' for Inactive)
REMARK    1  A    between atoms: C5_5  and  C10_10 
ROOT
HETATM    1  C1  UNL     1     -36.891  15.194  -4.397  1.00 20.00     0.019 C 
HETATM    2  C2  UNL     1     -34.997  16.685  -1.889  1.00 20.00     0.018 A 
HETATM    3  C3  UNL     1     -35.921  14.297  -5.152  1.00 20.00     0.075 C 
HETATM    4  C4  UNL     1     -33.944  15.871  -4.101  1.00 20.00     0.084 C 
HETATM    5  C5  UNL     1     -34.640  17.927  -2.657  1.00 20.00     0.010 A 
HETATM    6  C6  UNL     1     -35.046  16.657  -3.411  1.00 20.00    -0.020 A 
HETATM    7  C7  UNL     1     -36.416  16.655  -4.159  1.00 20.00    -0.038 C 
HETATM    8  C8  UNL     1     -37.561  17.355  -3.385  1.00 20.00     0.015 C 
HETATM    9  C9  UNL     1     -36.274  17.409  -5.502  1.00 20.00     0.015 C 
HETATM   10  S11 UNL     1     -34.365  14.121  -4.250  1.00 20.00    -0.168 SA
ENDROOT
BRANCH   5  11
HETATM   11  C10 UNL     1     -33.242  18.449  -2.632  1.00 20.00     0.120 C 
HETATM   12 CL12 UNL     1     -32.466  18.139  -1.055  1.00 20.00    -0.130 Cl
ENDBRANCH   5  11
TORSDOF 1
ENDMDL
MODEL 9
REMARK VINA RESULT:      -3.8      1.440      2.478
REMARK  1 active torsions:
REMARK  status: ('A' for Active; 'I' for Inactive)
REMARK    1  A    between atoms: C5_5  and  C10_10 
ROOT
HETATM    1  C1  UNL     1     -36.602  15.517  -6.685  1.00 20.00     0.019 C 
HETATM    2  C2  UNL     1     -34.442  14.763  -4.064  1.00 20.00     0.018 A 
HETATM    3  C3  UNL     1     -35.763  16.307  -7.680  1.00 20.00     0.075 C 
HETATM    4  C4  UNL     1     -34.097  16.829  -5.572  1.00 20.00     0.084 C 
HETATM    5  C5  UNL     1     -34.780  15.955  -3.212  1.00 20.00     0.010 A 
HETATM    6  C6  UNL     1     -35.043  15.999  -4.721  1.00 20.00    -0.020 A 
HETATM    7  C7  UNL     1     -36.527  15.994  -5.208  1.00 20.00    -0.038 C 
HETATM    8  C8  UNL     1     -37.453  15.046  -4.405  1.00 20.00     0.015 C 
HETATM    9  C9  UNL     1     -37.124  17.412  -5.061  1.00 20.00     0.015 C 
HETATM   10  S11 UNL     1     -34.006  16.212  -7.266  1.00 20.00    -0.168 SA
ENDROOT
BRANCH   5  11
HETATM   11  C10 UNL     1     -33.696  16.737  -2.551  1.00 20.00     0.120 C 
HETATM   12 CL12 UNL     1     -34.224  17.356  -0.962  1.00 20.00    -0.130 Cl
ENDBRANCH   5  11
TORSDOF 1
ENDMDL
