MODEL 1
REMARK VINA RESULT:      -4.4      0.000      0.000
REMARK  3 active torsions:
REMARK  status: ('A' for Active; 'I' for Inactive)
REMARK    1  A    between atoms: C2_2  and  C6_6 
REMARK    2  A    between atoms: C3_3  and  C7_7 
REMARK    3  A    between atoms: C6_6  and  O8_8 
ROOT
HETATM    1  C1  UNL     1     -34.290   6.421   2.395  1.00 20.00     0.017 A 
HETATM    2  C2  UNL     1     -32.849   6.431   2.821  1.00 20.00     0.018 A 
HETATM    3  C3  UNL     1     -33.888   5.737   3.692  1.00 20.00    -0.038 A 
HETATM    4  C4  UNL     1     -33.869   4.231   3.718  1.00 20.00     0.015 C 
ENDROOT
BRANCH   2   5
HETATM    5  C6  UNL     1     -32.191   7.708   3.217  1.00 20.00     0.169 C 
BRANCH   5   6
HETATM    6  O8  UNL     1     -31.853   8.463   2.054  1.00 20.00    -0.400 OA
HETATM    7  H22 UNL     1     -31.577   7.821   1.383  1.00 20.00     0.209 HD
ENDBRANCH   5   6
ENDBRANCH   2   5
BRANCH   3   8
HETATM    8  C7  UNL     1     -34.328   6.366   4.988  1.00 20.00     0.005 C 
HETATM    9  C5  UNL     1     -34.652   5.344   6.040  1.00 20.00     0.006 C 
ENDBRANCH   3   8
TORSDOF 3
ENDMDL
MODEL 2
REMARK VINA RESULT:      -4.2      2.352      3.594
REMARK  3 active torsions:
REMARK  status: ('A' for Active; 'I' for Inactive)
REMARK    1  A    between atoms: C2_2  and  C6_6 
REMARK    2  A    between atoms: C3_3  and  C7_7 
REMARK    3  A    between atoms: C6_6  and  O8_8 
ROOT
HETATM    1  C1  UNL     1     -33.041   5.374   2.766  1.00 20.00     0.017 A 
HETATM    2  C2  UNL     1     -34.385   5.942   3.121  1.00 20.00     0.018 A 
HETATM    3  C3  UNL     1     -33.197   6.877   2.934  1.00 20.00    -0.038 A 
HETATM    4  C4  UNL     1     -33.182   7.730   1.693  1.00 20.00     0.015 C 
ENDROOT
BRANCH   2   5
HETATM    5  C6  UNL     1     -34.990   5.667   4.455  1.00 20.00     0.169 C 
BRANCH   5   6
HETATM    6  O8  UNL     1     -35.030   4.260   4.690  1.00 20.00    -0.400 OA
HETATM    7  H22 UNL     1     -34.789   3.835   3.853  1.00 20.00     0.209 HD
ENDBRANCH   5   6
ENDBRANCH   2   5
BRANCH   3   8
HETATM    8  C7  UNL     1     -32.552   7.525   4.130  1.00 20.00     0.005 C 
HETATM    9  C5  UNL     1     -31.392   8.400   3.752  1.00 20.00     0.006 C 
ENDBRANCH   3   8
TORSDOF 3
ENDMDL
MODEL 3
REMARK VINA RESULT:      -4.2      1.495      2.703
REMARK  3 active torsions:
REMARK  status: ('A' for Active; 'I' for Inactive)
REMARK    1  A    between atoms: C2_2  and  C6_6 
REMARK    2  A    between atoms: C3_3  and  C7_7 
REMARK    3  A    between atoms: C6_6  and  O8_8 
ROOT
HETATM    1  C1  UNL     1     -31.441   8.066   3.495  1.00 20.00     0.017 A 
HETATM    2  C2  UNL     1     -32.558   8.701   2.718  1.00 20.00     0.018 A 
HETATM    3  C3  UNL     1     -32.792   7.372   3.423  1.00 20.00    -0.038 A 
HETATM    4  C4  UNL     1     -33.660   7.389   4.654  1.00 20.00     0.015 C 
ENDROOT
BRANCH   2   5
HETATM    5  C6  UNL     1     -32.470   8.821   1.235  1.00 20.00     0.169 C 
BRANCH   5   6
HETATM    6  O8  UNL     1     -32.501  10.196   0.855  1.00 20.00    -0.400 OA
HETATM    7  H22 UNL     1     -32.844  10.222  -0.051  1.00 20.00     0.209 HD
ENDBRANCH   5   6
ENDBRANCH   2   5
BRANCH   3   8
HETATM    8  C7  UNL     1     -32.891   6.100   2.622  1.00 20.00     0.005 C 
HETATM    9  C5  UNL     1     -33.776   5.079   3.276  1.00 20.00     0.006 C 
ENDBRANCH   3   8
TORSDOF 3
ENDMDL
MODEL 4
REMARK VINA RESULT:      -4.2      1.338      1.951
REMARK  3 active torsions:
REMARK  status: ('A' for Active; 'I' for Inactive)
REMARK    1  A    between atoms: C2_2  and  C6_6 
REMARK    2  A    between atoms: C3_3  and  C7_7 
REMARK    3  A    between atoms: C6_6  and  O8_8 
ROOT
HETATM    1  C1  UNL     1     -33.602   7.125   4.840  1.00 20.00     0.017 A 
HETATM    2  C2  UNL     1     -33.559   7.571   3.406  1.00 20.00     0.018 A 
HETATM    3  C3  UNL     1     -34.186   6.229   3.760  1.00 20.00    -0.038 A 
HETATM    4  C4  UNL     1     -35.686   6.124   3.666  1.00 20.00     0.015 C 
ENDROOT
BRANCH   2   5
HETATM    5  C6  UNL     1     -32.256   7.687   2.693  1.00 20.00     0.169 C 
BRANCH   5   6
HETATM    6  O8  UNL     1     -31.295   8.322   3.535  1.00 20.00    -0.400 OA
HETATM    7  H22 UNL     1     -31.604   8.198   4.445  1.00 20.00     0.209 HD
ENDBRANCH   5   6
ENDBRANCH   2   5
BRANCH   3   8
HETATM    8  C7  UNL     1     -33.461   4.949   3.435  1.00 20.00     0.005 C 
HETATM    9  C5  UNL     1     -33.969   3.785   4.236  1.00 20.00     0.006 C 
ENDBRANCH   3   8
TORSDOF 3
ENDMDL
MODEL 5
REMARK VINA RESULT:      -4.1      1.962      2.027
REMARK  3 active torsions:
REMARK  status: ('A' for Active; 'I' for Inactive)
REMARK    1  A    between atoms: C2_2  and  C6_6 
REMARK    2  A    between atoms: C3_3  and  C7_7 
REMARK    3  A    between atoms: C6_6  and  O8_8 
ROOT
HETATM    1  C1  UNL     1     -33.380   7.351   2.378  1.00 20.00     0.017 A 
HETATM    2  C2  UNL     1     -32.722   7.201   3.720  1.00 20.00     0.018 A 
HETATM    3  C3  UNL     1     -33.585   6.072   3.173  1.00 20.00    -0.038 A 
HETATM    4  C4  UNL     1     -32.874   4.829   2.703  1.00 20.00     0.015 C 
ENDROOT
BRANCH   2   5
HETATM    5  C6  UNL     1     -33.146   8.055   4.865  1.00 20.00     0.169 C 
BRANCH   5   6
HETATM    6  O8  UNL     1     -32.991   7.339   6.090  1.00 20.00    -0.400 OA
HETATM    7  H22 UNL     1     -32.327   7.820   6.606  1.00 20.00     0.209 HD
ENDBRANCH   5   6
ENDBRANCH   2   5
BRANCH   3   8
HETATM    8  C7  UNL     1     -34.948   5.813   3.757  1.00 20.00     0.005 C 
HETATM    9  C5  UNL     1     -34.936   4.706   4.772  1.00 20.00     0.006 C 
ENDBRANCH   3   8
TORSDOF 3
ENDMDL
MODEL 6
REMARK VINA RESULT:      -3.9      2.425      3.677
REMARK  3 active torsions:
REMARK  status: ('A' for Active; 'I' for Inactive)
REMARK    1  A    between atoms: C2_2  and  C6_6 
REMARK    2  A    between atoms: C3_3  and  C7_7 
REMARK    3  A    between atoms: C6_6  and  O8_8 
ROOT
HETATM    1  C1  UNL     1     -35.211   6.548   3.932  1.00 20.00     0.017 A 
HETATM    2  C2  UNL     1     -34.360   5.444   4.491  1.00 20.00     0.018 A 
HETATM    3  C3  UNL     1     -33.759   6.828   4.285  1.00 20.00    -0.038 A 
HETATM    4  C4  UNL     1     -33.480   7.647   5.518  1.00 20.00     0.015 C 
ENDROOT
BRANCH   2   5
HETATM    5  C6  UNL     1     -33.994   4.273   3.644  1.00 20.00     0.169 C 
BRANCH   5   6
HETATM    6  O8  UNL     1     -33.846   3.111   4.458  1.00 20.00    -0.400 OA
HETATM    7  H22 UNL     1     -34.167   3.351   5.340  1.00 20.00     0.209 HD
ENDBRANCH   5   6
ENDBRANCH   2   5
BRANCH   3   8
HETATM    8  C7  UNL     1     -32.791   7.070   3.157  1.00 20.00     0.005 C 
HETATM    9  C5  UNL     1     -31.765   8.112   3.497  1.00 20.00     0.006 C 
ENDBRANCH   3   8
TORSDOF 3
ENDMDL
MODEL 7
REMARK VINA RESULT:      -3.9     11.482     12.251
REMARK  3 active torsions:
REMARK  status: ('A' for Active; 'I' for Inactive)
REMARK    1  A    between atoms: C2_2  and  C6_6 
REMARK    2  A    between atoms: C3_3  and  C7_7 
REMARK    3  A    between atoms: C6_6  and  O8_8 
ROOT
HETATM    1  C1  UNL     1     -33.584  14.395  -4.260  1.00 20.00     0.017 A 
HETATM    2  C2  UNL     1     -34.774  14.737  -5.111  1.00 20.00     0.018 A 
HETATM    3  C3  UNL     1     -34.211  15.776  -4.149  1.00 20.00    -0.038 A 
HETATM    4  C4  UNL     1     -33.466  16.938  -4.751  1.00 20.00     0.015 C 
ENDROOT
BRANCH   2   5
HETATM    5  C6  UNL     1     -36.080  14.057  -4.885  1.00 20.00     0.169 C 
BRANCH   5   6
HETATM    6  O8  UNL     1     -35.931  12.648  -5.053  1.00 20.00    -0.400 OA
HETATM    7  H22 UNL     1     -36.824  12.289  -5.164  1.00 20.00     0.209 HD
ENDBRANCH   5   6
ENDBRANCH   2   5
BRANCH   3   8
HETATM    8  C7  UNL     1     -34.955  16.114  -2.885  1.00 20.00     0.005 C 
HETATM    9  C5  UNL     1     -34.125  16.924  -1.930  1.00 20.00     0.006 C 
ENDBRANCH   3   8
TORSDOF 3
ENDMDL
MODEL 8
REMARK VINA RESULT:      -3.9      1.959      2.536
REMARK  3 active torsions:
REMARK  status: ('A' for Active; 'I' for Inactive)
REMARK    1  A    between atoms: C2_2  and  C6_6 
REMARK    2  A    between atoms: C3_3  and  C7_7 
REMARK    3  A    between atoms: C6_6  and  O8_8 
ROOT
HETATM    1  C1  UNL     1     -35.375   5.775   3.601  1.00 20.00     0.017 A 
HETATM    2  C2  UNL     1     -34.089   4.998   3.577  1.00 20.00     0.018 A 
HETATM    3  C3  UNL     1     -34.375   5.948   4.733  1.00 20.00    -0.038 A 
HETATM    4  C4  UNL     1     -34.705   5.330   6.067  1.00 20.00     0.015 C 
ENDROOT
BRANCH   2   5
HETATM    5  C6  UNL     1     -33.058   5.282   2.539  1.00 20.00     0.169 C 
BRANCH   5   6
HETATM    6  O8  UNL     1     -32.714   4.078   1.854  1.00 20.00    -0.400 OA
HETATM    7  H22 UNL     1     -33.274   3.381   2.227  1.00 20.00     0.209 HD
ENDBRANCH   5   6
ENDBRANCH   2   5
BRANCH   3   8
HETATM    8  C7  UNL     1     -33.639   7.259   4.832  1.00 20.00     0.005 C 
HETATM    9  C5  UNL     1     -33.456   7.707   6.253  1.00 20.00     0.006 C 
ENDBRANCH   3   8
TORSDOF 3
ENDMDL
MODEL 9
REMARK VINA RESULT:      -3.8      2.435      4.441
REMARK  3 active torsions:
REMARK  status: ('A' for Active; 'I' for Inactive)
REMARK    1  A    between atoms: C2_2  and  C6_6 
REMARK    2  A    between atoms: C3_3  and  C7_7 
REMARK    3  A    between atoms: C6_6  and  O8_8 
ROOT
HETATM    1  C1  UNL     1     -31.409   8.347   3.320  1.00 20.00     0.017 A 
HETATM    2  C2  UNL     1     -32.422   7.359   2.816  1.00 20.00     0.018 A 
HETATM    3  C3  UNL     1     -32.034   8.550   1.949  1.00 20.00    -0.038 A 
HETATM    4  C4  UNL     1     -31.182   8.271   0.738  1.00 20.00     0.015 C 
ENDROOT
BRANCH   2   5
HETATM    5  C6  UNL     1     -33.754   7.245   3.475  1.00 20.00     0.169 C 
BRANCH   5   6
HETATM    6  O8  UNL     1     -33.598   7.263   4.893  1.00 20.00    -0.400 OA
HETATM    7  H22 UNL     1     -32.826   7.819   5.077  1.00 20.00     0.209 HD
ENDBRANCH   5   6
ENDBRANCH   2   5
BRANCH   3   8
HETATM    8  C7  UNL     1     -32.991   9.699   1.772  1.00 20.00     0.005 C 
HETATM    9  C5  UNL     1     -33.023  10.206   0.359  1.00 20.00     0.006 C 
ENDBRANCH   3   8
TORSDOF 3
ENDMDL
