MODEL 1
REMARK VINA RESULT:      -6.0      0.000      0.000
REMARK  2 active torsions:
REMARK  status: ('A' for Active; 'I' for Inactive)
REMARK    1  A    between atoms: C6_6  and  C7_7 
REMARK    2  A    between atoms: C8_8  and  C9_9 
ROOT
HETATM    1  C1  UNL     1     -34.027   7.629   5.035  1.00 20.00     0.031 C 
HETATM    2  C2  UNL     1     -34.761   6.017   3.256  1.00 20.00     0.031 C 
HETATM    3  C4  UNL     1     -33.714   6.417   5.905  1.00 20.00     0.168 C 
HETATM    4  C5  UNL     1     -34.407   4.895   4.226  1.00 20.00     0.168 C 
HETATM    5  C6  UNL     1     -33.965   7.297   3.539  1.00 20.00    -0.006 C 
HETATM    6  O10 UNL     1     -34.570   5.323   5.577  1.00 20.00    -0.391 OA
ENDROOT
BRANCH   5   7
HETATM    7  C7  UNL     1     -32.520   7.184   3.046  1.00 20.00    -0.005 A 
HETATM    8  C3  UNL     1     -31.488   8.157   3.531  1.00 20.00     0.011 A 
HETATM    9  C8  UNL     1     -31.924   8.177   2.089  1.00 20.00     0.004 A 
BRANCH   9  10
HETATM   10  C9  UNL     1     -32.685   9.339   1.550  1.00 20.00     0.119 C 
HETATM   11 CL11 UNL     1     -32.873   9.223  -0.222  1.00 20.00    -0.130 Cl
ENDBRANCH   9  10
ENDBRANCH   5   7
TORSDOF 2
ENDMDL
MODEL 2
REMARK VINA RESULT:      -4.3      2.965      4.387
REMARK  2 active torsions:
REMARK  status: ('A' for Active; 'I' for Inactive)
REMARK    1  A    between atoms: C6_6  and  C7_7 
REMARK    2  A    between atoms: C8_8  and  C9_9 
ROOT
HETATM    1  C1  UNL     1     -31.547   8.035   3.701  1.00 20.00     0.031 C 
HETATM    2  C2  UNL     1     -32.997   6.686   2.157  1.00 20.00     0.031 C 
HETATM    3  C4  UNL     1     -31.886   9.249   2.845  1.00 20.00     0.168 C 
HETATM    4  C5  UNL     1     -33.254   7.977   1.387  1.00 20.00     0.168 C 
HETATM    5  C6  UNL     1     -32.631   6.953   3.623  1.00 20.00    -0.006 C 
HETATM    6  O10 UNL     1     -32.141   8.862   1.495  1.00 20.00    -0.391 OA
ENDROOT
BRANCH   5   7
HETATM    7  C7  UNL     1     -33.863   7.327   4.452  1.00 20.00    -0.005 A 
HETATM    8  C3  UNL     1     -33.730   7.540   5.930  1.00 20.00     0.011 A 
HETATM    9  C8  UNL     1     -34.505   6.359   5.406  1.00 20.00     0.004 A 
BRANCH   9  10
HETATM   10  C9  UNL     1     -33.998   4.974   5.619  1.00 20.00     0.119 C 
HETATM   11 CL11 UNL     1     -34.266   3.959   4.174  1.00 20.00    -0.130 Cl
ENDBRANCH   9  10
ENDBRANCH   5   7
TORSDOF 2
ENDMDL
MODEL 3
REMARK VINA RESULT:      -4.2     11.011     11.720
REMARK  2 active torsions:
REMARK  status: ('A' for Active; 'I' for Inactive)
REMARK    1  A    between atoms: C6_6  and  C7_7 
REMARK    2  A    between atoms: C8_8  and  C9_9 
ROOT
HETATM    1  C1  UNL     1     -35.771  15.696  -4.779  1.00 20.00     0.031 C 
HETATM    2  C2  UNL     1     -33.294  15.796  -4.385  1.00 20.00     0.031 C 
HETATM    3  C4  UNL     1     -35.636  14.178  -4.801  1.00 20.00     0.168 C 
HETATM    4  C5  UNL     1     -33.297  14.271  -4.430  1.00 20.00     0.168 C 
HETATM    5  C6  UNL     1     -34.656  16.363  -3.966  1.00 20.00    -0.006 C 
HETATM    6  O10 UNL     1     -34.345  13.791  -5.270  1.00 20.00    -0.391 OA
ENDROOT
BRANCH   5   7
HETATM    7  C7  UNL     1     -34.889  16.215  -2.460  1.00 20.00    -0.005 A 
HETATM    8  C3  UNL     1     -35.662  17.263  -1.718  1.00 20.00     0.011 A 
HETATM    9  C8  UNL     1     -34.189  17.086  -1.455  1.00 20.00     0.004 A 
BRANCH   9  10
HETATM   10  C9  UNL     1     -33.224  18.153  -1.842  1.00 20.00     0.119 C 
HETATM   11 CL11 UNL     1     -32.117  18.542  -0.496  1.00 20.00    -0.130 Cl
ENDBRANCH   9  10
ENDBRANCH   5   7
TORSDOF 2
ENDMDL
MODEL 4
REMARK VINA RESULT:      -4.0     11.297     12.246
REMARK  2 active torsions:
REMARK  status: ('A' for Active; 'I' for Inactive)
REMARK    1  A    between atoms: C6_6  and  C7_7 
REMARK    2  A    between atoms: C8_8  and  C9_9 
ROOT
HETATM    1  C1  UNL     1     -34.393  18.144  -3.793  1.00 20.00     0.031 C 
HETATM    2  C2  UNL     1     -34.008  17.204  -1.497  1.00 20.00     0.031 C 
HETATM    3  C4  UNL     1     -33.110  18.946  -3.603  1.00 20.00     0.168 C 
HETATM    4  C5  UNL     1     -32.747  18.059  -1.436  1.00 20.00     0.168 C 
HETATM    5  C6  UNL     1     -34.409  16.870  -2.940  1.00 20.00    -0.006 C 
HETATM    6  O10 UNL     1     -32.896  19.239  -2.223  1.00 20.00    -0.391 OA
ENDROOT
BRANCH   5   7
HETATM    7  C7  UNL     1     -33.514  15.781  -3.536  1.00 20.00    -0.005 A 
HETATM    8  C3  UNL     1     -33.334  15.693  -5.022  1.00 20.00     0.011 A 
HETATM    9  C8  UNL     1     -34.079  14.608  -4.289  1.00 20.00     0.004 A 
BRANCH   9  10
HETATM   10  C9  UNL     1     -35.539  14.417  -4.511  1.00 20.00     0.119 C 
HETATM   11 CL11 UNL     1     -35.846  13.274  -5.848  1.00 20.00    -0.130 Cl
ENDBRANCH   9  10
ENDBRANCH   5   7
TORSDOF 2
ENDMDL
MODEL 5
REMARK VINA RESULT:      -4.0     10.924     11.933
REMARK  2 active torsions:
REMARK  status: ('A' for Active; 'I' for Inactive)
REMARK    1  A    between atoms: C6_6  and  C7_7 
REMARK    2  A    between atoms: C8_8  and  C9_9 
ROOT
HETATM    1  C1  UNL     1     -35.471  17.140  -0.902  1.00 20.00     0.031 C 
HETATM    2  C2  UNL     1     -33.220  17.435  -1.976  1.00 20.00     0.031 C 
HETATM    3  C4  UNL     1     -35.567  18.660  -0.850  1.00 20.00     0.168 C 
HETATM    4  C5  UNL     1     -33.443  18.939  -1.863  1.00 20.00     0.168 C 
HETATM    5  C6  UNL     1     -34.543  16.659  -2.025  1.00 20.00    -0.006 C 
HETATM    6  O10 UNL     1     -34.270  19.246  -0.742  1.00 20.00    -0.391 OA
ENDROOT
BRANCH   5   7
HETATM    7  C7  UNL     1     -35.212  16.770  -3.397  1.00 20.00    -0.005 A 
HETATM    8  C3  UNL     1     -36.482  16.023  -3.670  1.00 20.00     0.011 A 
HETATM    9  C8  UNL     1     -35.212  15.632  -4.379  1.00 20.00     0.004 A 
BRANCH   9  10
HETATM   10  C9  UNL     1     -34.567  14.319  -4.096  1.00 20.00     0.119 C 
HETATM   11 CL11 UNL     1     -32.801  14.397  -4.350  1.00 20.00    -0.130 Cl
ENDBRANCH   9  10
ENDBRANCH   5   7
TORSDOF 2
ENDMDL
MODEL 6
REMARK VINA RESULT:      -4.0     11.338     12.109
REMARK  2 active torsions:
REMARK  status: ('A' for Active; 'I' for Inactive)
REMARK    1  A    between atoms: C6_6  and  C7_7 
REMARK    2  A    between atoms: C8_8  and  C9_9 
ROOT
HETATM    1  C1  UNL     1     -33.287  15.078  -4.163  1.00 20.00     0.031 C 
HETATM    2  C2  UNL     1     -35.729  15.659  -4.170  1.00 20.00     0.031 C 
HETATM    3  C4  UNL     1     -33.236  15.580  -5.602  1.00 20.00     0.168 C 
HETATM    4  C5  UNL     1     -35.541  16.128  -5.609  1.00 20.00     0.168 C 
HETATM    5  C6  UNL     1     -34.425  15.727  -3.366  1.00 20.00    -0.006 C 
HETATM    6  O10 UNL     1     -34.495  15.397  -6.247  1.00 20.00    -0.391 OA
ENDROOT
BRANCH   5   7
HETATM    7  C7  UNL     1     -34.084  17.164  -2.965  1.00 20.00    -0.005 A 
HETATM    8  C3  UNL     1     -33.149  17.418  -1.821  1.00 20.00     0.011 A 
HETATM    9  C8  UNL     1     -34.606  17.783  -1.698  1.00 20.00     0.004 A 
BRANCH   9  10
HETATM   10  C9  UNL     1     -35.486  17.054  -0.744  1.00 20.00     0.119 C 
HETATM   11 CL11 UNL     1     -35.385  17.755   0.895  1.00 20.00    -0.130 Cl
ENDBRANCH   9  10
ENDBRANCH   5   7
TORSDOF 2
ENDMDL
MODEL 7
REMARK VINA RESULT:      -4.0     10.900     12.354
REMARK  2 active torsions:
REMARK  status: ('A' for Active; 'I' for Inactive)
REMARK    1  A    between atoms: C6_6  and  C7_7 
REMARK    2  A    between atoms: C8_8  and  C9_9 
ROOT
HETATM    1  C1  UNL     1     -33.772  14.459  -6.621  1.00 20.00     0.031 C 
HETATM    2  C2  UNL     1     -34.773  14.093  -4.347  1.00 20.00     0.031 C 
HETATM    3  C4  UNL     1     -34.979  13.724  -7.193  1.00 20.00     0.168 C 
HETATM    4  C5  UNL     1     -35.924  13.378  -5.048  1.00 20.00     0.168 C 
HETATM    5  C6  UNL     1     -34.081  15.108  -5.266  1.00 20.00    -0.006 C 
HETATM    6  O10 UNL     1     -35.480  12.769  -6.258  1.00 20.00    -0.391 OA
ENDROOT
BRANCH   5   7
HETATM    7  C7  UNL     1     -34.915  16.382  -5.428  1.00 20.00    -0.005 A 
HETATM    8  C3  UNL     1     -34.304  17.598  -6.056  1.00 20.00     0.011 A 
HETATM    9  C8  UNL     1     -34.667  17.608  -4.594  1.00 20.00     0.004 A 
BRANCH   9  10
HETATM   10  C9  UNL     1     -33.602  17.678  -3.554  1.00 20.00     0.119 C 
HETATM   11 CL11 UNL     1     -34.100  16.837  -2.060  1.00 20.00    -0.130 Cl
ENDBRANCH   9  10
ENDBRANCH   5   7
TORSDOF 2
ENDMDL
MODEL 8
REMARK VINA RESULT:      -3.9      3.075      4.580
REMARK  2 active torsions:
REMARK  status: ('A' for Active; 'I' for Inactive)
REMARK    1  A    between atoms: C6_6  and  C7_7 
REMARK    2  A    between atoms: C8_8  and  C9_9 
ROOT
HETATM    1  C1  UNL     1     -33.272   7.858   1.854  1.00 20.00     0.031 C 
HETATM    2  C2  UNL     1     -32.771   7.868   4.314  1.00 20.00     0.031 C 
HETATM    3  C4  UNL     1     -31.849   8.359   1.634  1.00 20.00     0.168 C 
HETATM    4  C5  UNL     1     -31.376   8.369   3.956  1.00 20.00     0.168 C 
HETATM    5  C6  UNL     1     -33.412   7.078   3.166  1.00 20.00    -0.006 C 
HETATM    6  O10 UNL     1     -31.405   9.130   2.750  1.00 20.00    -0.391 OA
ENDROOT
BRANCH   5   7
HETATM    7  C7  UNL     1     -32.821   5.670   3.052  1.00 20.00    -0.005 A 
HETATM    8  C3  UNL     1     -33.475   4.657   2.162  1.00 20.00     0.011 A 
HETATM    9  C8  UNL     1     -33.495   4.471   3.656  1.00 20.00     0.004 A 
BRANCH   9  10
HETATM   10  C9  UNL     1     -34.779   4.556   4.407  1.00 20.00     0.119 C 
HETATM   11 CL11 UNL     1     -34.540   5.295   6.015  1.00 20.00    -0.130 Cl
ENDBRANCH   9  10
ENDBRANCH   5   7
TORSDOF 2
ENDMDL
MODEL 9
REMARK VINA RESULT:      -3.7     11.255     12.086
REMARK  2 active torsions:
REMARK  status: ('A' for Active; 'I' for Inactive)
REMARK    1  A    between atoms: C6_6  and  C7_7 
REMARK    2  A    between atoms: C8_8  and  C9_9 
ROOT
HETATM    1  C1  UNL     1     -36.254  15.072  -4.565  1.00 20.00     0.031 C 
HETATM    2  C2  UNL     1     -34.135  16.071  -5.469  1.00 20.00     0.031 C 
HETATM    3  C4  UNL     1     -35.609  13.704  -4.760  1.00 20.00     0.168 C 
HETATM    4  C5  UNL     1     -33.610  14.646  -5.613  1.00 20.00     0.168 C 
HETATM    5  C6  UNL     1     -35.211  16.180  -4.380  1.00 20.00    -0.006 C 
HETATM    6  O10 UNL     1     -34.680  13.732  -5.842  1.00 20.00    -0.391 OA
ENDROOT
BRANCH   5   7
HETATM    7  C7  UNL     1     -34.598  16.151  -2.977  1.00 20.00    -0.005 A 
HETATM    8  C3  UNL     1     -35.399  16.630  -1.804  1.00 20.00     0.011 A 
HETATM    9  C8  UNL     1     -34.192  17.407  -2.259  1.00 20.00     0.004 A 
BRANCH   9  10
HETATM   10  C9  UNL     1     -34.351  18.766  -2.850  1.00 20.00     0.119 C 
HETATM   11 CL11 UNL     1     -32.981  19.170  -3.921  1.00 20.00    -0.130 Cl
ENDBRANCH   9  10
ENDBRANCH   5   7
TORSDOF 2
ENDMDL
