MODEL 1
REMARK VINA RESULT:      -5.4      0.000      0.000
REMARK  3 active torsions:
REMARK  status: ('A' for Active; 'I' for Inactive)
REMARK    1  A    between atoms: C2_2  and  C7_7 
REMARK    2  A    between atoms: C3_3  and  C9_9 
REMARK    3  A    between atoms: C8_8  and  C9_9 
ROOT
HETATM    1  C1  UNL     1     -31.558   7.768   3.306  1.00 20.00     0.016 A 
HETATM    2  C2  UNL     1     -32.270   8.002   2.005  1.00 20.00     0.009 A 
HETATM    3  C3  UNL     1     -32.805   6.960   2.985  1.00 20.00    -0.036 A 
HETATM    4  C4  UNL     1     -32.628   5.511   2.613  1.00 20.00     0.016 C 
ENDROOT
BRANCH   3   5
HETATM    5  C9  UNL     1     -34.054   7.241   3.776  1.00 20.00    -0.010 C 
HETATM    6  C6  UNL     1     -35.151   6.215   3.439  1.00 20.00     0.011 C 
BRANCH   5   7
HETATM    7  C8  UNL     1     -33.821   7.241   5.306  1.00 20.00     0.000 C 
HETATM    8  C5  UNL     1     -34.386   6.010   5.999  1.00 20.00     0.005 C 
ENDBRANCH   5   7
ENDBRANCH   3   5
BRANCH   2   9
HETATM    9  C7  UNL     1     -32.962   9.297   1.750  1.00 20.00     0.120 C 
HETATM   10 CL10 UNL     1     -32.983   9.688   0.009  1.00 20.00    -0.130 Cl
ENDBRANCH   2   9
TORSDOF 3
ENDMDL
MODEL 2
REMARK VINA RESULT:      -4.2      2.457      3.560
REMARK  3 active torsions:
REMARK  status: ('A' for Active; 'I' for Inactive)
REMARK    1  A    between atoms: C2_2  and  C7_7 
REMARK    2  A    between atoms: C3_3  and  C9_9 
REMARK    3  A    between atoms: C8_8  and  C9_9 
ROOT
HETATM    1  C1  UNL     1     -34.615   6.505   2.790  1.00 20.00     0.016 A 
HETATM    2  C2  UNL     1     -33.467   5.663   2.312  1.00 20.00     0.009 A 
HETATM    3  C3  UNL     1     -33.218   7.105   2.752  1.00 20.00    -0.036 A 
HETATM    4  C4  UNL     1     -32.912   8.109   1.673  1.00 20.00     0.016 C 
ENDROOT
BRANCH   3   5
HETATM    5  C9  UNL     1     -32.532   7.384   4.062  1.00 20.00    -0.010 C 
HETATM    6  C6  UNL     1     -31.368   8.372   3.864  1.00 20.00     0.011 C 
BRANCH   5   7
HETATM    7  C8  UNL     1     -33.487   7.945   5.143  1.00 20.00     0.000 C 
HETATM    8  C5  UNL     1     -33.929   6.896   6.154  1.00 20.00     0.005 C 
ENDBRANCH   5   7
ENDBRANCH   3   5
BRANCH   2   9
HETATM    9  C7  UNL     1     -33.015   4.488   3.110  1.00 20.00     0.120 C 
HETATM   10 CL10 UNL     1     -34.256   3.994   4.293  1.00 20.00    -0.130 Cl
ENDBRANCH   2   9
TORSDOF 3
ENDMDL
MODEL 3
REMARK VINA RESULT:      -4.0     10.713     11.700
REMARK  3 active torsions:
REMARK  status: ('A' for Active; 'I' for Inactive)
REMARK    1  A    between atoms: C2_2  and  C7_7 
REMARK    2  A    between atoms: C3_3  and  C9_9 
REMARK    3  A    between atoms: C8_8  and  C9_9 
ROOT
HETATM    1  C1  UNL     1     -34.823  16.866  -4.632  1.00 20.00     0.016 A 
HETATM    2  C2  UNL     1     -33.426  16.358  -4.842  1.00 20.00     0.009 A 
HETATM    3  C3  UNL     1     -33.705  17.373  -3.734  1.00 20.00    -0.036 A 
HETATM    4  C4  UNL     1     -33.213  18.779  -3.951  1.00 20.00     0.016 C 
ENDROOT
BRANCH   3   5
HETATM    5  C9  UNL     1     -33.700  16.937  -2.294  1.00 20.00    -0.010 C 
HETATM    6  C6  UNL     1     -32.942  17.954  -1.423  1.00 20.00     0.011 C 
BRANCH   5   7
HETATM    7  C8  UNL     1     -35.121  16.738  -1.712  1.00 20.00     0.000 C 
HETATM    8  C5  UNL     1     -35.324  17.437  -0.376  1.00 20.00     0.005 C 
ENDBRANCH   5   7
ENDBRANCH   3   5
BRANCH   2   9
HETATM    9  C7  UNL     1     -33.095  14.932  -4.561  1.00 20.00     0.120 C 
HETATM   10 CL10 UNL     1     -34.562  13.993  -4.170  1.00 20.00    -0.130 Cl
ENDBRANCH   2   9
TORSDOF 3
ENDMDL
MODEL 4
REMARK VINA RESULT:      -3.9      1.290      2.349
REMARK  3 active torsions:
REMARK  status: ('A' for Active; 'I' for Inactive)
REMARK    1  A    between atoms: C2_2  and  C7_7 
REMARK    2  A    between atoms: C3_3  and  C9_9 
REMARK    3  A    between atoms: C8_8  and  C9_9 
ROOT
HETATM    1  C1  UNL     1     -33.196   5.656   2.524  1.00 20.00     0.016 A 
HETATM    2  C2  UNL     1     -33.202   7.156   2.600  1.00 20.00     0.009 A 
HETATM    3  C3  UNL     1     -34.051   6.343   3.577  1.00 20.00    -0.036 A 
HETATM    4  C4  UNL     1     -35.542   6.361   3.371  1.00 20.00     0.016 C 
ENDROOT
BRANCH   3   5
HETATM    5  C9  UNL     1     -33.633   6.222   5.017  1.00 20.00    -0.010 C 
HETATM    6  C6  UNL     1     -33.953   7.517   5.785  1.00 20.00     0.011 C 
BRANCH   5   7
HETATM    7  C8  UNL     1     -34.297   5.029   5.747  1.00 20.00     0.000 C 
HETATM    8  C5  UNL     1     -34.271   3.741   4.937  1.00 20.00     0.005 C 
ENDBRANCH   5   7
ENDBRANCH   3   5
BRANCH   2   9
HETATM    9  C7  UNL     1     -31.975   7.891   3.020  1.00 20.00     0.120 C 
HETATM   10 CL10 UNL     1     -31.769   9.394   2.080  1.00 20.00    -0.130 Cl
ENDBRANCH   2   9
TORSDOF 3
ENDMDL
MODEL 5
REMARK VINA RESULT:      -3.8      0.976      1.947
REMARK  3 active torsions:
REMARK  status: ('A' for Active; 'I' for Inactive)
REMARK    1  A    between atoms: C2_2  and  C7_7 
REMARK    2  A    between atoms: C3_3  and  C9_9 
REMARK    3  A    between atoms: C8_8  and  C9_9 
ROOT
HETATM    1  C1  UNL     1     -32.606   9.673   2.234  1.00 20.00     0.016 A 
HETATM    2  C2  UNL     1     -31.763   8.850   1.302  1.00 20.00     0.009 A 
HETATM    3  C3  UNL     1     -32.228   8.255   2.631  1.00 20.00    -0.036 A 
HETATM    4  C4  UNL     1     -31.188   8.079   3.706  1.00 20.00     0.016 C 
ENDROOT
BRANCH   3   5
HETATM    5  C9  UNL     1     -33.312   7.212   2.650  1.00 20.00    -0.010 C 
HETATM    6  C6  UNL     1     -32.708   5.801   2.535  1.00 20.00     0.011 C 
BRANCH   5   7
HETATM    7  C8  UNL     1     -34.198   7.276   3.918  1.00 20.00     0.000 C 
HETATM    8  C5  UNL     1     -34.674   5.909   4.386  1.00 20.00     0.005 C 
ENDBRANCH   5   7
ENDBRANCH   3   5
BRANCH   2   9
HETATM    9  C7  UNL     1     -32.309   8.408  -0.012  1.00 20.00     0.120 C 
HETATM   10 CL10 UNL     1     -33.428   9.623  -0.688  1.00 20.00    -0.130 Cl
ENDBRANCH   2   9
TORSDOF 3
ENDMDL
MODEL 6
REMARK VINA RESULT:      -3.6     10.525     11.616
REMARK  3 active torsions:
REMARK  status: ('A' for Active; 'I' for Inactive)
REMARK    1  A    between atoms: C2_2  and  C7_7 
REMARK    2  A    between atoms: C3_3  and  C9_9 
REMARK    3  A    between atoms: C8_8  and  C9_9 
ROOT
HETATM    1  C1  UNL     1     -34.409  14.126  -4.120  1.00 20.00     0.016 A 
HETATM    2  C2  UNL     1     -34.376  14.775  -5.473  1.00 20.00     0.009 A 
HETATM    3  C3  UNL     1     -35.467  15.160  -4.475  1.00 20.00    -0.036 A 
HETATM    4  C4  UNL     1     -36.862  14.670  -4.759  1.00 20.00     0.016 C 
ENDROOT
BRANCH   3   5
HETATM    5  C9  UNL     1     -35.414  16.493  -3.780  1.00 20.00    -0.010 C 
HETATM    6  C6  UNL     1     -36.805  17.153  -3.768  1.00 20.00     0.011 C 
BRANCH   5   7
HETATM    7  C8  UNL     1     -34.889  16.404  -2.326  1.00 20.00     0.000 C 
HETATM    8  C5  UNL     1     -33.561  17.119  -2.124  1.00 20.00     0.005 C 
ENDBRANCH   5   7
ENDBRANCH   3   5
BRANCH   2   9
HETATM    9  C7  UNL     1     -33.259  15.692  -5.839  1.00 20.00     0.120 C 
HETATM   10 CL10 UNL     1     -33.747  16.821  -7.132  1.00 20.00    -0.130 Cl
ENDBRANCH   2   9
TORSDOF 3
ENDMDL
MODEL 7
REMARK VINA RESULT:      -3.6     10.412     11.753
REMARK  3 active torsions:
REMARK  status: ('A' for Active; 'I' for Inactive)
REMARK    1  A    between atoms: C2_2  and  C7_7 
REMARK    2  A    between atoms: C3_3  and  C9_9 
REMARK    3  A    between atoms: C8_8  and  C9_9 
ROOT
HETATM    1  C1  UNL     1     -35.283  17.789  -3.493  1.00 20.00     0.016 A 
HETATM    2  C2  UNL     1     -35.477  17.110  -2.168  1.00 20.00     0.009 A 
HETATM    3  C3  UNL     1     -35.402  16.274  -3.444  1.00 20.00    -0.036 A 
HETATM    4  C4  UNL     1     -36.683  15.652  -3.935  1.00 20.00     0.016 C 
ENDROOT
BRANCH   3   5
HETATM    5  C9  UNL     1     -34.173  15.457  -3.738  1.00 20.00    -0.010 C 
HETATM    6  C6  UNL     1     -34.561  14.043  -4.205  1.00 20.00     0.011 C 
BRANCH   5   7
HETATM    7  C8  UNL     1     -33.253  16.102  -4.804  1.00 20.00     0.000 C 
HETATM    8  C5  UNL     1     -33.530  15.604  -6.215  1.00 20.00     0.005 C 
ENDBRANCH   5   7
ENDBRANCH   3   5
BRANCH   2   9
HETATM    9  C7  UNL     1     -34.387  17.125  -1.150  1.00 20.00     0.120 C 
HETATM   10 CL10 UNL     1     -33.025  18.150  -1.677  1.00 20.00    -0.130 Cl
ENDBRANCH   2   9
TORSDOF 3
ENDMDL
MODEL 8
REMARK VINA RESULT:      -3.6     10.450     12.262
REMARK  3 active torsions:
REMARK  status: ('A' for Active; 'I' for Inactive)
REMARK    1  A    between atoms: C2_2  and  C7_7 
REMARK    2  A    between atoms: C3_3  and  C9_9 
REMARK    3  A    between atoms: C8_8  and  C9_9 
ROOT
HETATM    1  C1  UNL     1     -33.420  14.545  -4.582  1.00 20.00     0.016 A 
HETATM    2  C2  UNL     1     -34.818  14.147  -4.207  1.00 20.00     0.009 A 
HETATM    3  C3  UNL     1     -34.412  15.620  -4.166  1.00 20.00    -0.036 A 
HETATM    4  C4  UNL     1     -34.241  16.248  -2.808  1.00 20.00     0.016 C 
ENDROOT
BRANCH   3   5
HETATM    5  C9  UNL     1     -34.913  16.569  -5.221  1.00 20.00    -0.010 C 
HETATM    6  C6  UNL     1     -35.563  17.804  -4.574  1.00 20.00     0.011 C 
BRANCH   5   7
HETATM    7  C8  UNL     1     -33.805  17.037  -6.195  1.00 20.00     0.000 C 
HETATM    8  C5  UNL     1     -34.093  16.681  -7.647  1.00 20.00     0.005 C 
ENDBRANCH   5   7
ENDBRANCH   3   5
BRANCH   2   9
HETATM    9  C7  UNL     1     -35.744  13.597  -5.237  1.00 20.00     0.120 C 
HETATM   10 CL10 UNL     1     -34.885  13.259  -6.764  1.00 20.00    -0.130 Cl
ENDBRANCH   2   9
TORSDOF 3
ENDMDL
MODEL 9
REMARK VINA RESULT:      -3.6     10.488     11.576
REMARK  3 active torsions:
REMARK  status: ('A' for Active; 'I' for Inactive)
REMARK    1  A    between atoms: C2_2  and  C7_7 
REMARK    2  A    between atoms: C3_3  and  C9_9 
REMARK    3  A    between atoms: C8_8  and  C9_9 
ROOT
HETATM    1  C1  UNL     1     -33.844  16.968  -4.368  1.00 20.00     0.016 A 
HETATM    2  C2  UNL     1     -33.523  15.638  -3.750  1.00 20.00     0.009 A 
HETATM    3  C3  UNL     1     -34.071  16.768  -2.878  1.00 20.00    -0.036 A 
HETATM    4  C4  UNL     1     -33.111  17.428  -1.925  1.00 20.00     0.016 C 
ENDROOT
BRANCH   3   5
HETATM    5  C9  UNL     1     -35.489  16.713  -2.379  1.00 20.00    -0.010 C 
HETATM    6  C6  UNL     1     -35.557  17.111  -0.894  1.00 20.00     0.011 C 
BRANCH   5   7
HETATM    7  C8  UNL     1     -36.455  17.615  -3.185  1.00 20.00     0.000 C 
HETATM    8  C5  UNL     1     -37.549  16.835  -3.899  1.00 20.00     0.005 C 
ENDBRANCH   5   7
ENDBRANCH   3   5
BRANCH   2   9
HETATM    9  C7  UNL     1     -34.326  14.433  -4.103  1.00 20.00     0.120 C 
HETATM   10 CL10 UNL     1     -35.177  14.655  -5.656  1.00 20.00    -0.130 Cl
ENDBRANCH   2   9
TORSDOF 3
ENDMDL
