MODEL 1
REMARK VINA RESULT:      -5.0      0.000      0.000
REMARK  2 active torsions:
REMARK  status: ('A' for Active; 'I' for Inactive)
REMARK    1  A    between atoms: C4_4  and  C9_9 
REMARK    2  A    between atoms: C5_5  and  C6_6 
ROOT
HETATM    1  C3  UNL     1     -31.695   7.228   2.694  1.00 20.00     0.017 A 
HETATM    2  C4  UNL     1     -32.898   8.001   2.235  1.00 20.00     0.009 A 
HETATM    3  C6  UNL     1     -32.965   7.192   3.530  1.00 20.00    -0.032 A 
HETATM    4  C8  UNL     1     -32.927   7.927   4.848  1.00 20.00     0.016 C 
ENDROOT
BRANCH   3   5
HETATM    5  C5  UNL     1     -33.826   5.920   3.572  1.00 20.00    -0.036 A 
HETATM    6  C1  UNL     1     -34.583   5.555   4.827  1.00 20.00     0.011 A 
HETATM    7  C2  UNL     1     -35.333   6.023   3.613  1.00 20.00     0.011 A 
HETATM    8  C7  UNL     1     -33.253   4.775   2.773  1.00 20.00     0.016 C 
ENDBRANCH   3   5
BRANCH   2   9
HETATM    9  C9  UNL     1     -32.874   9.491   2.211  1.00 20.00     0.120 C 
HETATM   10 CL10 UNL     1     -32.539  10.105   0.569  1.00 20.00    -0.130 Cl
ENDBRANCH   2   9
TORSDOF 2
ENDMDL
MODEL 2
REMARK VINA RESULT:      -4.7      0.958      1.617
REMARK  2 active torsions:
REMARK  status: ('A' for Active; 'I' for Inactive)
REMARK    1  A    between atoms: C4_4  and  C9_9 
REMARK    2  A    between atoms: C5_5  and  C6_6 
ROOT
HETATM    1  C3  UNL     1     -32.339   6.866   1.992  1.00 20.00     0.017 A 
HETATM    2  C4  UNL     1     -33.202   8.095   2.021  1.00 20.00     0.009 A 
HETATM    3  C6  UNL     1     -32.727   7.471   3.332  1.00 20.00    -0.032 A 
HETATM    4  C8  UNL     1     -31.627   8.159   4.107  1.00 20.00     0.016 C 
ENDROOT
BRANCH   3   5
HETATM    5  C5  UNL     1     -33.747   6.760   4.234  1.00 20.00    -0.036 A 
HETATM    6  C1  UNL     1     -35.042   6.240   3.656  1.00 20.00     0.011 A 
HETATM    7  C2  UNL     1     -33.980   5.274   4.095  1.00 20.00     0.011 A 
HETATM    8  C7  UNL     1     -33.811   7.322   5.633  1.00 20.00     0.016 C 
ENDBRANCH   3   5
BRANCH   2   9
HETATM    9  C9  UNL     1     -32.685   9.395   1.506  1.00 20.00     0.120 C 
HETATM   10 CL10 UNL     1     -33.033   9.586  -0.233  1.00 20.00    -0.130 Cl
ENDBRANCH   2   9
TORSDOF 2
ENDMDL
MODEL 3
REMARK VINA RESULT:      -4.7      1.055      1.539
REMARK  2 active torsions:
REMARK  status: ('A' for Active; 'I' for Inactive)
REMARK    1  A    between atoms: C4_4  and  C9_9 
REMARK    2  A    between atoms: C5_5  and  C6_6 
ROOT
HETATM    1  C3  UNL     1     -32.265   6.285   2.967  1.00 20.00     0.017 A 
HETATM    2  C4  UNL     1     -33.271   7.261   2.428  1.00 20.00     0.009 A 
HETATM    3  C6  UNL     1     -33.410   6.740   3.857  1.00 20.00    -0.032 A 
HETATM    4  C8  UNL     1     -33.052   7.658   5.002  1.00 20.00     0.016 C 
ENDROOT
BRANCH   3   5
HETATM    5  C5  UNL     1     -34.559   5.777   4.192  1.00 20.00    -0.036 A 
HETATM    6  C1  UNL     1     -34.291   4.299   4.350  1.00 20.00     0.011 A 
HETATM    7  C2  UNL     1     -34.635   5.128   5.554  1.00 20.00     0.011 A 
HETATM    8  C7  UNL     1     -35.873   6.160   3.556  1.00 20.00     0.016 C 
ENDBRANCH   3   5
BRANCH   2   9
HETATM    9  C9  UNL     1     -32.870   8.662   2.110  1.00 20.00     0.120 C 
HETATM   10 CL10 UNL     1     -31.547   8.699   0.913  1.00 20.00    -0.130 Cl
ENDBRANCH   2   9
TORSDOF 2
ENDMDL
MODEL 4
REMARK VINA RESULT:      -4.4      2.512      4.386
REMARK  2 active torsions:
REMARK  status: ('A' for Active; 'I' for Inactive)
REMARK    1  A    between atoms: C4_4  and  C9_9 
REMARK    2  A    between atoms: C5_5  and  C6_6 
ROOT
HETATM    1  C3  UNL     1     -33.862   7.958   3.358  1.00 20.00     0.017 A 
HETATM    2  C4  UNL     1     -33.436   6.879   2.404  1.00 20.00     0.009 A 
HETATM    3  C6  UNL     1     -32.586   8.140   2.552  1.00 20.00    -0.032 A 
HETATM    4  C8  UNL     1     -31.286   8.053   3.317  1.00 20.00     0.016 C 
ENDROOT
BRANCH   3   5
HETATM    5  C5  UNL     1     -32.540   9.149   1.396  1.00 20.00    -0.036 A 
HETATM    6  C1  UNL     1     -31.454   9.059   0.349  1.00 20.00     0.011 A 
HETATM    7  C2  UNL     1     -32.868   8.709  -0.012  1.00 20.00     0.011 A 
HETATM    8  C7  UNL     1     -32.986  10.537   1.786  1.00 20.00     0.016 C 
ENDBRANCH   3   5
BRANCH   2   9
HETATM    9  C9  UNL     1     -33.006   5.546   2.914  1.00 20.00     0.120 C 
HETATM   10 CL10 UNL     1     -34.241   4.836   3.990  1.00 20.00    -0.130 Cl
ENDBRANCH   2   9
TORSDOF 2
ENDMDL
MODEL 5
REMARK VINA RESULT:      -4.1      2.532      4.100
REMARK  2 active torsions:
REMARK  status: ('A' for Active; 'I' for Inactive)
REMARK    1  A    between atoms: C4_4  and  C9_9 
REMARK    2  A    between atoms: C5_5  and  C6_6 
ROOT
HETATM    1  C3  UNL     1     -34.431   6.513   2.543  1.00 20.00     0.017 A 
HETATM    2  C4  UNL     1     -33.278   5.607   2.868  1.00 20.00     0.009 A 
HETATM    3  C6  UNL     1     -33.278   7.047   3.377  1.00 20.00    -0.032 A 
HETATM    4  C8  UNL     1     -33.562   7.300   4.839  1.00 20.00     0.016 C 
ENDROOT
BRANCH   3   5
HETATM    5  C5  UNL     1     -32.287   8.053   2.772  1.00 20.00    -0.036 A 
HETATM    6  C1  UNL     1     -32.000   8.041   1.289  1.00 20.00     0.011 A 
HETATM    7  C2  UNL     1     -32.785   9.172   1.887  1.00 20.00     0.011 A 
HETATM    8  C7  UNL     1     -31.127   8.381   3.680  1.00 20.00     0.016 C 
ENDBRANCH   3   5
BRANCH   2   9
HETATM    9  C9  UNL     1     -33.470   4.430   3.762  1.00 20.00     0.120 C 
HETATM   10 CL10 UNL     1     -35.027   4.523   4.628  1.00 20.00    -0.130 Cl
ENDBRANCH   2   9
TORSDOF 2
ENDMDL
MODEL 6
REMARK VINA RESULT:      -4.0     10.864     11.710
REMARK  2 active torsions:
REMARK  status: ('A' for Active; 'I' for Inactive)
REMARK    1  A    between atoms: C4_4  and  C9_9 
REMARK    2  A    between atoms: C5_5  and  C6_6 
ROOT
HETATM    1  C3  UNL     1     -35.352  16.659  -2.270  1.00 20.00     0.017 A 
HETATM    2  C4  UNL     1     -33.859  16.765  -2.138  1.00 20.00     0.009 A 
HETATM    3  C6  UNL     1     -34.496  16.706  -3.526  1.00 20.00    -0.032 A 
HETATM    4  C8  UNL     1     -34.568  17.973  -4.345  1.00 20.00     0.016 C 
ENDROOT
BRANCH   3   5
HETATM    5  C5  UNL     1     -34.308  15.444  -4.380  1.00 20.00    -0.036 A 
HETATM    6  C1  UNL     1     -33.399  15.469  -5.586  1.00 20.00     0.011 A 
HETATM    7  C2  UNL     1     -32.993  14.700  -4.362  1.00 20.00     0.011 A 
HETATM    8  C7  UNL     1     -35.554  14.600  -4.494  1.00 20.00     0.016 C 
ENDBRANCH   3   5
BRANCH   2   9
HETATM    9  C9  UNL     1     -33.235  18.000  -1.583  1.00 20.00     0.120 C 
HETATM   10 CL10 UNL     1     -33.741  18.277   0.105  1.00 20.00    -0.130 Cl
ENDBRANCH   2   9
TORSDOF 2
ENDMDL
MODEL 7
REMARK VINA RESULT:      -3.9     10.731     11.705
REMARK  2 active torsions:
REMARK  status: ('A' for Active; 'I' for Inactive)
REMARK    1  A    between atoms: C4_4  and  C9_9 
REMARK    2  A    between atoms: C5_5  and  C6_6 
ROOT
HETATM    1  C3  UNL     1     -33.293  15.155  -4.053  1.00 20.00     0.017 A 
HETATM    2  C4  UNL     1     -34.735  14.764  -3.896  1.00 20.00     0.009 A 
HETATM    3  C6  UNL     1     -34.346  16.242  -3.907  1.00 20.00    -0.032 A 
HETATM    4  C8  UNL     1     -34.646  17.062  -5.140  1.00 20.00     0.016 C 
ENDROOT
BRANCH   3   5
HETATM    5  C5  UNL     1     -34.447  17.050  -2.605  1.00 20.00    -0.036 A 
HETATM    6  C1  UNL     1     -35.570  18.041  -2.409  1.00 20.00     0.011 A 
HETATM    7  C2  UNL     1     -35.555  16.766  -1.617  1.00 20.00     0.011 A 
HETATM    8  C7  UNL     1     -33.107  17.426  -2.021  1.00 20.00     0.016 C 
ENDBRANCH   3   5
BRANCH   2   9
HETATM    9  C9  UNL     1     -35.466  14.110  -5.018  1.00 20.00     0.120 C 
HETATM   10 CL10 UNL     1     -37.230  14.328  -4.854  1.00 20.00    -0.130 Cl
ENDBRANCH   2   9
TORSDOF 2
ENDMDL
MODEL 8
REMARK VINA RESULT:      -3.9     10.371     11.529
REMARK  2 active torsions:
REMARK  status: ('A' for Active; 'I' for Inactive)
REMARK    1  A    between atoms: C4_4  and  C9_9 
REMARK    2  A    between atoms: C5_5  and  C6_6 
ROOT
HETATM    1  C3  UNL     1     -33.259  16.398  -5.399  1.00 20.00     0.017 A 
HETATM    2  C4  UNL     1     -34.244  16.413  -4.265  1.00 20.00     0.009 A 
HETATM    3  C6  UNL     1     -33.873  15.089  -4.930  1.00 20.00    -0.032 A 
HETATM    4  C8  UNL     1     -32.958  14.138  -4.195  1.00 20.00     0.016 C 
ENDROOT
BRANCH   3   5
HETATM    5  C5  UNL     1     -34.918  14.371  -5.798  1.00 20.00    -0.036 A 
HETATM    6  C1  UNL     1     -35.870  13.376  -5.177  1.00 20.00     0.011 A 
HETATM    7  C2  UNL     1     -36.385  14.703  -5.655  1.00 20.00     0.011 A 
HETATM    8  C7  UNL     1     -34.434  14.059  -7.193  1.00 20.00     0.016 C 
ENDBRANCH   3   5
BRANCH   2   9
HETATM    9  C9  UNL     1     -33.806  16.780  -2.888  1.00 20.00     0.120 C 
HETATM   10 CL10 UNL     1     -35.147  16.628  -1.721  1.00 20.00    -0.130 Cl
ENDBRANCH   2   9
TORSDOF 2
ENDMDL
MODEL 9
REMARK VINA RESULT:      -3.7     10.297     12.074
REMARK  2 active torsions:
REMARK  status: ('A' for Active; 'I' for Inactive)
REMARK    1  A    between atoms: C4_4  and  C9_9 
REMARK    2  A    between atoms: C5_5  and  C6_6 
ROOT
HETATM    1  C3  UNL     1     -34.417  14.057  -4.088  1.00 20.00     0.017 A 
HETATM    2  C4  UNL     1     -34.439  15.557  -4.013  1.00 20.00     0.009 A 
HETATM    3  C6  UNL     1     -35.333  14.835  -5.019  1.00 20.00    -0.032 A 
HETATM    4  C8  UNL     1     -36.815  14.745  -4.739  1.00 20.00     0.016 C 
ENDROOT
BRANCH   3   5
HETATM    5  C5  UNL     1     -35.007  14.937  -6.516  1.00 20.00    -0.036 A 
HETATM    6  C1  UNL     1     -35.866  15.782  -7.427  1.00 20.00     0.011 A 
HETATM    7  C2  UNL     1     -34.472  16.227  -7.093  1.00 20.00     0.011 A 
HETATM    8  C7  UNL     1     -34.456  13.660  -7.103  1.00 20.00     0.016 C 
ENDBRANCH   3   5
BRANCH   2   9
HETATM    9  C9  UNL     1     -34.970  16.246  -2.802  1.00 20.00     0.120 C 
HETATM   10 CL10 UNL     1     -33.661  17.030  -1.877  1.00 20.00    -0.130 Cl
ENDBRANCH   2   9
TORSDOF 2
ENDMDL
