MODEL 1
REMARK VINA RESULT:      -4.8      0.000      0.000
REMARK  0 active torsions:
REMARK  status: ('A' for Active; 'I' for Inactive)
ROOT
HETATM    1  C1  UNL     1     -32.441   9.433   0.306  1.00 20.00     0.006 C 
HETATM    2  C2  UNL     1     -32.809   9.757   1.763  1.00 20.00     0.038 C 
HETATM    3  C3  UNL     1     -31.391   8.447   0.843  1.00 20.00     0.038 C 
HETATM    4  C4  UNL     1     -33.001   7.362   4.778  1.00 20.00     0.046 C 
HETATM    5  C5  UNL     1     -33.154   7.198   2.267  1.00 20.00     0.058 C 
HETATM    6  C6  UNL     1     -32.038   8.531   4.607  1.00 20.00     0.170 C 
HETATM    7  C7  UNL     1     -33.944   7.271   3.576  1.00 20.00     0.087 C 
HETATM    8  C8  UNL     1     -32.189   8.388   2.180  1.00 20.00     0.062 C 
HETATM    9  O9  UNL     1     -31.350   8.420   3.364  1.00 20.00    -0.380 OA
HETATM   10 CL10 UNL     1     -34.996   5.839   3.735  1.00 20.00    -0.125 Cl
ENDROOT
TORSDOF 0
ENDMDL
MODEL 2
REMARK VINA RESULT:      -4.7      1.605      1.962
REMARK  0 active torsions:
REMARK  status: ('A' for Active; 'I' for Inactive)
ROOT
HETATM    1  C1  UNL     1     -32.433   8.432   1.676  1.00 20.00     0.006 C 
HETATM    2  C2  UNL     1     -33.578   8.433   2.702  1.00 20.00     0.038 C 
HETATM    3  C3  UNL     1     -31.482   8.022   2.812  1.00 20.00     0.038 C 
HETATM    4  C4  UNL     1     -34.164   6.013   5.644  1.00 20.00     0.046 C 
HETATM    5  C5  UNL     1     -32.953   5.985   3.434  1.00 20.00     0.058 C 
HETATM    6  C6  UNL     1     -33.881   7.507   5.741  1.00 20.00     0.170 C 
HETATM    7  C7  UNL     1     -34.226   5.578   4.178  1.00 20.00     0.087 C 
HETATM    8  C8  UNL     1     -32.717   7.492   3.601  1.00 20.00     0.062 C 
HETATM    9  O9  UNL     1     -32.698   7.828   5.012  1.00 20.00    -0.380 OA
HETATM   10 CL10 UNL     1     -34.455   3.811   4.077  1.00 20.00    -0.125 Cl
ENDROOT
TORSDOF 0
ENDMDL
MODEL 3
REMARK VINA RESULT:      -4.1     10.009     10.767
REMARK  0 active torsions:
REMARK  status: ('A' for Active; 'I' for Inactive)
ROOT
HETATM    1  C1  UNL     1     -32.977  14.422  -4.483  1.00 20.00     0.006 C 
HETATM    2  C2  UNL     1     -34.427  14.473  -3.974  1.00 20.00     0.038 C 
HETATM    3  C3  UNL     1     -33.162  15.856  -5.004  1.00 20.00     0.038 C 
HETATM    4  C4  UNL     1     -36.308  17.441  -2.388  1.00 20.00     0.046 C 
HETATM    5  C5  UNL     1     -33.916  16.704  -2.677  1.00 20.00     0.058 C 
HETATM    6  C6  UNL     1     -36.641  16.756  -3.708  1.00 20.00     0.170 C 
HETATM    7  C7  UNL     1     -35.111  16.758  -1.724  1.00 20.00     0.087 C 
HETATM    8  C8  UNL     1     -34.333  16.030  -3.991  1.00 20.00     0.062 C 
HETATM    9  O9  UNL     1     -35.486  16.717  -4.543  1.00 20.00    -0.380 OA
HETATM   10 CL10 UNL     1     -34.664  17.630  -0.232  1.00 20.00    -0.125 Cl
ENDROOT
TORSDOF 0
ENDMDL
MODEL 4
REMARK VINA RESULT:      -4.0      2.188      3.669
REMARK  0 active torsions:
REMARK  status: ('A' for Active; 'I' for Inactive)
ROOT
HETATM    1  C1  UNL     1     -34.221   4.958   3.248  1.00 20.00     0.006 C 
HETATM    2  C2  UNL     1     -32.785   5.470   3.046  1.00 20.00     0.038 C 
HETATM    3  C3  UNL     1     -34.504   6.227   4.069  1.00 20.00     0.038 C 
HETATM    4  C4  UNL     1     -31.587   9.088   2.469  1.00 20.00     0.046 C 
HETATM    5  C5  UNL     1     -33.706   7.763   2.145  1.00 20.00     0.058 C 
HETATM    6  C6  UNL     1     -31.259   8.203   3.666  1.00 20.00     0.170 C 
HETATM    7  C7  UNL     1     -32.454   8.324   1.467  1.00 20.00     0.087 C 
HETATM    8  C8  UNL     1     -33.299   6.910   3.354  1.00 20.00     0.062 C 
HETATM    9  O9  UNL     1     -32.460   7.693   4.241  1.00 20.00    -0.380 OA
HETATM   10 CL10 UNL     1     -32.919   9.399   0.121  1.00 20.00    -0.125 Cl
ENDROOT
TORSDOF 0
ENDMDL
MODEL 5
REMARK VINA RESULT:      -3.9      1.898      2.670
REMARK  0 active torsions:
REMARK  status: ('A' for Active; 'I' for Inactive)
ROOT
HETATM    1  C1  UNL     1     -31.787   8.994   2.561  1.00 20.00     0.006 C 
HETATM    2  C2  UNL     1     -31.533   7.528   2.946  1.00 20.00     0.038 C 
HETATM    3  C3  UNL     1     -33.077   8.536   1.863  1.00 20.00     0.038 C 
HETATM    4  C4  UNL     1     -34.093   4.855   4.023  1.00 20.00     0.046 C 
HETATM    5  C5  UNL     1     -33.934   7.370   4.008  1.00 20.00     0.058 C 
HETATM    6  C6  UNL     1     -33.226   4.828   2.771  1.00 20.00     0.170 C 
HETATM    7  C7  UNL     1     -33.787   6.103   4.854  1.00 20.00     0.087 C 
HETATM    8  C8  UNL     1     -33.057   7.258   2.754  1.00 20.00     0.062 C 
HETATM    9  O9  UNL     1     -33.389   6.040   2.038  1.00 20.00    -0.380 OA
HETATM   10 CL10 UNL     1     -34.879   6.179   6.263  1.00 20.00    -0.125 Cl
ENDROOT
TORSDOF 0
ENDMDL
MODEL 6
REMARK VINA RESULT:      -3.8     10.588     11.856
REMARK  0 active torsions:
REMARK  status: ('A' for Active; 'I' for Inactive)
ROOT
HETATM    1  C1  UNL     1     -33.790  15.482  -3.729  1.00 20.00     0.006 C 
HETATM    2  C2  UNL     1     -34.783  14.426  -4.241  1.00 20.00     0.038 C 
HETATM    3  C3  UNL     1     -33.028  15.337  -5.057  1.00 20.00     0.038 C 
HETATM    4  C4  UNL     1     -36.145  13.948  -7.816  1.00 20.00     0.046 C 
HETATM    5  C5  UNL     1     -35.162  15.818  -6.441  1.00 20.00     0.058 C 
HETATM    6  C6  UNL     1     -35.278  12.966  -7.036  1.00 20.00     0.170 C 
HETATM    7  C7  UNL     1     -36.451  15.180  -6.961  1.00 20.00     0.087 C 
HETATM    8  C8  UNL     1     -34.330  14.766  -5.694  1.00 20.00     0.062 C 
HETATM    9  O9  UNL     1     -34.105  13.622  -6.559  1.00 20.00    -0.380 OA
HETATM   10 CL10 UNL     1     -37.378  16.368  -7.918  1.00 20.00    -0.125 Cl
ENDROOT
TORSDOF 0
ENDMDL
MODEL 7
REMARK VINA RESULT:      -3.8     10.012     11.506
REMARK  0 active torsions:
REMARK  status: ('A' for Active; 'I' for Inactive)
ROOT
HETATM    1  C1  UNL     1     -39.030  16.514  -5.618  1.00 20.00     0.006 C 
HETATM    2  C2  UNL     1     -37.800  15.818  -6.223  1.00 20.00     0.038 C 
HETATM    3  C3  UNL     1     -39.098  15.382  -4.580  1.00 20.00     0.038 C 
HETATM    4  C4  UNL     1     -34.943  13.984  -4.397  1.00 20.00     0.046 C 
HETATM    5  C5  UNL     1     -36.642  15.767  -3.861  1.00 20.00     0.058 C 
HETATM    6  C6  UNL     1     -35.948  13.366  -5.361  1.00 20.00     0.170 C 
HETATM    7  C7  UNL     1     -35.192  15.488  -4.263  1.00 20.00     0.087 C 
HETATM    8  C8  UNL     1     -37.593  15.091  -4.859  1.00 20.00     0.062 C 
HETATM    9  O9  UNL     1     -37.277  13.678  -4.949  1.00 20.00    -0.380 OA
HETATM   10 CL10 UNL     1     -34.079  16.183  -3.054  1.00 20.00    -0.125 Cl
ENDROOT
TORSDOF 0
ENDMDL
MODEL 8
REMARK VINA RESULT:      -3.8     10.352     11.304
REMARK  0 active torsions:
REMARK  status: ('A' for Active; 'I' for Inactive)
ROOT
HETATM    1  C1  UNL     1     -37.337  14.058  -5.292  1.00 20.00     0.006 C 
HETATM    2  C2  UNL     1     -36.690  15.385  -5.721  1.00 20.00     0.038 C 
HETATM    3  C3  UNL     1     -35.954  13.399  -5.428  1.00 20.00     0.038 C 
HETATM    4  C4  UNL     1     -33.209  16.764  -4.804  1.00 20.00     0.046 C 
HETATM    5  C5  UNL     1     -34.869  15.131  -3.840  1.00 20.00     0.058 C 
HETATM    6  C6  UNL     1     -33.696  16.383  -6.197  1.00 20.00     0.170 C 
HETATM    7  C7  UNL     1     -34.326  16.560  -3.777  1.00 20.00     0.087 C 
HETATM    8  C8  UNL     1     -35.311  14.810  -5.274  1.00 20.00     0.062 C 
HETATM    9  O9  UNL     1     -34.210  15.053  -6.187  1.00 20.00    -0.380 OA
HETATM   10 CL10 UNL     1     -33.715  16.909  -2.137  1.00 20.00    -0.125 Cl
ENDROOT
TORSDOF 0
ENDMDL
MODEL 9
REMARK VINA RESULT:      -3.8     10.198     10.895
REMARK  0 active torsions:
REMARK  status: ('A' for Active; 'I' for Inactive)
ROOT
HETATM    1  C1  UNL     1     -36.661  14.367  -7.056  1.00 20.00     0.006 C 
HETATM    2  C2  UNL     1     -35.470  15.302  -6.794  1.00 20.00     0.038 C 
HETATM    3  C3  UNL     1     -35.958  13.310  -6.190  1.00 20.00     0.038 C 
HETATM    4  C4  UNL     1     -33.434  15.741  -3.550  1.00 20.00     0.046 C 
HETATM    5  C5  UNL     1     -35.737  14.951  -4.201  1.00 20.00     0.058 C 
HETATM    6  C6  UNL     1     -32.915  15.215  -4.883  1.00 20.00     0.170 C 
HETATM    7  C7  UNL     1     -34.911  16.124  -3.670  1.00 20.00     0.087 C 
HETATM    8  C8  UNL     1     -35.139  14.457  -5.526  1.00 20.00     0.062 C 
HETATM    9  O9  UNL     1     -33.736  14.141  -5.337  1.00 20.00    -0.380 OA
HETATM   10 CL10 UNL     1     -35.535  16.641  -2.080  1.00 20.00    -0.125 Cl
ENDROOT
TORSDOF 0
ENDMDL
