MODEL 1
REMARK VINA RESULT:      -4.7      0.000      0.000
REMARK  1 active torsions:
REMARK  status: ('A' for Active; 'I' for Inactive)
REMARK    1  A    between atoms: C1_1  and  C5_5 
ROOT
HETATM    1  C2  UNL     1     -33.915  14.596  -4.938  1.00 20.00     0.013 C 
HETATM    2  C3  UNL     1     -33.253  15.393  -3.814  1.00 20.00     0.009 C 
HETATM    3  C4  UNL     1     -35.547  16.246  -3.113  1.00 20.00     0.013 C 
HETATM    4  C5  UNL     1     -35.332  14.173  -4.549  1.00 20.00     0.051 C 
HETATM    5  C6  UNL     1     -36.229  15.369  -4.183  1.00 20.00    -0.007 C 
HETATM    6  C7  UNL     1     -34.067  16.628  -3.371  1.00 20.00    -0.047 C 
HETATM    7  C8  UNL     1     -36.714  16.179  -5.390  1.00 20.00     0.011 C 
HETATM    8  C9  UNL     1     -33.939  17.758  -4.410  1.00 20.00     0.015 C 
HETATM    9  C10 UNL     1     -33.469  17.164  -2.051  1.00 20.00     0.015 C 
ENDROOT
BRANCH   4  10
HETATM   10  C1  UNL     1     -35.942  13.334  -5.632  1.00 20.00     0.236 C 
HETATM   11  O11 UNL     1     -35.303  12.536  -6.310  1.00 20.00    -0.306 OA
ENDBRANCH   4  10
TORSDOF 1
ENDMDL
MODEL 2
REMARK VINA RESULT:      -4.4      1.279      1.470
REMARK  1 active torsions:
REMARK  status: ('A' for Active; 'I' for Inactive)
REMARK    1  A    between atoms: C1_1  and  C5_5 
ROOT
HETATM    1  C2  UNL     1     -33.980  15.630  -6.361  1.00 20.00     0.013 C 
HETATM    2  C3  UNL     1     -33.396  16.476  -5.230  1.00 20.00     0.009 C 
HETATM    3  C4  UNL     1     -34.769  15.132  -3.560  1.00 20.00     0.013 C 
HETATM    4  C5  UNL     1     -34.311  14.219  -5.875  1.00 20.00     0.051 C 
HETATM    5  C6  UNL     1     -35.287  14.214  -4.686  1.00 20.00    -0.007 C 
HETATM    6  C7  UNL     1     -34.302  16.549  -3.982  1.00 20.00    -0.047 C 
HETATM    7  C8  UNL     1     -36.741  14.511  -5.069  1.00 20.00     0.011 C 
HETATM    8  C9  UNL     1     -35.492  17.493  -4.235  1.00 20.00     0.015 C 
HETATM    9  C10 UNL     1     -33.488  17.156  -2.817  1.00 20.00     0.015 C 
ENDROOT
BRANCH   4  10
HETATM   10  C1  UNL     1     -34.817  13.381  -7.011  1.00 20.00     0.236 C 
HETATM   11  O11 UNL     1     -35.046  12.180  -6.917  1.00 20.00    -0.306 OA
ENDBRANCH   4  10
TORSDOF 1
ENDMDL
MODEL 3
REMARK VINA RESULT:      -4.3     11.316     12.257
REMARK  1 active torsions:
REMARK  status: ('A' for Active; 'I' for Inactive)
REMARK    1  A    between atoms: C1_1  and  C5_5 
ROOT
HETATM    1  C2  UNL     1     -33.358   7.984   4.030  1.00 20.00     0.013 C 
HETATM    2  C3  UNL     1     -33.833   7.002   5.102  1.00 20.00     0.009 C 
HETATM    3  C4  UNL     1     -33.438   5.086   3.473  1.00 20.00     0.013 C 
HETATM    4  C5  UNL     1     -32.330   7.331   3.106  1.00 20.00     0.051 C 
HETATM    5  C6  UNL     1     -32.868   6.061   2.424  1.00 20.00    -0.007 C 
HETATM    6  C7  UNL     1     -34.404   5.688   4.526  1.00 20.00    -0.047 C 
HETATM    7  C8  UNL     1     -33.847   6.335   1.277  1.00 20.00     0.011 C 
HETATM    8  C9  UNL     1     -35.811   5.922   3.945  1.00 20.00     0.015 C 
HETATM    9  C10 UNL     1     -34.558   4.671   5.679  1.00 20.00     0.015 C 
ENDROOT
BRANCH   4  10
HETATM   10  C1  UNL     1     -31.823   8.326   2.106  1.00 20.00     0.236 C 
HETATM   11  O11 UNL     1     -32.372   9.400   1.881  1.00 20.00    -0.306 OA
ENDBRANCH   4  10
TORSDOF 1
ENDMDL
MODEL 4
REMARK VINA RESULT:      -4.3      1.027      2.403
REMARK  1 active torsions:
REMARK  status: ('A' for Active; 'I' for Inactive)
REMARK    1  A    between atoms: C1_1  and  C5_5 
ROOT
HETATM    1  C2  UNL     1     -36.080  15.318  -4.216  1.00 20.00     0.013 C 
HETATM    2  C3  UNL     1     -35.996  16.789  -3.808  1.00 20.00     0.009 C 
HETATM    3  C4  UNL     1     -33.642  16.887  -4.770  1.00 20.00     0.013 C 
HETATM    4  C5  UNL     1     -35.235  15.045  -5.460  1.00 20.00     0.051 C 
HETATM    5  C6  UNL     1     -33.758  15.432  -5.270  1.00 20.00    -0.007 C 
HETATM    6  C7  UNL     1     -34.552  17.285  -3.580  1.00 20.00    -0.047 C 
HETATM    7  C8  UNL     1     -32.959  14.446  -4.410  1.00 20.00     0.011 C 
HETATM    8  C9  UNL     1     -34.007  16.758  -2.240  1.00 20.00     0.015 C 
HETATM    9  C10 UNL     1     -34.570  18.827  -3.481  1.00 20.00     0.015 C 
ENDROOT
BRANCH   4  10
HETATM   10  C1  UNL     1     -35.383  13.616  -5.887  1.00 20.00     0.236 C 
HETATM   11  O11 UNL     1     -35.950  12.763  -5.213  1.00 20.00    -0.306 OA
ENDBRANCH   4  10
TORSDOF 1
ENDMDL
MODEL 5
REMARK VINA RESULT:      -4.3     11.351     12.122
REMARK  1 active torsions:
REMARK  status: ('A' for Active; 'I' for Inactive)
REMARK    1  A    between atoms: C1_1  and  C5_5 
ROOT
HETATM    1  C2  UNL     1     -33.782   7.078   4.780  1.00 20.00     0.013 C 
HETATM    2  C3  UNL     1     -33.464   8.338   3.974  1.00 20.00     0.009 C 
HETATM    3  C4  UNL     1     -33.501   6.945   1.844  1.00 20.00     0.013 C 
HETATM    4  C5  UNL     1     -34.610   6.094   3.954  1.00 20.00     0.051 C 
HETATM    5  C6  UNL     1     -33.917   5.691   2.641  1.00 20.00    -0.007 C 
HETATM    6  C7  UNL     1     -32.754   8.051   2.633  1.00 20.00    -0.047 C 
HETATM    7  C8  UNL     1     -32.766   4.696   2.821  1.00 20.00     0.011 C 
HETATM    8  C9  UNL     1     -31.277   7.685   2.873  1.00 20.00     0.015 C 
HETATM    9  C10 UNL     1     -32.765   9.341   1.784  1.00 20.00     0.015 C 
ENDROOT
BRANCH   4  10
HETATM   10  C1  UNL     1     -34.973   4.896   4.780  1.00 20.00     0.236 C 
HETATM   11  O11 UNL     1     -34.572   4.717   5.925  1.00 20.00    -0.306 OA
ENDBRANCH   4  10
TORSDOF 1
ENDMDL
MODEL 6
REMARK VINA RESULT:      -4.2      1.229      1.256
REMARK  1 active torsions:
REMARK  status: ('A' for Active; 'I' for Inactive)
REMARK    1  A    between atoms: C1_1  and  C5_5 
ROOT
HETATM    1  C2  UNL     1     -34.555  15.058  -4.735  1.00 20.00     0.013 C 
HETATM    2  C3  UNL     1     -33.647  15.648  -3.656  1.00 20.00     0.009 C 
HETATM    3  C4  UNL     1     -35.656  16.867  -2.678  1.00 20.00     0.013 C 
HETATM    4  C5  UNL     1     -35.981  14.883  -4.214  1.00 20.00     0.051 C 
HETATM    5  C6  UNL     1     -36.593  16.199  -3.704  1.00 20.00    -0.007 C 
HETATM    6  C7  UNL     1     -34.162  16.983  -3.077  1.00 20.00    -0.047 C 
HETATM    7  C8  UNL     1     -37.030  17.158  -4.818  1.00 20.00     0.011 C 
HETATM    8  C9  UNL     1     -33.923  18.131  -4.075  1.00 20.00     0.015 C 
HETATM    9  C10 UNL     1     -33.348  17.317  -1.807  1.00 20.00     0.015 C 
ENDROOT
BRANCH   4  10
HETATM   10  C1  UNL     1     -36.842  14.239  -5.260  1.00 20.00     0.236 C 
HETATM   11  O11 UNL     1     -37.938  13.743  -5.022  1.00 20.00    -0.306 OA
ENDBRANCH   4  10
TORSDOF 1
ENDMDL
MODEL 7
REMARK VINA RESULT:      -4.2      2.336      4.130
REMARK  1 active torsions:
REMARK  status: ('A' for Active; 'I' for Inactive)
REMARK    1  A    between atoms: C1_1  and  C5_5 
ROOT
HETATM    1  C2  UNL     1     -35.080  15.212  -3.790  1.00 20.00     0.013 C 
HETATM    2  C3  UNL     1     -35.120  14.159  -4.897  1.00 20.00     0.009 C 
HETATM    3  C4  UNL     1     -33.425  15.526  -6.215  1.00 20.00     0.013 C 
HETATM    4  C5  UNL     1     -33.709  15.887  -3.726  1.00 20.00     0.051 C 
HETATM    5  C6  UNL     1     -33.307  16.541  -5.060  1.00 20.00    -0.007 C 
HETATM    6  C7  UNL     1     -34.741  14.710  -6.289  1.00 20.00    -0.047 C 
HETATM    7  C8  UNL     1     -34.034  17.858  -5.353  1.00 20.00     0.011 C 
HETATM    8  C9  UNL     1     -35.899  15.542  -6.872  1.00 20.00     0.015 C 
HETATM    9  C10 UNL     1     -34.518  13.519  -7.247  1.00 20.00     0.015 C 
ENDROOT
BRANCH   4  10
HETATM   10  C1  UNL     1     -33.663  16.866  -2.592  1.00 20.00     0.236 C 
HETATM   11  O11 UNL     1     -34.407  16.809  -1.618  1.00 20.00    -0.306 OA
ENDBRANCH   4  10
TORSDOF 1
ENDMDL
MODEL 8
REMARK VINA RESULT:      -4.0      2.745      4.322
REMARK  1 active torsions:
REMARK  status: ('A' for Active; 'I' for Inactive)
REMARK    1  A    between atoms: C1_1  and  C5_5 
ROOT
HETATM    1  C2  UNL     1     -36.215  16.645  -3.027  1.00 20.00     0.013 C 
HETATM    2  C3  UNL     1     -35.895  15.592  -4.088  1.00 20.00     0.009 C 
HETATM    3  C4  UNL     1     -33.423  15.830  -3.531  1.00 20.00     0.013 C 
HETATM    4  C5  UNL     1     -35.188  16.611  -1.895  1.00 20.00     0.051 C 
HETATM    5  C6  UNL     1     -33.747  16.819  -2.394  1.00 20.00    -0.007 C 
HETATM    6  C7  UNL     1     -34.469  15.714  -4.669  1.00 20.00    -0.047 C 
HETATM    7  C8  UNL     1     -33.417  18.271  -2.760  1.00 20.00     0.011 C 
HETATM    8  C9  UNL     1     -34.386  16.900  -5.647  1.00 20.00     0.015 C 
HETATM    9  C10 UNL     1     -34.158  14.438  -5.483  1.00 20.00     0.015 C 
ENDROOT
BRANCH   4  10
HETATM   10  C1  UNL     1     -35.554  17.600  -0.829  1.00 20.00     0.236 C 
HETATM   11  O11 UNL     1     -35.617  17.318   0.363  1.00 20.00    -0.306 OA
ENDBRANCH   4  10
TORSDOF 1
ENDMDL
MODEL 9
REMARK VINA RESULT:      -4.0      1.863      3.690
REMARK  1 active torsions:
REMARK  status: ('A' for Active; 'I' for Inactive)
REMARK    1  A    between atoms: C1_1  and  C5_5 
ROOT
HETATM    1  C2  UNL     1     -35.196  15.676  -3.944  1.00 20.00     0.013 C 
HETATM    2  C3  UNL     1     -36.720  15.563  -3.943  1.00 20.00     0.009 C 
HETATM    3  C4  UNL     1     -36.563  13.863  -5.831  1.00 20.00     0.013 C 
HETATM    4  C5  UNL     1     -34.549  14.361  -4.381  1.00 20.00     0.051 C 
HETATM    5  C6  UNL     1     -35.022  13.901  -5.771  1.00 20.00    -0.007 C 
HETATM    6  C7  UNL     1     -37.307  15.114  -5.298  1.00 20.00    -0.047 C 
HETATM    7  C8  UNL     1     -34.404  14.686  -6.933  1.00 20.00     0.011 C 
HETATM    8  C9  UNL     1     -37.274  16.275  -6.310  1.00 20.00     0.015 C 
HETATM    9  C10 UNL     1     -38.792  14.741  -5.093  1.00 20.00     0.015 C 
ENDROOT
BRANCH   4  10
HETATM   10  C1  UNL     1     -33.055  14.466  -4.310  1.00 20.00     0.236 C 
HETATM   11  O11 UNL     1     -32.320  13.510  -4.083  1.00 20.00    -0.306 OA
ENDBRANCH   4  10
TORSDOF 1
ENDMDL
