MODEL 1
REMARK VINA RESULT:      -5.0      0.000      0.000
REMARK  3 active torsions:
REMARK  status: ('A' for Active; 'I' for Inactive)
REMARK    1  A    between atoms: C4_4  and  C6_6 
REMARK    2  A    between atoms: C5_5  and  C8_8 
REMARK    3  A    between atoms: C6_6  and  C9_9 
ROOT
HETATM    1  C3  UNL     1     -31.717   7.389   3.141  1.00 20.00     0.017 A 
HETATM    2  C5  UNL     1     -32.565   8.044   2.088  1.00 20.00     0.009 A 
HETATM    3  C6  UNL     1     -33.223   7.173   3.158  1.00 20.00    -0.032 A 
ENDROOT
BRANCH   3   4
HETATM    4  C4  UNL     1     -33.813   5.813   2.755  1.00 20.00    -0.006 A 
HETATM    5  C1  UNL     1     -32.974   4.575   2.609  1.00 20.00     0.006 A 
HETATM    6  C2  UNL     1     -33.972   4.678   3.728  1.00 20.00     0.006 A 
ENDBRANCH   3   4
BRANCH   3   7
HETATM    7  C9  UNL     1     -33.988   7.847   4.271  1.00 20.00     0.006 C 
HETATM    8  C7  UNL     1     -33.485   7.452   5.628  1.00 20.00     0.006 C 
ENDBRANCH   3   7
BRANCH   2   9
HETATM    9  C8  UNL     1     -32.708   9.526   2.048  1.00 20.00     0.120 C 
HETATM   10 CL10 UNL     1     -32.694  10.133   0.369  1.00 20.00    -0.130 Cl
ENDBRANCH   2   9
TORSDOF 3
ENDMDL
MODEL 2
REMARK VINA RESULT:      -4.8      1.322      2.732
REMARK  3 active torsions:
REMARK  status: ('A' for Active; 'I' for Inactive)
REMARK    1  A    between atoms: C4_4  and  C6_6 
REMARK    2  A    between atoms: C5_5  and  C8_8 
REMARK    3  A    between atoms: C6_6  and  C9_9 
ROOT
HETATM    1  C3  UNL     1     -34.104   6.926   2.132  1.00 20.00     0.017 A 
HETATM    2  C5  UNL     1     -33.238   7.572   3.175  1.00 20.00     0.009 A 
HETATM    3  C6  UNL     1     -33.702   6.128   3.362  1.00 20.00    -0.032 A 
ENDROOT
BRANCH   3   4
HETATM    4  C4  UNL     1     -34.738   5.812   4.451  1.00 20.00    -0.006 A 
HETATM    5  C1  UNL     1     -34.576   4.674   5.420  1.00 20.00     0.006 A 
HETATM    6  C2  UNL     1     -34.496   6.093   5.908  1.00 20.00     0.006 A 
ENDBRANCH   3   4
BRANCH   3   7
HETATM    7  C9  UNL     1     -32.707   5.012   3.147  1.00 20.00     0.006 C 
HETATM    8  C7  UNL     1     -33.086   4.126   1.998  1.00 20.00     0.006 C 
ENDBRANCH   3   7
BRANCH   2   9
HETATM    9  C8  UNL     1     -31.827   7.936   2.865  1.00 20.00     0.120 C 
HETATM   10 CL10 UNL     1     -31.689   8.669   1.243  1.00 20.00    -0.130 Cl
ENDBRANCH   2   9
TORSDOF 3
ENDMDL
MODEL 3
REMARK VINA RESULT:      -4.7      2.558      3.947
REMARK  3 active torsions:
REMARK  status: ('A' for Active; 'I' for Inactive)
REMARK    1  A    between atoms: C4_4  and  C6_6 
REMARK    2  A    between atoms: C5_5  and  C8_8 
REMARK    3  A    between atoms: C6_6  and  C9_9 
ROOT
HETATM    1  C3  UNL     1     -34.745   6.523   3.104  1.00 20.00     0.017 A 
HETATM    2  C5  UNL     1     -33.538   5.784   2.600  1.00 20.00     0.009 A 
HETATM    3  C6  UNL     1     -33.373   7.167   3.229  1.00 20.00    -0.032 A 
ENDROOT
BRANCH   3   4
HETATM    4  C4  UNL     1     -32.992   8.354   2.332  1.00 20.00    -0.006 A 
HETATM    5  C1  UNL     1     -31.779   9.206   2.585  1.00 20.00     0.006 A 
HETATM    6  C2  UNL     1     -31.831   8.311   1.379  1.00 20.00     0.006 A 
ENDBRANCH   3   4
BRANCH   3   7
HETATM    7  C9  UNL     1     -32.798   7.266   4.622  1.00 20.00     0.006 C 
HETATM    8  C7  UNL     1     -33.864   7.285   5.677  1.00 20.00     0.006 C 
ENDBRANCH   3   7
BRANCH   2   9
HETATM    9  C8  UNL     1     -33.088   4.530   3.268  1.00 20.00     0.120 C 
HETATM   10 CL10 UNL     1     -34.301   3.949   4.441  1.00 20.00    -0.130 Cl
ENDBRANCH   2   9
TORSDOF 3
ENDMDL
MODEL 4
REMARK VINA RESULT:      -4.7      1.284      1.554
REMARK  3 active torsions:
REMARK  status: ('A' for Active; 'I' for Inactive)
REMARK    1  A    between atoms: C4_4  and  C6_6 
REMARK    2  A    between atoms: C5_5  and  C8_8 
REMARK    3  A    between atoms: C6_6  and  C9_9 
ROOT
HETATM    1  C3  UNL     1     -32.439   6.195   2.896  1.00 20.00     0.017 A 
HETATM    2  C5  UNL     1     -33.440   7.209   2.421  1.00 20.00     0.009 A 
HETATM    3  C6  UNL     1     -33.471   6.736   3.874  1.00 20.00    -0.032 A 
ENDROOT
BRANCH   3   4
HETATM    4  C4  UNL     1     -34.630   5.845   4.345  1.00 20.00    -0.006 A 
HETATM    5  C1  UNL     1     -34.625   4.351   4.181  1.00 20.00     0.006 A 
HETATM    6  C2  UNL     1     -34.531   4.956   5.553  1.00 20.00     0.006 A 
ENDBRANCH   3   4
BRANCH   3   7
HETATM    7  C9  UNL     1     -32.960   7.664   4.950  1.00 20.00     0.006 C 
HETATM    8  C7  UNL     1     -33.800   7.613   6.191  1.00 20.00     0.006 C 
ENDBRANCH   3   7
BRANCH   2   9
HETATM    9  C8  UNL     1     -33.000   8.575   2.022  1.00 20.00     0.120 C 
HETATM   10 CL10 UNL     1     -31.468   8.521   1.108  1.00 20.00    -0.130 Cl
ENDBRANCH   2   9
TORSDOF 3
ENDMDL
MODEL 5
REMARK VINA RESULT:      -4.1     10.454     11.756
REMARK  3 active torsions:
REMARK  status: ('A' for Active; 'I' for Inactive)
REMARK    1  A    between atoms: C4_4  and  C6_6 
REMARK    2  A    between atoms: C5_5  and  C8_8 
REMARK    3  A    between atoms: C6_6  and  C9_9 
ROOT
HETATM    1  C3  UNL     1     -33.378  14.543  -4.632  1.00 20.00     0.017 A 
HETATM    2  C5  UNL     1     -34.755  14.201  -4.138  1.00 20.00     0.009 A 
HETATM    3  C6  UNL     1     -34.282  15.654  -4.119  1.00 20.00    -0.032 A 
ENDROOT
BRANCH   3   4
HETATM    4  C4  UNL     1     -33.989  16.326  -2.769  1.00 20.00    -0.006 A 
HETATM    5  C1  UNL     1     -34.281  17.777  -2.505  1.00 20.00     0.006 A 
HETATM    6  C2  UNL     1     -35.074  16.711  -1.802  1.00 20.00     0.006 A 
ENDBRANCH   3   4
BRANCH   3   7
HETATM    7  C9  UNL     1     -34.830  16.609  -5.152  1.00 20.00     0.006 C 
HETATM    8  C7  UNL     1     -33.829  16.926  -6.223  1.00 20.00     0.006 C 
ENDBRANCH   3   7
BRANCH   2   9
HETATM    9  C8  UNL     1     -35.792  13.698  -5.082  1.00 20.00     0.120 C 
HETATM   10 CL10 UNL     1     -35.095  13.356  -6.689  1.00 20.00    -0.130 Cl
ENDBRANCH   2   9
TORSDOF 3
ENDMDL
MODEL 6
REMARK VINA RESULT:      -3.9     10.699     11.631
REMARK  3 active torsions:
REMARK  status: ('A' for Active; 'I' for Inactive)
REMARK    1  A    between atoms: C4_4  and  C6_6 
REMARK    2  A    between atoms: C5_5  and  C8_8 
REMARK    3  A    between atoms: C6_6  and  C9_9 
ROOT
HETATM    1  C3  UNL     1     -35.177  16.694  -1.865  1.00 20.00     0.017 A 
HETATM    2  C5  UNL     1     -33.704  16.933  -2.032  1.00 20.00     0.009 A 
HETATM    3  C6  UNL     1     -34.535  16.461  -3.224  1.00 20.00    -0.032 A 
ENDROOT
BRANCH   3   4
HETATM    4  C4  UNL     1     -34.340  15.032  -3.753  1.00 20.00    -0.006 A 
HETATM    5  C1  UNL     1     -34.333  14.702  -5.219  1.00 20.00     0.006 A 
HETATM    6  C2  UNL     1     -33.069  14.579  -4.416  1.00 20.00     0.006 A 
ENDBRANCH   3   4
BRANCH   3   7
HETATM    7  C9  UNL     1     -34.875  17.454  -4.310  1.00 20.00     0.006 C 
HETATM    8  C7  UNL     1     -36.349  17.721  -4.396  1.00 20.00     0.006 C 
ENDBRANCH   3   7
BRANCH   2   9
HETATM    9  C8  UNL     1     -33.146  18.311  -1.927  1.00 20.00     0.120 C 
HETATM   10 CL10 UNL     1     -32.050  18.460  -0.526  1.00 20.00    -0.130 Cl
ENDBRANCH   2   9
TORSDOF 3
ENDMDL
MODEL 7
REMARK VINA RESULT:      -3.9     10.239     11.801
REMARK  3 active torsions:
REMARK  status: ('A' for Active; 'I' for Inactive)
REMARK    1  A    between atoms: C4_4  and  C6_6 
REMARK    2  A    between atoms: C5_5  and  C8_8 
REMARK    3  A    between atoms: C6_6  and  C9_9 
ROOT
HETATM    1  C3  UNL     1     -34.324  14.158  -4.036  1.00 20.00     0.017 A 
HETATM    2  C5  UNL     1     -33.563  15.289  -4.668  1.00 20.00     0.009 A 
HETATM    3  C6  UNL     1     -34.750  14.668  -5.404  1.00 20.00    -0.032 A 
ENDROOT
BRANCH   3   4
HETATM    4  C4  UNL     1     -34.492  13.821  -6.659  1.00 20.00    -0.006 A 
HETATM    5  C1  UNL     1     -35.332  13.932  -7.900  1.00 20.00     0.006 A 
HETATM    6  C2  UNL     1     -33.903  14.395  -7.918  1.00 20.00     0.006 A 
ENDBRANCH   3   4
BRANCH   3   7
HETATM    7  C9  UNL     1     -36.049  15.435  -5.463  1.00 20.00     0.006 C 
HETATM    8  C7  UNL     1     -37.158  14.735  -4.734  1.00 20.00     0.006 C 
ENDBRANCH   3   7
BRANCH   2   9
HETATM    9  C8  UNL     1     -33.603  16.653  -4.071  1.00 20.00     0.120 C 
HETATM   10 CL10 UNL     1     -34.114  16.597  -2.362  1.00 20.00    -0.130 Cl
ENDBRANCH   2   9
TORSDOF 3
ENDMDL
MODEL 8
REMARK VINA RESULT:      -3.9      2.636      4.257
REMARK  3 active torsions:
REMARK  status: ('A' for Active; 'I' for Inactive)
REMARK    1  A    between atoms: C4_4  and  C6_6 
REMARK    2  A    between atoms: C5_5  and  C8_8 
REMARK    3  A    between atoms: C6_6  and  C9_9 
ROOT
HETATM    1  C3  UNL     1     -33.286   7.375   4.566  1.00 20.00     0.017 A 
HETATM    2  C5  UNL     1     -34.512   6.856   3.870  1.00 20.00     0.009 A 
HETATM    3  C6  UNL     1     -33.161   6.813   3.158  1.00 20.00    -0.032 A 
ENDROOT
BRANCH   3   4
HETATM    4  C4  UNL     1     -32.912   7.755   1.970  1.00 20.00    -0.006 A 
HETATM    5  C1  UNL     1     -32.643   9.223   2.141  1.00 20.00     0.006 A 
HETATM    6  C2  UNL     1     -31.554   8.313   1.648  1.00 20.00     0.006 A 
ENDBRANCH   3   4
BRANCH   3   7
HETATM    7  C9  UNL     1     -32.454   5.486   3.022  1.00 20.00     0.006 C 
HETATM    8  C7  UNL     1     -33.064   4.623   1.958  1.00 20.00     0.006 C 
ENDBRANCH   3   7
BRANCH   2   9
HETATM    9  C8  UNL     1     -35.204   5.635   4.370  1.00 20.00     0.120 C 
HETATM   10 CL10 UNL     1     -34.567   5.134   5.960  1.00 20.00    -0.130 Cl
ENDBRANCH   2   9
TORSDOF 3
ENDMDL
MODEL 9
REMARK VINA RESULT:      -3.7     10.521     11.741
REMARK  3 active torsions:
REMARK  status: ('A' for Active; 'I' for Inactive)
REMARK    1  A    between atoms: C4_4  and  C6_6 
REMARK    2  A    between atoms: C5_5  and  C8_8 
REMARK    3  A    between atoms: C6_6  and  C9_9 
ROOT
HETATM    1  C3  UNL     1     -33.791  16.797  -4.153  1.00 20.00     0.017 A 
HETATM    2  C5  UNL     1     -33.763  15.417  -3.560  1.00 20.00     0.009 A 
HETATM    3  C6  UNL     1     -34.561  16.523  -2.871  1.00 20.00    -0.032 A 
ENDROOT
BRANCH   3   4
HETATM    4  C4  UNL     1     -34.058  17.084  -1.532  1.00 20.00    -0.006 A 
HETATM    5  C1  UNL     1     -32.856  17.980  -1.428  1.00 20.00     0.006 A 
HETATM    6  C2  UNL     1     -34.226  18.526  -1.142  1.00 20.00     0.006 A 
ENDBRANCH   3   4
BRANCH   3   7
HETATM    7  C9  UNL     1     -36.067  16.507  -2.979  1.00 20.00     0.006 C 
HETATM    8  C7  UNL     1     -36.587  17.605  -3.859  1.00 20.00     0.006 C 
ENDBRANCH   3   7
BRANCH   2   9
HETATM    9  C8  UNL     1     -34.406  14.276  -4.271  1.00 20.00     0.120 C 
HETATM   10 CL10 UNL     1     -34.255  14.449  -6.041  1.00 20.00    -0.130 Cl
ENDBRANCH   2   9
TORSDOF 3
ENDMDL
