MODEL 1
REMARK VINA RESULT:      -4.5      0.000      0.000
REMARK  2 active torsions:
REMARK  status: ('A' for Active; 'I' for Inactive)
REMARK    1  A    between atoms: C3_3  and  C6_6 
REMARK    2  A    between atoms: C7_7  and  C9_9 
ROOT
HETATM    1  C1  UNL     1     -32.890   6.353   2.496  1.00 20.00     0.016 A 
HETATM    2  C2  UNL     1     -33.784   5.469   3.166  1.00 20.00     0.015 A 
HETATM    3  C3  UNL     1     -32.540   7.429   3.282  1.00 20.00    -0.013 A 
HETATM    4  C4  UNL     1     -34.084   5.902   4.439  1.00 20.00    -0.021 A 
HETATM    5  C8  UNL     1     -34.963   5.268   5.444  1.00 20.00     0.056 C 
HETATM    6  S10 UNL     1     -33.289   7.370   4.821  1.00 20.00    -0.099 SA
ENDROOT
BRANCH   3   7
HETATM    7  C6  UNL     1     -31.588   8.552   2.837  1.00 20.00     0.031 A 
HETATM    8  C5  UNL     1     -31.088   8.549   1.409  1.00 20.00     0.016 A 
HETATM    9  C7  UNL     1     -32.051   9.610   1.852  1.00 20.00     0.005 A 
BRANCH   9  10
HETATM   10  C9  UNL     1     -33.435   9.640   1.302  1.00 20.00     0.090 C 
HETATM   11 BR11 UNL     1     -33.398   9.473  -0.643  1.00 20.00    -0.096 Br
ENDBRANCH   9  10
ENDBRANCH   3   7
TORSDOF 2
ENDMDL
MODEL 2
REMARK VINA RESULT:      -4.1     10.411     11.323
REMARK  2 active torsions:
REMARK  status: ('A' for Active; 'I' for Inactive)
REMARK    1  A    between atoms: C3_3  and  C6_6 
REMARK    2  A    between atoms: C7_7  and  C9_9 
ROOT
HETATM    1  C1  UNL     1     -34.703  14.169  -4.105  1.00 20.00     0.016 A 
HETATM    2  C2  UNL     1     -35.697  13.746  -5.033  1.00 20.00     0.015 A 
HETATM    3  C3  UNL     1     -34.544  15.537  -4.103  1.00 20.00    -0.013 A 
HETATM    4  C4  UNL     1     -36.262  14.807  -5.706  1.00 20.00    -0.021 A 
HETATM    5  C8  UNL     1     -37.320  14.784  -6.738  1.00 20.00     0.056 C 
HETATM    6  S10 UNL     1     -35.593  16.306  -5.218  1.00 20.00    -0.099 SA
ENDROOT
BRANCH   3   7
HETATM    7  C6  UNL     1     -33.549  16.293  -3.206  1.00 20.00     0.031 A 
HETATM    8  C5  UNL     1     -33.670  17.797  -3.102  1.00 20.00     0.016 A 
HETATM    9  C7  UNL     1     -34.014  16.945  -1.917  1.00 20.00     0.005 A 
BRANCH   9  10
HETATM   10  C9  UNL     1     -35.423  16.861  -1.441  1.00 20.00     0.090 C 
HETATM   11 BR11 UNL     1     -35.592  17.661   0.331  1.00 20.00    -0.096 Br
ENDBRANCH   9  10
ENDBRANCH   3   7
TORSDOF 2
ENDMDL
MODEL 3
REMARK VINA RESULT:      -3.9     10.889     11.724
REMARK  2 active torsions:
REMARK  status: ('A' for Active; 'I' for Inactive)
REMARK    1  A    between atoms: C3_3  and  C6_6 
REMARK    2  A    between atoms: C7_7  and  C9_9 
ROOT
HETATM    1  C1  UNL     1     -33.376  16.586  -5.178  1.00 20.00     0.016 A 
HETATM    2  C2  UNL     1     -33.581  15.854  -6.382  1.00 20.00     0.015 A 
HETATM    3  C3  UNL     1     -33.795  15.887  -4.068  1.00 20.00    -0.013 A 
HETATM    4  C4  UNL     1     -34.149  14.621  -6.147  1.00 20.00    -0.021 A 
HETATM    5  C8  UNL     1     -34.512  13.574  -7.126  1.00 20.00     0.056 C 
HETATM    6  S10 UNL     1     -34.434  14.352  -4.480  1.00 20.00    -0.099 SA
ENDROOT
BRANCH   3   7
HETATM    7  C6  UNL     1     -33.701  16.414  -2.626  1.00 20.00     0.031 A 
HETATM    8  C5  UNL     1     -33.746  17.910  -2.401  1.00 20.00     0.016 A 
HETATM    9  C7  UNL     1     -34.903  17.062  -1.963  1.00 20.00     0.005 A 
BRANCH   9  10
HETATM   10  C9  UNL     1     -36.222  17.189  -2.644  1.00 20.00     0.090 C 
HETATM   11 BR11 UNL     1     -36.355  18.909  -3.557  1.00 20.00    -0.096 Br
ENDBRANCH   9  10
ENDBRANCH   3   7
TORSDOF 2
ENDMDL
MODEL 4
REMARK VINA RESULT:      -3.9     10.829     11.438
REMARK  2 active torsions:
REMARK  status: ('A' for Active; 'I' for Inactive)
REMARK    1  A    between atoms: C3_3  and  C6_6 
REMARK    2  A    between atoms: C7_7  and  C9_9 
ROOT
HETATM    1  C1  UNL     1     -33.597  15.309  -3.930  1.00 20.00     0.016 A 
HETATM    2  C2  UNL     1     -33.772  14.541  -5.117  1.00 20.00     0.015 A 
HETATM    3  C3  UNL     1     -34.799  15.718  -3.396  1.00 20.00    -0.013 A 
HETATM    4  C4  UNL     1     -35.101  14.392  -5.446  1.00 20.00    -0.021 A 
HETATM    5  C8  UNL     1     -35.690  13.667  -6.592  1.00 20.00     0.056 C 
HETATM    6  S10 UNL     1     -36.132  15.176  -4.325  1.00 20.00    -0.099 SA
ENDROOT
BRANCH   3   7
HETATM    7  C6  UNL     1     -34.936  16.559  -2.115  1.00 20.00     0.031 A 
HETATM    8  C5  UNL     1     -33.764  17.415  -1.686  1.00 20.00     0.016 A 
HETATM    9  C7  UNL     1     -35.014  18.072  -2.192  1.00 20.00     0.005 A 
BRANCH   9  10
HETATM   10  C9  UNL     1     -34.999  18.810  -3.486  1.00 20.00     0.090 C 
HETATM   11 BR11 UNL     1     -33.169  19.263  -3.991  1.00 20.00    -0.096 Br
ENDBRANCH   9  10
ENDBRANCH   3   7
TORSDOF 2
ENDMDL
MODEL 5
REMARK VINA RESULT:      -3.8     10.659     11.304
REMARK  2 active torsions:
REMARK  status: ('A' for Active; 'I' for Inactive)
REMARK    1  A    between atoms: C3_3  and  C6_6 
REMARK    2  A    between atoms: C7_7  and  C9_9 
ROOT
HETATM    1  C1  UNL     1     -33.591  16.921  -2.320  1.00 20.00     0.016 A 
HETATM    2  C2  UNL     1     -34.241  17.330  -1.121  1.00 20.00     0.015 A 
HETATM    3  C3  UNL     1     -34.441  16.945  -3.404  1.00 20.00    -0.013 A 
HETATM    4  C4  UNL     1     -35.564  17.651  -1.333  1.00 20.00    -0.021 A 
HETATM    5  C8  UNL     1     -36.566  18.118  -0.351  1.00 20.00     0.056 C 
HETATM    6  S10 UNL     1     -36.017  17.459  -2.973  1.00 20.00    -0.099 SA
ENDROOT
BRANCH   3   7
HETATM    7  C6  UNL     1     -34.029  16.560  -4.836  1.00 20.00     0.031 A 
HETATM    8  C5  UNL     1     -32.973  15.492  -5.019  1.00 20.00     0.016 A 
HETATM    9  C7  UNL     1     -34.393  15.200  -5.403  1.00 20.00     0.005 A 
BRANCH   9  10
HETATM   10  C9  UNL     1     -35.184  14.198  -4.635  1.00 20.00     0.090 C 
HETATM   11 BR11 UNL     1     -37.059  14.251  -5.174  1.00 20.00    -0.096 Br
ENDBRANCH   9  10
ENDBRANCH   3   7
TORSDOF 2
ENDMDL
MODEL 6
REMARK VINA RESULT:      -3.8     10.917     11.547
REMARK  2 active torsions:
REMARK  status: ('A' for Active; 'I' for Inactive)
REMARK    1  A    between atoms: C3_3  and  C6_6 
REMARK    2  A    between atoms: C7_7  and  C9_9 
ROOT
HETATM    1  C1  UNL     1     -35.218  16.692  -1.650  1.00 20.00     0.016 A 
HETATM    2  C2  UNL     1     -35.344  17.469  -0.463  1.00 20.00     0.015 A 
HETATM    3  C3  UNL     1     -33.984  16.845  -2.241  1.00 20.00    -0.013 A 
HETATM    4  C4  UNL     1     -34.200  18.187  -0.191  1.00 20.00    -0.021 A 
HETATM    5  C8  UNL     1     -33.935  19.101   0.940  1.00 20.00     0.056 C 
HETATM    6  S10 UNL     1     -32.982  17.923  -1.365  1.00 20.00    -0.099 SA
ENDROOT
BRANCH   3   7
HETATM    7  C6  UNL     1     -33.548  16.133  -3.533  1.00 20.00     0.031 A 
HETATM    8  C5  UNL     1     -34.613  15.734  -4.531  1.00 20.00     0.016 A 
HETATM    9  C7  UNL     1     -33.655  16.835  -4.874  1.00 20.00     0.005 A 
BRANCH   9  10
HETATM   10  C9  UNL     1     -34.143  18.237  -5.007  1.00 20.00     0.090 C 
HETATM   11 BR11 UNL     1     -36.073  18.261  -5.295  1.00 20.00    -0.096 Br
ENDBRANCH   9  10
ENDBRANCH   3   7
TORSDOF 2
ENDMDL
MODEL 7
REMARK VINA RESULT:      -3.7     10.713     11.525
REMARK  2 active torsions:
REMARK  status: ('A' for Active; 'I' for Inactive)
REMARK    1  A    between atoms: C3_3  and  C6_6 
REMARK    2  A    between atoms: C7_7  and  C9_9 
ROOT
HETATM    1  C1  UNL     1     -36.370  14.184  -4.896  1.00 20.00     0.016 A 
HETATM    2  C2  UNL     1     -37.770  14.368  -5.081  1.00 20.00     0.015 A 
HETATM    3  C3  UNL     1     -35.795  15.233  -4.214  1.00 20.00    -0.013 A 
HETATM    4  C4  UNL     1     -38.213  15.552  -4.533  1.00 20.00    -0.021 A 
HETATM    5  C8  UNL     1     -39.586  16.100  -4.513  1.00 20.00     0.056 C 
HETATM    6  S10 UNL     1     -36.942  16.435  -3.799  1.00 20.00    -0.099 SA
ENDROOT
BRANCH   3   7
HETATM    7  C6  UNL     1     -34.300  15.320  -3.860  1.00 20.00     0.031 A 
HETATM    8  C5  UNL     1     -33.324  14.467  -4.640  1.00 20.00     0.016 A 
HETATM    9  C7  UNL     1     -33.316  15.955  -4.825  1.00 20.00     0.005 A 
BRANCH   9  10
HETATM   10  C9  UNL     1     -33.738  16.549  -6.124  1.00 20.00     0.090 C 
HETATM   11 BR11 UNL     1     -33.823  15.174  -7.506  1.00 20.00    -0.096 Br
ENDBRANCH   9  10
ENDBRANCH   3   7
TORSDOF 2
ENDMDL
MODEL 8
REMARK VINA RESULT:      -3.7     10.808     12.001
REMARK  2 active torsions:
REMARK  status: ('A' for Active; 'I' for Inactive)
REMARK    1  A    between atoms: C3_3  and  C6_6 
REMARK    2  A    between atoms: C7_7  and  C9_9 
ROOT
HETATM    1  C1  UNL     1     -34.559  15.440  -3.454  1.00 20.00     0.016 A 
HETATM    2  C2  UNL     1     -34.127  16.643  -2.826  1.00 20.00     0.015 A 
HETATM    3  C3  UNL     1     -34.443  15.501  -4.825  1.00 20.00    -0.013 A 
HETATM    4  C4  UNL     1     -33.697  17.579  -3.740  1.00 20.00    -0.021 A 
HETATM    5  C8  UNL     1     -33.175  18.939  -3.489  1.00 20.00     0.056 C 
HETATM    6  S10 UNL     1     -33.815  17.006  -5.350  1.00 20.00    -0.099 SA
ENDROOT
BRANCH   3   7
HETATM    7  C6  UNL     1     -34.827  14.357  -5.779  1.00 20.00     0.031 A 
HETATM    8  C5  UNL     1     -35.905  13.387  -5.344  1.00 20.00     0.016 A 
HETATM    9  C7  UNL     1     -36.181  14.346  -6.464  1.00 20.00     0.005 A 
BRANCH   9  10
HETATM   10  C9  UNL     1     -37.178  15.439  -6.284  1.00 20.00     0.090 C 
HETATM   11 BR11 UNL     1     -38.457  14.970  -4.887  1.00 20.00    -0.096 Br
ENDBRANCH   9  10
ENDBRANCH   3   7
TORSDOF 2
ENDMDL
MODEL 9
REMARK VINA RESULT:      -3.7     11.065     12.166
REMARK  2 active torsions:
REMARK  status: ('A' for Active; 'I' for Inactive)
REMARK    1  A    between atoms: C3_3  and  C6_6 
REMARK    2  A    between atoms: C7_7  and  C9_9 
ROOT
HETATM    1  C1  UNL     1     -33.673  15.770  -3.725  1.00 20.00     0.016 A 
HETATM    2  C2  UNL     1     -33.609  16.696  -2.645  1.00 20.00     0.015 A 
HETATM    3  C3  UNL     1     -33.644  16.400  -4.950  1.00 20.00    -0.013 A 
HETATM    4  C4  UNL     1     -33.534  18.000  -3.085  1.00 20.00    -0.021 A 
HETATM    5  C8  UNL     1     -33.450  19.238  -2.281  1.00 20.00     0.056 C 
HETATM    6  S10 UNL     1     -33.540  18.102  -4.794  1.00 20.00    -0.099 SA
ENDROOT
BRANCH   3   7
HETATM    7  C6  UNL     1     -33.695  15.667  -6.302  1.00 20.00     0.031 A 
HETATM    8  C5  UNL     1     -34.222  14.249  -6.334  1.00 20.00     0.016 A 
HETATM    9  C7  UNL     1     -35.027  15.351  -6.957  1.00 20.00     0.005 A 
BRANCH   9  10
HETATM   10  C9  UNL     1     -36.330  15.755  -6.358  1.00 20.00     0.090 C 
HETATM   11 BR11 UNL     1     -37.042  14.319  -5.245  1.00 20.00    -0.096 Br
ENDBRANCH   9  10
ENDBRANCH   3   7
TORSDOF 2
ENDMDL
