MODEL 1
REMARK VINA RESULT:      -5.3      0.000      0.000
REMARK  3 active torsions:
REMARK  status: ('A' for Active; 'I' for Inactive)
REMARK    1  A    between atoms: C1_1  and  C5_5 
REMARK    2  A    between atoms: C5_5  and  C7_7 
REMARK    3  A    between atoms: C6_6  and  C7_7 
ROOT
HETATM    1  C5  UNL     1     -32.523   8.017   3.154  1.00 20.00     0.274 C 
HETATM    2  F10 UNL     1     -31.300   7.459   3.388  1.00 20.00    -0.238 F 
ENDROOT
BRANCH   1   3
HETATM    3  C1  UNL     1     -32.353   8.750   1.822  1.00 20.00     0.208 C 
HETATM    4  O8  UNL     1     -31.378   8.355   1.123  1.00 20.00    -0.646 OA
HETATM    5  O9  UNL     1     -33.209   9.645   1.579  1.00 20.00    -0.646 OA
ENDBRANCH   1   3
BRANCH   1   6
HETATM    6  C7  UNL     1     -33.573   6.893   3.139  1.00 20.00     0.029 C 
HETATM    7  C4  UNL     1     -32.905   5.588   2.683  1.00 20.00     0.014 C 
BRANCH   6   8
HETATM    8  C6  UNL     1     -34.328   6.757   4.494  1.00 20.00    -0.016 C 
HETATM    9  C2  UNL     1     -34.702   5.302   4.794  1.00 20.00     0.010 C 
HETATM   10  C3  UNL     1     -33.575   7.350   5.688  1.00 20.00     0.010 C 
ENDBRANCH   6   8
ENDBRANCH   1   6
TORSDOF 3
ENDMDL
MODEL 2
REMARK VINA RESULT:      -5.0      2.989      3.944
REMARK  3 active torsions:
REMARK  status: ('A' for Active; 'I' for Inactive)
REMARK    1  A    between atoms: C1_1  and  C5_5 
REMARK    2  A    between atoms: C5_5  and  C7_7 
REMARK    3  A    between atoms: C6_6  and  C7_7 
ROOT
HETATM    1  C5  UNL     1     -34.195   6.696   3.969  1.00 20.00     0.274 C 
HETATM    2  F10 UNL     1     -35.201   5.942   3.439  1.00 20.00    -0.238 F 
ENDROOT
BRANCH   1   3
HETATM    3  C1  UNL     1     -34.273   6.423   5.472  1.00 20.00     0.208 C 
HETATM    4  O8  UNL     1     -34.732   5.287   5.779  1.00 20.00    -0.646 OA
HETATM    5  O9  UNL     1     -33.860   7.354   6.218  1.00 20.00    -0.646 OA
ENDBRANCH   1   3
BRANCH   1   6
HETATM    6  C7  UNL     1     -32.872   6.273   3.307  1.00 20.00     0.029 C 
HETATM    7  C4  UNL     1     -33.147   5.124   2.327  1.00 20.00     0.014 C 
BRANCH   6   8
HETATM    8  C6  UNL     1     -32.115   7.468   2.659  1.00 20.00    -0.016 C 
HETATM    9  C2  UNL     1     -33.040   8.320   1.784  1.00 20.00     0.010 C 
HETATM   10  C3  UNL     1     -31.391   8.366   3.665  1.00 20.00     0.010 C 
ENDBRANCH   6   8
ENDBRANCH   1   6
TORSDOF 3
ENDMDL
MODEL 3
REMARK VINA RESULT:      -5.0      2.329      4.123
REMARK  3 active torsions:
REMARK  status: ('A' for Active; 'I' for Inactive)
REMARK    1  A    between atoms: C1_1  and  C5_5 
REMARK    2  A    between atoms: C5_5  and  C7_7 
REMARK    3  A    between atoms: C6_6  and  C7_7 
ROOT
HETATM    1  C5  UNL     1     -33.375   6.904   2.702  1.00 20.00     0.274 C 
HETATM    2  F10 UNL     1     -32.402   5.948   2.726  1.00 20.00    -0.238 F 
ENDROOT
BRANCH   1   3
HETATM    3  C1  UNL     1     -34.218   6.612   3.946  1.00 20.00     0.208 C 
HETATM    4  O8  UNL     1     -35.134   5.760   3.775  1.00 20.00    -0.646 OA
HETATM    5  O9  UNL     1     -33.889   7.245   4.987  1.00 20.00    -0.646 OA
ENDBRANCH   1   3
BRANCH   1   6
HETATM    6  C7  UNL     1     -32.698   8.284   2.695  1.00 20.00     0.029 C 
HETATM    7  C4  UNL     1     -31.335   8.178   3.392  1.00 20.00     0.014 C 
BRANCH   6   8
HETATM    8  C6  UNL     1     -32.615   8.905   1.270  1.00 20.00    -0.016 C 
HETATM    9  C2  UNL     1     -32.867  10.417   1.292  1.00 20.00     0.010 C 
HETATM   10  C3  UNL     1     -31.300   8.615   0.540  1.00 20.00     0.010 C 
ENDBRANCH   6   8
ENDBRANCH   1   6
TORSDOF 3
ENDMDL
MODEL 4
REMARK VINA RESULT:      -4.9      1.522      2.141
REMARK  3 active torsions:
REMARK  status: ('A' for Active; 'I' for Inactive)
REMARK    1  A    between atoms: C1_1  and  C5_5 
REMARK    2  A    between atoms: C5_5  and  C7_7 
REMARK    3  A    between atoms: C6_6  and  C7_7 
ROOT
HETATM    1  C5  UNL     1     -32.996   6.665   2.915  1.00 20.00     0.274 C 
HETATM    2  F10 UNL     1     -33.516   6.307   1.705  1.00 20.00    -0.238 F 
ENDROOT
BRANCH   1   3
HETATM    3  C1  UNL     1     -32.252   7.972   2.631  1.00 20.00     0.208 C 
HETATM    4  O8  UNL     1     -32.601   8.558   1.568  1.00 20.00    -0.646 OA
HETATM    5  O9  UNL     1     -31.394   8.309   3.494  1.00 20.00    -0.646 OA
ENDBRANCH   1   3
BRANCH   1   6
HETATM    6  C7  UNL     1     -34.153   6.791   3.921  1.00 20.00     0.029 C 
HETATM    7  C4  UNL     1     -35.369   6.022   3.385  1.00 20.00     0.014 C 
BRANCH   6   8
HETATM    8  C6  UNL     1     -33.744   6.370   5.362  1.00 20.00    -0.016 C 
HETATM    9  C2  UNL     1     -33.725   7.565   6.321  1.00 20.00     0.010 C 
HETATM   10  C3  UNL     1     -34.607   5.252   5.953  1.00 20.00     0.010 C 
ENDBRANCH   6   8
ENDBRANCH   1   6
TORSDOF 3
ENDMDL
MODEL 5
REMARK VINA RESULT:      -4.9      2.804      4.122
REMARK  3 active torsions:
REMARK  status: ('A' for Active; 'I' for Inactive)
REMARK    1  A    between atoms: C1_1  and  C5_5 
REMARK    2  A    between atoms: C5_5  and  C7_7 
REMARK    3  A    between atoms: C6_6  and  C7_7 
ROOT
HETATM    1  C5  UNL     1     -33.741   5.855   2.864  1.00 20.00     0.274 C 
HETATM    2  F10 UNL     1     -32.577   5.151   2.764  1.00 20.00    -0.238 F 
ENDROOT
BRANCH   1   3
HETATM    3  C1  UNL     1     -34.572   5.064   3.876  1.00 20.00     0.208 C 
HETATM    4  O8  UNL     1     -35.691   5.578   4.157  1.00 20.00    -0.646 OA
HETATM    5  O9  UNL     1     -34.048   3.995   4.295  1.00 20.00    -0.646 OA
ENDBRANCH   1   3
BRANCH   1   6
HETATM    6  C7  UNL     1     -33.403   7.292   3.294  1.00 20.00     0.029 C 
HETATM    7  C4  UNL     1     -33.331   7.354   4.826  1.00 20.00     0.014 C 
BRANCH   6   8
HETATM    8  C6  UNL     1     -32.127   7.844   2.595  1.00 20.00    -0.016 C 
HETATM    9  C2  UNL     1     -32.472   8.856   1.496  1.00 20.00     0.010 C 
HETATM   10  C3  UNL     1     -31.106   8.459   3.556  1.00 20.00     0.010 C 
ENDBRANCH   6   8
ENDBRANCH   1   6
TORSDOF 3
ENDMDL
MODEL 6
REMARK VINA RESULT:      -4.8      3.067      4.195
REMARK  3 active torsions:
REMARK  status: ('A' for Active; 'I' for Inactive)
REMARK    1  A    between atoms: C1_1  and  C5_5 
REMARK    2  A    between atoms: C5_5  and  C7_7 
REMARK    3  A    between atoms: C6_6  and  C7_7 
ROOT
HETATM    1  C5  UNL     1     -34.431   6.560   4.088  1.00 20.00     0.274 C 
HETATM    2  F10 UNL     1     -35.217   5.555   3.605  1.00 20.00    -0.238 F 
ENDROOT
BRANCH   1   3
HETATM    3  C1  UNL     1     -34.327   6.267   5.586  1.00 20.00     0.208 C 
HETATM    4  O8  UNL     1     -33.945   7.244   6.290  1.00 20.00    -0.646 OA
HETATM    5  O9  UNL     1     -34.645   5.097   5.936  1.00 20.00    -0.646 OA
ENDBRANCH   1   3
BRANCH   1   6
HETATM    6  C7  UNL     1     -33.091   6.533   3.334  1.00 20.00     0.029 C 
HETATM    7  C4  UNL     1     -33.201   5.560   2.151  1.00 20.00     0.014 C 
BRANCH   6   8
HETATM    8  C6  UNL     1     -32.605   7.952   2.921  1.00 20.00    -0.016 C 
HETATM    9  C2  UNL     1     -31.333   8.359   3.672  1.00 20.00     0.010 C 
HETATM   10  C3  UNL     1     -32.387   8.122   1.414  1.00 20.00     0.010 C 
ENDBRANCH   6   8
ENDBRANCH   1   6
TORSDOF 3
ENDMDL
MODEL 7
REMARK VINA RESULT:      -4.8      1.462      2.055
REMARK  3 active torsions:
REMARK  status: ('A' for Active; 'I' for Inactive)
REMARK    1  A    between atoms: C1_1  and  C5_5 
REMARK    2  A    between atoms: C5_5  and  C7_7 
REMARK    3  A    between atoms: C6_6  and  C7_7 
ROOT
HETATM    1  C5  UNL     1     -32.718   9.028   1.800  1.00 20.00     0.274 C 
HETATM    2  F10 UNL     1     -32.121  10.134   2.330  1.00 20.00    -0.238 F 
ENDROOT
BRANCH   1   3
HETATM    3  C1  UNL     1     -32.240   9.003   0.347  1.00 20.00     0.208 C 
HETATM    4  O8  UNL     1     -31.038   8.647   0.192  1.00 20.00    -0.646 OA
HETATM    5  O9  UNL     1     -33.103   9.326  -0.516  1.00 20.00    -0.646 OA
ENDBRANCH   1   3
BRANCH   1   6
HETATM    6  C7  UNL     1     -32.300   7.806   2.635  1.00 20.00     0.029 C 
HETATM    7  C4  UNL     1     -31.337   8.259   3.740  1.00 20.00     0.014 C 
BRANCH   6   8
HETATM    8  C6  UNL     1     -33.519   7.000   3.172  1.00 20.00    -0.016 C 
HETATM    9  C2  UNL     1     -33.418   5.512   2.818  1.00 20.00     0.010 C 
HETATM   10  C3  UNL     1     -33.753   7.154   4.677  1.00 20.00     0.010 C 
ENDBRANCH   6   8
ENDBRANCH   1   6
TORSDOF 3
ENDMDL
MODEL 8
REMARK VINA RESULT:      -4.7      0.429      1.574
REMARK  3 active torsions:
REMARK  status: ('A' for Active; 'I' for Inactive)
REMARK    1  A    between atoms: C1_1  and  C5_5 
REMARK    2  A    between atoms: C5_5  and  C7_7 
REMARK    3  A    between atoms: C6_6  and  C7_7 
ROOT
HETATM    1  C5  UNL     1     -32.410   8.056   3.257  1.00 20.00     0.274 C 
HETATM    2  F10 UNL     1     -31.244   7.353   3.355  1.00 20.00    -0.238 F 
ENDROOT
BRANCH   1   3
HETATM    3  C1  UNL     1     -32.334   8.720   1.881  1.00 20.00     0.208 C 
HETATM    4  O8  UNL     1     -33.273   9.528   1.632  1.00 20.00    -0.646 OA
HETATM    5  O9  UNL     1     -31.343   8.392   1.172  1.00 20.00    -0.646 OA
ENDBRANCH   1   3
BRANCH   1   6
HETATM    6  C7  UNL     1     -33.582   7.075   3.433  1.00 20.00     0.029 C 
HETATM    7  C4  UNL     1     -33.537   6.032   2.307  1.00 20.00     0.014 C 
BRANCH   6   8
HETATM    8  C6  UNL     1     -33.630   6.444   4.855  1.00 20.00    -0.016 C 
HETATM    9  C2  UNL     1     -33.723   7.513   5.949  1.00 20.00     0.010 C 
HETATM   10  C3  UNL     1     -34.751   5.418   5.044  1.00 20.00     0.010 C 
ENDBRANCH   6   8
ENDBRANCH   1   6
TORSDOF 3
ENDMDL
MODEL 9
REMARK VINA RESULT:      -4.7      1.508      2.338
REMARK  3 active torsions:
REMARK  status: ('A' for Active; 'I' for Inactive)
REMARK    1  A    between atoms: C1_1  and  C5_5 
REMARK    2  A    between atoms: C5_5  and  C7_7 
REMARK    3  A    between atoms: C6_6  and  C7_7 
ROOT
HETATM    1  C5  UNL     1     -33.278   7.617   2.909  1.00 20.00     0.274 C 
HETATM    2  F10 UNL     1     -34.033   8.677   3.320  1.00 20.00    -0.238 F 
ENDROOT
BRANCH   1   3
HETATM    3  C1  UNL     1     -31.898   8.221   2.639  1.00 20.00     0.208 C 
HETATM    4  O8  UNL     1     -31.178   8.372   3.666  1.00 20.00    -0.646 OA
HETATM    5  O9  UNL     1     -31.644   8.481   1.430  1.00 20.00    -0.646 OA
ENDBRANCH   1   3
BRANCH   1   6
HETATM    6  C7  UNL     1     -33.306   6.547   4.013  1.00 20.00     0.029 C 
HETATM    7  C4  UNL     1     -33.925   7.150   5.282  1.00 20.00     0.014 C 
BRANCH   6   8
HETATM    8  C6  UNL     1     -33.998   5.230   3.556  1.00 20.00    -0.016 C 
HETATM    9  C2  UNL     1     -33.111   4.422   2.602  1.00 20.00     0.010 C 
HETATM   10  C3  UNL     1     -34.458   4.335   4.710  1.00 20.00     0.010 C 
ENDBRANCH   6   8
ENDBRANCH   1   6
TORSDOF 3
ENDMDL
