MODEL 1
REMARK VINA RESULT:      -4.9      0.000      0.000
REMARK  0 active torsions:
REMARK  status: ('A' for Active; 'I' for Inactive)
ROOT
HETATM    1  C1  UNL     1     -31.545   8.602   1.985  1.00 20.00     0.006 C 
HETATM    2  C2  UNL     1     -33.053   8.333   2.130  1.00 20.00     0.038 C 
HETATM    3  C3  UNL     1     -31.388   8.190   3.458  1.00 20.00     0.038 C 
HETATM    4  C4  UNL     1     -34.960   5.817   3.151  1.00 20.00     0.042 C 
HETATM    5  C5  UNL     1     -33.604   7.469   4.556  1.00 20.00     0.053 C 
HETATM    6  C6  UNL     1     -33.670   5.259   2.548  1.00 20.00     0.170 C 
HETATM    7  C7  UNL     1     -34.744   6.447   4.520  1.00 20.00     0.062 C 
HETATM    8  C8  UNL     1     -32.708   7.373   3.316  1.00 20.00     0.062 C 
HETATM    9  O9  UNL     1     -32.512   5.984   2.958  1.00 20.00    -0.380 OA
HETATM   10 BR10 UNL     1     -34.398   5.022   5.834  1.00 20.00    -0.091 Br
ENDROOT
TORSDOF 0
ENDMDL
MODEL 2
REMARK VINA RESULT:      -4.1     11.300     12.486
REMARK  0 active torsions:
REMARK  status: ('A' for Active; 'I' for Inactive)
ROOT
HETATM    1  C1  UNL     1     -35.505  13.368  -7.167  1.00 20.00     0.006 C 
HETATM    2  C2  UNL     1     -34.229  14.094  -6.705  1.00 20.00     0.038 C 
HETATM    3  C3  UNL     1     -35.954  13.344  -5.697  1.00 20.00     0.038 C 
HETATM    4  C4  UNL     1     -33.511  16.795  -4.918  1.00 20.00     0.042 C 
HETATM    5  C5  UNL     1     -34.291  14.499  -4.104  1.00 20.00     0.053 C 
HETATM    6  C6  UNL     1     -34.847  17.004  -5.632  1.00 20.00     0.170 C 
HETATM    7  C7  UNL     1     -33.616  15.826  -3.748  1.00 20.00     0.062 C 
HETATM    8  C8  UNL     1     -35.026  14.572  -5.447  1.00 20.00     0.062 C 
HETATM    9  O9  UNL     1     -35.687  15.853  -5.577  1.00 20.00    -0.380 OA
HETATM   10 BR10 UNL     1     -34.601  16.697  -2.281  1.00 20.00    -0.091 Br
ENDROOT
TORSDOF 0
ENDMDL
MODEL 3
REMARK VINA RESULT:      -4.1     11.398     12.596
REMARK  0 active torsions:
REMARK  status: ('A' for Active; 'I' for Inactive)
ROOT
HETATM    1  C1  UNL     1     -35.971  13.711  -7.916  1.00 20.00     0.006 C 
HETATM    2  C2  UNL     1     -34.777  13.444  -6.981  1.00 20.00     0.038 C 
HETATM    3  C3  UNL     1     -36.714  14.298  -6.705  1.00 20.00     0.038 C 
HETATM    4  C4  UNL     1     -32.940  15.214  -4.860  1.00 20.00     0.042 C 
HETATM    5  C5  UNL     1     -35.307  14.297  -4.547  1.00 20.00     0.053 C 
HETATM    6  C6  UNL     1     -33.435  16.127  -5.983  1.00 20.00     0.170 C 
HETATM    7  C7  UNL     1     -34.042  14.841  -3.878  1.00 20.00     0.062 C 
HETATM    8  C8  UNL     1     -35.326  14.578  -6.054  1.00 20.00     0.062 C 
HETATM    9  O9  UNL     1     -34.804  15.903  -6.313  1.00 20.00    -0.380 OA
HETATM   10 BR10 UNL     1     -34.495  16.422  -2.793  1.00 20.00    -0.091 Br
ENDROOT
TORSDOF 0
ENDMDL
MODEL 4
REMARK VINA RESULT:      -4.0     11.302     12.382
REMARK  0 active torsions:
REMARK  status: ('A' for Active; 'I' for Inactive)
ROOT
HETATM    1  C1  UNL     1     -35.566  17.043  -1.589  1.00 20.00     0.006 C 
HETATM    2  C2  UNL     1     -34.177  16.667  -2.136  1.00 20.00     0.038 C 
HETATM    3  C3  UNL     1     -35.948  17.471  -3.015  1.00 20.00     0.038 C 
HETATM    4  C4  UNL     1     -32.990  14.779  -4.592  1.00 20.00     0.042 C 
HETATM    5  C5  UNL     1     -34.064  17.096  -4.731  1.00 20.00     0.053 C 
HETATM    6  C6  UNL     1     -34.311  14.189  -4.096  1.00 20.00     0.170 C 
HETATM    7  C7  UNL     1     -33.185  16.045  -5.415  1.00 20.00     0.062 C 
HETATM    8  C8  UNL     1     -34.839  16.512  -3.545  1.00 20.00     0.062 C 
HETATM    9  O9  UNL     1     -35.309  15.183  -3.871  1.00 20.00    -0.380 OA
HETATM   10 BR10 UNL     1     -33.965  15.563  -7.159  1.00 20.00    -0.091 Br
ENDROOT
TORSDOF 0
ENDMDL
MODEL 5
REMARK VINA RESULT:      -4.0     11.413     12.086
REMARK  0 active torsions:
REMARK  status: ('A' for Active; 'I' for Inactive)
ROOT
HETATM    1  C1  UNL     1     -34.445  17.126  -2.434  1.00 20.00     0.006 C 
HETATM    2  C2  UNL     1     -35.529  16.051  -2.634  1.00 20.00     0.038 C 
HETATM    3  C3  UNL     1     -33.540  16.304  -3.367  1.00 20.00     0.038 C 
HETATM    4  C4  UNL     1     -37.028  14.597  -5.212  1.00 20.00     0.042 C 
HETATM    5  C5  UNL     1     -34.680  14.185  -4.286  1.00 20.00     0.053 C 
HETATM    6  C6  UNL     1     -36.634  16.023  -5.597  1.00 20.00     0.170 C 
HETATM    7  C7  UNL     1     -35.833  13.655  -5.143  1.00 20.00     0.062 C 
HETATM    8  C8  UNL     1     -34.829  15.680  -3.983  1.00 20.00     0.062 C 
HETATM    9  O9  UNL     1     -35.324  16.372  -5.154  1.00 20.00    -0.380 OA
HETATM   10 BR10 UNL     1     -35.192  13.300  -6.971  1.00 20.00    -0.091 Br
ENDROOT
TORSDOF 0
ENDMDL
MODEL 6
REMARK VINA RESULT:      -3.9     11.452     12.125
REMARK  0 active torsions:
REMARK  status: ('A' for Active; 'I' for Inactive)
ROOT
HETATM    1  C1  UNL     1     -33.278  17.837  -2.005  1.00 20.00     0.006 C 
HETATM    2  C2  UNL     1     -33.674  17.881  -3.492  1.00 20.00     0.038 C 
HETATM    3  C3  UNL     1     -34.379  16.783  -1.803  1.00 20.00     0.038 C 
HETATM    4  C4  UNL     1     -34.056  15.680  -5.946  1.00 20.00     0.042 C 
HETATM    5  C5  UNL     1     -35.615  16.169  -3.977  1.00 20.00     0.053 C 
HETATM    6  C6  UNL     1     -32.983  15.177  -4.980  1.00 20.00     0.170 C 
HETATM    7  C7  UNL     1     -35.463  15.561  -5.375  1.00 20.00     0.062 C 
HETATM    8  C8  UNL     1     -34.258  16.440  -3.318  1.00 20.00     0.062 C 
HETATM    9  O9  UNL     1     -33.345  15.357  -3.612  1.00 20.00    -0.380 OA
HETATM   10 BR10 UNL     1     -35.977  13.660  -5.329  1.00 20.00    -0.091 Br
ENDROOT
TORSDOF 0
ENDMDL
MODEL 7
REMARK VINA RESULT:      -3.9     11.979     12.628
REMARK  0 active torsions:
REMARK  status: ('A' for Active; 'I' for Inactive)
ROOT
HETATM    1  C1  UNL     1     -34.429  17.785  -0.780  1.00 20.00     0.006 C 
HETATM    2  C2  UNL     1     -35.214  16.748  -1.604  1.00 20.00     0.038 C 
HETATM    3  C3  UNL     1     -33.226  17.520  -1.700  1.00 20.00     0.038 C 
HETATM    4  C4  UNL     1     -35.910  16.252  -4.810  1.00 20.00     0.042 C 
HETATM    5  C5  UNL     1     -33.722  15.809  -3.561  1.00 20.00     0.053 C 
HETATM    6  C6  UNL     1     -35.762  17.752  -4.553  1.00 20.00     0.170 C 
HETATM    7  C7  UNL     1     -34.575  15.519  -4.799  1.00 20.00     0.062 C 
HETATM    8  C8  UNL     1     -34.230  17.031  -2.787  1.00 20.00     0.062 C 
HETATM    9  O9  UNL     1     -34.649  18.060  -3.715  1.00 20.00    -0.380 OA
HETATM   10 BR10 UNL     1     -33.568  15.998  -6.423  1.00 20.00    -0.091 Br
ENDROOT
TORSDOF 0
ENDMDL
MODEL 8
REMARK VINA RESULT:      -3.8     11.542     12.489
REMARK  0 active torsions:
REMARK  status: ('A' for Active; 'I' for Inactive)
ROOT
HETATM    1  C1  UNL     1     -33.777  18.248  -2.757  1.00 20.00     0.006 C 
HETATM    2  C2  UNL     1     -33.640  16.715  -2.718  1.00 20.00     0.038 C 
HETATM    3  C3  UNL     1     -33.452  18.181  -4.258  1.00 20.00     0.038 C 
HETATM    4  C4  UNL     1     -34.923  14.143  -4.375  1.00 20.00     0.042 C 
HETATM    5  C5  UNL     1     -33.103  15.779  -5.120  1.00 20.00     0.053 C 
HETATM    6  C6  UNL     1     -35.943  15.281  -4.343  1.00 20.00     0.170 C 
HETATM    7  C7  UNL     1     -33.768  14.416  -5.330  1.00 20.00     0.062 C 
HETATM    8  C8  UNL     1     -33.958  16.707  -4.250  1.00 20.00     0.062 C 
HETATM    9  O9  UNL     1     -35.355  16.556  -4.596  1.00 20.00    -0.380 OA
HETATM   10 BR10 UNL     1     -34.423  14.277  -7.183  1.00 20.00    -0.091 Br
ENDROOT
TORSDOF 0
ENDMDL
MODEL 9
REMARK VINA RESULT:      -3.6     11.464     12.228
REMARK  0 active torsions:
REMARK  status: ('A' for Active; 'I' for Inactive)
ROOT
HETATM    1  C1  UNL     1     -32.737  15.046  -4.545  1.00 20.00     0.006 C 
HETATM    2  C2  UNL     1     -33.593  15.345  -5.788  1.00 20.00     0.038 C 
HETATM    3  C3  UNL     1     -33.973  15.363  -3.688  1.00 20.00     0.038 C 
HETATM    4  C4  UNL     1     -36.509  14.330  -7.002  1.00 20.00     0.042 C 
HETATM    5  C5  UNL     1     -36.055  15.958  -5.083  1.00 20.00     0.053 C 
HETATM    6  C6  UNL     1     -35.875  13.194  -6.198  1.00 20.00     0.170 C 
HETATM    7  C7  UNL     1     -37.058  15.441  -6.117  1.00 20.00     0.062 C 
HETATM    8  C8  UNL     1     -34.856  15.017  -4.925  1.00 20.00     0.062 C 
HETATM    9  O9  UNL     1     -35.302  13.641  -4.970  1.00 20.00    -0.380 OA
HETATM   10 BR10 UNL     1     -38.676  14.789  -5.201  1.00 20.00    -0.091 Br
ENDROOT
TORSDOF 0
ENDMDL
