MODEL 1
REMARK VINA RESULT:      -5.1      0.000      0.000
REMARK  1 active torsions:
REMARK  status: ('A' for Active; 'I' for Inactive)
REMARK    1  A    between atoms: C6_6  and  C8_8 
ROOT
HETATM    1  C1  UNL     1     -34.034   6.714   5.446  1.00 20.00     0.027 C 
HETATM    2  C2  UNL     1     -33.874   7.754   4.339  1.00 20.00     0.014 C 
HETATM    3  C3  UNL     1     -31.714   7.260   2.980  1.00 20.00     0.018 A 
HETATM    4  C4  UNL     1     -34.690   5.449   4.905  1.00 20.00     0.167 C 
HETATM    5  C5  UNL     1     -33.867   5.829   2.713  1.00 20.00     0.177 C 
HETATM    6  C6  UNL     1     -32.628   7.995   2.036  1.00 20.00     0.011 A 
HETATM    7  C7  UNL     1     -33.215   7.123   3.133  1.00 20.00    -0.014 A 
HETATM    8  O9  UNL     1     -33.929   4.922   3.818  1.00 20.00    -0.390 OA
ENDROOT
BRANCH   6   9
HETATM    9  C8  UNL     1     -32.700   9.482   2.065  1.00 20.00     0.120 C 
HETATM   10 CL10 UNL     1     -32.599  10.167   0.420  1.00 20.00    -0.130 Cl
ENDBRANCH   6   9
TORSDOF 1
ENDMDL
MODEL 2
REMARK VINA RESULT:      -4.5      1.333      2.045
REMARK  1 active torsions:
REMARK  status: ('A' for Active; 'I' for Inactive)
REMARK    1  A    between atoms: C6_6  and  C8_8 
ROOT
HETATM    1  C1  UNL     1     -34.636   4.989   4.075  1.00 20.00     0.027 C 
HETATM    2  C2  UNL     1     -33.468   5.719   3.413  1.00 20.00     0.014 C 
HETATM    3  C3  UNL     1     -34.014   8.253   3.226  1.00 20.00     0.018 A 
HETATM    4  C4  UNL     1     -34.546   5.098   5.593  1.00 20.00     0.167 C 
HETATM    5  C5  UNL     1     -33.359   7.148   5.485  1.00 20.00     0.177 C 
HETATM    6  C6  UNL     1     -32.512   8.164   3.264  1.00 20.00     0.011 A 
HETATM    7  C7  UNL     1     -33.351   7.117   3.976  1.00 20.00    -0.014 A 
HETATM    8  O9  UNL     1     -34.513   6.469   5.990  1.00 20.00    -0.390 OA
ENDROOT
BRANCH   6   9
HETATM    9  C8  UNL     1     -31.745   7.870   2.021  1.00 20.00     0.120 C 
HETATM   10 CL10 UNL     1     -32.003   9.134   0.788  1.00 20.00    -0.130 Cl
ENDBRANCH   6   9
TORSDOF 1
ENDMDL
MODEL 3
REMARK VINA RESULT:      -4.0     10.850     11.680
REMARK  1 active torsions:
REMARK  status: ('A' for Active; 'I' for Inactive)
REMARK    1  A    between atoms: C6_6  and  C8_8 
ROOT
HETATM    1  C1  UNL     1     -35.896  13.266  -5.790  1.00 20.00     0.027 C 
HETATM    2  C2  UNL     1     -35.619  14.442  -4.855  1.00 20.00     0.014 C 
HETATM    3  C3  UNL     1     -33.112  14.439  -4.166  1.00 20.00     0.018 A 
HETATM    4  C4  UNL     1     -35.524  13.621  -7.225  1.00 20.00     0.167 C 
HETATM    5  C5  UNL     1     -33.891  15.193  -6.528  1.00 20.00     0.177 C 
HETATM    6  C6  UNL     1     -33.562  15.872  -4.055  1.00 20.00     0.011 A 
HETATM    7  C7  UNL     1     -34.212  14.951  -5.073  1.00 20.00    -0.014 A 
HETATM    8  O9  UNL     1     -34.153  14.017  -7.298  1.00 20.00    -0.390 OA
ENDROOT
BRANCH   6   9
HETATM    9  C8  UNL     1     -34.269  16.345  -2.832  1.00 20.00     0.120 C 
HETATM   10 CL10 UNL     1     -33.215  17.387  -1.837  1.00 20.00    -0.130 Cl
ENDBRANCH   6   9
TORSDOF 1
ENDMDL
MODEL 4
REMARK VINA RESULT:      -4.0     10.774     11.901
REMARK  1 active torsions:
REMARK  status: ('A' for Active; 'I' for Inactive)
REMARK    1  A    between atoms: C6_6  and  C8_8 
ROOT
HETATM    1  C1  UNL     1     -34.628  15.999  -6.443  1.00 20.00     0.027 C 
HETATM    2  C2  UNL     1     -33.930  16.736  -5.301  1.00 20.00     0.014 C 
HETATM    3  C3  UNL     1     -35.085  16.150  -3.047  1.00 20.00     0.018 A 
HETATM    4  C4  UNL     1     -34.098  14.575  -6.567  1.00 20.00     0.167 C 
HETATM    5  C5  UNL     1     -33.519  14.474  -4.269  1.00 20.00     0.177 C 
HETATM    6  C6  UNL     1     -33.669  16.519  -2.693  1.00 20.00     0.011 A 
HETATM    7  C7  UNL     1     -33.974  15.896  -4.045  1.00 20.00    -0.014 A 
HETATM    8  O9  UNL     1     -34.265  13.875  -5.333  1.00 20.00    -0.390 OA
ENDROOT
BRANCH   6   9
HETATM    9  C8  UNL     1     -33.281  17.949  -2.537  1.00 20.00     0.120 C 
HETATM   10 CL10 UNL     1     -32.433  18.223  -0.990  1.00 20.00    -0.130 Cl
ENDBRANCH   6   9
TORSDOF 1
ENDMDL
MODEL 5
REMARK VINA RESULT:      -3.9     10.908     11.829
REMARK  1 active torsions:
REMARK  status: ('A' for Active; 'I' for Inactive)
REMARK    1  A    between atoms: C6_6  and  C8_8 
ROOT
HETATM    1  C1  UNL     1     -33.932  15.061  -7.014  1.00 20.00     0.027 C 
HETATM    2  C2  UNL     1     -33.565  15.469  -5.587  1.00 20.00     0.014 C 
HETATM    3  C3  UNL     1     -35.679  16.349  -4.358  1.00 20.00     0.018 A 
HETATM    4  C4  UNL     1     -34.508  13.650  -7.039  1.00 20.00     0.167 C 
HETATM    5  C5  UNL     1     -35.304  13.818  -4.811  1.00 20.00     0.177 C 
HETATM    6  C6  UNL     1     -34.769  15.830  -3.278  1.00 20.00     0.011 A 
HETATM    7  C7  UNL     1     -34.732  15.207  -4.663  1.00 20.00    -0.014 A 
HETATM    8  O9  UNL     1     -35.643  13.563  -6.177  1.00 20.00    -0.390 OA
ENDROOT
BRANCH   6   9
HETATM    9  C8  UNL     1     -33.667  16.682  -2.750  1.00 20.00     0.120 C 
HETATM   10 CL10 UNL     1     -34.056  17.311  -1.125  1.00 20.00    -0.130 Cl
ENDBRANCH   6   9
TORSDOF 1
ENDMDL
MODEL 6
REMARK VINA RESULT:      -3.9     10.832     11.808
REMARK  1 active torsions:
REMARK  status: ('A' for Active; 'I' for Inactive)
REMARK    1  A    between atoms: C6_6  and  C8_8 
ROOT
HETATM    1  C1  UNL     1     -34.386  14.327  -4.168  1.00 20.00     0.027 C 
HETATM    2  C2  UNL     1     -35.159  15.479  -3.530  1.00 20.00     0.014 C 
HETATM    3  C3  UNL     1     -33.529  16.976  -2.166  1.00 20.00     0.018 A 
HETATM    4  C4  UNL     1     -33.737  14.772  -5.473  1.00 20.00     0.167 C 
HETATM    5  C5  UNL     1     -33.602  17.031  -4.763  1.00 20.00     0.177 C 
HETATM    6  C6  UNL     1     -34.669  17.876  -2.564  1.00 20.00     0.011 A 
HETATM    7  C7  UNL     1     -34.280  16.707  -3.454  1.00 20.00    -0.014 A 
HETATM    8  O9  UNL     1     -32.882  15.893  -5.244  1.00 20.00    -0.390 OA
ENDROOT
BRANCH   6   9
HETATM    9  C8  UNL     1     -35.926  17.895  -1.766  1.00 20.00     0.120 C 
HETATM   10 CL10 UNL     1     -35.644  17.317  -0.101  1.00 20.00    -0.130 Cl
ENDBRANCH   6   9
TORSDOF 1
ENDMDL
MODEL 7
REMARK VINA RESULT:      -3.8     10.816     11.841
REMARK  1 active torsions:
REMARK  status: ('A' for Active; 'I' for Inactive)
REMARK    1  A    between atoms: C6_6  and  C8_8 
ROOT
HETATM    1  C1  UNL     1     -37.475  15.923  -4.065  1.00 20.00     0.027 C 
HETATM    2  C2  UNL     1     -36.162  16.103  -4.826  1.00 20.00     0.014 C 
HETATM    3  C3  UNL     1     -34.516  14.193  -4.194  1.00 20.00     0.018 A 
HETATM    4  C4  UNL     1     -38.382  14.932  -4.785  1.00 20.00     0.167 C 
HETATM    5  C5  UNL     1     -36.546  13.797  -5.767  1.00 20.00     0.177 C 
HETATM    6  C6  UNL     1     -34.109  14.638  -5.573  1.00 20.00     0.011 A 
HETATM    7  C7  UNL     1     -35.561  14.751  -5.138  1.00 20.00    -0.014 A 
HETATM    8  O9  UNL     1     -37.715  13.680  -4.951  1.00 20.00    -0.390 OA
ENDROOT
BRANCH   6   9
HETATM    9  C8  UNL     1     -33.229  15.827  -5.750  1.00 20.00     0.120 C 
HETATM   10 CL10 UNL     1     -33.608  16.694  -7.263  1.00 20.00    -0.130 Cl
ENDBRANCH   6   9
TORSDOF 1
ENDMDL
MODEL 8
REMARK VINA RESULT:      -3.7     11.042     11.649
REMARK  1 active torsions:
REMARK  status: ('A' for Active; 'I' for Inactive)
REMARK    1  A    between atoms: C6_6  and  C8_8 
ROOT
HETATM    1  C1  UNL     1     -35.332  18.094   0.051  1.00 20.00     0.027 C 
HETATM    2  C2  UNL     1     -35.028  16.993  -0.964  1.00 20.00     0.014 C 
HETATM    3  C3  UNL     1     -34.306  18.062  -3.221  1.00 20.00     0.018 A 
HETATM    4  C4  UNL     1     -34.051  18.581   0.717  1.00 20.00     0.167 C 
HETATM    5  C5  UNL     1     -32.724  17.996  -1.160  1.00 20.00     0.177 C 
HETATM    6  C6  UNL     1     -33.662  16.701  -3.193  1.00 20.00     0.011 A 
HETATM    7  C7  UNL     1     -33.923  17.443  -1.893  1.00 20.00    -0.014 A 
HETATM    8  O9  UNL     1     -33.124  19.040  -0.269  1.00 20.00    -0.390 OA
ENDROOT
BRANCH   6   9
HETATM    9  C8  UNL     1     -34.436  15.495  -3.598  1.00 20.00     0.120 C 
HETATM   10 CL10 UNL     1     -33.389  14.297  -4.409  1.00 20.00    -0.130 Cl
ENDBRANCH   6   9
TORSDOF 1
ENDMDL
MODEL 9
REMARK VINA RESULT:      -3.7     10.937     11.650
REMARK  1 active torsions:
REMARK  status: ('A' for Active; 'I' for Inactive)
REMARK    1  A    between atoms: C6_6  and  C8_8 
ROOT
HETATM    1  C1  UNL     1     -36.715  14.799  -4.718  1.00 20.00     0.027 C 
HETATM    2  C2  UNL     1     -35.917  16.102  -4.686  1.00 20.00     0.014 C 
HETATM    3  C3  UNL     1     -34.711  16.333  -2.395  1.00 20.00     0.018 A 
HETATM    4  C4  UNL     1     -35.817  13.628  -5.098  1.00 20.00     0.167 C 
HETATM    5  C5  UNL     1     -33.881  14.689  -4.230  1.00 20.00     0.177 C 
HETATM    6  C6  UNL     1     -33.884  17.128  -3.370  1.00 20.00     0.011 A 
HETATM    7  C7  UNL     1     -34.670  15.919  -3.852  1.00 20.00    -0.014 A 
HETATM    8  O9  UNL     1     -34.719  13.530  -4.190  1.00 20.00    -0.390 OA
ENDROOT
BRANCH   6   9
HETATM    9  C8  UNL     1     -34.267  18.525  -3.716  1.00 20.00     0.120 C 
HETATM   10 CL10 UNL     1     -33.666  18.979  -5.334  1.00 20.00    -0.130 Cl
ENDBRANCH   6   9
TORSDOF 1
ENDMDL
