MODEL 1
REMARK VINA RESULT:      -4.7      0.000      0.000
REMARK  1 active torsions:
REMARK  status: ('A' for Active; 'I' for Inactive)
REMARK    1  A    between atoms: C4_4  and  C10_10 
ROOT
HETATM    1  C1  UNL     1     -32.847   6.703   2.286  1.00 20.00     0.006 C 
HETATM    2  C2  UNL     1     -33.328   5.361   2.833  1.00 20.00     0.009 C 
HETATM    3  C3  UNL     1     -33.636   6.402   5.111  1.00 20.00     0.013 C 
HETATM    4  C4  UNL     1     -32.196   7.572   3.374  1.00 20.00    -0.001 C 
HETATM    5  C5  UNL     1     -33.151   7.764   4.576  1.00 20.00    -0.013 C 
HETATM    6  C6  UNL     1     -34.283   5.500   4.036  1.00 20.00    -0.047 C 
HETATM    7  C7  UNL     1     -32.499   8.549   5.720  1.00 20.00     0.010 C 
HETATM    8  C8  UNL     1     -34.532   4.104   4.640  1.00 20.00     0.015 C 
HETATM    9  C9  UNL     1     -35.643   6.070   3.592  1.00 20.00     0.015 C 
ENDROOT
BRANCH   4  10
HETATM   10  C10 UNL     1     -31.751   8.903   2.759  1.00 20.00     0.090 C 
HETATM   11 BR11 UNL     1     -32.451   9.040   0.958  1.00 20.00    -0.096 Br
ENDBRANCH   4  10
TORSDOF 1
ENDMDL
MODEL 2
REMARK VINA RESULT:      -4.5     11.548     12.168
REMARK  1 active torsions:
REMARK  status: ('A' for Active; 'I' for Inactive)
REMARK    1  A    between atoms: C4_4  and  C10_10 
ROOT
HETATM    1  C1  UNL     1     -32.831  18.279  -1.410  1.00 20.00     0.006 C 
HETATM    2  C2  UNL     1     -33.254  17.179  -2.382  1.00 20.00     0.009 C 
HETATM    3  C3  UNL     1     -35.446  16.942  -1.156  1.00 20.00     0.013 C 
HETATM    4  C4  UNL     1     -33.495  18.122  -0.033  1.00 20.00    -0.001 C 
HETATM    5  C5  UNL     1     -35.035  18.049  -0.165  1.00 20.00    -0.013 C 
HETATM    6  C6  UNL     1     -34.783  17.065  -2.546  1.00 20.00    -0.047 C 
HETATM    7  C7  UNL     1     -35.724  17.799   1.181  1.00 20.00     0.010 C 
HETATM    8  C8  UNL     1     -35.103  15.801  -3.366  1.00 20.00     0.015 C 
HETATM    9  C9  UNL     1     -35.342  18.279  -3.312  1.00 20.00     0.015 C 
ENDROOT
BRANCH   4  10
HETATM   10  C10 UNL     1     -33.038  19.263   0.882  1.00 20.00     0.090 C 
HETATM   11 BR11 UNL     1     -31.215  18.935   1.452  1.00 20.00    -0.096 Br
ENDBRANCH   4  10
TORSDOF 1
ENDMDL
MODEL 3
REMARK VINA RESULT:      -4.1     11.561     12.627
REMARK  1 active torsions:
REMARK  status: ('A' for Active; 'I' for Inactive)
REMARK    1  A    between atoms: C4_4  and  C10_10 
ROOT
HETATM    1  C1  UNL     1     -33.756  15.449  -3.762  1.00 20.00     0.006 C 
HETATM    2  C2  UNL     1     -33.613  14.483  -4.937  1.00 20.00     0.009 C 
HETATM    3  C3  UNL     1     -35.857  15.226  -5.819  1.00 20.00     0.013 C 
HETATM    4  C4  UNL     1     -35.228  15.712  -3.405  1.00 20.00    -0.001 C 
HETATM    5  C5  UNL     1     -36.018  16.206  -4.640  1.00 20.00    -0.013 C 
HETATM    6  C6  UNL     1     -34.387  14.931  -6.193  1.00 20.00    -0.047 C 
HETATM    7  C7  UNL     1     -37.510  16.390  -4.341  1.00 20.00     0.010 C 
HETATM    8  C8  UNL     1     -34.354  13.793  -7.231  1.00 20.00     0.015 C 
HETATM    9  C9  UNL     1     -33.726  16.169  -6.829  1.00 20.00     0.015 C 
ENDROOT
BRANCH   4  10
HETATM   10  C10 UNL     1     -35.295  16.696  -2.233  1.00 20.00     0.090 C 
HETATM   11 BR11 UNL     1     -33.526  17.414  -1.897  1.00 20.00    -0.096 Br
ENDBRANCH   4  10
TORSDOF 1
ENDMDL
MODEL 4
REMARK VINA RESULT:      -4.1     11.463     13.050
REMARK  1 active torsions:
REMARK  status: ('A' for Active; 'I' for Inactive)
REMARK    1  A    between atoms: C4_4  and  C10_10 
ROOT
HETATM    1  C1  UNL     1     -33.762  14.541  -5.201  1.00 20.00     0.006 C 
HETATM    2  C2  UNL     1     -33.403  15.119  -3.834  1.00 20.00     0.009 C 
HETATM    3  C3  UNL     1     -33.940  17.437  -4.675  1.00 20.00     0.013 C 
HETATM    4  C4  UNL     1     -33.540  15.554  -6.335  1.00 20.00    -0.001 C 
HETATM    5  C5  UNL     1     -34.306  16.870  -6.061  1.00 20.00    -0.013 C 
HETATM    6  C6  UNL     1     -34.141  16.435  -3.515  1.00 20.00    -0.047 C 
HETATM    7  C7  UNL     1     -34.032  17.937  -7.127  1.00 20.00     0.010 C 
HETATM    8  C8  UNL     1     -33.550  17.039  -2.227  1.00 20.00     0.015 C 
HETATM    9  C9  UNL     1     -35.639  16.176  -3.271  1.00 20.00     0.015 C 
ENDROOT
BRANCH   4  10
HETATM   10  C10 UNL     1     -33.933  14.913  -7.670  1.00 20.00     0.090 C 
HETATM   11 BR11 UNL     1     -35.035  13.356  -7.332  1.00 20.00    -0.096 Br
ENDBRANCH   4  10
TORSDOF 1
ENDMDL
MODEL 5
REMARK VINA RESULT:      -4.1     11.702     12.448
REMARK  1 active torsions:
REMARK  status: ('A' for Active; 'I' for Inactive)
REMARK    1  A    between atoms: C4_4  and  C10_10 
ROOT
HETATM    1  C1  UNL     1     -36.326  16.351  -3.223  1.00 20.00     0.006 C 
HETATM    2  C2  UNL     1     -35.764  16.917  -1.920  1.00 20.00     0.009 C 
HETATM    3  C3  UNL     1     -33.419  16.578  -2.787  1.00 20.00     0.013 C 
HETATM    4  C4  UNL     1     -35.358  15.360  -3.889  1.00 20.00    -0.001 C 
HETATM    5  C5  UNL     1     -33.968  16.003  -4.107  1.00 20.00    -0.013 C 
HETATM    6  C6  UNL     1     -34.376  17.568  -2.086  1.00 20.00    -0.047 C 
HETATM    7  C7  UNL     1     -32.951  15.013  -4.685  1.00 20.00     0.010 C 
HETATM    8  C8  UNL     1     -33.814  17.906  -0.692  1.00 20.00     0.015 C 
HETATM    9  C9  UNL     1     -34.481  18.882  -2.883  1.00 20.00     0.015 C 
ENDROOT
BRANCH   4  10
HETATM   10  C10 UNL     1     -35.978  14.846  -5.192  1.00 20.00     0.090 C 
HETATM   11 BR11 UNL     1     -37.898  14.703  -4.974  1.00 20.00    -0.096 Br
ENDBRANCH   4  10
TORSDOF 1
ENDMDL
MODEL 6
REMARK VINA RESULT:      -4.1      2.361      4.360
REMARK  1 active torsions:
REMARK  status: ('A' for Active; 'I' for Inactive)
REMARK    1  A    between atoms: C4_4  and  C10_10 
ROOT
HETATM    1  C1  UNL     1     -32.109   8.363   4.438  1.00 20.00     0.006 C 
HETATM    2  C2  UNL     1     -31.283   8.518   3.162  1.00 20.00     0.009 C 
HETATM    3  C3  UNL     1     -33.127   7.418   1.837  1.00 20.00     0.013 C 
HETATM    4  C4  UNL     1     -33.066   7.163   4.365  1.00 20.00    -0.001 C 
HETATM    5  C5  UNL     1     -33.973   7.252   3.115  1.00 20.00    -0.013 C 
HETATM    6  C6  UNL     1     -32.144   8.609   1.886  1.00 20.00    -0.047 C 
HETATM    7  C7  UNL     1     -34.877   6.024   2.962  1.00 20.00     0.010 C 
HETATM    8  C8  UNL     1     -31.219   8.544   0.655  1.00 20.00     0.015 C 
HETATM    9  C9  UNL     1     -32.905   9.947   1.834  1.00 20.00     0.015 C 
ENDROOT
BRANCH   4  10
HETATM   10  C10 UNL     1     -33.869   7.077   5.668  1.00 20.00     0.090 C 
HETATM   11 BR11 UNL     1     -34.518   5.267   5.901  1.00 20.00    -0.096 Br
ENDBRANCH   4  10
TORSDOF 1
ENDMDL
MODEL 7
REMARK VINA RESULT:      -4.0     11.154     12.787
REMARK  1 active torsions:
REMARK  status: ('A' for Active; 'I' for Inactive)
REMARK    1  A    between atoms: C4_4  and  C10_10 
ROOT
HETATM    1  C1  UNL     1     -33.716  17.856  -4.717  1.00 20.00     0.006 C 
HETATM    2  C2  UNL     1     -34.554  18.442  -3.582  1.00 20.00     0.009 C 
HETATM    3  C3  UNL     1     -34.950  16.119  -2.679  1.00 20.00     0.013 C 
HETATM    4  C4  UNL     1     -34.140  16.422  -5.069  1.00 20.00    -0.001 C 
HETATM    5  C5  UNL     1     -34.109  15.511  -3.819  1.00 20.00    -0.013 C 
HETATM    6  C6  UNL     1     -34.556  17.567  -2.312  1.00 20.00    -0.047 C 
HETATM    7  C7  UNL     1     -34.614  14.095  -4.116  1.00 20.00     0.010 C 
HETATM    8  C8  UNL     1     -35.592  18.130  -1.320  1.00 20.00     0.015 C 
HETATM    9  C9  UNL     1     -33.178  17.600  -1.623  1.00 20.00     0.015 C 
ENDROOT
BRANCH   4  10
HETATM   10  C10 UNL     1     -33.251  15.896  -6.201  1.00 20.00     0.090 C 
HETATM   11 BR11 UNL     1     -34.358  15.437  -7.723  1.00 20.00    -0.096 Br
ENDBRANCH   4  10
TORSDOF 1
ENDMDL
MODEL 8
REMARK VINA RESULT:      -3.9     10.996     12.399
REMARK  1 active torsions:
REMARK  status: ('A' for Active; 'I' for Inactive)
REMARK    1  A    between atoms: C4_4  and  C10_10 
ROOT
HETATM    1  C1  UNL     1     -35.568  16.736  -4.383  1.00 20.00     0.006 C 
HETATM    2  C2  UNL     1     -36.091  16.342  -5.763  1.00 20.00     0.009 C 
HETATM    3  C3  UNL     1     -34.623  14.290  -5.731  1.00 20.00     0.013 C 
HETATM    4  C4  UNL     1     -34.148  16.205  -4.129  1.00 20.00    -0.001 C 
HETATM    5  C5  UNL     1     -34.083  14.673  -4.340  1.00 20.00    -0.013 C 
HETATM    6  C6  UNL     1     -36.044  14.823  -6.022  1.00 20.00    -0.047 C 
HETATM    7  C7  UNL     1     -32.661  14.123  -4.184  1.00 20.00     0.010 C 
HETATM    8  C8  UNL     1     -36.384  14.558  -7.501  1.00 20.00     0.015 C 
HETATM    9  C9  UNL     1     -37.088  14.089  -5.160  1.00 20.00     0.015 C 
ENDROOT
BRANCH   4  10
HETATM   10  C10 UNL     1     -33.695  16.624  -2.727  1.00 20.00     0.090 C 
HETATM   11 BR11 UNL     1     -35.252  16.892  -1.605  1.00 20.00    -0.096 Br
ENDBRANCH   4  10
TORSDOF 1
ENDMDL
MODEL 9
REMARK VINA RESULT:      -3.9     11.204     12.176
REMARK  1 active torsions:
REMARK  status: ('A' for Active; 'I' for Inactive)
REMARK    1  A    between atoms: C4_4  and  C10_10 
ROOT
HETATM    1  C1  UNL     1     -33.675  15.852  -3.454  1.00 20.00     0.006 C 
HETATM    2  C2  UNL     1     -34.232  14.549  -4.024  1.00 20.00     0.009 C 
HETATM    3  C3  UNL     1     -36.515  15.608  -4.206  1.00 20.00     0.013 C 
HETATM    4  C4  UNL     1     -34.749  16.669  -2.718  1.00 20.00    -0.001 C 
HETATM    5  C5  UNL     1     -35.970  16.930  -3.631  1.00 20.00    -0.013 C 
HETATM    6  C6  UNL     1     -35.454  14.758  -4.941  1.00 20.00    -0.047 C 
HETATM    7  C7  UNL     1     -37.099  17.663  -2.899  1.00 20.00     0.010 C 
HETATM    8  C8  UNL     1     -36.063  13.385  -5.281  1.00 20.00     0.015 C 
HETATM    9  C9  UNL     1     -35.037  15.430  -6.263  1.00 20.00     0.015 C 
ENDROOT
BRANCH   4  10
HETATM   10  C10 UNL     1     -34.124  17.963  -2.187  1.00 20.00     0.090 C 
HETATM   11 BR11 UNL     1     -34.290  18.009  -0.257  1.00 20.00    -0.096 Br
ENDBRANCH   4  10
TORSDOF 1
ENDMDL
