MODEL 1
REMARK VINA RESULT:      -5.5      0.000      0.000
REMARK  1 active torsions:
REMARK  status: ('A' for Active; 'I' for Inactive)
REMARK    1  A    between atoms: C5_5  and  C7_7 
ROOT
HETATM    1  C1  UNL     1     -34.862   4.902   5.667  1.00 20.00     0.002 C 
HETATM    2  C2  UNL     1     -34.151   6.248   5.451  1.00 20.00     0.010 C 
HETATM    3  C3  UNL     1     -34.153   4.380   4.406  1.00 20.00     0.010 C 
HETATM    4  C4  UNL     1     -34.651   6.473   2.852  1.00 20.00     0.016 A 
HETATM    5  C5  UNL     1     -33.150   6.384   2.973  1.00 20.00     0.005 A 
HETATM    6  C6  UNL     1     -34.023   5.811   4.040  1.00 20.00    -0.036 A 
ENDROOT
BRANCH   5   7
HETATM    7  C7  UNL     1     -32.347   7.615   3.215  1.00 20.00     0.090 C 
HETATM    8 BR8  UNL     1     -32.043   8.572   1.542  1.00 20.00    -0.096 Br
ENDBRANCH   5   7
TORSDOF 1
ENDMDL
MODEL 2
REMARK VINA RESULT:      -5.3      1.157      1.685
REMARK  1 active torsions:
REMARK  status: ('A' for Active; 'I' for Inactive)
REMARK    1  A    between atoms: C5_5  and  C7_7 
ROOT
HETATM    1  C1  UNL     1     -34.483   4.454   4.240  1.00 20.00     0.002 C 
HETATM    2  C2  UNL     1     -33.295   5.005   3.433  1.00 20.00     0.010 C 
HETATM    3  C3  UNL     1     -35.189   5.804   4.030  1.00 20.00     0.010 C 
HETATM    4  C4  UNL     1     -33.129   7.358   4.652  1.00 20.00     0.016 A 
HETATM    5  C5  UNL     1     -33.473   7.666   3.216  1.00 20.00     0.005 A 
HETATM    6  C6  UNL     1     -33.825   6.339   3.803  1.00 20.00    -0.036 A 
ENDROOT
BRANCH   5   7
HETATM    7  C7  UNL     1     -32.389   7.794   2.201  1.00 20.00     0.090 C 
HETATM    8 BR8  UNL     1     -32.473   9.539   1.330  1.00 20.00    -0.096 Br
ENDBRANCH   5   7
TORSDOF 1
ENDMDL
MODEL 3
REMARK VINA RESULT:      -5.1      2.528      4.061
REMARK  1 active torsions:
REMARK  status: ('A' for Active; 'I' for Inactive)
REMARK    1  A    between atoms: C5_5  and  C7_7 
ROOT
HETATM    1  C1  UNL     1     -31.412   8.686   2.002  1.00 20.00     0.002 C 
HETATM    2  C2  UNL     1     -31.600   8.152   3.432  1.00 20.00     0.010 C 
HETATM    3  C3  UNL     1     -32.922   8.489   1.782  1.00 20.00     0.010 C 
HETATM    4  C4  UNL     1     -33.090   6.045   2.805  1.00 20.00     0.016 A 
HETATM    5  C5  UNL     1     -33.966   6.924   3.663  1.00 20.00     0.005 A 
HETATM    6  C6  UNL     1     -32.828   7.517   2.899  1.00 20.00    -0.036 A 
ENDROOT
BRANCH   5   7
HETATM    7  C7  UNL     1     -33.915   6.805   5.148  1.00 20.00     0.090 C 
HETATM    8 BR8  UNL     1     -34.591   5.065   5.716  1.00 20.00    -0.096 Br
ENDBRANCH   5   7
TORSDOF 1
ENDMDL
MODEL 4
REMARK VINA RESULT:      -5.0      2.603      4.711
REMARK  1 active torsions:
REMARK  status: ('A' for Active; 'I' for Inactive)
REMARK    1  A    between atoms: C5_5  and  C7_7 
ROOT
HETATM    1  C1  UNL     1     -32.171  10.077   0.614  1.00 20.00     0.002 C 
HETATM    2  C2  UNL     1     -33.148   9.746   1.756  1.00 20.00     0.010 C 
HETATM    3  C3  UNL     1     -31.725   8.605   0.634  1.00 20.00     0.010 C 
HETATM    4  C4  UNL     1     -31.442   8.378   3.264  1.00 20.00     0.016 A 
HETATM    5  C5  UNL     1     -32.516   7.395   2.868  1.00 20.00     0.005 A 
HETATM    6  C6  UNL     1     -32.250   8.597   2.021  1.00 20.00    -0.036 A 
ENDROOT
BRANCH   5   7
HETATM    7  C7  UNL     1     -33.761   7.286   3.677  1.00 20.00     0.090 C 
HETATM    8 BR8  UNL     1     -34.317   5.421   3.827  1.00 20.00    -0.096 Br
ENDBRANCH   5   7
TORSDOF 1
ENDMDL
MODEL 5
REMARK VINA RESULT:      -4.4      1.979      3.637
REMARK  1 active torsions:
REMARK  status: ('A' for Active; 'I' for Inactive)
REMARK    1  A    between atoms: C5_5  and  C7_7 
ROOT
HETATM    1  C1  UNL     1     -31.724   8.412   2.387  1.00 20.00     0.002 C 
HETATM    2  C2  UNL     1     -32.028   7.633   3.679  1.00 20.00     0.010 C 
HETATM    3  C3  UNL     1     -33.145   8.071   1.906  1.00 20.00     0.010 C 
HETATM    4  C4  UNL     1     -33.099   5.492   2.530  1.00 20.00     0.016 A 
HETATM    5  C5  UNL     1     -34.202   6.107   3.356  1.00 20.00     0.005 A 
HETATM    6  C6  UNL     1     -33.067   6.949   2.873  1.00 20.00    -0.036 A 
ENDROOT
BRANCH   5   7
HETATM    7  C7  UNL     1     -34.339   5.755   4.797  1.00 20.00     0.090 C 
HETATM    8 BR8  UNL     1     -33.866   7.280   5.920  1.00 20.00    -0.096 Br
ENDBRANCH   5   7
TORSDOF 1
ENDMDL
MODEL 6
REMARK VINA RESULT:      -4.0      2.307      3.815
REMARK  1 active torsions:
REMARK  status: ('A' for Active; 'I' for Inactive)
REMARK    1  A    between atoms: C5_5  and  C7_7 
ROOT
HETATM    1  C1  UNL     1     -32.684   8.077   2.432  1.00 20.00     0.002 C 
HETATM    2  C2  UNL     1     -33.846   7.209   2.943  1.00 20.00     0.010 C 
HETATM    3  C3  UNL     1     -31.888   7.660   3.681  1.00 20.00     0.010 C 
HETATM    4  C4  UNL     1     -33.818   8.064   5.457  1.00 20.00     0.016 A 
HETATM    5  C5  UNL     1     -33.484   6.594   5.522  1.00 20.00     0.005 A 
HETATM    6  C6  UNL     1     -33.215   7.370   4.275  1.00 20.00    -0.036 A 
ENDROOT
BRANCH   5   7
HETATM    7  C7  UNL     1     -34.577   5.583   5.578  1.00 20.00     0.090 C 
HETATM    8 BR8  UNL     1     -34.176   4.079   4.402  1.00 20.00    -0.096 Br
ENDBRANCH   5   7
TORSDOF 1
ENDMDL
MODEL 7
REMARK VINA RESULT:      -3.8     12.236     12.852
REMARK  1 active torsions:
REMARK  status: ('A' for Active; 'I' for Inactive)
REMARK    1  A    between atoms: C5_5  and  C7_7 
ROOT
HETATM    1  C1  UNL     1     -35.137  16.495  -2.431  1.00 20.00     0.002 C 
HETATM    2  C2  UNL     1     -35.038  17.178  -1.056  1.00 20.00     0.010 C 
HETATM    3  C3  UNL     1     -33.617  16.684  -2.580  1.00 20.00     0.010 C 
HETATM    4  C4  UNL     1     -33.521  19.223  -1.811  1.00 20.00     0.016 A 
HETATM    5  C5  UNL     1     -32.695  18.448  -0.814  1.00 20.00     0.005 A 
HETATM    6  C6  UNL     1     -33.782  17.766  -1.579  1.00 20.00    -0.036 A 
ENDROOT
BRANCH   5   7
HETATM    7  C7  UNL     1     -32.836  18.721   0.643  1.00 20.00     0.090 C 
HETATM    8 BR8  UNL     1     -31.080  18.906   1.476  1.00 20.00    -0.096 Br
ENDBRANCH   5   7
TORSDOF 1
ENDMDL
MODEL 8
REMARK VINA RESULT:      -3.7     11.905     12.413
REMARK  1 active torsions:
REMARK  status: ('A' for Active; 'I' for Inactive)
REMARK    1  A    between atoms: C5_5  and  C7_7 
ROOT
HETATM    1  C1  UNL     1     -33.990  17.808  -1.056  1.00 20.00     0.002 C 
HETATM    2  C2  UNL     1     -33.527  16.967  -2.257  1.00 20.00     0.010 C 
HETATM    3  C3  UNL     1     -35.308  17.015  -1.071  1.00 20.00     0.010 C 
HETATM    4  C4  UNL     1     -35.760  17.169  -3.681  1.00 20.00     0.016 A 
HETATM    5  C5  UNL     1     -35.609  15.702  -3.364  1.00 20.00     0.005 A 
HETATM    6  C6  UNL     1     -34.972  16.728  -2.486  1.00 20.00    -0.036 A 
ENDROOT
BRANCH   5   7
HETATM    7  C7  UNL     1     -34.786  14.829  -4.248  1.00 20.00     0.090 C 
HETATM    8 BR8  UNL     1     -35.928  13.609  -5.256  1.00 20.00    -0.096 Br
ENDBRANCH   5   7
TORSDOF 1
ENDMDL
MODEL 9
REMARK VINA RESULT:      -3.6     12.076     12.872
REMARK  1 active torsions:
REMARK  status: ('A' for Active; 'I' for Inactive)
REMARK    1  A    between atoms: C5_5  and  C7_7 
ROOT
HETATM    1  C1  UNL     1     -35.097  16.289  -2.427  1.00 20.00     0.002 C 
HETATM    2  C2  UNL     1     -35.344  15.857  -3.882  1.00 20.00     0.010 C 
HETATM    3  C3  UNL     1     -33.665  16.675  -2.837  1.00 20.00     0.010 C 
HETATM    4  C4  UNL     1     -33.103  14.469  -4.201  1.00 20.00     0.016 A 
HETATM    5  C5  UNL     1     -33.022  15.608  -5.187  1.00 20.00     0.005 A 
HETATM    6  C6  UNL     1     -33.870  15.734  -3.964  1.00 20.00    -0.036 A 
ENDROOT
BRANCH   5   7
HETATM    7  C7  UNL     1     -33.636  15.471  -6.537  1.00 20.00     0.090 C 
HETATM    8 BR8  UNL     1     -34.048  17.227  -7.281  1.00 20.00    -0.096 Br
ENDBRANCH   5   7
TORSDOF 1
ENDMDL
