MODEL 1
REMARK VINA RESULT:      -5.9      0.000      0.000
REMARK  2 active torsions:
REMARK  status: ('A' for Active; 'I' for Inactive)
REMARK    1  A    between atoms: C5_5  and  C6_6 
REMARK    2  A    between atoms: C7_7  and  C8_8 
ROOT
HETATM    1  C4  UNL     1     -31.663   7.994   3.683  1.00 20.00     0.011 A 
HETATM    2  C6  UNL     1     -32.884   7.279   3.182  1.00 20.00    -0.005 A 
HETATM    3  C7  UNL     1     -32.437   8.550   2.517  1.00 20.00     0.004 A 
ENDROOT
BRANCH   2   4
HETATM    4  C5  UNL     1     -34.170   7.184   3.989  1.00 20.00    -0.010 C 
HETATM    5  C2  UNL     1     -34.017   6.714   5.457  1.00 20.00     0.005 C 
HETATM    6  C1  UNL     1     -34.343   5.286   4.978  1.00 20.00     0.001 C 
HETATM    7  C3  UNL     1     -35.030   5.918   3.751  1.00 20.00     0.005 C 
ENDBRANCH   2   4
BRANCH   3   8
HETATM    8  C8  UNL     1     -31.861   8.508   1.145  1.00 20.00     0.119 C 
HETATM    9 CL9  UNL     1     -32.776   9.554   0.025  1.00 20.00    -0.130 Cl
ENDBRANCH   3   8
TORSDOF 2
ENDMDL
MODEL 2
REMARK VINA RESULT:      -5.3      2.575      4.502
REMARK  2 active torsions:
REMARK  status: ('A' for Active; 'I' for Inactive)
REMARK    1  A    between atoms: C5_5  and  C6_6 
REMARK    2  A    between atoms: C7_7  and  C8_8 
ROOT
HETATM    1  C4  UNL     1     -32.778   7.605   4.037  1.00 20.00     0.011 A 
HETATM    2  C6  UNL     1     -33.066   8.162   2.674  1.00 20.00    -0.005 A 
HETATM    3  C7  UNL     1     -32.867   6.684   2.850  1.00 20.00     0.004 A 
ENDROOT
BRANCH   2   4
HETATM    4  C5  UNL     1     -32.078   9.038   1.918  1.00 20.00    -0.010 C 
HETATM    5  C2  UNL     1     -32.668  10.302   1.246  1.00 20.00     0.005 C 
HETATM    6  C1  UNL     1     -32.777   9.492  -0.061  1.00 20.00     0.001 C 
HETATM    7  C3  UNL     1     -31.688   8.556   0.498  1.00 20.00     0.005 C 
ENDBRANCH   2   4
BRANCH   3   8
HETATM    8  C8  UNL     1     -34.022   5.756   2.706  1.00 20.00     0.119 C 
HETATM    9 CL9  UNL     1     -33.914   4.401   3.863  1.00 20.00    -0.130 Cl
ENDBRANCH   3   8
TORSDOF 2
ENDMDL
MODEL 3
REMARK VINA RESULT:      -5.0      0.909      1.201
REMARK  2 active torsions:
REMARK  status: ('A' for Active; 'I' for Inactive)
REMARK    1  A    between atoms: C5_5  and  C6_6 
REMARK    2  A    between atoms: C7_7  and  C8_8 
ROOT
HETATM    1  C4  UNL     1     -32.557   6.028   2.826  1.00 20.00     0.011 A 
HETATM    2  C6  UNL     1     -33.690   6.990   3.041  1.00 20.00    -0.005 A 
HETATM    3  C7  UNL     1     -32.273   7.449   3.233  1.00 20.00     0.004 A 
ENDROOT
BRANCH   2   4
HETATM    4  C5  UNL     1     -34.673   6.857   4.195  1.00 20.00    -0.010 C 
HETATM    5  C2  UNL     1     -34.053   6.800   5.613  1.00 20.00     0.005 C 
HETATM    6  C1  UNL     1     -34.120   5.263   5.524  1.00 20.00     0.001 C 
HETATM    7  C3  UNL     1     -35.222   5.432   4.459  1.00 20.00     0.005 C 
ENDBRANCH   2   4
BRANCH   3   8
HETATM    8  C8  UNL     1     -31.663   8.400   2.263  1.00 20.00     0.119 C 
HETATM    9 CL9  UNL     1     -32.901   9.441   1.509  1.00 20.00    -0.130 Cl
ENDBRANCH   3   8
TORSDOF 2
ENDMDL
MODEL 4
REMARK VINA RESULT:      -5.0      1.126      1.925
REMARK  2 active torsions:
REMARK  status: ('A' for Active; 'I' for Inactive)
REMARK    1  A    between atoms: C5_5  and  C6_6 
REMARK    2  A    between atoms: C7_7  and  C8_8 
ROOT
HETATM    1  C4  UNL     1     -31.271   8.401   1.281  1.00 20.00     0.011 A 
HETATM    2  C6  UNL     1     -32.560   7.886   1.850  1.00 20.00    -0.005 A 
HETATM    3  C7  UNL     1     -32.247   9.353   1.919  1.00 20.00     0.004 A 
ENDROOT
BRANCH   2   4
HETATM    4  C5  UNL     1     -32.618   7.001   3.085  1.00 20.00    -0.010 C 
HETATM    5  C2  UNL     1     -33.197   5.580   2.877  1.00 20.00     0.005 C 
HETATM    6  C1  UNL     1     -34.562   6.126   3.341  1.00 20.00     0.001 C 
HETATM    7  C3  UNL     1     -33.800   7.260   4.053  1.00 20.00     0.005 C 
ENDBRANCH   2   4
BRANCH   3   8
HETATM    8  C8  UNL     1     -33.012  10.316   1.080  1.00 20.00     0.119 C 
HETATM    9 CL9  UNL     1     -33.386   9.626  -0.523  1.00 20.00    -0.130 Cl
ENDBRANCH   3   8
TORSDOF 2
ENDMDL
MODEL 5
REMARK VINA RESULT:      -4.9      2.809      4.552
REMARK  2 active torsions:
REMARK  status: ('A' for Active; 'I' for Inactive)
REMARK    1  A    between atoms: C5_5  and  C6_6 
REMARK    2  A    between atoms: C7_7  and  C8_8 
ROOT
HETATM    1  C4  UNL     1     -33.438   5.459   2.242  1.00 20.00     0.011 A 
HETATM    2  C6  UNL     1     -33.022   6.358   3.370  1.00 20.00    -0.005 A 
HETATM    3  C7  UNL     1     -34.342   5.644   3.433  1.00 20.00     0.004 A 
ENDROOT
BRANCH   2   4
HETATM    4  C5  UNL     1     -32.913   7.868   3.221  1.00 20.00    -0.010 C 
HETATM    5  C2  UNL     1     -33.046   8.419   1.780  1.00 20.00     0.005 C 
HETATM    6  C1  UNL     1     -31.507   8.410   1.691  1.00 20.00     0.001 C 
HETATM    7  C3  UNL     1     -31.477   8.450   3.232  1.00 20.00     0.005 C 
ENDBRANCH   2   4
BRANCH   3   8
HETATM    8  C8  UNL     1     -34.540   4.532   4.403  1.00 20.00     0.119 C 
HETATM    9 CL9  UNL     1     -34.624   5.142   6.079  1.00 20.00    -0.130 Cl
ENDBRANCH   3   8
TORSDOF 2
ENDMDL
MODEL 6
REMARK VINA RESULT:      -4.8      2.494      4.462
REMARK  2 active torsions:
REMARK  status: ('A' for Active; 'I' for Inactive)
REMARK    1  A    between atoms: C5_5  and  C6_6 
REMARK    2  A    between atoms: C7_7  and  C8_8 
ROOT
HETATM    1  C4  UNL     1     -32.959   6.665   2.505  1.00 20.00     0.011 A 
HETATM    2  C6  UNL     1     -32.116   7.790   3.031  1.00 20.00    -0.005 A 
HETATM    3  C7  UNL     1     -33.500   7.577   3.574  1.00 20.00     0.004 A 
ENDROOT
BRANCH   2   4
HETATM    4  C5  UNL     1     -31.742   9.000   2.188  1.00 20.00    -0.010 C 
HETATM    5  C2  UNL     1     -32.924   9.833   1.634  1.00 20.00     0.005 C 
HETATM    6  C1  UNL     1     -32.811   9.027   0.326  1.00 20.00     0.001 C 
HETATM    7  C3  UNL     1     -31.354   8.711   0.717  1.00 20.00     0.005 C 
ENDBRANCH   2   4
BRANCH   3   8
HETATM    8  C8  UNL     1     -33.683   7.077   4.964  1.00 20.00     0.119 C 
HETATM    9 CL9  UNL     1     -34.829   5.708   5.014  1.00 20.00    -0.130 Cl
ENDBRANCH   3   8
TORSDOF 2
ENDMDL
MODEL 7
REMARK VINA RESULT:      -4.3      2.572      4.355
REMARK  2 active torsions:
REMARK  status: ('A' for Active; 'I' for Inactive)
REMARK    1  A    between atoms: C5_5  and  C6_6 
REMARK    2  A    between atoms: C7_7  and  C8_8 
ROOT
HETATM    1  C4  UNL     1     -34.358   7.755   4.370  1.00 20.00     0.011 A 
HETATM    2  C6  UNL     1     -33.594   6.780   3.522  1.00 20.00    -0.005 A 
HETATM    3  C7  UNL     1     -33.708   6.553   5.002  1.00 20.00     0.004 A 
ENDROOT
BRANCH   2   4
HETATM    4  C5  UNL     1     -32.278   7.134   2.846  1.00 20.00    -0.010 C 
HETATM    5  C2  UNL     1     -31.521   8.353   3.428  1.00 20.00     0.005 C 
HETATM    6  C1  UNL     1     -32.185   9.219   2.340  1.00 20.00     0.001 C 
HETATM    7  C3  UNL     1     -32.387   7.930   1.521  1.00 20.00     0.005 C 
ENDBRANCH   2   4
BRANCH   3   8
HETATM    8  C8  UNL     1     -34.544   5.434   5.520  1.00 20.00     0.119 C 
HETATM    9 CL9  UNL     1     -34.407   3.989   4.481  1.00 20.00    -0.130 Cl
ENDBRANCH   3   8
TORSDOF 2
ENDMDL
MODEL 8
REMARK VINA RESULT:      -4.1      2.064      2.491
REMARK  2 active torsions:
REMARK  status: ('A' for Active; 'I' for Inactive)
REMARK    1  A    between atoms: C5_5  and  C6_6 
REMARK    2  A    between atoms: C7_7  and  C8_8 
ROOT
HETATM    1  C4  UNL     1     -32.881   8.031   1.788  1.00 20.00     0.011 A 
HETATM    2  C6  UNL     1     -33.520   7.340   2.957  1.00 20.00    -0.005 A 
HETATM    3  C7  UNL     1     -32.024   7.433   2.872  1.00 20.00     0.004 A 
ENDROOT
BRANCH   2   4
HETATM    4  C5  UNL     1     -34.269   6.023   2.823  1.00 20.00    -0.010 C 
HETATM    5  C2  UNL     1     -35.414   5.786   3.838  1.00 20.00     0.005 C 
HETATM    6  C1  UNL     1     -34.411   5.000   4.706  1.00 20.00     0.001 C 
HETATM    7  C3  UNL     1     -33.573   4.780   3.431  1.00 20.00     0.005 C 
ENDBRANCH   2   4
BRANCH   3   8
HETATM    8  C8  UNL     1     -31.280   8.316   3.813  1.00 20.00     0.119 C 
HETATM    9 CL9  UNL     1     -32.192   8.564   5.327  1.00 20.00    -0.130 Cl
ENDBRANCH   3   8
TORSDOF 2
ENDMDL
MODEL 9
REMARK VINA RESULT:      -3.9     10.612     11.162
REMARK  2 active torsions:
REMARK  status: ('A' for Active; 'I' for Inactive)
REMARK    1  A    between atoms: C5_5  and  C6_6 
REMARK    2  A    between atoms: C7_7  and  C8_8 
ROOT
HETATM    1  C4  UNL     1     -33.569  14.430  -4.272  1.00 20.00     0.011 A 
HETATM    2  C6  UNL     1     -34.747  15.156  -3.692  1.00 20.00    -0.005 A 
HETATM    3  C7  UNL     1     -34.780  14.703  -5.123  1.00 20.00     0.004 A 
ENDROOT
BRANCH   2   4
HETATM    4  C5  UNL     1     -34.695  16.624  -3.297  1.00 20.00    -0.010 C 
HETATM    5  C2  UNL     1     -33.848  16.960  -2.045  1.00 20.00     0.005 C 
HETATM    6  C1  UNL     1     -35.144  16.898  -1.215  1.00 20.00     0.001 C 
HETATM    7  C3  UNL     1     -35.922  17.163  -2.519  1.00 20.00     0.005 C 
ENDBRANCH   2   4
BRANCH   3   8
HETATM    8  C8  UNL     1     -35.679  13.588  -5.530  1.00 20.00     0.119 C 
HETATM    9 CL9  UNL     1     -35.259  12.975  -7.153  1.00 20.00    -0.130 Cl
ENDBRANCH   3   8
TORSDOF 2
ENDMDL
