MODEL 1
REMARK VINA RESULT:      -5.8      0.000      0.000
REMARK  2 active torsions:
REMARK  status: ('A' for Active; 'I' for Inactive)
REMARK    1  A    between atoms: C1_1  and  C11_11 
REMARK    2  A    between atoms: C5_5  and  C11_11 
ROOT
HETATM    1  C2  UNL     1     -33.161   6.301   1.944  1.00 20.00     0.006 C 
HETATM    2  C3  UNL     1     -33.469   5.200   2.962  1.00 20.00     0.009 C 
HETATM    3  C4  UNL     1     -33.558   6.867   4.880  1.00 20.00     0.013 C 
HETATM    4  C5  UNL     1     -32.880   7.681   2.570  1.00 20.00    -0.001 C 
HETATM    5  C6  UNL     1     -32.450   7.545   4.044  1.00 20.00    -0.013 C 
HETATM    6  C7  UNL     1     -34.280   5.687   4.175  1.00 20.00    -0.047 C 
HETATM    7  C8  UNL     1     -32.074   8.881   4.692  1.00 20.00     0.010 C 
HETATM    8  C9  UNL     1     -35.694   6.115   3.734  1.00 20.00     0.015 C 
HETATM    9  C10 UNL     1     -34.439   4.519   5.168  1.00 20.00     0.015 C 
ENDROOT
BRANCH   4  10
HETATM   10  C11 UNL     1     -31.869   8.439   1.704  1.00 20.00     0.118 C 
BRANCH  10  11
HETATM   11  C1  UNL     1     -32.476   9.503   0.795  1.00 20.00     0.172 C 
HETATM   12  O12 UNL     1     -32.780   9.153  -0.378  1.00 20.00    -0.648 OA
HETATM   13  O13 UNL     1     -32.600  10.632   1.352  1.00 20.00    -0.648 OA
ENDBRANCH  10  11
ENDBRANCH   4  10
TORSDOF 2
ENDMDL
MODEL 2
REMARK VINA RESULT:      -5.2     10.664     11.594
REMARK  2 active torsions:
REMARK  status: ('A' for Active; 'I' for Inactive)
REMARK    1  A    between atoms: C1_1  and  C11_11 
REMARK    2  A    between atoms: C5_5  and  C11_11 
ROOT
HETATM    1  C2  UNL     1     -36.497  16.512  -3.918  1.00 20.00     0.006 C 
HETATM    2  C3  UNL     1     -36.157  16.818  -2.458  1.00 20.00     0.009 C 
HETATM    3  C4  UNL     1     -33.679  16.397  -2.847  1.00 20.00     0.013 C 
HETATM    4  C5  UNL     1     -35.318  15.955  -4.739  1.00 20.00    -0.001 C 
HETATM    5  C6  UNL     1     -34.243  15.338  -3.821  1.00 20.00    -0.013 C 
HETATM    6  C7  UNL     1     -34.735  17.369  -2.255  1.00 20.00    -0.047 C 
HETATM    7  C8  UNL     1     -33.087  14.692  -4.590  1.00 20.00     0.010 C 
HETATM    8  C9  UNL     1     -34.603  18.760  -2.909  1.00 20.00     0.015 C 
HETATM    9  C10 UNL     1     -34.479  17.542  -0.745  1.00 20.00     0.015 C 
ENDROOT
BRANCH   4  10
HETATM   10  C11 UNL     1     -35.846  14.986  -5.801  1.00 20.00     0.118 C 
BRANCH  10  11
HETATM   11  C1  UNL     1     -36.587  13.773  -5.250  1.00 20.00     0.172 C 
HETATM   12  O12 UNL     1     -37.796  13.933  -4.930  1.00 20.00    -0.648 OA
HETATM   13  O13 UNL     1     -35.872  12.732  -5.183  1.00 20.00    -0.648 OA
ENDBRANCH  10  11
ENDBRANCH   4  10
TORSDOF 2
ENDMDL
MODEL 3
REMARK VINA RESULT:      -5.0     10.636     11.986
REMARK  2 active torsions:
REMARK  status: ('A' for Active; 'I' for Inactive)
REMARK    1  A    between atoms: C1_1  and  C11_11 
REMARK    2  A    between atoms: C5_5  and  C11_11 
ROOT
HETATM    1  C2  UNL     1     -34.397  15.490  -3.470  1.00 20.00     0.006 C 
HETATM    2  C3  UNL     1     -33.650  16.615  -2.751  1.00 20.00     0.009 C 
HETATM    3  C4  UNL     1     -35.546  18.261  -3.153  1.00 20.00     0.013 C 
HETATM    4  C5  UNL     1     -35.688  15.941  -4.182  1.00 20.00    -0.001 C 
HETATM    5  C6  UNL     1     -35.664  17.456  -4.466  1.00 20.00    -0.013 C 
HETATM    6  C7  UNL     1     -34.575  17.658  -2.102  1.00 20.00    -0.047 C 
HETATM    7  C8  UNL     1     -36.886  17.945  -5.250  1.00 20.00     0.010 C 
HETATM    8  C9  UNL     1     -35.373  17.018  -0.946  1.00 20.00     0.015 C 
HETATM    9  C10 UNL     1     -33.712  18.784  -1.500  1.00 20.00     0.015 C 
ENDROOT
BRANCH   4  10
HETATM   10  C11 UNL     1     -35.908  15.086  -5.433  1.00 20.00     0.118 C 
BRANCH  10  11
HETATM   11  C1  UNL     1     -36.666  13.784  -5.194  1.00 20.00     0.172 C 
HETATM   12  O12 UNL     1     -37.904  13.872  -4.965  1.00 20.00    -0.648 OA
HETATM   13  O13 UNL     1     -35.935  12.755  -5.260  1.00 20.00    -0.648 OA
ENDBRANCH  10  11
ENDBRANCH   4  10
TORSDOF 2
ENDMDL
MODEL 4
REMARK VINA RESULT:      -4.6     10.618     12.141
REMARK  2 active torsions:
REMARK  status: ('A' for Active; 'I' for Inactive)
REMARK    1  A    between atoms: C1_1  and  C11_11 
REMARK    2  A    between atoms: C5_5  and  C11_11 
ROOT
HETATM    1  C2  UNL     1     -33.970  14.448  -4.550  1.00 20.00     0.006 C 
HETATM    2  C3  UNL     1     -33.407  15.352  -3.452  1.00 20.00     0.009 C 
HETATM    3  C4  UNL     1     -34.071  17.458  -4.713  1.00 20.00     0.013 C 
HETATM    4  C5  UNL     1     -34.411  15.197  -5.822  1.00 20.00    -0.001 C 
HETATM    5  C6  UNL     1     -33.719  16.570  -5.927  1.00 20.00    -0.013 C 
HETATM    6  C7  UNL     1     -34.112  16.716  -3.350  1.00 20.00    -0.047 C 
HETATM    7  C8  UNL     1     -34.055  17.323  -7.218  1.00 20.00     0.010 C 
HETATM    8  C9  UNL     1     -35.572  16.529  -2.889  1.00 20.00     0.015 C 
HETATM    9  C10 UNL     1     -33.396  17.568  -2.284  1.00 20.00     0.015 C 
ENDROOT
BRANCH   4  10
HETATM   10  C11 UNL     1     -34.188  14.303  -7.046  1.00 20.00     0.118 C 
BRANCH  10  11
HETATM   11  C1  UNL     1     -35.309  13.307  -7.325  1.00 20.00     0.172 C 
HETATM   12  O12 UNL     1     -36.335  13.745  -7.913  1.00 20.00    -0.648 OA
HETATM   13  O13 UNL     1     -35.056  12.136  -6.919  1.00 20.00    -0.648 OA
ENDBRANCH  10  11
ENDBRANCH   4  10
TORSDOF 2
ENDMDL
MODEL 5
REMARK VINA RESULT:      -4.5     10.672     12.014
REMARK  2 active torsions:
REMARK  status: ('A' for Active; 'I' for Inactive)
REMARK    1  A    between atoms: C1_1  and  C11_11 
REMARK    2  A    between atoms: C5_5  and  C11_11 
ROOT
HETATM    1  C2  UNL     1     -34.689  16.527  -2.207  1.00 20.00     0.006 C 
HETATM    2  C3  UNL     1     -35.345  15.869  -3.423  1.00 20.00     0.009 C 
HETATM    3  C4  UNL     1     -33.729  17.002  -5.027  1.00 20.00     0.013 C 
HETATM    4  C5  UNL     1     -33.633  17.593  -2.556  1.00 20.00    -0.001 C 
HETATM    5  C6  UNL     1     -33.844  18.137  -3.984  1.00 20.00    -0.013 C 
HETATM    6  C7  UNL     1     -34.386  15.660  -4.607  1.00 20.00    -0.047 C 
HETATM    7  C8  UNL     1     -32.874  19.263  -4.354  1.00 20.00     0.010 C 
HETATM    8  C9  UNL     1     -33.299  14.628  -4.237  1.00 20.00     0.015 C 
HETATM    9  C10 UNL     1     -35.181  15.087  -5.797  1.00 20.00     0.015 C 
ENDROOT
BRANCH   4  10
HETATM   10  C11 UNL     1     -33.631  18.683  -1.480  1.00 20.00     0.118 C 
BRANCH  10  11
HETATM   11  C1  UNL     1     -32.611  18.480  -0.365  1.00 20.00     0.172 C 
HETATM   12  O12 UNL     1     -31.415  18.271  -0.708  1.00 20.00    -0.648 OA
HETATM   13  O13 UNL     1     -33.111  18.549   0.795  1.00 20.00    -0.648 OA
ENDBRANCH  10  11
ENDBRANCH   4  10
TORSDOF 2
ENDMDL
MODEL 6
REMARK VINA RESULT:      -4.4     10.710     11.734
REMARK  2 active torsions:
REMARK  status: ('A' for Active; 'I' for Inactive)
REMARK    1  A    between atoms: C1_1  and  C11_11 
REMARK    2  A    between atoms: C5_5  and  C11_11 
ROOT
HETATM    1  C2  UNL     1     -33.284  15.380  -3.728  1.00 20.00     0.006 C 
HETATM    2  C3  UNL     1     -33.954  14.295  -4.574  1.00 20.00     0.009 C 
HETATM    3  C4  UNL     1     -36.071  15.678  -4.842  1.00 20.00     0.013 C 
HETATM    4  C5  UNL     1     -34.217  16.541  -3.333  1.00 20.00    -0.001 C 
HETATM    5  C6  UNL     1     -35.697  16.114  -3.408  1.00 20.00    -0.013 C 
HETATM    6  C7  UNL     1     -34.989  14.839  -5.574  1.00 20.00    -0.047 C 
HETATM    7  C8  UNL     1     -36.667  17.205  -2.942  1.00 20.00     0.010 C 
HETATM    8  C9  UNL     1     -34.291  15.696  -6.650  1.00 20.00     0.015 C 
HETATM    9  C10 UNL     1     -35.660  13.653  -6.291  1.00 20.00     0.015 C 
ENDROOT
BRANCH   4  10
HETATM   10  C11 UNL     1     -33.805  17.085  -1.962  1.00 20.00     0.118 C 
BRANCH  10  11
HETATM   11  C1  UNL     1     -32.947  18.346  -2.004  1.00 20.00     0.172 C 
HETATM   12  O12 UNL     1     -31.980  18.411  -1.198  1.00 20.00    -0.648 OA
HETATM   13  O13 UNL     1     -33.328  19.186  -2.869  1.00 20.00    -0.648 OA
ENDBRANCH  10  11
ENDBRANCH   4  10
TORSDOF 2
ENDMDL
MODEL 7
REMARK VINA RESULT:      -4.2     10.759     11.833
REMARK  2 active torsions:
REMARK  status: ('A' for Active; 'I' for Inactive)
REMARK    1  A    between atoms: C1_1  and  C11_11 
REMARK    2  A    between atoms: C5_5  and  C11_11 
ROOT
HETATM    1  C2  UNL     1     -33.548  15.385  -3.723  1.00 20.00     0.006 C 
HETATM    2  C3  UNL     1     -33.597  14.351  -4.849  1.00 20.00     0.009 C 
HETATM    3  C4  UNL     1     -35.816  15.251  -5.707  1.00 20.00     0.013 C 
HETATM    4  C5  UNL     1     -34.836  16.217  -3.569  1.00 20.00    -0.001 C 
HETATM    5  C6  UNL     1     -36.043  15.491  -4.197  1.00 20.00    -0.013 C 
HETATM    6  C7  UNL     1     -34.374  14.823  -6.091  1.00 20.00    -0.047 C 
HETATM    7  C8  UNL     1     -37.368  16.234  -3.999  1.00 20.00     0.010 C 
HETATM    8  C9  UNL     1     -33.634  15.995  -6.768  1.00 20.00     0.015 C 
HETATM    9  C10 UNL     1     -34.438  13.667  -7.107  1.00 20.00     0.015 C 
ENDROOT
BRANCH   4  10
HETATM   10  C11 UNL     1     -35.039  16.580  -2.095  1.00 20.00     0.118 C 
BRANCH  10  11
HETATM   11  C1  UNL     1     -34.266  17.808  -1.627  1.00 20.00     0.172 C 
HETATM   12  O12 UNL     1     -34.013  18.694  -2.489  1.00 20.00    -0.648 OA
HETATM   13  O13 UNL     1     -33.970  17.780  -0.397  1.00 20.00    -0.648 OA
ENDBRANCH  10  11
ENDBRANCH   4  10
TORSDOF 2
ENDMDL
MODEL 8
REMARK VINA RESULT:      -4.1     10.204     11.665
REMARK  2 active torsions:
REMARK  status: ('A' for Active; 'I' for Inactive)
REMARK    1  A    between atoms: C1_1  and  C11_11 
REMARK    2  A    between atoms: C5_5  and  C11_11 
ROOT
HETATM    1  C2  UNL     1     -35.627  16.863  -4.560  1.00 20.00     0.006 C 
HETATM    2  C3  UNL     1     -36.070  16.335  -5.925  1.00 20.00     0.009 C 
HETATM    3  C4  UNL     1     -34.912  14.103  -5.546  1.00 20.00     0.013 C 
HETATM    4  C5  UNL     1     -34.630  15.949  -3.821  1.00 20.00    -0.001 C 
HETATM    5  C6  UNL     1     -33.903  15.010  -4.805  1.00 20.00    -0.013 C 
HETATM    6  C7  UNL     1     -36.227  14.805  -5.978  1.00 20.00    -0.047 C 
HETATM    7  C8  UNL     1     -32.837  14.137  -4.135  1.00 20.00     0.010 C 
HETATM    8  C9  UNL     1     -37.392  14.357  -5.071  1.00 20.00     0.015 C 
HETATM    9  C10 UNL     1     -36.577  14.390  -7.420  1.00 20.00     0.015 C 
ENDROOT
BRANCH   4  10
HETATM   10  C11 UNL     1     -33.680  16.804  -2.976  1.00 20.00     0.118 C 
BRANCH  10  11
HETATM   11  C1  UNL     1     -34.185  17.124  -1.573  1.00 20.00     0.172 C 
HETATM   12  O12 UNL     1     -35.318  16.673  -1.251  1.00 20.00    -0.648 OA
HETATM   13  O13 UNL     1     -33.377  17.821  -0.893  1.00 20.00    -0.648 OA
ENDBRANCH  10  11
ENDBRANCH   4  10
TORSDOF 2
ENDMDL
MODEL 9
REMARK VINA RESULT:      -4.0     10.007     11.746
REMARK  2 active torsions:
REMARK  status: ('A' for Active; 'I' for Inactive)
REMARK    1  A    between atoms: C1_1  and  C11_11 
REMARK    2  A    between atoms: C5_5  and  C11_11 
ROOT
HETATM    1  C2  UNL     1     -36.743  14.208  -5.165  1.00 20.00     0.006 C 
HETATM    2  C3  UNL     1     -38.152  14.766  -4.954  1.00 20.00     0.009 C 
HETATM    3  C4  UNL     1     -37.258  16.860  -3.823  1.00 20.00     0.013 C 
HETATM    4  C5  UNL     1     -35.632  15.016  -4.466  1.00 20.00    -0.001 C 
HETATM    5  C6  UNL     1     -36.202  15.858  -3.307  1.00 20.00    -0.013 C 
HETATM    6  C7  UNL     1     -38.212  16.302  -4.913  1.00 20.00    -0.047 C 
HETATM    7  C8  UNL     1     -35.128  16.616  -2.522  1.00 20.00     0.010 C 
HETATM    8  C9  UNL     1     -37.843  16.887  -6.293  1.00 20.00     0.015 C 
HETATM    9  C10 UNL     1     -39.657  16.736  -4.598  1.00 20.00     0.015 C 
ENDROOT
BRANCH   4  10
HETATM   10  C11 UNL     1     -34.503  14.072  -4.041  1.00 20.00     0.118 C 
BRANCH  10  11
HETATM   11  C1  UNL     1     -33.118  14.462  -4.544  1.00 20.00     0.172 C 
HETATM   12  O12 UNL     1     -33.037  15.490  -5.272  1.00 20.00    -0.648 OA
HETATM   13  O13 UNL     1     -32.201  13.683  -4.156  1.00 20.00    -0.648 OA
ENDBRANCH  10  11
ENDBRANCH   4  10
TORSDOF 2
ENDMDL
