MODEL 1
REMARK VINA RESULT:      -4.3      0.000      0.000
REMARK  2 active torsions:
REMARK  status: ('A' for Active; 'I' for Inactive)
REMARK    1  A    between atoms: C4_4  and  C6_6 
REMARK    2  A    between atoms: C7_7  and  C8_8 
ROOT
HETATM    1  C1  UNL     1     -33.323   7.225   4.843  1.00 20.00     0.015 A 
HETATM    2  C2  UNL     1     -34.488   6.622   5.266  1.00 20.00     0.050 A 
HETATM    3  C3  UNL     1     -33.857   5.923   2.994  1.00 20.00     0.057 A 
HETATM    4  C4  UNL     1     -32.958   6.820   3.527  1.00 20.00    -0.047 A 
HETATM    5  S9  UNL     1     -35.136   5.572   4.077  1.00 20.00    -0.113 SA
ENDROOT
BRANCH   4   6
HETATM    6  C6  UNL     1     -31.705   7.324   2.790  1.00 20.00     0.024 A 
HETATM    7  C5  UNL     1     -31.152   8.684   3.157  1.00 20.00     0.016 A 
HETATM    8  C7  UNL     1     -31.798   8.486   1.818  1.00 20.00     0.004 A 
BRANCH   8   9
HETATM    9  C8  UNL     1     -33.088   9.165   1.502  1.00 20.00     0.090 C 
HETATM   10 BR10 UNL     1     -33.222   9.515  -0.413  1.00 20.00    -0.096 Br
ENDBRANCH   8   9
ENDBRANCH   4   6
TORSDOF 2
ENDMDL
MODEL 2
REMARK VINA RESULT:      -3.8     11.209     11.932
REMARK  2 active torsions:
REMARK  status: ('A' for Active; 'I' for Inactive)
REMARK    1  A    between atoms: C4_4  and  C6_6 
REMARK    2  A    between atoms: C7_7  and  C8_8 
ROOT
HETATM    1  C1  UNL     1     -33.459  15.458  -4.050  1.00 20.00     0.015 A 
HETATM    2  C2  UNL     1     -33.154  15.624  -5.383  1.00 20.00     0.050 A 
HETATM    3  C3  UNL     1     -34.729  17.332  -4.576  1.00 20.00     0.057 A 
HETATM    4  C4  UNL     1     -34.372  16.447  -3.583  1.00 20.00    -0.047 A 
HETATM    5  S9  UNL     1     -33.966  16.969  -6.065  1.00 20.00    -0.113 SA
ENDROOT
BRANCH   4   6
HETATM    6  C6  UNL     1     -34.895  16.518  -2.137  1.00 20.00     0.024 A 
HETATM    7  C5  UNL     1     -35.485  17.823  -1.648  1.00 20.00     0.016 A 
HETATM    8  C7  UNL     1     -34.172  17.352  -1.096  1.00 20.00     0.004 A 
BRANCH   8   9
HETATM    9  C8  UNL     1     -32.921  18.103  -1.400  1.00 20.00     0.090 C 
HETATM   10 BR10 UNL     1     -32.121  18.788   0.243  1.00 20.00    -0.096 Br
ENDBRANCH   8   9
ENDBRANCH   4   6
TORSDOF 2
ENDMDL
MODEL 3
REMARK VINA RESULT:      -3.8     10.749     11.477
REMARK  2 active torsions:
REMARK  status: ('A' for Active; 'I' for Inactive)
REMARK    1  A    between atoms: C4_4  and  C6_6 
REMARK    2  A    between atoms: C7_7  and  C8_8 
ROOT
HETATM    1  C1  UNL     1     -36.703  13.947  -5.258  1.00 20.00     0.015 A 
HETATM    2  C2  UNL     1     -38.004  14.393  -5.340  1.00 20.00     0.050 A 
HETATM    3  C3  UNL     1     -36.609  15.865  -3.949  1.00 20.00     0.057 A 
HETATM    4  C4  UNL     1     -35.895  14.799  -4.451  1.00 20.00    -0.047 A 
HETATM    5  S9  UNL     1     -38.246  15.835  -4.448  1.00 20.00    -0.113 SA
ENDROOT
BRANCH   4   6
HETATM    6  C6  UNL     1     -34.401  14.557  -4.176  1.00 20.00     0.024 A 
HETATM    7  C5  UNL     1     -33.543  15.735  -3.767  1.00 20.00     0.016 A 
HETATM    8  C7  UNL     1     -33.345  15.109  -5.116  1.00 20.00     0.004 A 
BRANCH   8   9
HETATM    9  C8  UNL     1     -33.691  15.869  -6.351  1.00 20.00     0.090 C 
HETATM   10 BR10 UNL     1     -33.937  14.650  -7.855  1.00 20.00    -0.096 Br
ENDBRANCH   8   9
ENDBRANCH   4   6
TORSDOF 2
ENDMDL
MODEL 4
REMARK VINA RESULT:      -3.6     10.710     11.360
REMARK  2 active torsions:
REMARK  status: ('A' for Active; 'I' for Inactive)
REMARK    1  A    between atoms: C4_4  and  C6_6 
REMARK    2  A    between atoms: C7_7  and  C8_8 
ROOT
HETATM    1  C1  UNL     1     -33.935  16.597  -2.432  1.00 20.00     0.015 A 
HETATM    2  C2  UNL     1     -34.564  17.639  -1.786  1.00 20.00     0.050 A 
HETATM    3  C3  UNL     1     -36.109  16.377  -3.224  1.00 20.00     0.057 A 
HETATM    4  C4  UNL     1     -34.830  15.866  -3.266  1.00 20.00    -0.047 A 
HETATM    5  S9  UNL     1     -36.227  17.733  -2.185  1.00 20.00    -0.113 SA
ENDROOT
BRANCH   4   6
HETATM    6  C6  UNL     1     -34.417  14.648  -4.110  1.00 20.00     0.024 A 
HETATM    7  C5  UNL     1     -32.941  14.366  -4.293  1.00 20.00     0.016 A 
HETATM    8  C7  UNL     1     -33.755  14.837  -5.463  1.00 20.00     0.004 A 
BRANCH   8   9
HETATM    9  C8  UNL     1     -33.508  16.184  -6.052  1.00 20.00     0.090 C 
HETATM   10 BR10 UNL     1     -34.512  16.395  -7.712  1.00 20.00    -0.096 Br
ENDBRANCH   8   9
ENDBRANCH   4   6
TORSDOF 2
ENDMDL
MODEL 5
REMARK VINA RESULT:      -3.6     10.979     11.710
REMARK  2 active torsions:
REMARK  status: ('A' for Active; 'I' for Inactive)
REMARK    1  A    between atoms: C4_4  and  C6_6 
REMARK    2  A    between atoms: C7_7  and  C8_8 
ROOT
HETATM    1  C1  UNL     1     -33.901  16.645  -2.475  1.00 20.00     0.015 A 
HETATM    2  C2  UNL     1     -33.769  18.016  -2.416  1.00 20.00     0.050 A 
HETATM    3  C3  UNL     1     -33.518  17.162  -4.709  1.00 20.00     0.057 A 
HETATM    4  C4  UNL     1     -33.755  16.151  -3.803  1.00 20.00    -0.047 A 
HETATM    5  S9  UNL     1     -33.471  18.700  -3.958  1.00 20.00    -0.113 SA
ENDROOT
BRANCH   4   6
HETATM    6  C6  UNL     1     -33.854  14.663  -4.181  1.00 20.00     0.024 A 
HETATM    7  C5  UNL     1     -34.136  14.302  -5.623  1.00 20.00     0.016 A 
HETATM    8  C7  UNL     1     -35.186  14.055  -4.581  1.00 20.00     0.004 A 
BRANCH   8   9
HETATM    9  C8  UNL     1     -36.453  14.842  -4.594  1.00 20.00     0.090 C 
HETATM   10 BR10 UNL     1     -36.935  15.326  -6.422  1.00 20.00    -0.096 Br
ENDBRANCH   8   9
ENDBRANCH   4   6
TORSDOF 2
ENDMDL
MODEL 6
REMARK VINA RESULT:      -3.5     10.765     11.794
REMARK  2 active torsions:
REMARK  status: ('A' for Active; 'I' for Inactive)
REMARK    1  A    between atoms: C4_4  and  C6_6 
REMARK    2  A    between atoms: C7_7  and  C8_8 
ROOT
HETATM    1  C1  UNL     1     -36.344  14.197  -4.932  1.00 20.00     0.015 A 
HETATM    2  C2  UNL     1     -37.660  14.481  -5.226  1.00 20.00     0.050 A 
HETATM    3  C3  UNL     1     -36.111  15.498  -6.843  1.00 20.00     0.057 A 
HETATM    4  C4  UNL     1     -35.447  14.786  -5.868  1.00 20.00    -0.047 A 
HETATM    5  S9  UNL     1     -37.809  15.454  -6.628  1.00 20.00    -0.113 SA
ENDROOT
BRANCH   4   6
HETATM    6  C6  UNL     1     -33.917  14.643  -5.798  1.00 20.00     0.024 A 
HETATM    7  C5  UNL     1     -33.277  14.397  -4.449  1.00 20.00     0.016 A 
HETATM    8  C7  UNL     1     -33.071  15.714  -5.135  1.00 20.00     0.004 A 
BRANCH   8   9
HETATM    9  C8  UNL     1     -33.660  16.957  -4.560  1.00 20.00     0.090 C 
HETATM   10 BR10 UNL     1     -34.003  16.729  -2.653  1.00 20.00    -0.096 Br
ENDBRANCH   8   9
ENDBRANCH   4   6
TORSDOF 2
ENDMDL
MODEL 7
REMARK VINA RESULT:      -3.5     10.567     11.817
REMARK  2 active torsions:
REMARK  status: ('A' for Active; 'I' for Inactive)
REMARK    1  A    between atoms: C4_4  and  C6_6 
REMARK    2  A    between atoms: C7_7  and  C8_8 
ROOT
HETATM    1  C1  UNL     1     -36.199  15.525  -6.789  1.00 20.00     0.015 A 
HETATM    2  C2  UNL     1     -37.559  15.507  -6.567  1.00 20.00     0.050 A 
HETATM    3  C3  UNL     1     -36.322  14.292  -4.822  1.00 20.00     0.057 A 
HETATM    4  C4  UNL     1     -35.483  14.821  -5.779  1.00 20.00    -0.047 A 
HETATM    5  S9  UNL     1     -37.966  14.644  -5.144  1.00 20.00    -0.113 SA
ENDROOT
BRANCH   4   6
HETATM    6  C6  UNL     1     -33.951  14.671  -5.758  1.00 20.00     0.024 A 
HETATM    7  C5  UNL     1     -33.268  14.431  -4.429  1.00 20.00     0.016 A 
HETATM    8  C7  UNL     1     -33.080  15.744  -5.131  1.00 20.00     0.004 A 
BRANCH   8   9
HETATM    9  C8  UNL     1     -33.645  16.993  -4.545  1.00 20.00     0.090 C 
HETATM   10 BR10 UNL     1     -33.917  16.782  -2.625  1.00 20.00    -0.096 Br
ENDBRANCH   8   9
ENDBRANCH   4   6
TORSDOF 2
ENDMDL
MODEL 8
REMARK VINA RESULT:      -3.5     10.996     11.560
REMARK  2 active torsions:
REMARK  status: ('A' for Active; 'I' for Inactive)
REMARK    1  A    between atoms: C4_4  and  C6_6 
REMARK    2  A    between atoms: C7_7  and  C8_8 
ROOT
HETATM    1  C1  UNL     1     -33.245  17.404  -1.852  1.00 20.00     0.015 A 
HETATM    2  C2  UNL     1     -33.450  18.177  -0.730  1.00 20.00     0.050 A 
HETATM    3  C3  UNL     1     -35.458  16.901  -1.351  1.00 20.00     0.057 A 
HETATM    4  C4  UNL     1     -34.409  16.665  -2.211  1.00 20.00    -0.047 A 
HETATM    5  S9  UNL     1     -35.040  18.010  -0.115  1.00 20.00    -0.113 SA
ENDROOT
BRANCH   4   6
HETATM    6  C6  UNL     1     -34.483  15.713  -3.418  1.00 20.00     0.024 A 
HETATM    7  C5  UNL     1     -33.421  15.826  -4.491  1.00 20.00     0.016 A 
HETATM    8  C7  UNL     1     -34.829  16.243  -4.798  1.00 20.00     0.004 A 
BRANCH   8   9
HETATM    9  C8  UNL     1     -35.146  17.678  -5.048  1.00 20.00     0.090 C 
HETATM   10 BR10 UNL     1     -37.074  17.972  -4.980  1.00 20.00    -0.096 Br
ENDBRANCH   8   9
ENDBRANCH   4   6
TORSDOF 2
ENDMDL
MODEL 9
REMARK VINA RESULT:      -3.5     10.917     11.640
REMARK  2 active torsions:
REMARK  status: ('A' for Active; 'I' for Inactive)
REMARK    1  A    between atoms: C4_4  and  C6_6 
REMARK    2  A    between atoms: C7_7  and  C8_8 
ROOT
HETATM    1  C1  UNL     1     -35.304  14.134  -4.568  1.00 20.00     0.015 A 
HETATM    2  C2  UNL     1     -35.970  13.333  -5.470  1.00 20.00     0.050 A 
HETATM    3  C3  UNL     1     -34.095  14.538  -6.512  1.00 20.00     0.057 A 
HETATM    4  C4  UNL     1     -34.218  14.832  -5.172  1.00 20.00    -0.047 A 
HETATM    5  S9  UNL     1     -35.285  13.425  -7.038  1.00 20.00    -0.113 SA
ENDROOT
BRANCH   4   6
HETATM    6  C6  UNL     1     -33.292  15.799  -4.414  1.00 20.00     0.024 A 
HETATM    7  C5  UNL     1     -33.774  16.380  -3.103  1.00 20.00     0.016 A 
HETATM    8  C7  UNL     1     -33.640  17.272  -4.302  1.00 20.00     0.004 A 
BRANCH   8   9
HETATM    9  C8  UNL     1     -34.855  17.858  -4.937  1.00 20.00     0.090 C 
HETATM   10 BR10 UNL     1     -36.320  17.949  -3.652  1.00 20.00    -0.096 Br
ENDBRANCH   8   9
ENDBRANCH   4   6
TORSDOF 2
ENDMDL
