MODEL 1
REMARK VINA RESULT:      -5.1      0.000      0.000
REMARK  1 active torsions:
REMARK  status: ('A' for Active; 'I' for Inactive)
REMARK    1  A    between atoms: C5_5  and  C10_10 
ROOT
HETATM    1  C1  UNL     1     -34.468   5.255   5.678  1.00 20.00     0.002 C 
HETATM    2  C2  UNL     1     -33.964   6.694   5.672  1.00 20.00     0.011 C 
HETATM    3  C3  UNL     1     -35.079   5.092   4.296  1.00 20.00     0.010 C 
HETATM    4  C4  UNL     1     -33.779   8.443   3.772  1.00 20.00     0.017 A 
HETATM    5  C5  UNL     1     -32.401   7.880   3.941  1.00 20.00     0.009 A 
HETATM    6  C6  UNL     1     -33.618   6.998   4.220  1.00 20.00    -0.028 A 
HETATM    7  C7  UNL     1     -34.083   5.816   3.348  1.00 20.00    -0.040 C 
HETATM    8  C8  UNL     1     -32.925   4.860   3.012  1.00 20.00     0.015 C 
HETATM    9  C9  UNL     1     -34.819   6.202   2.062  1.00 20.00     0.015 C 
ENDROOT
BRANCH   5  10
HETATM   10  C10 UNL     1     -31.516   7.780   2.750  1.00 20.00     0.120 C 
HETATM   11 CL11 UNL     1     -32.069   8.858   1.437  1.00 20.00    -0.130 Cl
ENDBRANCH   5  10
TORSDOF 1
ENDMDL
MODEL 2
REMARK VINA RESULT:      -4.2     11.535     12.539
REMARK  1 active torsions:
REMARK  status: ('A' for Active; 'I' for Inactive)
REMARK    1  A    between atoms: C5_5  and  C10_10 
ROOT
HETATM    1  C1  UNL     1     -35.371  16.887  -2.697  1.00 20.00     0.002 C 
HETATM    2  C2  UNL     1     -36.281  15.933  -3.463  1.00 20.00     0.011 C 
HETATM    3  C3  UNL     1     -34.004  16.229  -2.805  1.00 20.00     0.010 C 
HETATM    4  C4  UNL     1     -35.758  13.873  -4.941  1.00 20.00     0.017 A 
HETATM    5  C5  UNL     1     -36.011  15.002  -5.893  1.00 20.00     0.009 A 
HETATM    6  C6  UNL     1     -35.396  15.290  -4.524  1.00 20.00    -0.028 A 
HETATM    7  C7  UNL     1     -33.938  15.721  -4.271  1.00 20.00    -0.040 C 
HETATM    8  C8  UNL     1     -33.516  16.883  -5.188  1.00 20.00     0.015 C 
HETATM    9  C9  UNL     1     -32.901  14.597  -4.356  1.00 20.00     0.015 C 
ENDROOT
BRANCH   5  10
HETATM   10  C10 UNL     1     -35.281  15.024  -7.190  1.00 20.00     0.120 C 
HETATM   11 CL11 UNL     1     -34.406  13.491  -7.468  1.00 20.00    -0.130 Cl
ENDBRANCH   5  10
TORSDOF 1
ENDMDL
MODEL 3
REMARK VINA RESULT:      -4.2      1.187      2.401
REMARK  1 active torsions:
REMARK  status: ('A' for Active; 'I' for Inactive)
REMARK    1  A    between atoms: C5_5  and  C10_10 
ROOT
HETATM    1  C1  UNL     1     -33.853   4.072   3.433  1.00 20.00     0.002 C 
HETATM    2  C2  UNL     1     -32.767   4.927   2.789  1.00 20.00     0.011 C 
HETATM    3  C3  UNL     1     -34.191   4.833   4.705  1.00 20.00     0.010 C 
HETATM    4  C4  UNL     1     -31.862   7.282   3.372  1.00 20.00     0.017 A 
HETATM    5  C5  UNL     1     -32.807   7.483   2.227  1.00 20.00     0.009 A 
HETATM    6  C6  UNL     1     -33.061   6.356   3.229  1.00 20.00    -0.028 A 
HETATM    7  C7  UNL     1     -34.198   6.324   4.269  1.00 20.00    -0.040 C 
HETATM    8  C8  UNL     1     -35.562   6.657   3.639  1.00 20.00     0.015 C 
HETATM    9  C9  UNL     1     -33.977   7.200   5.505  1.00 20.00     0.015 C 
ENDROOT
BRANCH   5  10
HETATM   10  C10 UNL     1     -33.574   8.755   2.145  1.00 20.00     0.120 C 
HETATM   11 CL11 UNL     1     -32.756   9.938   1.086  1.00 20.00    -0.130 Cl
ENDBRANCH   5  10
TORSDOF 1
ENDMDL
MODEL 4
REMARK VINA RESULT:      -4.2     11.284     12.214
REMARK  1 active torsions:
REMARK  status: ('A' for Active; 'I' for Inactive)
REMARK    1  A    between atoms: C5_5  and  C10_10 
ROOT
HETATM    1  C1  UNL     1     -35.922  13.419  -5.401  1.00 20.00     0.002 C 
HETATM    2  C2  UNL     1     -36.504  14.587  -4.613  1.00 20.00     0.011 C 
HETATM    3  C3  UNL     1     -34.801  14.061  -6.203  1.00 20.00     0.010 C 
HETATM    4  C4  UNL     1     -35.698  17.029  -4.311  1.00 20.00     0.017 A 
HETATM    5  C5  UNL     1     -35.273  16.304  -3.070  1.00 20.00     0.009 A 
HETATM    6  C6  UNL     1     -35.345  15.551  -4.399  1.00 20.00    -0.028 A 
HETATM    7  C7  UNL     1     -34.133  15.048  -5.207  1.00 20.00    -0.040 C 
HETATM    8  C8  UNL     1     -33.137  14.274  -4.325  1.00 20.00     0.015 C 
HETATM    9  C9  UNL     1     -33.387  16.122  -6.003  1.00 20.00     0.015 C 
ENDROOT
BRANCH   5  10
HETATM   10  C10 UNL     1     -34.024  16.729  -2.384  1.00 20.00     0.120 C 
HETATM   11 CL11 UNL     1     -34.370  17.422  -0.775  1.00 20.00    -0.130 Cl
ENDBRANCH   5  10
TORSDOF 1
ENDMDL
MODEL 5
REMARK VINA RESULT:      -4.1     11.299     12.793
REMARK  1 active torsions:
REMARK  status: ('A' for Active; 'I' for Inactive)
REMARK    1  A    between atoms: C5_5  and  C10_10 
ROOT
HETATM    1  C1  UNL     1     -34.211  15.663  -7.669  1.00 20.00     0.002 C 
HETATM    2  C2  UNL     1     -33.269  15.728  -6.471  1.00 20.00     0.011 C 
HETATM    3  C3  UNL     1     -35.167  14.539  -7.303  1.00 20.00     0.010 C 
HETATM    4  C4  UNL     1     -33.341  14.559  -4.163  1.00 20.00     0.017 A 
HETATM    5  C5  UNL     1     -33.855  15.947  -3.931  1.00 20.00     0.009 A 
HETATM    6  C6  UNL     1     -34.096  15.266  -5.278  1.00 20.00    -0.028 A 
HETATM    7  C7  UNL     1     -35.457  14.759  -5.793  1.00 20.00    -0.040 C 
HETATM    8  C8  UNL     1     -36.560  15.823  -5.643  1.00 20.00     0.015 C 
HETATM    9  C9  UNL     1     -35.935  13.438  -5.185  1.00 20.00     0.015 C 
ENDROOT
BRANCH   5  10
HETATM   10  C10 UNL     1     -34.882  16.165  -2.877  1.00 20.00     0.120 C 
HETATM   11 CL11 UNL     1     -34.185  16.987  -1.453  1.00 20.00    -0.130 Cl
ENDBRANCH   5  10
TORSDOF 1
ENDMDL
MODEL 6
REMARK VINA RESULT:      -4.0     11.331     12.927
REMARK  1 active torsions:
REMARK  status: ('A' for Active; 'I' for Inactive)
REMARK    1  A    between atoms: C5_5  and  C10_10 
ROOT
HETATM    1  C1  UNL     1     -33.875  17.881  -3.122  1.00 20.00     0.002 C 
HETATM    2  C2  UNL     1     -33.705  16.385  -2.881  1.00 20.00     0.011 C 
HETATM    3  C3  UNL     1     -33.590  18.032  -4.608  1.00 20.00     0.010 C 
HETATM    4  C4  UNL     1     -33.377  14.407  -4.518  1.00 20.00     0.017 A 
HETATM    5  C5  UNL     1     -34.826  14.381  -4.136  1.00 20.00     0.009 A 
HETATM    6  C6  UNL     1     -34.082  15.716  -4.197  1.00 20.00    -0.028 A 
HETATM    7  C7  UNL     1     -34.297  16.811  -5.259  1.00 20.00    -0.040 C 
HETATM    8  C8  UNL     1     -35.789  17.138  -5.453  1.00 20.00     0.015 C 
HETATM    9  C9  UNL     1     -33.651  16.537  -6.620  1.00 20.00     0.015 C 
ENDROOT
BRANCH   5  10
HETATM   10  C10 UNL     1     -35.822  13.901  -5.131  1.00 20.00     0.120 C 
HETATM   11 CL11 UNL     1     -35.022  13.276  -6.600  1.00 20.00    -0.130 Cl
ENDBRANCH   5  10
TORSDOF 1
ENDMDL
MODEL 7
REMARK VINA RESULT:      -4.0     11.461     12.725
REMARK  1 active torsions:
REMARK  status: ('A' for Active; 'I' for Inactive)
REMARK    1  A    between atoms: C5_5  and  C10_10 
ROOT
HETATM    1  C1  UNL     1     -35.476  13.434  -6.517  1.00 20.00     0.002 C 
HETATM    2  C2  UNL     1     -35.797  13.706  -5.052  1.00 20.00     0.011 C 
HETATM    3  C3  UNL     1     -35.595  14.805  -7.163  1.00 20.00     0.010 C 
HETATM    4  C4  UNL     1     -36.128  15.917  -3.746  1.00 20.00     0.017 A 
HETATM    5  C5  UNL     1     -34.734  15.467  -3.436  1.00 20.00     0.009 A 
HETATM    6  C6  UNL     1     -35.349  15.139  -4.796  1.00 20.00    -0.028 A 
HETATM    7  C7  UNL     1     -34.935  15.770  -6.140  1.00 20.00    -0.040 C 
HETATM    8  C8  UNL     1     -33.409  15.745  -6.339  1.00 20.00     0.015 C 
HETATM    9  C9  UNL     1     -35.461  17.186  -6.387  1.00 20.00     0.015 C 
ENDROOT
BRANCH   5  10
HETATM   10  C10 UNL     1     -33.687  16.495  -3.186  1.00 20.00     0.120 C 
HETATM   11 CL11 UNL     1     -33.819  17.167  -1.536  1.00 20.00    -0.130 Cl
ENDBRANCH   5  10
TORSDOF 1
ENDMDL
MODEL 8
REMARK VINA RESULT:      -3.9     11.790     13.191
REMARK  1 active torsions:
REMARK  status: ('A' for Active; 'I' for Inactive)
REMARK    1  A    between atoms: C5_5  and  C10_10 
ROOT
HETATM    1  C1  UNL     1     -33.229  16.204  -5.198  1.00 20.00     0.002 C 
HETATM    2  C2  UNL     1     -33.631  15.708  -3.814  1.00 20.00     0.011 C 
HETATM    3  C3  UNL     1     -34.203  17.341  -5.460  1.00 20.00     0.010 C 
HETATM    4  C4  UNL     1     -35.279  16.659  -2.058  1.00 20.00     0.017 A 
HETATM    5  C5  UNL     1     -33.914  17.070  -1.598  1.00 20.00     0.009 A 
HETATM    6  C6  UNL     1     -34.196  16.925  -3.093  1.00 20.00    -0.028 A 
HETATM    7  C7  UNL     1     -34.296  18.087  -4.100  1.00 20.00    -0.040 C 
HETATM    8  C8  UNL     1     -33.107  19.057  -3.977  1.00 20.00     0.015 C 
HETATM    9  C9  UNL     1     -35.608  18.876  -4.060  1.00 20.00     0.015 C 
ENDROOT
BRANCH   5  10
HETATM   10  C10 UNL     1     -33.759  18.357  -0.868  1.00 20.00     0.120 C 
HETATM   11 CL11 UNL     1     -32.073  18.602  -0.334  1.00 20.00    -0.130 Cl
ENDBRANCH   5  10
TORSDOF 1
ENDMDL
MODEL 9
REMARK VINA RESULT:      -3.9     11.549     12.931
REMARK  1 active torsions:
REMARK  status: ('A' for Active; 'I' for Inactive)
REMARK    1  A    between atoms: C5_5  and  C10_10 
ROOT
HETATM    1  C1  UNL     1     -33.596  17.020  -2.576  1.00 20.00     0.002 C 
HETATM    2  C2  UNL     1     -33.520  17.636  -3.969  1.00 20.00     0.011 C 
HETATM    3  C3  UNL     1     -34.918  16.269  -2.597  1.00 20.00     0.010 C 
HETATM    4  C4  UNL     1     -34.985  17.304  -6.078  1.00 20.00     0.017 A 
HETATM    5  C5  UNL     1     -33.762  16.468  -6.298  1.00 20.00     0.009 A 
HETATM    6  C6  UNL     1     -34.286  16.683  -4.878  1.00 20.00    -0.028 A 
HETATM    7  C7  UNL     1     -34.963  15.610  -4.003  1.00 20.00    -0.040 C 
HETATM    8  C8  UNL     1     -34.154  14.301  -3.971  1.00 20.00     0.015 C 
HETATM    9  C9  UNL     1     -36.420  15.303  -4.356  1.00 20.00     0.015 C 
ENDROOT
BRANCH   5  10
HETATM   10  C10 UNL     1     -33.884  15.210  -7.082  1.00 20.00     0.120 C 
HETATM   11 CL11 UNL     1     -35.462  15.115  -7.913  1.00 20.00    -0.130 Cl
ENDBRANCH   5  10
TORSDOF 1
ENDMDL
