MODEL 1
REMARK VINA RESULT:      -3.9      0.000      0.000
REMARK  2 active torsions:
REMARK  status: ('A' for Active; 'I' for Inactive)
REMARK    1  A    between atoms: C3_3  and  O9_9 
REMARK    2  A    between atoms: C4_4  and  C8_8 
ROOT
HETATM    1  C1  UNL     1     -33.232  15.750  -6.085  1.00 20.00     0.037 C 
HETATM    2  C2  UNL     1     -33.899  16.934  -5.341  1.00 20.00    -0.006 C 
HETATM    3  C3  UNL     1     -32.877  15.148  -4.707  1.00 20.00     0.127 C 
HETATM    4  C4  UNL     1     -34.062  15.978  -4.104  1.00 20.00    -0.015 C 
HETATM    5  C5  UNL     1     -35.124  17.538  -6.000  1.00 20.00     0.011 C 
HETATM    6  C6  UNL     1     -35.387  15.218  -4.002  1.00 20.00     0.018 C 
ENDROOT
BRANCH   4   7
HETATM    7  C8  UNL     1     -33.720  16.649  -2.774  1.00 20.00     0.007 C 
HETATM    8  C7  UNL     1     -34.902  16.699  -1.863  1.00 20.00     0.006 C 
ENDBRANCH   4   7
BRANCH   3   9
HETATM    9  O9  UNL     1     -32.968  13.716  -4.594  1.00 20.00    -0.395 OA
HETATM   10  H25 UNL     1     -32.855  13.519  -3.656  1.00 20.00     0.210 HD
ENDBRANCH   3   9
TORSDOF 2
ENDMDL
MODEL 2
REMARK VINA RESULT:      -3.8      2.416      3.029
REMARK  2 active torsions:
REMARK  status: ('A' for Active; 'I' for Inactive)
REMARK    1  A    between atoms: C3_3  and  O9_9 
REMARK    2  A    between atoms: C4_4  and  C8_8 
ROOT
HETATM    1  C1  UNL     1     -35.704  13.310  -6.833  1.00 20.00     0.037 C 
HETATM    2  C2  UNL     1     -34.397  14.072  -6.501  1.00 20.00    -0.006 C 
HETATM    3  C3  UNL     1     -36.084  13.410  -5.338  1.00 20.00     0.127 C 
HETATM    4  C4  UNL     1     -35.135  14.653  -5.240  1.00 20.00    -0.015 C 
HETATM    5  C5  UNL     1     -33.875  15.009  -7.574  1.00 20.00     0.011 C 
HETATM    6  C6  UNL     1     -35.831  16.005  -5.423  1.00 20.00     0.018 C 
ENDROOT
BRANCH   4   7
HETATM    7  C8  UNL     1     -34.265  14.657  -3.983  1.00 20.00     0.007 C 
HETATM    8  C7  UNL     1     -34.380  15.948  -3.240  1.00 20.00     0.006 C 
ENDBRANCH   4   7
BRANCH   3   9
HETATM    9  O9  UNL     1     -37.475  13.635  -5.047  1.00 20.00    -0.395 OA
HETATM   10  H25 UNL     1     -37.897  13.804  -5.898  1.00 20.00     0.210 HD
ENDBRANCH   3   9
TORSDOF 2
ENDMDL
MODEL 3
REMARK VINA RESULT:      -3.8      1.641      3.015
REMARK  2 active torsions:
REMARK  status: ('A' for Active; 'I' for Inactive)
REMARK    1  A    between atoms: C3_3  and  O9_9 
REMARK    2  A    between atoms: C4_4  and  C8_8 
ROOT
HETATM    1  C1  UNL     1     -33.516  17.345  -3.387  1.00 20.00     0.037 C 
HETATM    2  C2  UNL     1     -34.395  16.261  -2.714  1.00 20.00    -0.006 C 
HETATM    3  C3  UNL     1     -33.359  16.396  -4.597  1.00 20.00     0.127 C 
HETATM    4  C4  UNL     1     -34.694  15.705  -4.154  1.00 20.00    -0.015 C 
HETATM    5  C5  UNL     1     -35.531  16.763  -1.845  1.00 20.00     0.011 C 
HETATM    6  C6  UNL     1     -35.951  16.242  -4.844  1.00 20.00     0.018 C 
ENDROOT
BRANCH   4   7
HETATM    7  C8  UNL     1     -34.644  14.180  -4.233  1.00 20.00     0.007 C 
HETATM    8  C7  UNL     1     -35.795  13.631  -5.011  1.00 20.00     0.006 C 
ENDBRANCH   4   7
BRANCH   3   9
HETATM    9  O9  UNL     1     -33.352  17.015  -5.896  1.00 20.00    -0.395 OA
HETATM   10  H25 UNL     1     -33.554  16.311  -6.524  1.00 20.00     0.210 HD
ENDBRANCH   3   9
TORSDOF 2
ENDMDL
MODEL 4
REMARK VINA RESULT:      -3.7      2.330      3.734
REMARK  2 active torsions:
REMARK  status: ('A' for Active; 'I' for Inactive)
REMARK    1  A    between atoms: C3_3  and  O9_9 
REMARK    2  A    between atoms: C4_4  and  C8_8 
ROOT
HETATM    1  C1  UNL     1     -34.386  14.352  -4.158  1.00 20.00     0.037 C 
HETATM    2  C2  UNL     1     -34.309  15.515  -5.178  1.00 20.00    -0.006 C 
HETATM    3  C3  UNL     1     -35.726  13.938  -4.807  1.00 20.00     0.127 C 
HETATM    4  C4  UNL     1     -35.257  14.674  -6.108  1.00 20.00    -0.015 C 
HETATM    5  C5  UNL     1     -32.921  15.897  -5.657  1.00 20.00     0.011 C 
HETATM    6  C6  UNL     1     -34.573  13.774  -7.141  1.00 20.00     0.018 C 
ENDROOT
BRANCH   4   7
HETATM    7  C8  UNL     1     -36.355  15.511  -6.763  1.00 20.00     0.007 C 
HETATM    8  C7  UNL     1     -36.977  14.796  -7.918  1.00 20.00     0.006 C 
ENDBRANCH   4   7
BRANCH   3   9
HETATM    9  O9  UNL     1     -35.971  12.524  -4.918  1.00 20.00    -0.395 OA
HETATM   10  H25 UNL     1     -36.926  12.430  -5.019  1.00 20.00     0.210 HD
ENDBRANCH   3   9
TORSDOF 2
ENDMDL
MODEL 5
REMARK VINA RESULT:      -3.7     11.204     12.332
REMARK  2 active torsions:
REMARK  status: ('A' for Active; 'I' for Inactive)
REMARK    1  A    between atoms: C3_3  and  O9_9 
REMARK    2  A    between atoms: C4_4  and  C8_8 
ROOT
HETATM    1  C1  UNL     1     -34.142   5.519   4.358  1.00 20.00     0.037 C 
HETATM    2  C2  UNL     1     -34.152   7.059   4.526  1.00 20.00    -0.006 C 
HETATM    3  C3  UNL     1     -33.801   5.733   2.866  1.00 20.00     0.127 C 
HETATM    4  C4  UNL     1     -33.224   7.136   3.259  1.00 20.00    -0.015 C 
HETATM    5  C5  UNL     1     -33.663   7.592   5.858  1.00 20.00     0.011 C 
HETATM    6  C6  UNL     1     -31.715   7.156   3.522  1.00 20.00     0.018 C 
ENDROOT
BRANCH   4   7
HETATM    7  C8  UNL     1     -33.618   8.250   2.290  1.00 20.00     0.007 C 
HETATM    8  C7  UNL     1     -32.419   8.909   1.692  1.00 20.00     0.006 C 
ENDBRANCH   4   7
BRANCH   3   9
HETATM    9  O9  UNL     1     -32.878   4.796   2.282  1.00 20.00    -0.395 OA
HETATM   10  H25 UNL     1     -32.118   4.770   2.877  1.00 20.00     0.210 HD
ENDBRANCH   3   9
TORSDOF 2
ENDMDL
MODEL 6
REMARK VINA RESULT:      -3.7      1.989      3.290
REMARK  2 active torsions:
REMARK  status: ('A' for Active; 'I' for Inactive)
REMARK    1  A    between atoms: C3_3  and  O9_9 
REMARK    2  A    between atoms: C4_4  and  C8_8 
ROOT
HETATM    1  C1  UNL     1     -37.485  14.541  -5.166  1.00 20.00     0.037 C 
HETATM    2  C2  UNL     1     -36.731  15.878  -5.379  1.00 20.00    -0.006 C 
HETATM    3  C3  UNL     1     -36.226  13.806  -5.677  1.00 20.00     0.127 C 
HETATM    4  C4  UNL     1     -35.391  15.064  -5.256  1.00 20.00    -0.015 C 
HETATM    5  C5  UNL     1     -37.039  16.987  -4.391  1.00 20.00     0.011 C 
HETATM    6  C6  UNL     1     -34.772  14.982  -3.858  1.00 20.00     0.018 C 
ENDROOT
BRANCH   4   7
HETATM    7  C8  UNL     1     -34.342  15.473  -6.289  1.00 20.00     0.007 C 
HETATM    8  C7  UNL     1     -33.021  15.752  -5.650  1.00 20.00     0.006 C 
ENDBRANCH   4   7
BRANCH   3   9
HETATM    9  O9  UNL     1     -35.901  12.567  -5.022  1.00 20.00    -0.395 OA
HETATM   10  H25 UNL     1     -36.653  11.982  -5.179  1.00 20.00     0.210 HD
ENDBRANCH   3   9
TORSDOF 2
ENDMDL
MODEL 7
REMARK VINA RESULT:      -3.7     12.335     13.189
REMARK  2 active torsions:
REMARK  status: ('A' for Active; 'I' for Inactive)
REMARK    1  A    between atoms: C3_3  and  O9_9 
REMARK    2  A    between atoms: C4_4  and  C8_8 
ROOT
HETATM    1  C1  UNL     1     -32.916   4.971   2.795  1.00 20.00     0.037 C 
HETATM    2  C2  UNL     1     -32.969   6.393   3.408  1.00 20.00    -0.006 C 
HETATM    3  C3  UNL     1     -33.611   4.448   4.072  1.00 20.00     0.127 C 
HETATM    4  C4  UNL     1     -34.172   5.895   4.290  1.00 20.00    -0.015 C 
HETATM    5  C5  UNL     1     -33.166   7.538   2.433  1.00 20.00     0.011 C 
HETATM    6  C6  UNL     1     -35.575   6.129   3.721  1.00 20.00     0.018 C 
ENDROOT
BRANCH   4   7
HETATM    7  C8  UNL     1     -34.091   6.367   5.741  1.00 20.00     0.007 C 
HETATM    8  C7  UNL     1     -33.558   7.759   5.837  1.00 20.00     0.006 C 
ENDBRANCH   4   7
BRANCH   3   9
HETATM    9  O9  UNL     1     -34.581   3.401   3.886  1.00 20.00    -0.395 OA
HETATM   10  H25 UNL     1     -35.265   3.774   3.316  1.00 20.00     0.210 HD
ENDBRANCH   3   9
TORSDOF 2
ENDMDL
MODEL 8
REMARK VINA RESULT:      -3.7      1.735      1.955
REMARK  2 active torsions:
REMARK  status: ('A' for Active; 'I' for Inactive)
REMARK    1  A    between atoms: C3_3  and  O9_9 
REMARK    2  A    between atoms: C4_4  and  C8_8 
ROOT
HETATM    1  C1  UNL     1     -34.475  14.002  -6.699  1.00 20.00     0.037 C 
HETATM    2  C2  UNL     1     -33.951  15.368  -6.192  1.00 20.00    -0.006 C 
HETATM    3  C3  UNL     1     -34.786  13.632  -5.231  1.00 20.00     0.127 C 
HETATM    4  C4  UNL     1     -34.851  15.166  -4.919  1.00 20.00    -0.015 C 
HETATM    5  C5  UNL     1     -34.183  16.557  -7.104  1.00 20.00     0.011 C 
HETATM    6  C6  UNL     1     -36.257  15.771  -4.977  1.00 20.00     0.018 C 
ENDROOT
BRANCH   4   7
HETATM    7  C8  UNL     1     -34.150  15.553  -3.618  1.00 20.00     0.007 C 
HETATM    8  C7  UNL     1     -35.065  16.295  -2.699  1.00 20.00     0.006 C 
ENDBRANCH   4   7
BRANCH   3   9
HETATM    9  O9  UNL     1     -35.989  12.875  -5.004  1.00 20.00    -0.395 OA
HETATM   10  H25 UNL     1     -36.413  13.279  -4.237  1.00 20.00     0.210 HD
ENDBRANCH   3   9
TORSDOF 2
ENDMDL
MODEL 9
REMARK VINA RESULT:      -3.7      1.778      3.271
REMARK  2 active torsions:
REMARK  status: ('A' for Active; 'I' for Inactive)
REMARK    1  A    between atoms: C3_3  and  O9_9 
REMARK    2  A    between atoms: C4_4  and  C8_8 
ROOT
HETATM    1  C1  UNL     1     -34.154  15.541  -3.588  1.00 20.00     0.037 C 
HETATM    2  C2  UNL     1     -35.384  15.637  -4.525  1.00 20.00    -0.006 C 
HETATM    3  C3  UNL     1     -33.857  14.154  -4.200  1.00 20.00     0.127 C 
HETATM    4  C4  UNL     1     -34.662  14.605  -5.466  1.00 20.00    -0.015 C 
HETATM    5  C5  UNL     1     -35.729  17.021  -5.041  1.00 20.00     0.011 C 
HETATM    6  C6  UNL     1     -33.807  15.193  -6.592  1.00 20.00     0.018 C 
ENDROOT
BRANCH   4   7
HETATM    7  C8  UNL     1     -35.600  13.526  -6.007  1.00 20.00     0.007 C 
HETATM    8  C7  UNL     1     -35.253  13.149  -7.410  1.00 20.00     0.006 C 
ENDBRANCH   4   7
BRANCH   3   9
HETATM    9  O9  UNL     1     -32.469  13.828  -4.399  1.00 20.00    -0.395 OA
HETATM   10  H25 UNL     1     -32.392  12.885  -4.211  1.00 20.00     0.210 HD
ENDBRANCH   3   9
TORSDOF 2
ENDMDL
