MODEL 1
REMARK VINA RESULT:      -5.2      0.000      0.000
REMARK  1 active torsions:
REMARK  status: ('A' for Active; 'I' for Inactive)
REMARK    1  A    between atoms: C6_6  and  C8_8 
ROOT
HETATM    1  C1  UNL     1     -33.456   7.676   4.799  1.00 20.00     0.036 C 
HETATM    2  C2  UNL     1     -34.806   6.030   3.461  1.00 20.00     0.036 C 
HETATM    3  C3  UNL     1     -32.294   6.379   2.862  1.00 20.00     0.016 A 
HETATM    4  C4  UNL     1     -33.637   6.738   5.989  1.00 20.00     0.168 C 
HETATM    5  C5  UNL     1     -34.901   5.188   4.729  1.00 20.00     0.168 C 
HETATM    6  C6  UNL     1     -33.073   7.485   2.201  1.00 20.00     0.005 A 
HETATM    7  C7  UNL     1     -33.563   6.891   3.510  1.00 20.00    -0.032 A 
HETATM    8  O9  UNL     1     -34.874   6.029   5.887  1.00 20.00    -0.391 OA
ENDROOT
BRANCH   6   9
HETATM    9  C8  UNL     1     -32.500   8.857   2.106  1.00 20.00     0.090 C 
HETATM   10 BR10 UNL     1     -32.676   9.547   0.290  1.00 20.00    -0.096 Br
ENDBRANCH   6   9
TORSDOF 1
ENDMDL
MODEL 2
REMARK VINA RESULT:      -4.6      1.194      1.922
REMARK  1 active torsions:
REMARK  status: ('A' for Active; 'I' for Inactive)
REMARK    1  A    between atoms: C6_6  and  C8_8 
ROOT
HETATM    1  C1  UNL     1     -33.224   5.428   3.396  1.00 20.00     0.036 C 
HETATM    2  C2  UNL     1     -33.615   6.848   5.433  1.00 20.00     0.036 C 
HETATM    3  C3  UNL     1     -34.245   7.803   3.093  1.00 20.00     0.016 A 
HETATM    4  C4  UNL     1     -34.297   4.489   3.940  1.00 20.00     0.168 C 
HETATM    5  C5  UNL     1     -34.668   5.829   5.853  1.00 20.00     0.168 C 
HETATM    6  C6  UNL     1     -32.767   8.018   3.284  1.00 20.00     0.005 A 
HETATM    7  C7  UNL     1     -33.449   6.824   3.930  1.00 20.00    -0.032 A 
HETATM    8  O9  UNL     1     -34.320   4.527   5.370  1.00 20.00    -0.391 OA
ENDROOT
BRANCH   6   9
HETATM    9  C8  UNL     1     -31.831   7.881   2.132  1.00 20.00     0.090 C 
HETATM   10 BR10 UNL     1     -32.151   9.292   0.823  1.00 20.00    -0.096 Br
ENDBRANCH   6   9
TORSDOF 1
ENDMDL
MODEL 3
REMARK VINA RESULT:      -4.0     11.220     12.137
REMARK  1 active torsions:
REMARK  status: ('A' for Active; 'I' for Inactive)
REMARK    1  A    between atoms: C6_6  and  C8_8 
ROOT
HETATM    1  C1  UNL     1     -33.385  15.574  -5.208  1.00 20.00     0.036 C 
HETATM    2  C2  UNL     1     -35.141  13.982  -4.373  1.00 20.00     0.036 C 
HETATM    3  C3  UNL     1     -35.533  16.543  -4.103  1.00 20.00     0.016 A 
HETATM    4  C4  UNL     1     -33.723  15.087  -6.615  1.00 20.00     0.168 C 
HETATM    5  C5  UNL     1     -35.379  13.594  -5.829  1.00 20.00     0.168 C 
HETATM    6  C6  UNL     1     -34.656  16.099  -2.963  1.00 20.00     0.005 A 
HETATM    7  C7  UNL     1     -34.579  15.384  -4.301  1.00 20.00    -0.032 A 
HETATM    8  O9  UNL     1     -34.170  13.729  -6.582  1.00 20.00    -0.391 OA
ENDROOT
BRANCH   6   9
HETATM    9  C8  UNL     1     -33.566  16.984  -2.463  1.00 20.00     0.090 C 
HETATM   10 BR10 UNL     1     -34.090  17.829  -0.784  1.00 20.00    -0.096 Br
ENDBRANCH   6   9
TORSDOF 1
ENDMDL
MODEL 4
REMARK VINA RESULT:      -4.0     11.290     12.139
REMARK  1 active torsions:
REMARK  status: ('A' for Active; 'I' for Inactive)
REMARK    1  A    between atoms: C6_6  and  C8_8 
ROOT
HETATM    1  C1  UNL     1     -35.687  14.485  -4.716  1.00 20.00     0.036 C 
HETATM    2  C2  UNL     1     -34.020  15.258  -6.431  1.00 20.00     0.036 C 
HETATM    3  C3  UNL     1     -33.161  14.515  -4.087  1.00 20.00     0.016 A 
HETATM    4  C4  UNL     1     -35.959  13.295  -5.631  1.00 20.00     0.168 C 
HETATM    5  C5  UNL     1     -34.386  14.020  -7.241  1.00 20.00     0.168 C 
HETATM    6  C6  UNL     1     -33.626  15.941  -3.964  1.00 20.00     0.005 A 
HETATM    7  C7  UNL     1     -34.291  15.011  -4.964  1.00 20.00    -0.032 A 
HETATM    8  O9  UNL     1     -35.749  13.655  -7.000  1.00 20.00    -0.391 OA
ENDROOT
BRANCH   6   9
HETATM    9  C8  UNL     1     -34.309  16.406  -2.724  1.00 20.00     0.090 C 
HETATM   10 BR10 UNL     1     -33.204  17.711  -1.785  1.00 20.00    -0.096 Br
ENDBRANCH   6   9
TORSDOF 1
ENDMDL
MODEL 5
REMARK VINA RESULT:      -3.9     11.704     12.566
REMARK  1 active torsions:
REMARK  status: ('A' for Active; 'I' for Inactive)
REMARK    1  A    between atoms: C6_6  and  C8_8 
ROOT
HETATM    1  C1  UNL     1     -34.115  17.308  -4.905  1.00 20.00     0.036 C 
HETATM    2  C2  UNL     1     -33.317  15.047  -4.149  1.00 20.00     0.036 C 
HETATM    3  C3  UNL     1     -34.929  16.394  -2.607  1.00 20.00     0.016 A 
HETATM    4  C4  UNL     1     -34.860  16.584  -6.023  1.00 20.00     0.168 C 
HETATM    5  C5  UNL     1     -34.114  14.458  -5.307  1.00 20.00     0.168 C 
HETATM    6  C6  UNL     1     -33.537  16.914  -2.367  1.00 20.00     0.005 A 
HETATM    7  C7  UNL     1     -33.918  16.372  -3.734  1.00 20.00    -0.032 A 
HETATM    8  O9  UNL     1     -34.171  15.387  -6.394  1.00 20.00    -0.391 OA
ENDROOT
BRANCH   6   9
HETATM    9  C8  UNL     1     -33.309  18.365  -2.114  1.00 20.00     0.090 C 
HETATM   10 BR10 UNL     1     -32.440  18.628  -0.387  1.00 20.00    -0.096 Br
ENDBRANCH   6   9
TORSDOF 1
ENDMDL
MODEL 6
REMARK VINA RESULT:      -3.8     11.153     11.862
REMARK  1 active torsions:
REMARK  status: ('A' for Active; 'I' for Inactive)
REMARK    1  A    between atoms: C6_6  and  C8_8 
ROOT
HETATM    1  C1  UNL     1     -34.433  14.467  -4.165  1.00 20.00     0.036 C 
HETATM    2  C2  UNL     1     -36.915  14.687  -4.502  1.00 20.00     0.036 C 
HETATM    3  C3  UNL     1     -35.447  16.840  -4.512  1.00 20.00     0.016 A 
HETATM    4  C4  UNL     1     -34.394  13.740  -5.505  1.00 20.00     0.168 C 
HETATM    5  C5  UNL     1     -36.728  13.952  -5.824  1.00 20.00     0.168 C 
HETATM    6  C6  UNL     1     -35.721  16.488  -3.074  1.00 20.00     0.005 A 
HETATM    7  C7  UNL     1     -35.631  15.389  -4.119  1.00 20.00    -0.032 A 
HETATM    8  O9  UNL     1     -35.624  13.046  -5.737  1.00 20.00    -0.391 OA
ENDROOT
BRANCH   6   9
HETATM    9  C8  UNL     1     -34.672  16.696  -2.036  1.00 20.00     0.090 C 
HETATM   10 BR10 UNL     1     -35.450  17.481  -0.428  1.00 20.00    -0.096 Br
ENDBRANCH   6   9
TORSDOF 1
ENDMDL
MODEL 7
REMARK VINA RESULT:      -3.8     11.146     12.283
REMARK  1 active torsions:
REMARK  status: ('A' for Active; 'I' for Inactive)
REMARK    1  A    between atoms: C6_6  and  C8_8 
ROOT
HETATM    1  C1  UNL     1     -35.217  15.530  -3.599  1.00 20.00     0.036 C 
HETATM    2  C2  UNL     1     -33.547  16.910  -4.874  1.00 20.00     0.036 C 
HETATM    3  C3  UNL     1     -33.506  16.973  -2.270  1.00 20.00     0.016 A 
HETATM    4  C4  UNL     1     -34.507  14.299  -4.154  1.00 20.00     0.168 C 
HETATM    5  C5  UNL     1     -32.932  15.598  -5.348  1.00 20.00     0.168 C 
HETATM    6  C6  UNL     1     -34.575  17.930  -2.726  1.00 20.00     0.005 A 
HETATM    7  C7  UNL     1     -34.257  16.697  -3.555  1.00 20.00    -0.032 A 
HETATM    8  O9  UNL     1     -33.937  14.582  -5.435  1.00 20.00    -0.391 OA
ENDROOT
BRANCH   6   9
HETATM    9  C8  UNL     1     -35.840  18.070  -1.951  1.00 20.00     0.090 C 
HETATM   10 BR10 UNL     1     -35.561  17.555  -0.090  1.00 20.00    -0.096 Br
ENDBRANCH   6   9
TORSDOF 1
ENDMDL
MODEL 8
REMARK VINA RESULT:      -3.7     11.452     12.389
REMARK  1 active torsions:
REMARK  status: ('A' for Active; 'I' for Inactive)
REMARK    1  A    between atoms: C6_6  and  C8_8 
ROOT
HETATM    1  C1  UNL     1     -34.333  16.930  -4.987  1.00 20.00     0.036 C 
HETATM    2  C2  UNL     1     -34.300  16.387  -2.533  1.00 20.00     0.036 C 
HETATM    3  C3  UNL     1     -33.209  14.715  -4.207  1.00 20.00     0.016 A 
HETATM    4  C4  UNL     1     -33.410  18.101  -4.660  1.00 20.00     0.168 C 
HETATM    5  C5  UNL     1     -33.375  17.585  -2.353  1.00 20.00     0.168 C 
HETATM    6  C6  UNL     1     -34.689  14.443  -4.200  1.00 20.00     0.005 A 
HETATM    7  C7  UNL     1     -34.176  15.849  -3.941  1.00 20.00    -0.032 A 
HETATM    8  O9  UNL     1     -33.659  18.584  -3.337  1.00 20.00    -0.391 OA
ENDROOT
BRANCH   6   9
HETATM    9  C8  UNL     1     -35.391  14.064  -5.459  1.00 20.00     0.090 C 
HETATM   10 BR10 UNL     1     -37.317  14.312  -5.268  1.00 20.00    -0.096 Br
ENDBRANCH   6   9
TORSDOF 1
ENDMDL
MODEL 9
REMARK VINA RESULT:      -3.7     11.549     12.570
REMARK  1 active torsions:
REMARK  status: ('A' for Active; 'I' for Inactive)
REMARK    1  A    between atoms: C6_6  and  C8_8 
ROOT
HETATM    1  C1  UNL     1     -35.098  15.702  -6.247  1.00 20.00     0.036 C 
HETATM    2  C2  UNL     1     -34.534  14.751  -3.989  1.00 20.00     0.036 C 
HETATM    3  C3  UNL     1     -35.915  13.302  -5.656  1.00 20.00     0.016 A 
HETATM    4  C4  UNL     1     -33.603  15.659  -6.551  1.00 20.00     0.168 C 
HETATM    5  C5  UNL     1     -33.074  14.759  -4.429  1.00 20.00     0.168 C 
HETATM    6  C6  UNL     1     -36.875  14.238  -4.971  1.00 20.00     0.005 A 
HETATM    7  C7  UNL     1     -35.435  14.663  -5.201  1.00 20.00    -0.032 A 
HETATM    8  O9  UNL     1     -32.840  15.827  -5.353  1.00 20.00    -0.391 OA
ENDROOT
BRANCH   6   9
HETATM    9  C8  UNL     1     -38.017  14.829  -5.724  1.00 20.00     0.090 C 
HETATM   10 BR10 UNL     1     -39.189  15.819  -4.519  1.00 20.00    -0.096 Br
ENDBRANCH   6   9
TORSDOF 1
ENDMDL
