MODEL 1
REMARK VINA RESULT:      -5.0      0.000      0.000
REMARK  2 active torsions:
REMARK  status: ('A' for Active; 'I' for Inactive)
REMARK    1  A    between atoms: C4_4  and  C9_9 
REMARK    2  A    between atoms: C5_5  and  C6_6 
ROOT
HETATM    1  C3  UNL     1     -31.621   7.546   3.545  1.00 20.00     0.017 A 
HETATM    2  C4  UNL     1     -32.729   8.449   3.083  1.00 20.00     0.009 A 
HETATM    3  C6  UNL     1     -33.039   7.297   4.030  1.00 20.00    -0.032 A 
HETATM    4  C8  UNL     1     -33.339   7.683   5.459  1.00 20.00     0.016 C 
ENDROOT
BRANCH   3   5
HETATM    5  C5  UNL     1     -33.804   6.049   3.570  1.00 20.00    -0.036 A 
HETATM    6  C1  UNL     1     -34.759   5.351   4.509  1.00 20.00     0.011 A 
HETATM    7  C2  UNL     1     -35.294   6.114   3.331  1.00 20.00     0.011 A 
HETATM    8  C7  UNL     1     -33.013   5.166   2.637  1.00 20.00     0.016 C 
ENDBRANCH   3   5
BRANCH   2   9
HETATM    9  C9  UNL     1     -33.159   8.438   1.657  1.00 20.00     0.120 C 
HETATM   10 CL10 UNL     1     -32.851  10.014   0.877  1.00 20.00    -0.130 Cl
ENDBRANCH   2   9
TORSDOF 2
ENDMDL
MODEL 2
REMARK VINA RESULT:      -4.5      1.164      2.467
REMARK  2 active torsions:
REMARK  status: ('A' for Active; 'I' for Inactive)
REMARK    1  A    between atoms: C4_4  and  C9_9 
REMARK    2  A    between atoms: C5_5  and  C6_6 
ROOT
HETATM    1  C3  UNL     1     -33.672   6.128   1.797  1.00 20.00     0.017 A 
HETATM    2  C4  UNL     1     -32.541   6.543   2.694  1.00 20.00     0.009 A 
HETATM    3  C6  UNL     1     -33.543   5.502   3.176  1.00 20.00    -0.032 A 
HETATM    4  C8  UNL     1     -33.040   4.078   3.222  1.00 20.00     0.016 C 
ENDROOT
BRANCH   3   5
HETATM    5  C5  UNL     1     -34.578   5.812   4.264  1.00 20.00    -0.036 A 
HETATM    6  C1  UNL     1     -34.610   5.002   5.539  1.00 20.00     0.011 A 
HETATM    7  C2  UNL     1     -34.145   6.429   5.573  1.00 20.00     0.011 A 
HETATM    8  C7  UNL     1     -35.912   6.261   3.719  1.00 20.00     0.016 C 
ENDBRANCH   3   5
BRANCH   2   9
HETATM    9  C9  UNL     1     -32.498   7.920   3.259  1.00 20.00     0.120 C 
HETATM   10 CL10 UNL     1     -32.093   9.123   2.003  1.00 20.00    -0.130 Cl
ENDBRANCH   2   9
TORSDOF 2
ENDMDL
MODEL 3
REMARK VINA RESULT:      -3.9     11.095     11.891
REMARK  2 active torsions:
REMARK  status: ('A' for Active; 'I' for Inactive)
REMARK    1  A    between atoms: C4_4  and  C9_9 
REMARK    2  A    between atoms: C5_5  and  C6_6 
ROOT
HETATM    1  C3  UNL     1     -33.130  14.728  -4.683  1.00 20.00     0.017 A 
HETATM    2  C4  UNL     1     -33.294  16.091  -5.291  1.00 20.00     0.009 A 
HETATM    3  C6  UNL     1     -34.267  15.622  -4.217  1.00 20.00    -0.032 A 
HETATM    4  C8  UNL     1     -34.106  16.263  -2.859  1.00 20.00     0.016 C 
ENDROOT
BRANCH   3   5
HETATM    5  C5  UNL     1     -35.720  15.253  -4.542  1.00 20.00    -0.036 A 
HETATM    6  C1  UNL     1     -36.858  15.905  -3.793  1.00 20.00     0.011 A 
HETATM    7  C2  UNL     1     -36.621  16.247  -5.236  1.00 20.00     0.011 A 
HETATM    8  C7  UNL     1     -35.906  13.804  -4.918  1.00 20.00     0.016 C 
ENDBRANCH   3   5
BRANCH   2   9
HETATM    9  C9  UNL     1     -33.698  16.231  -6.718  1.00 20.00     0.120 C 
HETATM   10 CL10 UNL     1     -33.668  14.656  -7.557  1.00 20.00    -0.130 Cl
ENDBRANCH   2   9
TORSDOF 2
ENDMDL
MODEL 4
REMARK VINA RESULT:      -3.8     10.697     12.122
REMARK  2 active torsions:
REMARK  status: ('A' for Active; 'I' for Inactive)
REMARK    1  A    between atoms: C4_4  and  C9_9 
REMARK    2  A    between atoms: C5_5  and  C6_6 
ROOT
HETATM    1  C3  UNL     1     -34.194  14.182  -6.849  1.00 20.00     0.017 A 
HETATM    2  C4  UNL     1     -35.567  14.567  -6.379  1.00 20.00     0.009 A 
HETATM    3  C6  UNL     1     -34.362  15.388  -5.941  1.00 20.00    -0.032 A 
HETATM    4  C8  UNL     1     -34.219  16.744  -6.591  1.00 20.00     0.016 C 
ENDROOT
BRANCH   3   5
HETATM    5  C5  UNL     1     -33.832  15.351  -4.502  1.00 20.00    -0.036 A 
HETATM    6  C1  UNL     1     -33.618  16.634  -3.735  1.00 20.00     0.011 A 
HETATM    7  C2  UNL     1     -34.738  15.713  -3.348  1.00 20.00     0.011 A 
HETATM    8  C7  UNL     1     -32.838  14.244  -4.252  1.00 20.00     0.016 C 
ENDBRANCH   3   5
BRANCH   2   9
HETATM    9  C9  UNL     1     -36.311  13.688  -5.435  1.00 20.00     0.120 C 
HETATM   10 CL10 UNL     1     -37.839  14.447  -4.909  1.00 20.00    -0.130 Cl
ENDBRANCH   2   9
TORSDOF 2
ENDMDL
MODEL 5
REMARK VINA RESULT:      -3.8     10.909     12.414
REMARK  2 active torsions:
REMARK  status: ('A' for Active; 'I' for Inactive)
REMARK    1  A    between atoms: C4_4  and  C9_9 
REMARK    2  A    between atoms: C5_5  and  C6_6 
ROOT
HETATM    1  C3  UNL     1     -33.544  15.891  -6.808  1.00 20.00     0.017 A 
HETATM    2  C4  UNL     1     -35.010  16.085  -6.549  1.00 20.00     0.009 A 
HETATM    3  C6  UNL     1     -33.994  16.544  -5.512  1.00 20.00    -0.032 A 
HETATM    4  C8  UNL     1     -33.793  18.038  -5.406  1.00 20.00     0.016 C 
ENDROOT
BRANCH   3   5
HETATM    5  C5  UNL     1     -33.810  15.814  -4.176  1.00 20.00    -0.036 A 
HETATM    6  C1  UNL     1     -33.681  16.598  -2.891  1.00 20.00     0.011 A 
HETATM    7  C2  UNL     1     -34.924  15.799  -3.156  1.00 20.00     0.011 A 
HETATM    8  C7  UNL     1     -32.981  14.558  -4.283  1.00 20.00     0.016 C 
ENDBRANCH   3   5
BRANCH   2   9
HETATM    9  C9  UNL     1     -35.894  14.907  -6.324  1.00 20.00     0.120 C 
HETATM   10 CL10 UNL     1     -35.159  13.414  -6.973  1.00 20.00    -0.130 Cl
ENDBRANCH   2   9
TORSDOF 2
ENDMDL
MODEL 6
REMARK VINA RESULT:      -3.8      1.443      2.233
REMARK  2 active torsions:
REMARK  status: ('A' for Active; 'I' for Inactive)
REMARK    1  A    between atoms: C4_4  and  C9_9 
REMARK    2  A    between atoms: C5_5  and  C6_6 
ROOT
HETATM    1  C3  UNL     1     -31.393   8.201   1.336  1.00 20.00     0.017 A 
HETATM    2  C4  UNL     1     -32.220   9.355   1.827  1.00 20.00     0.009 A 
HETATM    3  C6  UNL     1     -32.037   8.127   2.710  1.00 20.00    -0.032 A 
HETATM    4  C8  UNL     1     -31.117   8.301   3.895  1.00 20.00     0.016 C 
ENDROOT
BRANCH   3   5
HETATM    5  C5  UNL     1     -33.180   7.138   2.974  1.00 20.00    -0.036 A 
HETATM    6  C1  UNL     1     -33.879   6.457   1.822  1.00 20.00     0.011 A 
HETATM    7  C2  UNL     1     -32.981   5.662   2.725  1.00 20.00     0.011 A 
HETATM    8  C7  UNL     1     -34.039   7.509   4.158  1.00 20.00     0.016 C 
ENDBRANCH   3   5
BRANCH   2   9
HETATM    9  C9  UNL     1     -33.521   9.675   1.176  1.00 20.00     0.120 C 
HETATM   10 CL10 UNL     1     -33.437   9.434  -0.592  1.00 20.00    -0.130 Cl
ENDBRANCH   2   9
TORSDOF 2
ENDMDL
MODEL 7
REMARK VINA RESULT:      -3.7     10.771     12.226
REMARK  2 active torsions:
REMARK  status: ('A' for Active; 'I' for Inactive)
REMARK    1  A    between atoms: C4_4  and  C9_9 
REMARK    2  A    between atoms: C5_5  and  C6_6 
ROOT
HETATM    1  C3  UNL     1     -33.311  14.435  -4.512  1.00 20.00     0.017 A 
HETATM    2  C4  UNL     1     -34.215  15.216  -3.603  1.00 20.00     0.009 A 
HETATM    3  C6  UNL     1     -34.710  14.796  -4.981  1.00 20.00    -0.032 A 
HETATM    4  C8  UNL     1     -35.723  13.676  -5.003  1.00 20.00     0.016 C 
ENDROOT
BRANCH   3   5
HETATM    5  C5  UNL     1     -34.905  15.808  -6.118  1.00 20.00    -0.036 A 
HETATM    6  C1  UNL     1     -36.180  15.808  -6.927  1.00 20.00     0.011 A 
HETATM    7  C2  UNL     1     -35.901  16.934  -5.973  1.00 20.00     0.011 A 
HETATM    8  C7  UNL     1     -33.634  16.129  -6.866  1.00 20.00     0.016 C 
ENDBRANCH   3   5
BRANCH   2   9
HETATM    9  C9  UNL     1     -33.903  16.635  -3.273  1.00 20.00     0.120 C 
HETATM   10 CL10 UNL     1     -34.200  16.978  -1.546  1.00 20.00    -0.130 Cl
ENDBRANCH   2   9
TORSDOF 2
ENDMDL
MODEL 8
REMARK VINA RESULT:      -3.7     11.045     12.221
REMARK  2 active torsions:
REMARK  status: ('A' for Active; 'I' for Inactive)
REMARK    1  A    between atoms: C4_4  and  C9_9 
REMARK    2  A    between atoms: C5_5  and  C6_6 
ROOT
HETATM    1  C3  UNL     1     -36.786  15.730  -3.975  1.00 20.00     0.017 A 
HETATM    2  C4  UNL     1     -36.444  16.032  -5.406  1.00 20.00     0.009 A 
HETATM    3  C6  UNL     1     -35.579  15.062  -4.612  1.00 20.00    -0.032 A 
HETATM    4  C8  UNL     1     -35.731  13.602  -4.971  1.00 20.00     0.016 C 
ENDROOT
BRANCH   3   5
HETATM    5  C5  UNL     1     -34.163  15.425  -4.150  1.00 20.00    -0.036 A 
HETATM    6  C1  UNL     1     -33.027  14.446  -4.333  1.00 20.00     0.011 A 
HETATM    7  C2  UNL     1     -33.077  15.695  -5.165  1.00 20.00     0.011 A 
HETATM    8  C7  UNL     1     -34.132  16.264  -2.897  1.00 20.00     0.016 C 
ENDBRANCH   3   5
BRANCH   2   9
HETATM    9  C9  UNL     1     -35.962  17.388  -5.791  1.00 20.00     0.120 C 
HETATM   10 CL10 UNL     1     -35.318  17.397  -7.457  1.00 20.00    -0.130 Cl
ENDBRANCH   2   9
TORSDOF 2
ENDMDL
MODEL 9
REMARK VINA RESULT:      -3.7     10.654     11.666
REMARK  2 active torsions:
REMARK  status: ('A' for Active; 'I' for Inactive)
REMARK    1  A    between atoms: C4_4  and  C9_9 
REMARK    2  A    between atoms: C5_5  and  C6_6 
ROOT
HETATM    1  C3  UNL     1     -33.481  16.808  -4.192  1.00 20.00     0.017 A 
HETATM    2  C4  UNL     1     -34.187  16.202  -3.013  1.00 20.00     0.009 A 
HETATM    3  C6  UNL     1     -34.099  15.426  -4.320  1.00 20.00    -0.032 A 
HETATM    4  C8  UNL     1     -33.140  14.259  -4.328  1.00 20.00     0.016 C 
ENDROOT
BRANCH   3   5
HETATM    5  C5  UNL     1     -35.322  15.208  -5.220  1.00 20.00    -0.036 A 
HETATM    6  C1  UNL     1     -35.693  13.818  -5.678  1.00 20.00     0.011 A 
HETATM    7  C2  UNL     1     -36.556  14.528  -4.676  1.00 20.00     0.011 A 
HETATM    8  C7  UNL     1     -35.552  16.325  -6.208  1.00 20.00     0.016 C 
ENDBRANCH   3   5
BRANCH   2   9
HETATM    9  C9  UNL     1     -35.467  16.786  -2.523  1.00 20.00     0.120 C 
HETATM   10 CL10 UNL     1     -35.436  17.024  -0.754  1.00 20.00    -0.130 Cl
ENDBRANCH   2   9
TORSDOF 2
ENDMDL
