MODEL 1
REMARK VINA RESULT:      -5.8      0.000      0.000
REMARK  3 active torsions:
REMARK  status: ('A' for Active; 'I' for Inactive)
REMARK    1  A    between atoms: C2_2  and  C7_7 
REMARK    2  A    between atoms: C3_3  and  C9_9 
REMARK    3  A    between atoms: C8_8  and  C9_9 
ROOT
HETATM    1  C1  UNL     1     -31.631   7.671   3.298  1.00 20.00     0.016 A 
HETATM    2  C2  UNL     1     -32.508   8.006   2.125  1.00 20.00     0.009 A 
HETATM    3  C3  UNL     1     -32.917   6.890   3.085  1.00 20.00    -0.036 A 
HETATM    4  C4  UNL     1     -32.806   5.474   2.583  1.00 20.00     0.016 C 
ENDROOT
BRANCH   3   5
HETATM    5  C9  UNL     1     -34.046   7.109   4.057  1.00 20.00    -0.010 C 
HETATM    6  C6  UNL     1     -33.503   7.483   5.446  1.00 20.00     0.011 C 
BRANCH   5   7
HETATM    7  C8  UNL     1     -34.973   5.877   4.206  1.00 20.00     0.000 C 
HETATM    8  C5  UNL     1     -34.709   5.078   5.474  1.00 20.00     0.005 C 
ENDBRANCH   5   7
ENDBRANCH   3   5
BRANCH   2   9
HETATM    9  C7  UNL     1     -33.215   9.317   2.065  1.00 20.00     0.120 C 
HETATM   10 CL10 UNL     1     -32.546  10.354   0.776  1.00 20.00    -0.130 Cl
ENDBRANCH   2   9
TORSDOF 3
ENDMDL
MODEL 2
REMARK VINA RESULT:      -4.5      1.342      2.511
REMARK  3 active torsions:
REMARK  status: ('A' for Active; 'I' for Inactive)
REMARK    1  A    between atoms: C2_2  and  C7_7 
REMARK    2  A    between atoms: C3_3  and  C9_9 
REMARK    3  A    between atoms: C8_8  and  C9_9 
ROOT
HETATM    1  C1  UNL     1     -33.608   5.494   2.206  1.00 20.00     0.016 A 
HETATM    2  C2  UNL     1     -33.459   6.937   2.596  1.00 20.00     0.009 A 
HETATM    3  C3  UNL     1     -34.325   6.007   3.445  1.00 20.00    -0.036 A 
HETATM    4  C4  UNL     1     -35.817   6.194   3.367  1.00 20.00     0.016 C 
ENDROOT
BRANCH   3   5
HETATM    5  C9  UNL     1     -33.835   5.540   4.789  1.00 20.00    -0.010 C 
HETATM    6  C6  UNL     1     -34.212   4.068   5.024  1.00 20.00     0.011 C 
BRANCH   5   7
HETATM    7  C8  UNL     1     -34.383   6.383   5.967  1.00 20.00     0.000 C 
HETATM    8  C5  UNL     1     -33.609   7.674   6.192  1.00 20.00     0.005 C 
ENDBRANCH   5   7
ENDBRANCH   3   5
BRANCH   2   9
HETATM    9  C7  UNL     1     -32.142   7.458   3.061  1.00 20.00     0.120 C 
HETATM   10 CL10 UNL     1     -31.699   8.957   2.198  1.00 20.00    -0.130 Cl
ENDBRANCH   2   9
TORSDOF 3
ENDMDL
MODEL 3
REMARK VINA RESULT:      -4.1     10.919     11.984
REMARK  3 active torsions:
REMARK  status: ('A' for Active; 'I' for Inactive)
REMARK    1  A    between atoms: C2_2  and  C7_7 
REMARK    2  A    between atoms: C3_3  and  C9_9 
REMARK    3  A    between atoms: C8_8  and  C9_9 
ROOT
HETATM    1  C1  UNL     1     -34.891  16.944  -4.319  1.00 20.00     0.016 A 
HETATM    2  C2  UNL     1     -33.510  16.445  -4.633  1.00 20.00     0.009 A 
HETATM    3  C3  UNL     1     -33.710  17.481  -3.527  1.00 20.00    -0.036 A 
HETATM    4  C4  UNL     1     -33.254  18.887  -3.811  1.00 20.00     0.016 C 
ENDROOT
BRANCH   3   5
HETATM    5  C9  UNL     1     -33.584  17.075  -2.083  1.00 20.00    -0.010 C 
HETATM    6  C6  UNL     1     -34.972  16.946  -1.431  1.00 20.00     0.011 C 
BRANCH   5   7
HETATM    7  C8  UNL     1     -32.734  18.059  -1.242  1.00 20.00     0.000 C 
HETATM    8  C5  UNL     1     -33.426  18.507   0.037  1.00 20.00     0.005 C 
ENDBRANCH   5   7
ENDBRANCH   3   5
BRANCH   2   9
HETATM    9  C7  UNL     1     -33.140  15.028  -4.352  1.00 20.00     0.120 C 
HETATM   10 CL10 UNL     1     -34.592  14.019  -4.102  1.00 20.00    -0.130 Cl
ENDBRANCH   2   9
TORSDOF 3
ENDMDL
MODEL 4
REMARK VINA RESULT:      -3.9      1.342      2.262
REMARK  3 active torsions:
REMARK  status: ('A' for Active; 'I' for Inactive)
REMARK    1  A    between atoms: C2_2  and  C7_7 
REMARK    2  A    between atoms: C3_3  and  C9_9 
REMARK    3  A    between atoms: C8_8  and  C9_9 
ROOT
HETATM    1  C1  UNL     1     -32.458   9.719   2.188  1.00 20.00     0.016 A 
HETATM    2  C2  UNL     1     -31.645   8.865   1.258  1.00 20.00     0.009 A 
HETATM    3  C3  UNL     1     -32.127   8.291   2.590  1.00 20.00    -0.036 A 
HETATM    4  C4  UNL     1     -31.093   8.084   3.665  1.00 20.00     0.016 C 
ENDROOT
BRANCH   3   5
HETATM    5  C9  UNL     1     -33.248   7.286   2.616  1.00 20.00    -0.010 C 
HETATM    6  C6  UNL     1     -34.066   7.417   3.911  1.00 20.00     0.011 C 
BRANCH   5   7
HETATM    7  C8  UNL     1     -32.760   5.822   2.487  1.00 20.00     0.000 C 
HETATM    8  C5  UNL     1     -33.624   4.832   3.254  1.00 20.00     0.005 C 
ENDBRANCH   5   7
ENDBRANCH   3   5
BRANCH   2   9
HETATM    9  C7  UNL     1     -32.208   8.437  -0.054  1.00 20.00     0.120 C 
HETATM   10 CL10 UNL     1     -33.433   9.596  -0.641  1.00 20.00    -0.130 Cl
ENDBRANCH   2   9
TORSDOF 3
ENDMDL
MODEL 5
REMARK VINA RESULT:      -3.8      1.143      2.109
REMARK  3 active torsions:
REMARK  status: ('A' for Active; 'I' for Inactive)
REMARK    1  A    between atoms: C2_2  and  C7_7 
REMARK    2  A    between atoms: C3_3  and  C9_9 
REMARK    3  A    between atoms: C8_8  and  C9_9 
ROOT
HETATM    1  C1  UNL     1     -33.651   8.713   3.374  1.00 20.00     0.016 A 
HETATM    2  C2  UNL     1     -32.296   8.073   3.266  1.00 20.00     0.009 A 
HETATM    3  C3  UNL     1     -33.445   7.313   3.929  1.00 20.00    -0.036 A 
HETATM    4  C4  UNL     1     -33.389   7.151   5.425  1.00 20.00     0.016 C 
ENDROOT
BRANCH   3   5
HETATM    5  C9  UNL     1     -34.101   6.164   3.212  1.00 20.00    -0.010 C 
HETATM    6  C6  UNL     1     -35.562   6.003   3.666  1.00 20.00     0.011 C 
BRANCH   5   7
HETATM    7  C8  UNL     1     -33.369   4.815   3.418  1.00 20.00     0.000 C 
HETATM    8  C5  UNL     1     -34.105   3.871   4.358  1.00 20.00     0.005 C 
ENDBRANCH   5   7
ENDBRANCH   3   5
BRANCH   2   9
HETATM    9  C7  UNL     1     -31.747   7.697   1.932  1.00 20.00     0.120 C 
HETATM   10 CL10 UNL     1     -31.849   9.060   0.784  1.00 20.00    -0.130 Cl
ENDBRANCH   2   9
TORSDOF 3
ENDMDL
MODEL 6
REMARK VINA RESULT:      -3.8      2.308      3.027
REMARK  3 active torsions:
REMARK  status: ('A' for Active; 'I' for Inactive)
REMARK    1  A    between atoms: C2_2  and  C7_7 
REMARK    2  A    between atoms: C3_3  and  C9_9 
REMARK    3  A    between atoms: C8_8  and  C9_9 
ROOT
HETATM    1  C1  UNL     1     -32.700   7.324   2.328  1.00 20.00     0.016 A 
HETATM    2  C2  UNL     1     -33.416   7.683   3.599  1.00 20.00     0.009 A 
HETATM    3  C3  UNL     1     -33.745   6.372   2.885  1.00 20.00    -0.036 A 
HETATM    4  C4  UNL     1     -35.071   6.289   2.175  1.00 20.00     0.016 C 
ENDROOT
BRANCH   3   5
HETATM    5  C9  UNL     1     -33.275   5.063   3.460  1.00 20.00    -0.010 C 
HETATM    6  C6  UNL     1     -32.682   4.167   2.359  1.00 20.00     0.011 C 
BRANCH   5   7
HETATM    7  C8  UNL     1     -34.394   4.276   4.186  1.00 20.00     0.000 C 
HETATM    8  C5  UNL     1     -34.617   4.734   5.619  1.00 20.00     0.005 C 
ENDBRANCH   5   7
ENDBRANCH   3   5
BRANCH   2   9
HETATM    9  C7  UNL     1     -32.675   7.732   4.891  1.00 20.00     0.120 C 
HETATM   10 CL10 UNL     1     -33.793   7.643   6.281  1.00 20.00    -0.130 Cl
ENDBRANCH   2   9
TORSDOF 3
ENDMDL
MODEL 7
REMARK VINA RESULT:      -3.8     10.656     11.755
REMARK  3 active torsions:
REMARK  status: ('A' for Active; 'I' for Inactive)
REMARK    1  A    between atoms: C2_2  and  C7_7 
REMARK    2  A    between atoms: C3_3  and  C9_9 
REMARK    3  A    between atoms: C8_8  and  C9_9 
ROOT
HETATM    1  C1  UNL     1     -34.492  14.400  -6.183  1.00 20.00     0.016 A 
HETATM    2  C2  UNL     1     -35.325  13.865  -5.053  1.00 20.00     0.009 A 
HETATM    3  C3  UNL     1     -34.145  14.789  -4.754  1.00 20.00    -0.036 A 
HETATM    4  C4  UNL     1     -32.924  14.166  -4.132  1.00 20.00     0.016 C 
ENDROOT
BRANCH   3   5
HETATM    5  C9  UNL     1     -34.392  16.212  -4.329  1.00 20.00    -0.010 C 
HETATM    6  C6  UNL     1     -33.689  17.193  -5.282  1.00 20.00     0.011 C 
BRANCH   5   7
HETATM    7  C8  UNL     1     -33.924  16.509  -2.884  1.00 20.00     0.000 C 
HETATM    8  C5  UNL     1     -35.076  16.689  -1.906  1.00 20.00     0.005 C 
ENDBRANCH   5   7
ENDBRANCH   3   5
BRANCH   2   9
HETATM    9  C7  UNL     1     -36.744  14.294  -4.898  1.00 20.00     0.120 C 
HETATM   10 CL10 UNL     1     -37.410  14.899  -6.440  1.00 20.00    -0.130 Cl
ENDBRANCH   2   9
TORSDOF 3
ENDMDL
MODEL 8
REMARK VINA RESULT:      -3.8     10.531     12.315
REMARK  3 active torsions:
REMARK  status: ('A' for Active; 'I' for Inactive)
REMARK    1  A    between atoms: C2_2  and  C7_7 
REMARK    2  A    between atoms: C3_3  and  C9_9 
REMARK    3  A    between atoms: C8_8  and  C9_9 
ROOT
HETATM    1  C1  UNL     1     -35.479  16.306  -2.948  1.00 20.00     0.016 A 
HETATM    2  C2  UNL     1     -34.011  16.460  -2.670  1.00 20.00     0.009 A 
HETATM    3  C3  UNL     1     -34.472  15.766  -3.951  1.00 20.00    -0.036 A 
HETATM    4  C4  UNL     1     -34.288  14.274  -4.029  1.00 20.00     0.016 C 
ENDROOT
BRANCH   3   5
HETATM    5  C9  UNL     1     -34.346  16.470  -5.276  1.00 20.00    -0.010 C 
HETATM    6  C6  UNL     1     -35.706  16.532  -5.990  1.00 20.00     0.011 C 
BRANCH   5   7
HETATM    7  C8  UNL     1     -33.320  15.806  -6.226  1.00 20.00     0.000 C 
HETATM    8  C5  UNL     1     -33.924  15.377  -7.556  1.00 20.00     0.005 C 
ENDBRANCH   5   7
ENDBRANCH   3   5
BRANCH   2   9
HETATM    9  C7  UNL     1     -33.384  17.813  -2.667  1.00 20.00     0.120 C 
HETATM   10 CL10 UNL     1     -32.524  18.124  -1.134  1.00 20.00    -0.130 Cl
ENDBRANCH   2   9
TORSDOF 3
ENDMDL
MODEL 9
REMARK VINA RESULT:      -3.7      2.331      4.144
REMARK  3 active torsions:
REMARK  status: ('A' for Active; 'I' for Inactive)
REMARK    1  A    between atoms: C2_2  and  C7_7 
REMARK    2  A    between atoms: C3_3  and  C9_9 
REMARK    3  A    between atoms: C8_8  and  C9_9 
ROOT
HETATM    1  C1  UNL     1     -34.828   4.867   5.503  1.00 20.00     0.016 A 
HETATM    2  C2  UNL     1     -34.469   4.308   4.156  1.00 20.00     0.009 A 
HETATM    3  C3  UNL     1     -34.642   5.817   4.331  1.00 20.00    -0.036 A 
HETATM    4  C4  UNL     1     -35.873   6.442   3.730  1.00 20.00     0.016 C 
ENDROOT
BRANCH   3   5
HETATM    5  C9  UNL     1     -33.437   6.718   4.335  1.00 20.00    -0.010 C 
HETATM    6  C6  UNL     1     -33.430   7.612   5.586  1.00 20.00     0.011 C 
BRANCH   5   7
HETATM    7  C8  UNL     1     -33.345   7.623   3.082  1.00 20.00     0.000 C 
HETATM    8  C5  UNL     1     -31.924   8.070   2.768  1.00 20.00     0.005 C 
ENDBRANCH   5   7
ENDBRANCH   3   5
BRANCH   2   9
HETATM    9  C7  UNL     1     -33.140   3.671   3.937  1.00 20.00     0.120 C 
HETATM   10 CL10 UNL     1     -32.531   3.993   2.290  1.00 20.00    -0.130 Cl
ENDBRANCH   2   9
TORSDOF 3
ENDMDL
