MODEL 1
REMARK VINA RESULT:      -5.0      0.000      0.000
REMARK  2 active torsions:
REMARK  status: ('A' for Active; 'I' for Inactive)
REMARK    1  A    between atoms: C3_3  and  C7_7 
REMARK    2  A    between atoms: C4_4  and  O8_8 
ROOT
HETATM    1  C1  UNL     1     -34.014   5.122   4.631  1.00 20.00     0.037 C 
HETATM    2  C2  UNL     1     -34.390   6.615   4.783  1.00 20.00    -0.010 C 
HETATM    3  C3  UNL     1     -33.747   6.851   3.379  1.00 20.00     0.018 C 
HETATM    4  C4  UNL     1     -33.994   5.339   3.100  1.00 20.00     0.122 C 
HETATM    5  C5  UNL     1     -33.832   7.329   5.999  1.00 20.00     0.010 C 
ENDROOT
BRANCH   3   6
HETATM    6  C7  UNL     1     -32.302   7.328   3.317  1.00 20.00     0.003 C 
HETATM    7  C6  UNL     1     -32.107   8.376   2.266  1.00 20.00     0.005 C 
ENDBRANCH   3   6
BRANCH   4   8
HETATM    8  O8  UNL     1     -32.971   4.637   2.372  1.00 20.00    -0.395 OA
HETATM    9  H22 UNL     1     -33.407   4.266   1.595  1.00 20.00     0.210 HD
ENDBRANCH   4   8
TORSDOF 2
ENDMDL
MODEL 2
REMARK VINA RESULT:      -4.7      1.486      2.638
REMARK  2 active torsions:
REMARK  status: ('A' for Active; 'I' for Inactive)
REMARK    1  A    between atoms: C3_3  and  C7_7 
REMARK    2  A    between atoms: C4_4  and  O8_8 
ROOT
HETATM    1  C1  UNL     1     -33.225   5.360   2.689  1.00 20.00     0.037 C 
HETATM    2  C2  UNL     1     -34.437   5.445   3.647  1.00 20.00    -0.010 C 
HETATM    3  C3  UNL     1     -34.011   6.919   3.945  1.00 20.00     0.018 C 
HETATM    4  C4  UNL     1     -33.278   6.901   2.572  1.00 20.00     0.122 C 
HETATM    5  C5  UNL     1     -34.478   4.430   4.772  1.00 20.00     0.010 C 
ENDROOT
BRANCH   3   6
HETATM    6  C7  UNL     1     -33.152   7.189   5.173  1.00 20.00     0.003 C 
HETATM    7  C6  UNL     1     -33.979   7.587   6.354  1.00 20.00     0.005 C 
ENDBRANCH   3   6
BRANCH   4   8
HETATM    8  O8  UNL     1     -32.010   7.576   2.504  1.00 20.00    -0.395 OA
HETATM    9  H22 UNL     1     -32.049   8.280   3.163  1.00 20.00     0.210 HD
ENDBRANCH   4   8
TORSDOF 2
ENDMDL
MODEL 3
REMARK VINA RESULT:      -4.4      1.640      2.741
REMARK  2 active torsions:
REMARK  status: ('A' for Active; 'I' for Inactive)
REMARK    1  A    between atoms: C3_3  and  C7_7 
REMARK    2  A    between atoms: C4_4  and  O8_8 
ROOT
HETATM    1  C1  UNL     1     -33.878   7.011   5.301  1.00 20.00     0.037 C 
HETATM    2  C2  UNL     1     -33.650   7.310   3.800  1.00 20.00    -0.010 C 
HETATM    3  C3  UNL     1     -34.172   5.868   3.503  1.00 20.00     0.018 C 
HETATM    4  C4  UNL     1     -34.903   5.936   4.876  1.00 20.00     0.122 C 
HETATM    5  C5  UNL     1     -32.241   7.701   3.397  1.00 20.00     0.010 C 
ENDROOT
BRANCH   3   6
HETATM    6  C7  UNL     1     -33.151   4.751   3.330  1.00 20.00     0.003 C 
HETATM    7  C6  UNL     1     -33.003   4.350   1.896  1.00 20.00     0.005 C 
ENDBRANCH   3   6
BRANCH   4   8
HETATM    8  O8  UNL     1     -34.924   4.731   5.662  1.00 20.00    -0.395 OA
HETATM    9  H22 UNL     1     -34.984   5.016   6.582  1.00 20.00     0.210 HD
ENDBRANCH   4   8
TORSDOF 2
ENDMDL
MODEL 4
REMARK VINA RESULT:      -4.1      1.387      2.799
REMARK  2 active torsions:
REMARK  status: ('A' for Active; 'I' for Inactive)
REMARK    1  A    between atoms: C3_3  and  C7_7 
REMARK    2  A    between atoms: C4_4  and  O8_8 
ROOT
HETATM    1  C1  UNL     1     -34.128   5.548   2.454  1.00 20.00     0.037 C 
HETATM    2  C2  UNL     1     -32.905   6.384   2.902  1.00 20.00    -0.010 C 
HETATM    3  C3  UNL     1     -33.332   6.094   4.377  1.00 20.00     0.018 C 
HETATM    4  C4  UNL     1     -34.082   4.844   3.829  1.00 20.00     0.122 C 
HETATM    5  C5  UNL     1     -32.847   7.814   2.401  1.00 20.00     0.010 C 
ENDROOT
BRANCH   3   6
HETATM    6  C7  UNL     1     -34.178   7.132   5.102  1.00 20.00     0.003 C 
HETATM    7  C6  UNL     1     -33.473   7.685   6.300  1.00 20.00     0.005 C 
ENDBRANCH   3   6
BRANCH   4   8
HETATM    8  O8  UNL     1     -35.353   4.535   4.428  1.00 20.00    -0.395 OA
HETATM    9  H22 UNL     1     -35.879   4.120   3.733  1.00 20.00     0.210 HD
ENDBRANCH   4   8
TORSDOF 2
ENDMDL
MODEL 5
REMARK VINA RESULT:      -3.8      1.964      3.625
REMARK  2 active torsions:
REMARK  status: ('A' for Active; 'I' for Inactive)
REMARK    1  A    between atoms: C3_3  and  C7_7 
REMARK    2  A    between atoms: C4_4  and  O8_8 
ROOT
HETATM    1  C1  UNL     1     -32.236   7.067   3.005  1.00 20.00     0.037 C 
HETATM    2  C2  UNL     1     -33.511   6.219   2.787  1.00 20.00    -0.010 C 
HETATM    3  C3  UNL     1     -33.982   6.686   4.201  1.00 20.00     0.018 C 
HETATM    4  C4  UNL     1     -33.036   7.910   4.025  1.00 20.00     0.122 C 
HETATM    5  C5  UNL     1     -33.300   4.743   2.511  1.00 20.00     0.010 C 
ENDROOT
BRANCH   3   6
HETATM    6  C7  UNL     1     -33.707   5.777   5.392  1.00 20.00     0.003 C 
HETATM    7  C6  UNL     1     -34.863   4.873   5.681  1.00 20.00     0.005 C 
ENDBRANCH   3   6
BRANCH   4   8
HETATM    8  O8  UNL     1     -32.316   8.348   5.191  1.00 20.00    -0.395 OA
HETATM    9  H22 UNL     1     -32.700   9.200   5.434  1.00 20.00     0.210 HD
ENDBRANCH   4   8
TORSDOF 2
ENDMDL
MODEL 6
REMARK VINA RESULT:      -3.6     11.642     12.383
REMARK  2 active torsions:
REMARK  status: ('A' for Active; 'I' for Inactive)
REMARK    1  A    between atoms: C3_3  and  C7_7 
REMARK    2  A    between atoms: C4_4  and  O8_8 
ROOT
HETATM    1  C1  UNL     1     -35.315  14.017  -6.456  1.00 20.00     0.037 C 
HETATM    2  C2  UNL     1     -34.056  14.403  -5.644  1.00 20.00    -0.010 C 
HETATM    3  C3  UNL     1     -34.962  14.409  -4.371  1.00 20.00     0.018 C 
HETATM    4  C4  UNL     1     -35.923  13.462  -5.148  1.00 20.00     0.122 C 
HETATM    5  C5  UNL     1     -33.342  15.671  -6.068  1.00 20.00     0.010 C 
ENDROOT
BRANCH   3   6
HETATM    6  C7  UNL     1     -35.543  15.736  -3.904  1.00 20.00     0.003 C 
HETATM    7  C6  UNL     1     -34.869  16.234  -2.665  1.00 20.00     0.005 C 
ENDBRANCH   3   6
BRANCH   4   8
HETATM    8  O8  UNL     1     -37.334  13.674  -4.963  1.00 20.00    -0.395 OA
HETATM    9  H22 UNL     1     -37.436  14.614  -4.765  1.00 20.00     0.210 HD
ENDBRANCH   4   8
TORSDOF 2
ENDMDL
MODEL 7
REMARK VINA RESULT:      -3.5     11.346     12.468
REMARK  2 active torsions:
REMARK  status: ('A' for Active; 'I' for Inactive)
REMARK    1  A    between atoms: C3_3  and  C7_7 
REMARK    2  A    between atoms: C4_4  and  O8_8 
ROOT
HETATM    1  C1  UNL     1     -33.946  15.068  -5.772  1.00 20.00     0.037 C 
HETATM    2  C2  UNL     1     -33.322  16.298  -5.071  1.00 20.00    -0.010 C 
HETATM    3  C3  UNL     1     -33.759  15.660  -3.713  1.00 20.00     0.018 C 
HETATM    4  C4  UNL     1     -33.764  14.288  -4.449  1.00 20.00     0.122 C 
HETATM    5  C5  UNL     1     -33.866  17.653  -5.478  1.00 20.00     0.010 C 
ENDROOT
BRANCH   3   6
HETATM    6  C7  UNL     1     -35.078  16.106  -3.096  1.00 20.00     0.003 C 
HETATM    7  C6  UNL     1     -34.879  16.739  -1.755  1.00 20.00     0.005 C 
ENDBRANCH   3   6
BRANCH   4   8
HETATM    8  O8  UNL     1     -34.815  13.369  -4.103  1.00 20.00    -0.395 OA
HETATM    9  H22 UNL     1     -34.603  12.543  -4.557  1.00 20.00     0.210 HD
ENDBRANCH   4   8
TORSDOF 2
ENDMDL
MODEL 8
REMARK VINA RESULT:      -3.4     11.860     12.411
REMARK  2 active torsions:
REMARK  status: ('A' for Active; 'I' for Inactive)
REMARK    1  A    between atoms: C3_3  and  C7_7 
REMARK    2  A    between atoms: C4_4  and  O8_8 
ROOT
HETATM    1  C1  UNL     1     -33.445  16.760  -4.208  1.00 20.00     0.037 C 
HETATM    2  C2  UNL     1     -34.193  15.974  -3.106  1.00 20.00    -0.010 C 
HETATM    3  C3  UNL     1     -34.344  14.808  -4.135  1.00 20.00     0.018 C 
HETATM    4  C4  UNL     1     -33.110  15.405  -4.873  1.00 20.00     0.122 C 
HETATM    5  C5  UNL     1     -35.429  16.635  -2.528  1.00 20.00     0.010 C 
ENDROOT
BRANCH   3   6
HETATM    6  C7  UNL     1     -35.636  14.713  -4.936  1.00 20.00     0.003 C 
HETATM    7  C6  UNL     1     -35.963  13.298  -5.298  1.00 20.00     0.005 C 
ENDBRANCH   3   6
BRANCH   4   8
HETATM    8  O8  UNL     1     -33.137  15.378  -6.311  1.00 20.00    -0.395 OA
HETATM    9  H22 UNL     1     -34.046  15.163  -6.554  1.00 20.00     0.210 HD
ENDBRANCH   4   8
TORSDOF 2
ENDMDL
MODEL 9
REMARK VINA RESULT:      -3.4     11.672     12.505
REMARK  2 active torsions:
REMARK  status: ('A' for Active; 'I' for Inactive)
REMARK    1  A    between atoms: C3_3  and  C7_7 
REMARK    2  A    between atoms: C4_4  and  O8_8 
ROOT
HETATM    1  C1  UNL     1     -37.644  14.484  -5.220  1.00 20.00     0.037 C 
HETATM    2  C2  UNL     1     -36.988  15.873  -5.405  1.00 20.00    -0.010 C 
HETATM    3  C3  UNL     1     -35.604  15.165  -5.248  1.00 20.00     0.018 C 
HETATM    4  C4  UNL     1     -36.314  13.853  -5.692  1.00 20.00     0.122 C 
HETATM    5  C5  UNL     1     -37.401  16.949  -4.420  1.00 20.00     0.010 C 
ENDROOT
BRANCH   3   6
HETATM    6  C7  UNL     1     -34.949  15.154  -3.873  1.00 20.00     0.003 C 
HETATM    7  C6  UNL     1     -33.544  15.663  -3.922  1.00 20.00     0.005 C 
ENDBRANCH   3   6
BRANCH   4   8
HETATM    8  O8  UNL     1     -35.914  12.641  -5.028  1.00 20.00    -0.395 OA
HETATM    9  H22 UNL     1     -34.972  12.537  -5.212  1.00 20.00     0.210 HD
ENDBRANCH   4   8
TORSDOF 2
ENDMDL
