MODEL 1
REMARK VINA RESULT:      -5.5      0.000      0.000
REMARK  3 active torsions:
REMARK  status: ('A' for Active; 'I' for Inactive)
REMARK    1  A    between atoms: C2_2  and  C5_5 
REMARK    2  A    between atoms: C3_3  and  C6_6 
REMARK    3  A    between atoms: C5_5  and  C7_7 
ROOT
HETATM    1  C1  UNL     1     -31.655   8.116   3.282  1.00 20.00     0.011 A 
HETATM    2  C2  UNL     1     -33.030   7.618   2.920  1.00 20.00    -0.009 A 
HETATM    3  C3  UNL     1     -32.153   8.241   1.867  1.00 20.00     0.004 A 
ENDROOT
BRANCH   2   4
HETATM    4  C5  UNL     1     -33.313   6.156   2.889  1.00 20.00     0.005 C 
BRANCH   4   5
HETATM    5  C7  UNL     1     -34.547   5.774   3.726  1.00 20.00    -0.004 C 
HETATM    6  C4  UNL     1     -34.378   6.107   5.200  1.00 20.00     0.005 C 
ENDBRANCH   4   5
ENDBRANCH   2   4
BRANCH   3   7
HETATM    7  C6  UNL     1     -32.491   9.580   1.308  1.00 20.00     0.119 C 
HETATM    8 CL8  UNL     1     -33.074   9.452  -0.374  1.00 20.00    -0.130 Cl
ENDBRANCH   3   7
TORSDOF 3
ENDMDL
MODEL 2
REMARK VINA RESULT:      -5.2      2.689      4.479
REMARK  3 active torsions:
REMARK  status: ('A' for Active; 'I' for Inactive)
REMARK    1  A    between atoms: C2_2  and  C5_5 
REMARK    2  A    between atoms: C3_3  and  C6_6 
REMARK    3  A    between atoms: C5_5  and  C7_7 
ROOT
HETATM    1  C1  UNL     1     -33.054   6.283   2.805  1.00 20.00     0.011 A 
HETATM    2  C2  UNL     1     -33.068   7.782   2.656  1.00 20.00    -0.009 A 
HETATM    3  C3  UNL     1     -32.808   7.161   4.003  1.00 20.00     0.004 A 
ENDROOT
BRANCH   2   4
HETATM    4  C5  UNL     1     -31.968   8.472   1.926  1.00 20.00     0.005 C 
BRANCH   4   5
HETATM    5  C7  UNL     1     -32.442   9.753   1.216  1.00 20.00    -0.004 C 
HETATM    6  C4  UNL     1     -33.000   9.478  -0.171  1.00 20.00     0.005 C 
ENDBRANCH   4   5
ENDBRANCH   2   4
BRANCH   3   7
HETATM    7  C6  UNL     1     -33.832   7.260   5.081  1.00 20.00     0.119 C 
HETATM    8 CL8  UNL     1     -34.534   5.662   5.455  1.00 20.00    -0.130 Cl
ENDBRANCH   3   7
TORSDOF 3
ENDMDL
MODEL 3
REMARK VINA RESULT:      -5.1      2.795      4.670
REMARK  3 active torsions:
REMARK  status: ('A' for Active; 'I' for Inactive)
REMARK    1  A    between atoms: C2_2  and  C5_5 
REMARK    2  A    between atoms: C3_3  and  C6_6 
REMARK    3  A    between atoms: C5_5  and  C7_7 
ROOT
HETATM    1  C1  UNL     1     -33.588   7.405   5.716  1.00 20.00     0.011 A 
HETATM    2  C2  UNL     1     -33.232   6.878   4.350  1.00 20.00    -0.009 A 
HETATM    3  C3  UNL     1     -34.491   6.412   5.033  1.00 20.00     0.004 A 
ENDROOT
BRANCH   2   4
HETATM    4  C5  UNL     1     -33.314   7.769   3.159  1.00 20.00     0.005 C 
BRANCH   4   5
HETATM    5  C7  UNL     1     -31.927   8.163   2.620  1.00 20.00    -0.004 C 
HETATM    6  C4  UNL     1     -32.006   8.900   1.292  1.00 20.00     0.005 C 
ENDBRANCH   4   5
ENDBRANCH   2   4
BRANCH   3   7
HETATM    7  C6  UNL     1     -34.590   5.016   5.545  1.00 20.00     0.119 C 
HETATM    8 CL8  UNL     1     -34.150   3.832   4.284  1.00 20.00    -0.130 Cl
ENDBRANCH   3   7
TORSDOF 3
ENDMDL
MODEL 4
REMARK VINA RESULT:      -5.0      2.727      4.333
REMARK  3 active torsions:
REMARK  status: ('A' for Active; 'I' for Inactive)
REMARK    1  A    between atoms: C2_2  and  C5_5 
REMARK    2  A    between atoms: C3_3  and  C6_6 
REMARK    3  A    between atoms: C5_5  and  C7_7 
ROOT
HETATM    1  C1  UNL     1     -33.121   7.505   4.885  1.00 20.00     0.011 A 
HETATM    2  C2  UNL     1     -32.472   7.275   3.545  1.00 20.00    -0.009 A 
HETATM    3  C3  UNL     1     -33.971   7.215   3.676  1.00 20.00     0.004 A 
ENDROOT
BRANCH   2   4
HETATM    4  C5  UNL     1     -31.829   8.407   2.820  1.00 20.00     0.005 C 
BRANCH   4   5
HETATM    5  C7  UNL     1     -32.453   8.652   1.435  1.00 20.00    -0.004 C 
HETATM    6  C4  UNL     1     -32.616  10.131   1.121  1.00 20.00     0.005 C 
ENDBRANCH   4   5
ENDBRANCH   2   4
BRANCH   3   7
HETATM    7  C6  UNL     1     -34.679   5.909   3.556  1.00 20.00     0.119 C 
HETATM    8 CL8  UNL     1     -34.686   5.031   5.110  1.00 20.00    -0.130 Cl
ENDBRANCH   3   7
TORSDOF 3
ENDMDL
MODEL 5
REMARK VINA RESULT:      -5.0      1.150      1.697
REMARK  3 active torsions:
REMARK  status: ('A' for Active; 'I' for Inactive)
REMARK    1  A    between atoms: C2_2  and  C5_5 
REMARK    2  A    between atoms: C3_3  and  C6_6 
REMARK    3  A    between atoms: C5_5  and  C7_7 
ROOT
HETATM    1  C1  UNL     1     -32.866   6.301   2.633  1.00 20.00     0.011 A 
HETATM    2  C2  UNL     1     -32.975   7.232   3.813  1.00 20.00    -0.009 A 
HETATM    3  C3  UNL     1     -32.968   7.787   2.413  1.00 20.00     0.004 A 
ENDROOT
BRANCH   2   4
HETATM    4  C5  UNL     1     -34.224   7.267   4.625  1.00 20.00     0.005 C 
BRANCH   4   5
HETATM    5  C7  UNL     1     -34.146   6.364   5.868  1.00 20.00    -0.004 C 
HETATM    6  C4  UNL     1     -34.613   4.944   5.588  1.00 20.00     0.005 C 
ENDBRANCH   4   5
ENDBRANCH   2   4
BRANCH   3   7
HETATM    7  C6  UNL     1     -31.789   8.553   1.919  1.00 20.00     0.119 C 
HETATM    8 CL8  UNL     1     -32.281   9.827   0.769  1.00 20.00    -0.130 Cl
ENDBRANCH   3   7
TORSDOF 3
ENDMDL
MODEL 6
REMARK VINA RESULT:      -4.9      2.277      4.272
REMARK  3 active torsions:
REMARK  status: ('A' for Active; 'I' for Inactive)
REMARK    1  A    between atoms: C2_2  and  C5_5 
REMARK    2  A    between atoms: C3_3  and  C6_6 
REMARK    3  A    between atoms: C5_5  and  C7_7 
ROOT
HETATM    1  C1  UNL     1     -31.555   8.005   3.332  1.00 20.00     0.011 A 
HETATM    2  C2  UNL     1     -32.249   8.423   2.062  1.00 20.00    -0.009 A 
HETATM    3  C3  UNL     1     -33.007   7.668   3.122  1.00 20.00     0.004 A 
ENDROOT
BRANCH   2   4
HETATM    4  C5  UNL     1     -32.547   9.860   1.810  1.00 20.00     0.005 C 
BRANCH   4   5
HETATM    5  C7  UNL     1     -32.543  10.212   0.312  1.00 20.00    -0.004 C 
HETATM    6  C4  UNL     1     -33.088   9.087  -0.553  1.00 20.00     0.005 C 
ENDBRANCH   4   5
ENDBRANCH   2   4
BRANCH   3   7
HETATM    7  C6  UNL     1     -33.420   6.256   2.882  1.00 20.00     0.119 C 
HETATM    8 CL8  UNL     1     -34.993   5.903   3.649  1.00 20.00    -0.130 Cl
ENDBRANCH   3   7
TORSDOF 3
ENDMDL
MODEL 7
REMARK VINA RESULT:      -4.9      1.917      2.665
REMARK  3 active torsions:
REMARK  status: ('A' for Active; 'I' for Inactive)
REMARK    1  A    between atoms: C2_2  and  C5_5 
REMARK    2  A    between atoms: C3_3  and  C6_6 
REMARK    3  A    between atoms: C5_5  and  C7_7 
ROOT
HETATM    1  C1  UNL     1     -33.031   5.137   2.451  1.00 20.00     0.011 A 
HETATM    2  C2  UNL     1     -33.390   5.761   3.774  1.00 20.00    -0.009 A 
HETATM    3  C3  UNL     1     -33.610   6.526   2.496  1.00 20.00     0.004 A 
ENDROOT
BRANCH   2   4
HETATM    4  C5  UNL     1     -34.555   5.252   4.551  1.00 20.00     0.005 C 
BRANCH   4   5
HETATM    5  C7  UNL     1     -34.693   5.934   5.924  1.00 20.00    -0.004 C 
HETATM    6  C4  UNL     1     -33.872   7.209   6.029  1.00 20.00     0.005 C 
ENDBRANCH   4   5
ENDBRANCH   2   4
BRANCH   3   7
HETATM    7  C6  UNL     1     -32.755   7.703   2.173  1.00 20.00     0.119 C 
HETATM    8 CL8  UNL     1     -31.594   8.040   3.487  1.00 20.00    -0.130 Cl
ENDBRANCH   3   7
TORSDOF 3
ENDMDL
MODEL 8
REMARK VINA RESULT:      -4.7      2.653      4.588
REMARK  3 active torsions:
REMARK  status: ('A' for Active; 'I' for Inactive)
REMARK    1  A    between atoms: C2_2  and  C5_5 
REMARK    2  A    between atoms: C3_3  and  C6_6 
REMARK    3  A    between atoms: C5_5  and  C7_7 
ROOT
HETATM    1  C1  UNL     1     -34.958   6.144   3.106  1.00 20.00     0.011 A 
HETATM    2  C2  UNL     1     -33.714   6.906   3.482  1.00 20.00    -0.009 A 
HETATM    3  C3  UNL     1     -34.056   5.623   4.193  1.00 20.00     0.004 A 
ENDROOT
BRANCH   2   4
HETATM    4  C5  UNL     1     -32.555   6.957   2.547  1.00 20.00     0.005 C 
BRANCH   4   5
HETATM    5  C7  UNL     1     -31.901   8.349   2.491  1.00 20.00    -0.004 C 
HETATM    6  C4  UNL     1     -32.132   9.049   1.161  1.00 20.00     0.005 C 
ENDBRANCH   4   5
ENDBRANCH   2   4
BRANCH   3   7
HETATM    7  C6  UNL     1     -34.502   5.653   5.615  1.00 20.00     0.119 C 
HETATM    8 CL8  UNL     1     -34.066   7.197   6.398  1.00 20.00    -0.130 Cl
ENDBRANCH   3   7
TORSDOF 3
ENDMDL
MODEL 9
REMARK VINA RESULT:      -4.5      1.178      1.503
REMARK  3 active torsions:
REMARK  status: ('A' for Active; 'I' for Inactive)
REMARK    1  A    between atoms: C2_2  and  C5_5 
REMARK    2  A    between atoms: C3_3  and  C6_6 
REMARK    3  A    between atoms: C5_5  and  C7_7 
ROOT
HETATM    1  C1  UNL     1     -31.432   8.444   3.330  1.00 20.00     0.011 A 
HETATM    2  C2  UNL     1     -32.900   8.195   3.101  1.00 20.00    -0.009 A 
HETATM    3  C3  UNL     1     -31.921   8.023   1.970  1.00 20.00     0.004 A 
ENDROOT
BRANCH   2   4
HETATM    4  C5  UNL     1     -33.561   7.005   3.706  1.00 20.00     0.005 C 
BRANCH   4   5
HETATM    5  C7  UNL     1     -33.951   5.948   2.657  1.00 20.00    -0.004 C 
HETATM    6  C4  UNL     1     -33.082   4.703   2.731  1.00 20.00     0.005 C 
ENDBRANCH   4   5
ENDBRANCH   2   4
BRANCH   3   7
HETATM    7  C6  UNL     1     -31.910   8.991   0.837  1.00 20.00     0.119 C 
HETATM    8 CL8  UNL     1     -32.795  10.484   1.254  1.00 20.00    -0.130 Cl
ENDBRANCH   3   7
TORSDOF 3
ENDMDL
