MODEL 1
REMARK VINA RESULT:      -5.2      0.000      0.000
REMARK  3 active torsions:
REMARK  status: ('A' for Active; 'I' for Inactive)
REMARK    1  A    between atoms: C2_2  and  C6_6 
REMARK    2  A    between atoms: C3_3  and  C7_7 
REMARK    3  A    between atoms: C3_3  and  C8_8 
ROOT
HETATM    1  C1  UNL     1     -32.515   6.083   2.822  1.00 20.00     0.016 A 
HETATM    2  C2  UNL     1     -33.226   7.304   2.302  1.00 20.00     0.009 A 
HETATM    3  C3  UNL     1     -33.534   6.783   3.696  1.00 20.00    -0.036 A 
ENDROOT
BRANCH   3   4
HETATM    4  C7  UNL     1     -33.034   7.527   4.907  1.00 20.00     0.005 C 
HETATM    5  C4  UNL     1     -33.900   7.307   6.113  1.00 20.00     0.006 C 
ENDBRANCH   3   4
BRANCH   3   6
HETATM    6  C8  UNL     1     -34.867   6.113   3.900  1.00 20.00     0.005 C 
HETATM    7  C5  UNL     1     -34.727   4.689   4.355  1.00 20.00     0.006 C 
ENDBRANCH   3   6
BRANCH   2   8
HETATM    8  C6  UNL     1     -32.473   8.568   2.062  1.00 20.00     0.120 C 
HETATM    9 CL9  UNL     1     -32.742   9.176   0.405  1.00 20.00    -0.130 Cl
ENDBRANCH   2   8
TORSDOF 3
ENDMDL
MODEL 2
REMARK VINA RESULT:      -4.6      2.473      3.589
REMARK  3 active torsions:
REMARK  status: ('A' for Active; 'I' for Inactive)
REMARK    1  A    between atoms: C2_2  and  C6_6 
REMARK    2  A    between atoms: C3_3  and  C7_7 
REMARK    3  A    between atoms: C3_3  and  C8_8 
ROOT
HETATM    1  C1  UNL     1     -34.769   6.524   3.169  1.00 20.00     0.016 A 
HETATM    2  C2  UNL     1     -33.602   5.680   2.730  1.00 20.00     0.009 A 
HETATM    3  C3  UNL     1     -33.366   7.085   3.258  1.00 20.00    -0.036 A 
ENDROOT
BRANCH   3   4
HETATM    4  C7  UNL     1     -32.771   7.287   4.626  1.00 20.00     0.005 C 
HETATM    5  C4  UNL     1     -33.818   7.376   5.699  1.00 20.00     0.006 C 
ENDBRANCH   3   4
BRANCH   3   6
HETATM    6  C8  UNL     1     -32.963   8.136   2.256  1.00 20.00     0.005 C 
HETATM    7  C5  UNL     1     -31.581   8.665   2.508  1.00 20.00     0.006 C 
ENDBRANCH   3   6
BRANCH   2   8
HETATM    8  C6  UNL     1     -33.227   4.458   3.496  1.00 20.00     0.120 C 
HETATM    9 CL9  UNL     1     -34.456   4.065   4.730  1.00 20.00    -0.130 Cl
ENDBRANCH   2   8
TORSDOF 3
ENDMDL
MODEL 3
REMARK VINA RESULT:      -4.2      1.341      2.314
REMARK  3 active torsions:
REMARK  status: ('A' for Active; 'I' for Inactive)
REMARK    1  A    between atoms: C2_2  and  C6_6 
REMARK    2  A    between atoms: C3_3  and  C7_7 
REMARK    3  A    between atoms: C3_3  and  C8_8 
ROOT
HETATM    1  C1  UNL     1     -34.085   8.015   3.662  1.00 20.00     0.016 A 
HETATM    2  C2  UNL     1     -32.704   7.914   4.254  1.00 20.00     0.009 A 
HETATM    3  C3  UNL     1     -33.620   6.702   4.254  1.00 20.00    -0.036 A 
ENDROOT
BRANCH   3   4
HETATM    4  C7  UNL     1     -33.355   5.556   3.313  1.00 20.00     0.005 C 
HETATM    5  C4  UNL     1     -34.119   5.684   2.026  1.00 20.00     0.006 C 
ENDBRANCH   3   4
BRANCH   3   6
HETATM    6  C8  UNL     1     -34.202   6.281   5.579  1.00 20.00     0.005 C 
HETATM    7  C5  UNL     1     -34.627   4.841   5.585  1.00 20.00     0.006 C 
ENDBRANCH   3   6
BRANCH   2   8
HETATM    8  C6  UNL     1     -31.501   8.015   3.380  1.00 20.00     0.120 C 
HETATM    9 CL9  UNL     1     -31.925   8.655   1.768  1.00 20.00    -0.130 Cl
ENDBRANCH   2   8
TORSDOF 3
ENDMDL
MODEL 4
REMARK VINA RESULT:      -3.9      2.555      4.158
REMARK  3 active torsions:
REMARK  status: ('A' for Active; 'I' for Inactive)
REMARK    1  A    between atoms: C2_2  and  C6_6 
REMARK    2  A    between atoms: C3_3  and  C7_7 
REMARK    3  A    between atoms: C3_3  and  C8_8 
ROOT
HETATM    1  C1  UNL     1     -33.414   7.277   4.766  1.00 20.00     0.016 A 
HETATM    2  C2  UNL     1     -34.611   6.757   4.014  1.00 20.00     0.009 A 
HETATM    3  C3  UNL     1     -33.251   6.807   3.337  1.00 20.00    -0.036 A 
ENDROOT
BRANCH   3   4
HETATM    4  C7  UNL     1     -32.483   5.534   3.094  1.00 20.00     0.005 C 
HETATM    5  C4  UNL     1     -33.082   4.704   1.996  1.00 20.00     0.006 C 
ENDBRANCH   3   4
BRANCH   3   6
HETATM    6  C8  UNL     1     -33.053   7.852   2.270  1.00 20.00     0.005 C 
HETATM    7  C5  UNL     1     -31.689   8.475   2.327  1.00 20.00     0.006 C 
ENDBRANCH   3   6
BRANCH   2   8
HETATM    8  C6  UNL     1     -35.261   5.481   4.424  1.00 20.00     0.120 C 
HETATM    9 CL9  UNL     1     -34.571   4.864   5.951  1.00 20.00    -0.130 Cl
ENDBRANCH   2   8
TORSDOF 3
ENDMDL
MODEL 5
REMARK VINA RESULT:      -3.9     10.947     12.048
REMARK  3 active torsions:
REMARK  status: ('A' for Active; 'I' for Inactive)
REMARK    1  A    between atoms: C2_2  and  C6_6 
REMARK    2  A    between atoms: C3_3  and  C7_7 
REMARK    3  A    between atoms: C3_3  and  C8_8 
ROOT
HETATM    1  C1  UNL     1     -33.480  14.824  -4.358  1.00 20.00     0.016 A 
HETATM    2  C2  UNL     1     -34.871  14.256  -4.258  1.00 20.00     0.009 A 
HETATM    3  C3  UNL     1     -34.640  15.742  -4.036  1.00 20.00    -0.036 A 
ENDROOT
BRANCH   3   4
HETATM    4  C7  UNL     1     -35.065  16.736  -5.084  1.00 20.00     0.005 C 
HETATM    5  C4  UNL     1     -33.905  17.266  -5.875  1.00 20.00     0.006 C 
ENDBRANCH   3   4
BRANCH   3   6
HETATM    6  C8  UNL     1     -34.764  16.252  -2.624  1.00 20.00     0.005 C 
HETATM    7  C5  UNL     1     -33.571  17.060  -2.202  1.00 20.00     0.006 C 
ENDBRANCH   3   6
BRANCH   2   8
HETATM    8  C6  UNL     1     -35.553  13.719  -5.470  1.00 20.00     0.120 C 
HETATM    9 CL9  UNL     1     -34.423  13.598  -6.848  1.00 20.00    -0.130 Cl
ENDBRANCH   2   8
TORSDOF 3
ENDMDL
MODEL 6
REMARK VINA RESULT:      -3.8     10.670     11.870
REMARK  3 active torsions:
REMARK  status: ('A' for Active; 'I' for Inactive)
REMARK    1  A    between atoms: C2_2  and  C6_6 
REMARK    2  A    between atoms: C3_3  and  C7_7 
REMARK    3  A    between atoms: C3_3  and  C8_8 
ROOT
HETATM    1  C1  UNL     1     -35.396  16.377  -4.068  1.00 20.00     0.016 A 
HETATM    2  C2  UNL     1     -34.535  16.097  -2.864  1.00 20.00     0.009 A 
HETATM    3  C3  UNL     1     -34.293  15.344  -4.162  1.00 20.00    -0.036 A 
ENDROOT
BRANCH   3   4
HETATM    4  C7  UNL     1     -33.091  15.669  -5.009  1.00 20.00     0.005 C 
HETATM    5  C4  UNL     1     -33.468  16.106  -6.395  1.00 20.00     0.006 C 
ENDBRANCH   3   4
BRANCH   3   6
HETATM    6  C8  UNL     1     -34.691  13.891  -4.198  1.00 20.00     0.005 C 
HETATM    7  C5  UNL     1     -35.846  13.637  -5.122  1.00 20.00     0.006 C 
ENDBRANCH   3   6
BRANCH   2   8
HETATM    8  C6  UNL     1     -33.600  17.136  -2.349  1.00 20.00     0.120 C 
HETATM    9 CL9  UNL     1     -34.057  17.659  -0.704  1.00 20.00    -0.130 Cl
ENDBRANCH   2   8
TORSDOF 3
ENDMDL
MODEL 7
REMARK VINA RESULT:      -3.8      2.529      4.711
REMARK  3 active torsions:
REMARK  status: ('A' for Active; 'I' for Inactive)
REMARK    1  A    between atoms: C2_2  and  C6_6 
REMARK    2  A    between atoms: C3_3  and  C7_7 
REMARK    3  A    between atoms: C3_3  and  C8_8 
ROOT
HETATM    1  C1  UNL     1     -31.538   8.635   2.945  1.00 20.00     0.016 A 
HETATM    2  C2  UNL     1     -32.870   7.941   2.847  1.00 20.00     0.009 A 
HETATM    3  C3  UNL     1     -32.447   8.928   1.771  1.00 20.00    -0.036 A 
ENDROOT
BRANCH   3   4
HETATM    4  C7  UNL     1     -32.030   8.429   0.412  1.00 20.00     0.005 C 
HETATM    5  C4  UNL     1     -32.879   8.992  -0.690  1.00 20.00     0.006 C 
ENDBRANCH   3   4
BRANCH   3   6
HETATM    6  C8  UNL     1     -33.155  10.258   1.742  1.00 20.00     0.005 C 
HETATM    7  C5  UNL     1     -32.219  11.408   1.981  1.00 20.00     0.006 C 
ENDBRANCH   3   6
BRANCH   2   8
HETATM    8  C6  UNL     1     -32.938   6.472   2.610  1.00 20.00     0.120 C 
HETATM    9 CL9  UNL     1     -34.408   5.767   3.339  1.00 20.00    -0.130 Cl
ENDBRANCH   2   8
TORSDOF 3
ENDMDL
MODEL 8
REMARK VINA RESULT:      -3.8      1.073      2.302
REMARK  3 active torsions:
REMARK  status: ('A' for Active; 'I' for Inactive)
REMARK    1  A    between atoms: C2_2  and  C6_6 
REMARK    2  A    between atoms: C3_3  and  C7_7 
REMARK    3  A    between atoms: C3_3  and  C8_8 
ROOT
HETATM    1  C1  UNL     1     -33.961   8.143   2.691  1.00 20.00     0.016 A 
HETATM    2  C2  UNL     1     -32.530   8.598   2.590  1.00 20.00     0.009 A 
HETATM    3  C3  UNL     1     -32.885   7.396   3.450  1.00 20.00    -0.036 A 
ENDROOT
BRANCH   3   4
HETATM    4  C7  UNL     1     -32.529   6.007   2.989  1.00 20.00     0.005 C 
HETATM    5  C4  UNL     1     -33.741   5.151   2.763  1.00 20.00     0.006 C 
ENDBRANCH   3   4
BRANCH   3   6
HETATM    6  C8  UNL     1     -32.821   7.578   4.945  1.00 20.00     0.005 C 
HETATM    7  C5  UNL     1     -34.008   6.980   5.644  1.00 20.00     0.006 C 
ENDBRANCH   3   6
BRANCH   2   8
HETATM    8  C6  UNL     1     -31.790   8.476   1.302  1.00 20.00     0.120 C 
HETATM    9 CL9  UNL     1     -32.663   9.294  -0.024  1.00 20.00    -0.130 Cl
ENDBRANCH   2   8
TORSDOF 3
ENDMDL
MODEL 9
REMARK VINA RESULT:      -3.6     11.056     11.970
REMARK  3 active torsions:
REMARK  status: ('A' for Active; 'I' for Inactive)
REMARK    1  A    between atoms: C2_2  and  C6_6 
REMARK    2  A    between atoms: C3_3  and  C7_7 
REMARK    3  A    between atoms: C3_3  and  C8_8 
ROOT
HETATM    1  C1  UNL     1     -33.248  14.588  -4.568  1.00 20.00     0.016 A 
HETATM    2  C2  UNL     1     -34.113  15.796  -4.320  1.00 20.00     0.009 A 
HETATM    3  C3  UNL     1     -34.591  14.700  -5.258  1.00 20.00    -0.036 A 
ENDROOT
BRANCH   3   4
HETATM    4  C7  UNL     1     -35.688  13.762  -4.826  1.00 20.00     0.005 C 
HETATM    5  C4  UNL     1     -37.035  14.181  -5.340  1.00 20.00     0.006 C 
ENDBRANCH   3   4
BRANCH   3   6
HETATM    6  C8  UNL     1     -34.602  15.014  -6.732  1.00 20.00     0.005 C 
HETATM    7  C5  UNL     1     -34.208  13.833  -7.571  1.00 20.00     0.006 C 
ENDBRANCH   3   6
BRANCH   2   8
HETATM    8  C6  UNL     1     -34.716  16.026  -2.977  1.00 20.00     0.120 C 
HETATM    9 CL9  UNL     1     -33.646  17.021  -1.949  1.00 20.00    -0.130 Cl
ENDBRANCH   2   8
TORSDOF 3
ENDMDL
