MODEL 1
REMARK VINA RESULT:      -4.9      0.000      0.000
REMARK  3 active torsions:
REMARK  status: ('A' for Active; 'I' for Inactive)
REMARK    1  A    between atoms: C1_1  and  C6_6 
REMARK    2  A    between atoms: C6_6  and  C7_7 
REMARK    3  A    between atoms: C7_7  and  C8_8 
ROOT
HETATM    1  C2  UNL     1     -33.647   7.574   5.616  1.00 20.00     0.014 C 
HETATM    2  C7  UNL     1     -33.309   6.698   4.394  1.00 20.00     0.034 C 
ENDROOT
BRANCH   2   3
HETATM    3  C6  UNL     1     -33.248   7.588   3.137  1.00 20.00     0.275 C 
HETATM    4  F11 UNL     1     -34.060   8.666   3.312  1.00 20.00    -0.237 F 
BRANCH   3   5
HETATM    5  C1  UNL     1     -31.871   8.146   2.753  1.00 20.00     0.208 C 
HETATM    6  O9  UNL     1     -31.044   8.263   3.699  1.00 20.00    -0.646 OA
HETATM    7  O10 UNL     1     -31.737   8.447   1.533  1.00 20.00    -0.646 OA
ENDBRANCH   3   5
ENDBRANCH   2   3
BRANCH   2   8
HETATM    8  C8  UNL     1     -34.264   5.452   4.240  1.00 20.00    -0.045 C 
HETATM    9  C3  UNL     1     -35.628   5.887   3.657  1.00 20.00     0.015 C 
HETATM   10  C4  UNL     1     -33.656   4.435   3.248  1.00 20.00     0.015 C 
HETATM   11  C5  UNL     1     -34.524   4.725   5.572  1.00 20.00     0.015 C 
ENDBRANCH   2   8
TORSDOF 3
ENDMDL
MODEL 2
REMARK VINA RESULT:      -4.7     11.588     12.403
REMARK  3 active torsions:
REMARK  status: ('A' for Active; 'I' for Inactive)
REMARK    1  A    between atoms: C1_1  and  C6_6 
REMARK    2  A    between atoms: C6_6  and  C7_7 
REMARK    3  A    between atoms: C7_7  and  C8_8 
ROOT
HETATM    1  C2  UNL     1     -33.299  14.857  -4.222  1.00 20.00     0.014 C 
HETATM    2  C7  UNL     1     -34.742  15.246  -3.845  1.00 20.00     0.034 C 
ENDROOT
BRANCH   2   3
HETATM    3  C6  UNL     1     -35.657  15.033  -5.068  1.00 20.00     0.275 C 
HETATM    4  F11 UNL     1     -34.896  15.002  -6.197  1.00 20.00    -0.237 F 
BRANCH   3   5
HETATM    5  C1  UNL     1     -36.499  13.750  -5.084  1.00 20.00     0.208 C 
HETATM    6  O9  UNL     1     -35.862  12.679  -5.289  1.00 20.00    -0.646 OA
HETATM    7  O10 UNL     1     -37.740  13.921  -4.915  1.00 20.00    -0.646 OA
ENDBRANCH   3   5
ENDBRANCH   2   3
BRANCH   2   8
HETATM    8  C8  UNL     1     -34.854  16.689  -3.218  1.00 20.00    -0.045 C 
HETATM    9  C3  UNL     1     -33.552  17.486  -3.462  1.00 20.00     0.015 C 
HETATM   10  C4  UNL     1     -35.997  17.476  -3.897  1.00 20.00     0.015 C 
HETATM   11  C5  UNL     1     -35.122  16.666  -1.702  1.00 20.00     0.015 C 
ENDBRANCH   2   8
TORSDOF 3
ENDMDL
MODEL 3
REMARK VINA RESULT:      -4.6      1.443      2.069
REMARK  3 active torsions:
REMARK  status: ('A' for Active; 'I' for Inactive)
REMARK    1  A    between atoms: C1_1  and  C6_6 
REMARK    2  A    between atoms: C6_6  and  C7_7 
REMARK    3  A    between atoms: C7_7  and  C8_8 
ROOT
HETATM    1  C2  UNL     1     -32.634   5.252   2.343  1.00 20.00     0.014 C 
HETATM    2  C7  UNL     1     -33.539   6.404   2.822  1.00 20.00     0.034 C 
ENDROOT
BRANCH   2   3
HETATM    3  C6  UNL     1     -32.677   7.662   3.049  1.00 20.00     0.275 C 
HETATM    4  F11 UNL     1     -31.450   7.288   3.506  1.00 20.00    -0.237 F 
BRANCH   3   5
HETATM    5  C1  UNL     1     -32.425   8.554   1.825  1.00 20.00     0.208 C 
HETATM    6  O9  UNL     1     -31.369   8.309   1.177  1.00 20.00    -0.646 OA
HETATM    7  O10 UNL     1     -33.296   9.448   1.625  1.00 20.00    -0.646 OA
ENDBRANCH   3   5
ENDBRANCH   2   3
BRANCH   2   8
HETATM    8  C8  UNL     1     -34.429   6.018   4.066  1.00 20.00    -0.045 C 
HETATM    9  C3  UNL     1     -35.927   6.220   3.741  1.00 20.00     0.015 C 
HETATM   10  C4  UNL     1     -34.242   4.523   4.411  1.00 20.00     0.015 C 
HETATM   11  C5  UNL     1     -34.098   6.845   5.322  1.00 20.00     0.015 C 
ENDBRANCH   2   8
TORSDOF 3
ENDMDL
MODEL 4
REMARK VINA RESULT:      -4.5      2.592      4.351
REMARK  3 active torsions:
REMARK  status: ('A' for Active; 'I' for Inactive)
REMARK    1  A    between atoms: C1_1  and  C6_6 
REMARK    2  A    between atoms: C6_6  and  C7_7 
REMARK    3  A    between atoms: C7_7  and  C8_8 
ROOT
HETATM    1  C2  UNL     1     -31.327   8.294   3.416  1.00 20.00     0.014 C 
HETATM    2  C7  UNL     1     -32.650   8.387   2.632  1.00 20.00     0.034 C 
ENDROOT
BRANCH   2   3
HETATM    3  C6  UNL     1     -33.325   7.001   2.616  1.00 20.00     0.275 C 
HETATM    4  F11 UNL     1     -32.365   6.036   2.582  1.00 20.00    -0.237 F 
BRANCH   3   5
HETATM    5  C1  UNL     1     -34.231   6.662   3.808  1.00 20.00     0.208 C 
HETATM    6  O9  UNL     1     -33.890   7.162   4.915  1.00 20.00    -0.646 OA
HETATM    7  O10 UNL     1     -35.202   5.898   3.542  1.00 20.00    -0.646 OA
ENDBRANCH   3   5
ENDBRANCH   2   3
BRANCH   2   8
HETATM    8  C8  UNL     1     -32.479   9.021   1.197  1.00 20.00    -0.045 C 
HETATM    9  C3  UNL     1     -32.624  10.558   1.265  1.00 20.00     0.015 C 
HETATM   10  C4  UNL     1     -31.064   8.726   0.651  1.00 20.00     0.015 C 
HETATM   11  C5  UNL     1     -33.506   8.490   0.180  1.00 20.00     0.015 C 
ENDBRANCH   2   8
TORSDOF 3
ENDMDL
MODEL 5
REMARK VINA RESULT:      -4.5      2.581      4.395
REMARK  3 active torsions:
REMARK  status: ('A' for Active; 'I' for Inactive)
REMARK    1  A    between atoms: C1_1  and  C6_6 
REMARK    2  A    between atoms: C6_6  and  C7_7 
REMARK    3  A    between atoms: C7_7  and  C8_8 
ROOT
HETATM    1  C2  UNL     1     -31.300   8.275   3.458  1.00 20.00     0.014 C 
HETATM    2  C7  UNL     1     -32.617   8.373   2.665  1.00 20.00     0.034 C 
ENDROOT
BRANCH   2   3
HETATM    3  C6  UNL     1     -33.299   6.990   2.646  1.00 20.00     0.275 C 
HETATM    4  F11 UNL     1     -32.344   6.020   2.630  1.00 20.00    -0.237 F 
BRANCH   3   5
HETATM    5  C1  UNL     1     -34.223   6.662   3.827  1.00 20.00     0.208 C 
HETATM    6  O9  UNL     1     -33.888   7.156   4.939  1.00 20.00    -0.646 OA
HETATM    7  O10 UNL     1     -35.201   5.911   3.549  1.00 20.00    -0.646 OA
ENDBRANCH   3   5
ENDBRANCH   2   3
BRANCH   2   8
HETATM    8  C8  UNL     1     -32.434   9.004   1.231  1.00 20.00    -0.045 C 
HETATM    9  C3  UNL     1     -33.501   8.453   0.258  1.00 20.00     0.015 C 
HETATM   10  C4  UNL     1     -32.633  10.535   1.294  1.00 20.00     0.015 C 
HETATM   11  C5  UNL     1     -31.046   8.725   0.624  1.00 20.00     0.015 C 
ENDBRANCH   2   8
TORSDOF 3
ENDMDL
MODEL 6
REMARK VINA RESULT:      -4.4     11.065     12.231
REMARK  3 active torsions:
REMARK  status: ('A' for Active; 'I' for Inactive)
REMARK    1  A    between atoms: C1_1  and  C6_6 
REMARK    2  A    between atoms: C6_6  and  C7_7 
REMARK    3  A    between atoms: C7_7  and  C8_8 
ROOT
HETATM    1  C2  UNL     1     -33.568  17.180  -4.807  1.00 20.00     0.014 C 
HETATM    2  C7  UNL     1     -33.837  16.461  -3.471  1.00 20.00     0.034 C 
ENDROOT
BRANCH   2   3
HETATM    3  C6  UNL     1     -34.905  15.371  -3.691  1.00 20.00     0.275 C 
HETATM    4  F11 UNL     1     -35.855  15.842  -4.546  1.00 20.00    -0.237 F 
BRANCH   3   5
HETATM    5  C1  UNL     1     -34.421  14.040  -4.282  1.00 20.00     0.208 C 
HETATM    6  O9  UNL     1     -33.173  13.850  -4.253  1.00 20.00    -0.646 OA
HETATM    7  O10 UNL     1     -35.331  13.299  -4.751  1.00 20.00    -0.646 OA
ENDBRANCH   3   5
ENDBRANCH   2   3
BRANCH   2   8
HETATM    8  C8  UNL     1     -34.180  17.449  -2.290  1.00 20.00    -0.045 C 
HETATM    9  C3  UNL     1     -34.784  18.761  -2.842  1.00 20.00     0.015 C 
HETATM   10  C4  UNL     1     -35.243  16.820  -1.362  1.00 20.00     0.015 C 
HETATM   11  C5  UNL     1     -32.952  17.812  -1.435  1.00 20.00     0.015 C 
ENDBRANCH   2   8
TORSDOF 3
ENDMDL
MODEL 7
REMARK VINA RESULT:      -4.3     11.544     12.865
REMARK  3 active torsions:
REMARK  status: ('A' for Active; 'I' for Inactive)
REMARK    1  A    between atoms: C1_1  and  C6_6 
REMARK    2  A    between atoms: C6_6  and  C7_7 
REMARK    3  A    between atoms: C7_7  and  C8_8 
ROOT
HETATM    1  C2  UNL     1     -34.743  15.994  -3.057  1.00 20.00     0.014 C 
HETATM    2  C7  UNL     1     -35.080  15.694  -4.531  1.00 20.00     0.034 C 
ENDROOT
BRANCH   2   3
HETATM    3  C6  UNL     1     -34.721  14.227  -4.842  1.00 20.00     0.275 C 
HETATM    4  F11 UNL     1     -34.382  13.594  -3.685  1.00 20.00    -0.237 F 
BRANCH   3   5
HETATM    5  C1  UNL     1     -35.817  13.372  -5.493  1.00 20.00     0.208 C 
HETATM    6  O9  UNL     1     -35.418  12.508  -6.322  1.00 20.00    -0.646 OA
HETATM    7  O10 UNL     1     -36.997  13.653  -5.138  1.00 20.00    -0.646 OA
ENDBRANCH   3   5
ENDBRANCH   2   3
BRANCH   2   8
HETATM    8  C8  UNL     1     -34.441  16.726  -5.537  1.00 20.00    -0.045 C 
HETATM    9  C3  UNL     1     -33.437  16.016  -6.474  1.00 20.00     0.015 C 
HETATM   10  C4  UNL     1     -35.537  17.341  -6.436  1.00 20.00     0.015 C 
HETATM   11  C5  UNL     1     -33.701  17.876  -4.829  1.00 20.00     0.015 C 
ENDBRANCH   2   8
TORSDOF 3
ENDMDL
MODEL 8
REMARK VINA RESULT:      -4.3     11.686     13.307
REMARK  3 active torsions:
REMARK  status: ('A' for Active; 'I' for Inactive)
REMARK    1  A    between atoms: C1_1  and  C6_6 
REMARK    2  A    between atoms: C6_6  and  C7_7 
REMARK    3  A    between atoms: C7_7  and  C8_8 
ROOT
HETATM    1  C2  UNL     1     -36.061  17.366  -5.405  1.00 20.00     0.014 C 
HETATM    2  C7  UNL     1     -35.601  15.974  -5.878  1.00 20.00     0.034 C 
ENDROOT
BRANCH   2   3
HETATM    3  C6  UNL     1     -35.787  14.964  -4.728  1.00 20.00     0.275 C 
HETATM    4  F11 UNL     1     -36.451  15.568  -3.704  1.00 20.00    -0.237 F 
BRANCH   3   5
HETATM    5  C1  UNL     1     -36.573  13.686  -5.054  1.00 20.00     0.208 C 
HETATM    6  O9  UNL     1     -37.830  13.795  -5.031  1.00 20.00    -0.646 OA
HETATM    7  O10 UNL     1     -35.864  12.665  -5.283  1.00 20.00    -0.646 OA
ENDBRANCH   3   5
ENDBRANCH   2   3
BRANCH   2   8
HETATM    8  C8  UNL     1     -34.146  15.974  -6.487  1.00 20.00    -0.045 C 
HETATM    9  C3  UNL     1     -34.011  14.873  -7.563  1.00 20.00     0.015 C 
HETATM   10  C4  UNL     1     -33.862  17.322  -7.187  1.00 20.00     0.015 C 
HETATM   11  C5  UNL     1     -33.051  15.743  -5.429  1.00 20.00     0.015 C 
ENDBRANCH   2   8
TORSDOF 3
ENDMDL
MODEL 9
REMARK VINA RESULT:      -4.2     11.559     12.535
REMARK  3 active torsions:
REMARK  status: ('A' for Active; 'I' for Inactive)
REMARK    1  A    between atoms: C1_1  and  C6_6 
REMARK    2  A    between atoms: C6_6  and  C7_7 
REMARK    3  A    between atoms: C7_7  and  C8_8 
ROOT
HETATM    1  C2  UNL     1     -32.814  14.483  -4.301  1.00 20.00     0.014 C 
HETATM    2  C7  UNL     1     -34.306  14.865  -4.368  1.00 20.00     0.034 C 
ENDROOT
BRANCH   2   3
HETATM    3  C6  UNL     1     -34.803  14.700  -5.819  1.00 20.00     0.275 C 
HETATM    4  F11 UNL     1     -33.775  14.262  -6.597  1.00 20.00    -0.237 F 
BRANCH   3   5
HETATM    5  C1  UNL     1     -35.960  13.718  -6.043  1.00 20.00     0.208 C 
HETATM    6  O9  UNL     1     -36.753  14.010  -6.982  1.00 20.00    -0.646 OA
HETATM    7  O10 UNL     1     -35.997  12.741  -5.242  1.00 20.00    -0.646 OA
ENDBRANCH   3   5
ENDBRANCH   2   3
BRANCH   2   8
HETATM    8  C8  UNL     1     -34.613  16.284  -3.754  1.00 20.00    -0.045 C 
HETATM    9  C3  UNL     1     -36.010  16.296  -3.093  1.00 20.00     0.015 C 
HETATM   10  C4  UNL     1     -33.589  16.617  -2.645  1.00 20.00     0.015 C 
HETATM   11  C5  UNL     1     -34.570  17.414  -4.800  1.00 20.00     0.015 C 
ENDBRANCH   2   8
TORSDOF 3
ENDMDL
