MODEL 1
REMARK VINA RESULT:      -4.7      0.000      0.000
REMARK  1 active torsions:
REMARK  status: ('A' for Active; 'I' for Inactive)
REMARK    1  A    between atoms: C6_6  and  C8_8 
ROOT
HETATM    1  C1  UNL     1     -33.436   7.260   4.761  1.00 20.00     0.036 C 
HETATM    2  C2  UNL     1     -32.572   6.005   2.770  1.00 20.00     0.036 C 
HETATM    3  C3  UNL     1     -31.405   8.222   3.456  1.00 20.00     0.016 A 
HETATM    4  C4  UNL     1     -34.804   6.653   4.461  1.00 20.00     0.168 C 
HETATM    5  C5  UNL     1     -33.987   5.467   2.580  1.00 20.00     0.168 C 
HETATM    6  C6  UNL     1     -32.643   8.649   2.713  1.00 20.00     0.009 A 
HETATM    7  C7  UNL     1     -32.631   7.337   3.482  1.00 20.00    -0.032 A 
HETATM    8  O9  UNL     1     -34.658   5.372   3.842  1.00 20.00    -0.391 OA
ENDROOT
BRANCH   6   9
HETATM    9  C8  UNL     1     -32.638   8.714   1.224  1.00 20.00     0.120 C 
HETATM   10 CL10 UNL     1     -32.513  10.400   0.651  1.00 20.00    -0.130 Cl
ENDBRANCH   6   9
TORSDOF 1
ENDMDL
MODEL 2
REMARK VINA RESULT:      -4.5      1.583      2.693
REMARK  1 active torsions:
REMARK  status: ('A' for Active; 'I' for Inactive)
REMARK    1  A    between atoms: C6_6  and  C8_8 
ROOT
HETATM    1  C1  UNL     1     -34.562   4.820   4.042  1.00 20.00     0.036 C 
HETATM    2  C2  UNL     1     -34.521   7.287   4.484  1.00 20.00     0.036 C 
HETATM    3  C3  UNL     1     -34.135   6.443   2.058  1.00 20.00     0.016 A 
HETATM    4  C4  UNL     1     -34.093   4.625   5.481  1.00 20.00     0.168 C 
HETATM    5  C5  UNL     1     -34.055   6.957   5.899  1.00 20.00     0.168 C 
HETATM    6  C6  UNL     1     -32.814   6.246   2.752  1.00 20.00     0.009 A 
HETATM    7  C7  UNL     1     -34.109   6.175   3.546  1.00 20.00    -0.032 A 
HETATM    8  O9  UNL     1     -34.572   5.687   6.311  1.00 20.00    -0.391 OA
ENDROOT
BRANCH   6   9
HETATM    9  C8  UNL     1     -31.852   7.379   2.870  1.00 20.00     0.120 C 
HETATM   10 CL10 UNL     1     -32.145   8.608   1.610  1.00 20.00    -0.130 Cl
ENDBRANCH   6   9
TORSDOF 1
ENDMDL
MODEL 3
REMARK VINA RESULT:      -4.3     10.517     11.342
REMARK  1 active torsions:
REMARK  status: ('A' for Active; 'I' for Inactive)
REMARK    1  A    between atoms: C6_6  and  C8_8 
ROOT
HETATM    1  C1  UNL     1     -36.501  15.751  -3.737  1.00 20.00     0.036 C 
HETATM    2  C2  UNL     1     -34.950  13.871  -4.322  1.00 20.00     0.036 C 
HETATM    3  C3  UNL     1     -33.946  16.089  -3.416  1.00 20.00     0.016 A 
HETATM    4  C4  UNL     1     -37.458  15.195  -4.788  1.00 20.00     0.168 C 
HETATM    5  C5  UNL     1     -35.991  13.419  -5.341  1.00 20.00     0.168 C 
HETATM    6  C6  UNL     1     -34.242  16.362  -4.866  1.00 20.00     0.009 A 
HETATM    7  C7  UNL     1     -35.084  15.360  -4.092  1.00 20.00    -0.032 A 
HETATM    8  O9  UNL     1     -37.306  13.777  -4.902  1.00 20.00    -0.391 OA
ENDROOT
BRANCH   6   9
HETATM    9  C8  UNL     1     -33.268  15.959  -5.920  1.00 20.00     0.120 C 
HETATM   10 CL10 UNL     1     -34.059  15.821  -7.513  1.00 20.00    -0.130 Cl
ENDBRANCH   6   9
TORSDOF 1
ENDMDL
MODEL 4
REMARK VINA RESULT:      -4.1      1.453      1.977
REMARK  1 active torsions:
REMARK  status: ('A' for Active; 'I' for Inactive)
REMARK    1  A    between atoms: C6_6  and  C8_8 
ROOT
HETATM    1  C1  UNL     1     -31.407   8.155   3.793  1.00 20.00     0.036 C 
HETATM    2  C2  UNL     1     -33.115   7.107   2.285  1.00 20.00     0.036 C 
HETATM    3  C3  UNL     1     -31.246   8.574   1.233  1.00 20.00     0.016 A 
HETATM    4  C4  UNL     1     -32.472   8.151   4.885  1.00 20.00     0.168 C 
HETATM    5  C5  UNL     1     -34.086   7.160   3.460  1.00 20.00     0.168 C 
HETATM    6  C6  UNL     1     -32.252   9.556   1.773  1.00 20.00     0.009 A 
HETATM    7  C7  UNL     1     -32.080   8.199   2.438  1.00 20.00    -0.032 A 
HETATM    8  O9  UNL     1     -33.375   7.056   4.700  1.00 20.00    -0.391 OA
ENDROOT
BRANCH   6   9
HETATM    9  C8  UNL     1     -33.454   9.917   0.969  1.00 20.00     0.120 C 
HETATM   10 CL10 UNL     1     -33.279   9.389  -0.727  1.00 20.00    -0.130 Cl
ENDBRANCH   6   9
TORSDOF 1
ENDMDL
MODEL 5
REMARK VINA RESULT:      -4.0      2.332      3.075
REMARK  1 active torsions:
REMARK  status: ('A' for Active; 'I' for Inactive)
REMARK    1  A    between atoms: C6_6  and  C8_8 
ROOT
HETATM    1  C1  UNL     1     -33.067   4.766   2.724  1.00 20.00     0.036 C 
HETATM    2  C2  UNL     1     -34.935   6.276   3.440  1.00 20.00     0.036 C 
HETATM    3  C3  UNL     1     -32.933   7.293   2.133  1.00 20.00     0.016 A 
HETATM    4  C4  UNL     1     -33.409   3.889   3.925  1.00 20.00     0.168 C 
HETATM    5  C5  UNL     1     -35.175   5.317   4.601  1.00 20.00     0.168 C 
HETATM    6  C6  UNL     1     -32.440   7.149   3.549  1.00 20.00     0.009 A 
HETATM    7  C7  UNL     1     -33.489   6.191   3.007  1.00 20.00    -0.032 A 
HETATM    8  O9  UNL     1     -34.804   3.984   4.232  1.00 20.00    -0.391 OA
ENDROOT
BRANCH   6   9
HETATM    9  C8  UNL     1     -32.747   8.199   4.560  1.00 20.00     0.120 C 
HETATM   10 CL10 UNL     1     -33.292   7.476   6.098  1.00 20.00    -0.130 Cl
ENDBRANCH   6   9
TORSDOF 1
ENDMDL
MODEL 6
REMARK VINA RESULT:      -4.0      2.960      4.313
REMARK  1 active torsions:
REMARK  status: ('A' for Active; 'I' for Inactive)
REMARK    1  A    between atoms: C6_6  and  C8_8 
ROOT
HETATM    1  C1  UNL     1     -31.375   8.501   0.710  1.00 20.00     0.036 C 
HETATM    2  C2  UNL     1     -32.647  10.040   2.226  1.00 20.00     0.036 C 
HETATM    3  C3  UNL     1     -31.292   8.088   3.274  1.00 20.00     0.016 A 
HETATM    4  C4  UNL     1     -32.412   8.815  -0.364  1.00 20.00     0.168 C 
HETATM    5  C5  UNL     1     -33.614  10.270   1.069  1.00 20.00     0.168 C 
HETATM    6  C6  UNL     1     -32.561   7.453   2.771  1.00 20.00     0.009 A 
HETATM    7  C7  UNL     1     -31.998   8.683   2.077  1.00 20.00    -0.032 A 
HETATM    8  O9  UNL     1     -32.934  10.136  -0.185  1.00 20.00    -0.391 OA
ENDROOT
BRANCH   6   9
HETATM    9  C8  UNL     1     -33.797   7.487   3.603  1.00 20.00     0.120 C 
HETATM   10 CL10 UNL     1     -33.410   7.371   5.341  1.00 20.00    -0.130 Cl
ENDBRANCH   6   9
TORSDOF 1
ENDMDL
MODEL 7
REMARK VINA RESULT:      -3.8     10.703     11.566
REMARK  1 active torsions:
REMARK  status: ('A' for Active; 'I' for Inactive)
REMARK    1  A    between atoms: C6_6  and  C8_8 
ROOT
HETATM    1  C1  UNL     1     -35.624  13.593  -4.971  1.00 20.00     0.036 C 
HETATM    2  C2  UNL     1     -34.701  15.532  -6.263  1.00 20.00     0.036 C 
HETATM    3  C3  UNL     1     -33.250  14.471  -4.388  1.00 20.00     0.016 A 
HETATM    4  C4  UNL     1     -37.014  14.156  -5.254  1.00 20.00     0.168 C 
HETATM    5  C5  UNL     1     -36.140  15.989  -6.476  1.00 20.00     0.168 C 
HETATM    6  C6  UNL     1     -34.231  15.356  -3.666  1.00 20.00     0.009 A 
HETATM    7  C7  UNL     1     -34.614  14.718  -4.992  1.00 20.00    -0.032 A 
HETATM    8  O9  UNL     1     -37.023  14.862  -6.500  1.00 20.00    -0.391 OA
ENDROOT
BRANCH   6   9
HETATM    9  C8  UNL     1     -33.958  16.813  -3.516  1.00 20.00     0.120 C 
HETATM   10 CL10 UNL     1     -33.406  17.201  -1.864  1.00 20.00    -0.130 Cl
ENDBRANCH   6   9
TORSDOF 1
ENDMDL
MODEL 8
REMARK VINA RESULT:      -3.8     10.705     11.422
REMARK  1 active torsions:
REMARK  status: ('A' for Active; 'I' for Inactive)
REMARK    1  A    between atoms: C6_6  and  C8_8 
ROOT
HETATM    1  C1  UNL     1     -34.927  14.304  -5.594  1.00 20.00     0.036 C 
HETATM    2  C2  UNL     1     -36.513  16.124  -4.920  1.00 20.00     0.036 C 
HETATM    3  C3  UNL     1     -33.958  16.575  -4.788  1.00 20.00     0.016 A 
HETATM    4  C4  UNL     1     -36.004  13.307  -5.176  1.00 20.00     0.168 C 
HETATM    5  C5  UNL     1     -37.503  15.028  -4.539  1.00 20.00     0.168 C 
HETATM    6  C6  UNL     1     -34.275  15.774  -3.553  1.00 20.00     0.009 A 
HETATM    7  C7  UNL     1     -35.103  15.588  -4.815  1.00 20.00    -0.032 A 
HETATM    8  O9  UNL     1     -37.307  13.871  -5.360  1.00 20.00    -0.391 OA
ENDROOT
BRANCH   6   9
HETATM    9  C8  UNL     1     -34.798  16.451  -2.333  1.00 20.00     0.120 C 
HETATM   10 CL10 UNL     1     -33.515  17.375  -1.506  1.00 20.00    -0.130 Cl
ENDBRANCH   6   9
TORSDOF 1
ENDMDL
MODEL 9
REMARK VINA RESULT:      -3.8     10.872     11.439
REMARK  1 active torsions:
REMARK  status: ('A' for Active; 'I' for Inactive)
REMARK    1  A    between atoms: C6_6  and  C8_8 
ROOT
HETATM    1  C1  UNL     1     -34.820  15.873  -3.110  1.00 20.00     0.036 C 
HETATM    2  C2  UNL     1     -35.410  14.056  -4.733  1.00 20.00     0.036 C 
HETATM    3  C3  UNL     1     -32.906  14.643  -4.364  1.00 20.00     0.016 A 
HETATM    4  C4  UNL     1     -36.176  16.497  -3.423  1.00 20.00     0.168 C 
HETATM    5  C5  UNL     1     -36.734  14.780  -4.957  1.00 20.00     0.168 C 
HETATM    6  C6  UNL     1     -33.422  15.709  -5.294  1.00 20.00     0.009 A 
HETATM    7  C7  UNL     1     -34.360  15.052  -4.294  1.00 20.00    -0.032 A 
HETATM    8  O9  UNL     1     -37.125  15.484  -3.773  1.00 20.00    -0.391 OA
ENDROOT
BRANCH   6   9
HETATM    9  C8  UNL     1     -33.494  15.455  -6.760  1.00 20.00     0.120 C 
HETATM   10 CL10 UNL     1     -34.533  16.655  -7.575  1.00 20.00    -0.130 Cl
ENDBRANCH   6   9
TORSDOF 1
ENDMDL
