MODEL 1
REMARK VINA RESULT:      -4.8      0.000      0.000
REMARK  4 active torsions:
REMARK  status: ('A' for Active; 'I' for Inactive)
REMARK    1  A    between atoms: C2_2  and  C6_6 
REMARK    2  A    between atoms: C3_3  and  C7_7 
REMARK    3  A    between atoms: C7_7  and  C8_8 
REMARK    4  A    between atoms: C8_8  and  O9_9 
ROOT
HETATM    1  C1  UNL     1     -31.211   7.959   3.361  1.00 20.00     0.016 A 
HETATM    2  C2  UNL     1     -32.327   8.739   2.729  1.00 20.00     0.008 A 
HETATM    3  C3  UNL     1     -32.648   7.508   3.565  1.00 20.00    -0.037 A 
HETATM    4  C4  UNL     1     -33.274   7.739   4.915  1.00 20.00     0.015 C 
ENDROOT
BRANCH   3   5
HETATM    5  C7  UNL     1     -33.091   6.235   2.895  1.00 20.00     0.035 C 
BRANCH   5   6
HETATM    6  C8  UNL     1     -34.453   5.762   3.396  1.00 20.00     0.167 C 
BRANCH   6   7
HETATM    7  O9  UNL     1     -34.310   4.492   4.017  1.00 20.00    -0.396 OA
HETATM    8  C5  UNL     1     -34.594   4.555   5.408  1.00 20.00     0.201 C 
ENDBRANCH   6   7
ENDBRANCH   5   6
ENDBRANCH   3   5
BRANCH   2   9
HETATM    9  C6  UNL     1     -32.480   8.766   1.246  1.00 20.00     0.120 C 
HETATM   10 CL10 UNL     1     -32.570  10.440   0.635  1.00 20.00    -0.130 Cl
ENDBRANCH   2   9
TORSDOF 4
ENDMDL
MODEL 2
REMARK VINA RESULT:      -4.6      1.245      1.623
REMARK  4 active torsions:
REMARK  status: ('A' for Active; 'I' for Inactive)
REMARK    1  A    between atoms: C2_2  and  C6_6 
REMARK    2  A    between atoms: C3_3  and  C7_7 
REMARK    3  A    between atoms: C7_7  and  C8_8 
REMARK    4  A    between atoms: C8_8  and  O9_9 
ROOT
HETATM    1  C1  UNL     1     -31.369   8.388   1.182  1.00 20.00     0.016 A 
HETATM    2  C2  UNL     1     -32.135   9.565   1.712  1.00 20.00     0.008 A 
HETATM    3  C3  UNL     1     -32.159   8.247   2.473  1.00 20.00    -0.037 A 
HETATM    4  C4  UNL     1     -31.389   8.186   3.766  1.00 20.00     0.015 C 
ENDROOT
BRANCH   3   5
HETATM    5  C7  UNL     1     -33.394   7.388   2.455  1.00 20.00     0.035 C 
BRANCH   5   6
HETATM    6  C8  UNL     1     -33.744   6.849   3.839  1.00 20.00     0.167 C 
BRANCH   6   7
HETATM    7  O9  UNL     1     -34.818   5.925   3.727  1.00 20.00    -0.396 OA
HETATM    8  C5  UNL     1     -34.594   4.766   4.518  1.00 20.00     0.201 C 
ENDBRANCH   6   7
ENDBRANCH   5   6
ENDBRANCH   3   5
BRANCH   2   9
HETATM    9  C6  UNL     1     -33.319  10.088   0.971  1.00 20.00     0.120 C 
HETATM   10 CL10 UNL     1     -33.349   9.485  -0.708  1.00 20.00    -0.130 Cl
ENDBRANCH   2   9
TORSDOF 4
ENDMDL
MODEL 3
REMARK VINA RESULT:      -4.2      3.395      4.756
REMARK  4 active torsions:
REMARK  status: ('A' for Active; 'I' for Inactive)
REMARK    1  A    between atoms: C2_2  and  C6_6 
REMARK    2  A    between atoms: C3_3  and  C7_7 
REMARK    3  A    between atoms: C7_7  and  C8_8 
REMARK    4  A    between atoms: C8_8  and  O9_9 
ROOT
HETATM    1  C1  UNL     1     -33.907   7.668   3.978  1.00 20.00     0.016 A 
HETATM    2  C2  UNL     1     -33.099   6.406   3.875  1.00 20.00     0.008 A 
HETATM    3  C3  UNL     1     -32.604   7.676   3.196  1.00 20.00    -0.037 A 
HETATM    4  C4  UNL     1     -31.416   8.366   3.812  1.00 20.00     0.015 C 
ENDROOT
BRANCH   3   5
HETATM    5  C7  UNL     1     -32.680   7.809   1.698  1.00 20.00     0.035 C 
BRANCH   5   6
HETATM    6  C8  UNL     1     -31.624   8.764   1.148  1.00 20.00     0.167 C 
BRANCH   6   7
HETATM    7  O9  UNL     1     -32.266   9.866   0.524  1.00 20.00    -0.396 OA
HETATM    8  C5  UNL     1     -33.216   9.440  -0.443  1.00 20.00     0.201 C 
ENDBRANCH   6   7
ENDBRANCH   5   6
ENDBRANCH   3   5
BRANCH   2   9
HETATM    9  C6  UNL     1     -33.624   5.238   3.112  1.00 20.00     0.120 C 
HETATM   10 CL10 UNL     1     -34.285   3.994   4.207  1.00 20.00    -0.130 Cl
ENDBRANCH   2   9
TORSDOF 4
ENDMDL
MODEL 4
REMARK VINA RESULT:      -4.1      2.771      4.621
REMARK  4 active torsions:
REMARK  status: ('A' for Active; 'I' for Inactive)
REMARK    1  A    between atoms: C2_2  and  C6_6 
REMARK    2  A    between atoms: C3_3  and  C7_7 
REMARK    3  A    between atoms: C7_7  and  C8_8 
REMARK    4  A    between atoms: C8_8  and  O9_9 
ROOT
HETATM    1  C1  UNL     1     -34.068   4.380   3.683  1.00 20.00     0.016 A 
HETATM    2  C2  UNL     1     -34.702   5.452   4.521  1.00 20.00     0.008 A 
HETATM    3  C3  UNL     1     -33.986   5.828   3.232  1.00 20.00    -0.037 A 
HETATM    4  C4  UNL     1     -34.842   6.255   2.070  1.00 20.00     0.015 C 
ENDROOT
BRANCH   3   5
HETATM    5  C7  UNL     1     -32.645   6.510   3.286  1.00 20.00     0.035 C 
BRANCH   5   6
HETATM    6  C8  UNL     1     -32.707   7.951   2.788  1.00 20.00     0.167 C 
BRANCH   6   7
HETATM    7  O9  UNL     1     -31.735   8.140   1.769  1.00 20.00    -0.396 OA
HETATM    8  C5  UNL     1     -32.085   9.211   0.904  1.00 20.00     0.201 C 
ENDBRANCH   6   7
ENDBRANCH   5   6
ENDBRANCH   3   5
BRANCH   2   9
HETATM    9  C6  UNL     1     -34.154   5.774   5.870  1.00 20.00     0.120 C 
HETATM   10 CL10 UNL     1     -33.995   7.536   6.100  1.00 20.00    -0.130 Cl
ENDBRANCH   2   9
TORSDOF 4
ENDMDL
MODEL 5
REMARK VINA RESULT:      -4.0      2.741      4.468
REMARK  4 active torsions:
REMARK  status: ('A' for Active; 'I' for Inactive)
REMARK    1  A    between atoms: C2_2  and  C6_6 
REMARK    2  A    between atoms: C3_3  and  C7_7 
REMARK    3  A    between atoms: C7_7  and  C8_8 
REMARK    4  A    between atoms: C8_8  and  O9_9 
ROOT
HETATM    1  C1  UNL     1     -35.214   6.194   3.911  1.00 20.00     0.016 A 
HETATM    2  C2  UNL     1     -34.462   5.159   4.696  1.00 20.00     0.008 A 
HETATM    3  C3  UNL     1     -33.899   6.568   4.574  1.00 20.00    -0.037 A 
HETATM    4  C4  UNL     1     -33.951   7.438   5.802  1.00 20.00     0.015 C 
ENDROOT
BRANCH   3   5
HETATM    5  C7  UNL     1     -32.711   6.831   3.688  1.00 20.00     0.035 C 
BRANCH   5   6
HETATM    6  C8  UNL     1     -32.968   7.960   2.694  1.00 20.00     0.167 C 
BRANCH   6   7
HETATM    7  O9  UNL     1     -31.757   8.283   2.025  1.00 20.00    -0.396 OA
HETATM    8  C5  UNL     1     -31.991   9.109   0.892  1.00 20.00     0.201 C 
ENDBRANCH   6   7
ENDBRANCH   5   6
ENDBRANCH   3   5
BRANCH   2   9
HETATM    9  C6  UNL     1     -33.853   3.987   4.005  1.00 20.00     0.120 C 
HETATM   10 CL10 UNL     1     -33.437   4.377   2.314  1.00 20.00    -0.130 Cl
ENDBRANCH   2   9
TORSDOF 4
ENDMDL
MODEL 6
REMARK VINA RESULT:      -4.0     10.639     11.586
REMARK  4 active torsions:
REMARK  status: ('A' for Active; 'I' for Inactive)
REMARK    1  A    between atoms: C2_2  and  C6_6 
REMARK    2  A    between atoms: C3_3  and  C7_7 
REMARK    3  A    between atoms: C7_7  and  C8_8 
REMARK    4  A    between atoms: C8_8  and  O9_9 
ROOT
HETATM    1  C1  UNL     1     -35.202  16.637  -4.773  1.00 20.00     0.016 A 
HETATM    2  C2  UNL     1     -34.421  16.684  -3.491  1.00 20.00     0.008 A 
HETATM    3  C3  UNL     1     -34.214  15.527  -4.457  1.00 20.00    -0.037 A 
HETATM    4  C4  UNL     1     -32.919  15.496  -5.225  1.00 20.00     0.015 C 
ENDROOT
BRANCH   3   5
HETATM    5  C7  UNL     1     -34.763  14.163  -4.131  1.00 20.00     0.035 C 
BRANCH   5   6
HETATM    6  C8  UNL     1     -35.874  13.742  -5.088  1.00 20.00     0.167 C 
BRANCH   6   7
HETATM    7  O9  UNL     1     -35.414  12.673  -5.902  1.00 20.00    -0.396 OA
HETATM    8  C5  UNL     1     -35.111  13.111  -7.219  1.00 20.00     0.201 C 
ENDBRANCH   6   7
ENDBRANCH   5   6
ENDBRANCH   3   5
BRANCH   2   9
HETATM    9  C6  UNL     1     -35.116  16.524  -2.181  1.00 20.00     0.120 C 
HETATM   10 CL10 UNL     1     -34.254  17.391  -0.881  1.00 20.00    -0.130 Cl
ENDBRANCH   2   9
TORSDOF 4
ENDMDL
MODEL 7
REMARK VINA RESULT:      -4.0     11.259     11.864
REMARK  4 active torsions:
REMARK  status: ('A' for Active; 'I' for Inactive)
REMARK    1  A    between atoms: C2_2  and  C6_6 
REMARK    2  A    between atoms: C3_3  and  C7_7 
REMARK    3  A    between atoms: C7_7  and  C8_8 
REMARK    4  A    between atoms: C8_8  and  O9_9 
ROOT
HETATM    1  C1  UNL     1     -35.142  17.841  -2.902  1.00 20.00     0.016 A 
HETATM    2  C2  UNL     1     -34.791  16.396  -2.696  1.00 20.00     0.008 A 
HETATM    3  C3  UNL     1     -34.321  17.436  -1.689  1.00 20.00    -0.037 A 
HETATM    4  C4  UNL     1     -34.999  17.447  -0.344  1.00 20.00     0.015 C 
ENDROOT
BRANCH   3   5
HETATM    5  C7  UNL     1     -32.873  17.846  -1.647  1.00 20.00     0.035 C 
BRANCH   5   6
HETATM    6  C8  UNL     1     -32.540  18.667  -0.405  1.00 20.00     0.167 C 
BRANCH   6   7
HETATM    7  O9  UNL     1     -31.174  18.471  -0.064  1.00 20.00    -0.396 OA
HETATM    8  C5  UNL     1     -30.929  18.773   1.302  1.00 20.00     0.201 C 
ENDBRANCH   6   7
ENDBRANCH   5   6
ENDBRANCH   3   5
BRANCH   2   9
HETATM    9  C6  UNL     1     -33.860  15.707  -3.635  1.00 20.00     0.120 C 
HETATM   10 CL10 UNL     1     -34.461  14.083  -4.066  1.00 20.00    -0.130 Cl
ENDBRANCH   2   9
TORSDOF 4
ENDMDL
MODEL 8
REMARK VINA RESULT:      -3.9     11.034     11.782
REMARK  4 active torsions:
REMARK  status: ('A' for Active; 'I' for Inactive)
REMARK    1  A    between atoms: C2_2  and  C6_6 
REMARK    2  A    between atoms: C3_3  and  C7_7 
REMARK    3  A    between atoms: C7_7  and  C8_8 
REMARK    4  A    between atoms: C8_8  and  O9_9 
ROOT
HETATM    1  C1  UNL     1     -34.803  16.211  -2.847  1.00 20.00     0.016 A 
HETATM    2  C2  UNL     1     -34.708  16.746  -4.247  1.00 20.00     0.008 A 
HETATM    3  C3  UNL     1     -35.523  15.490  -3.974  1.00 20.00    -0.037 A 
HETATM    4  C4  UNL     1     -37.022  15.614  -4.047  1.00 20.00     0.015 C 
ENDROOT
BRANCH   3   5
HETATM    5  C7  UNL     1     -35.000  14.144  -4.400  1.00 20.00     0.035 C 
BRANCH   5   6
HETATM    6  C8  UNL     1     -35.986  13.395  -5.292  1.00 20.00     0.167 C 
BRANCH   6   7
HETATM    7  O9  UNL     1     -35.267  12.600  -6.224  1.00 20.00    -0.396 OA
HETATM    8  C5  UNL     1     -34.730  13.387  -7.279  1.00 20.00     0.201 C 
ENDBRANCH   6   7
ENDBRANCH   5   6
ENDBRANCH   3   5
BRANCH   2   9
HETATM    9  C6  UNL     1     -33.407  16.719  -4.975  1.00 20.00     0.120 C 
HETATM   10 CL10 UNL     1     -33.652  16.801  -6.741  1.00 20.00    -0.130 Cl
ENDBRANCH   2   9
TORSDOF 4
ENDMDL
MODEL 9
REMARK VINA RESULT:      -3.9     10.847     11.422
REMARK  4 active torsions:
REMARK  status: ('A' for Active; 'I' for Inactive)
REMARK    1  A    between atoms: C2_2  and  C6_6 
REMARK    2  A    between atoms: C3_3  and  C7_7 
REMARK    3  A    between atoms: C7_7  and  C8_8 
REMARK    4  A    between atoms: C8_8  and  O9_9 
ROOT
HETATM    1  C1  UNL     1     -33.921  16.964  -4.088  1.00 20.00     0.016 A 
HETATM    2  C2  UNL     1     -34.051  16.343  -2.726  1.00 20.00     0.008 A 
HETATM    3  C3  UNL     1     -34.416  15.533  -3.962  1.00 20.00    -0.037 A 
HETATM    4  C4  UNL     1     -33.477  14.425  -4.359  1.00 20.00     0.015 C 
ENDROOT
BRANCH   3   5
HETATM    5  C7  UNL     1     -35.860  15.254  -4.281  1.00 20.00     0.035 C 
BRANCH   5   6
HETATM    6  C8  UNL     1     -36.043  13.940  -5.035  1.00 20.00     0.167 C 
BRANCH   6   7
HETATM    7  O9  UNL     1     -37.413  13.565  -5.001  1.00 20.00    -0.396 OA
HETATM    8  C5  UNL     1     -38.265  14.700  -4.945  1.00 20.00     0.201 C 
ENDBRANCH   6   7
ENDBRANCH   5   6
ENDBRANCH   3   5
BRANCH   2   9
HETATM    9  C6  UNL     1     -35.072  16.848  -1.764  1.00 20.00     0.120 C 
HETATM   10 CL10 UNL     1     -34.305  17.673  -0.380  1.00 20.00    -0.130 Cl
ENDBRANCH   2   9
TORSDOF 4
ENDMDL
