MODEL 1
REMARK VINA RESULT:      -4.4      0.000      0.000
REMARK  4 active torsions:
REMARK  status: ('A' for Active; 'I' for Inactive)
REMARK    1  A    between atoms: C4_4  and  C6_6 
REMARK    2  A    between atoms: C5_5  and  C8_8 
REMARK    3  A    between atoms: C6_6  and  C9_9 
REMARK    4  A    between atoms: C9_9  and  O10_10 
ROOT
HETATM    1  C3  UNL     1     -31.574   7.439   2.841  1.00 20.00     0.019 A 
HETATM    2  C5  UNL     1     -32.452   8.067   1.796  1.00 20.00     0.011 A 
HETATM    3  C6  UNL     1     -33.076   7.216   2.901  1.00 20.00    -0.010 A 
ENDROOT
BRANCH   3   4
HETATM    4  C4  UNL     1     -33.669   5.844   2.543  1.00 20.00    -0.004 A 
HETATM    5  C1  UNL     1     -32.890   4.565   2.673  1.00 20.00     0.006 A 
HETATM    6  C2  UNL     1     -34.055   4.831   3.583  1.00 20.00     0.006 A 
ENDBRANCH   3   4
BRANCH   3   7
HETATM    7  C9  UNL     1     -33.817   7.908   4.019  1.00 20.00     0.177 C 
BRANCH   7   8
HETATM    8  O10 UNL     1     -33.116   7.708   5.239  1.00 20.00    -0.395 OA
HETATM    9  C7  UNL     1     -33.925   7.053   6.206  1.00 20.00     0.201 C 
ENDBRANCH   7   8
ENDBRANCH   3   7
BRANCH   2  10
HETATM   10  C8  UNL     1     -32.605   9.548   1.729  1.00 20.00     0.120 C 
HETATM   11 CL11 UNL     1     -33.020  10.080   0.076  1.00 20.00    -0.130 Cl
ENDBRANCH   2  10
TORSDOF 4
ENDMDL
MODEL 2
REMARK VINA RESULT:      -4.1      2.382      3.815
REMARK  4 active torsions:
REMARK  status: ('A' for Active; 'I' for Inactive)
REMARK    1  A    between atoms: C4_4  and  C6_6 
REMARK    2  A    between atoms: C5_5  and  C8_8 
REMARK    3  A    between atoms: C6_6  and  C9_9 
REMARK    4  A    between atoms: C9_9  and  O10_10 
ROOT
HETATM    1  C3  UNL     1     -34.415   6.472   2.478  1.00 20.00     0.019 A 
HETATM    2  C5  UNL     1     -33.248   5.526   2.447  1.00 20.00     0.011 A 
HETATM    3  C6  UNL     1     -33.017   7.009   2.737  1.00 20.00    -0.010 A 
ENDROOT
BRANCH   3   4
HETATM    4  C4  UNL     1     -32.313   7.875   1.681  1.00 20.00    -0.004 A 
HETATM    5  C1  UNL     1     -32.985   9.042   1.011  1.00 20.00     0.006 A 
HETATM    6  C2  UNL     1     -31.846   9.276   1.962  1.00 20.00     0.006 A 
ENDBRANCH   3   4
BRANCH   3   7
HETATM    7  C9  UNL     1     -32.707   7.431   4.153  1.00 20.00     0.177 C 
BRANCH   7   8
HETATM    8  O10 UNL     1     -33.925   7.667   4.846  1.00 20.00    -0.395 OA
HETATM    9  C7  UNL     1     -33.885   7.143   6.167  1.00 20.00     0.201 C 
ENDBRANCH   7   8
ENDBRANCH   3   7
BRANCH   2  10
HETATM   10  C8  UNL     1     -33.108   4.465   3.484  1.00 20.00     0.120 C 
HETATM   11 CL11 UNL     1     -34.615   4.275   4.422  1.00 20.00    -0.130 Cl
ENDBRANCH   2  10
TORSDOF 4
ENDMDL
MODEL 3
REMARK VINA RESULT:      -4.0     10.921     12.145
REMARK  4 active torsions:
REMARK  status: ('A' for Active; 'I' for Inactive)
REMARK    1  A    between atoms: C4_4  and  C6_6 
REMARK    2  A    between atoms: C5_5  and  C8_8 
REMARK    3  A    between atoms: C6_6  and  C9_9 
REMARK    4  A    between atoms: C9_9  and  O10_10 
ROOT
HETATM    1  C3  UNL     1     -33.390  14.694  -4.417  1.00 20.00     0.019 A 
HETATM    2  C5  UNL     1     -34.805  14.206  -4.291  1.00 20.00     0.011 A 
HETATM    3  C6  UNL     1     -34.486  15.681  -4.049  1.00 20.00    -0.010 A 
ENDROOT
BRANCH   3   4
HETATM    4  C4  UNL     1     -34.576  16.239  -2.620  1.00 20.00    -0.004 A 
HETATM    5  C1  UNL     1     -33.528  17.147  -2.037  1.00 20.00     0.006 A 
HETATM    6  C2  UNL     1     -34.903  17.677  -2.331  1.00 20.00     0.006 A 
ENDBRANCH   3   4
BRANCH   3   7
HETATM    7  C9  UNL     1     -34.870  16.689  -5.105  1.00 20.00     0.177 C 
BRANCH   7   8
HETATM    8  O10 UNL     1     -33.704  17.094  -5.809  1.00 20.00    -0.395 OA
HETATM    9  C7  UNL     1     -33.929  17.139  -7.212  1.00 20.00     0.201 C 
ENDBRANCH   7   8
ENDBRANCH   3   7
BRANCH   2  10
HETATM   10  C8  UNL     1     -35.547  13.723  -5.490  1.00 20.00     0.120 C 
HETATM   11 CL11 UNL     1     -34.457  13.529  -6.891  1.00 20.00    -0.130 Cl
ENDBRANCH   2  10
TORSDOF 4
ENDMDL
MODEL 4
REMARK VINA RESULT:      -3.9     10.953     12.013
REMARK  4 active torsions:
REMARK  status: ('A' for Active; 'I' for Inactive)
REMARK    1  A    between atoms: C4_4  and  C6_6 
REMARK    2  A    between atoms: C5_5  and  C8_8 
REMARK    3  A    between atoms: C6_6  and  C9_9 
REMARK    4  A    between atoms: C9_9  and  O10_10 
ROOT
HETATM    1  C3  UNL     1     -35.048  16.707  -2.045  1.00 20.00     0.019 A 
HETATM    2  C5  UNL     1     -33.593  17.052  -1.898  1.00 20.00     0.011 A 
HETATM    3  C6  UNL     1     -34.128  16.576  -3.248  1.00 20.00    -0.010 A 
ENDROOT
BRANCH   3   4
HETATM    4  C4  UNL     1     -33.723  15.185  -3.763  1.00 20.00    -0.004 A 
HETATM    5  C1  UNL     1     -34.717  14.210  -4.331  1.00 20.00     0.006 A 
HETATM    6  C2  UNL     1     -33.688  14.841  -5.226  1.00 20.00     0.006 A 
ENDBRANCH   3   4
BRANCH   3   7
HETATM    7  C9  UNL     1     -34.312  17.587  -4.353  1.00 20.00     0.177 C 
BRANCH   7   8
HETATM    8  O10 UNL     1     -35.695  17.891  -4.482  1.00 20.00    -0.395 OA
HETATM    9  C7  UNL     1     -36.175  17.599  -5.788  1.00 20.00     0.201 C 
ENDBRANCH   7   8
ENDBRANCH   3   7
BRANCH   2  10
HETATM   10  C8  UNL     1     -33.172  18.458  -1.643  1.00 20.00     0.120 C 
HETATM   11 CL11 UNL     1     -31.971  18.545  -0.325  1.00 20.00    -0.130 Cl
ENDBRANCH   2  10
TORSDOF 4
ENDMDL
MODEL 5
REMARK VINA RESULT:      -3.8     10.563     11.831
REMARK  4 active torsions:
REMARK  status: ('A' for Active; 'I' for Inactive)
REMARK    1  A    between atoms: C4_4  and  C6_6 
REMARK    2  A    between atoms: C5_5  and  C8_8 
REMARK    3  A    between atoms: C6_6  and  C9_9 
REMARK    4  A    between atoms: C9_9  and  O10_10 
ROOT
HETATM    1  C3  UNL     1     -34.222  14.344  -4.087  1.00 20.00     0.019 A 
HETATM    2  C5  UNL     1     -33.506  15.564  -4.592  1.00 20.00     0.011 A 
HETATM    3  C6  UNL     1     -34.663  14.974  -5.398  1.00 20.00    -0.010 A 
ENDROOT
BRANCH   3   4
HETATM    4  C4  UNL     1     -34.363  14.272  -6.732  1.00 20.00    -0.004 A 
HETATM    5  C1  UNL     1     -35.098  13.040  -7.183  1.00 20.00     0.006 A 
HETATM    6  C2  UNL     1     -35.294  14.340  -7.911  1.00 20.00     0.006 A 
ENDBRANCH   3   4
BRANCH   3   7
HETATM    7  C9  UNL     1     -35.992  15.689  -5.390  1.00 20.00     0.177 C 
BRANCH   7   8
HETATM    8  O10 UNL     1     -36.866  15.042  -4.475  1.00 20.00    -0.395 OA
HETATM    9  C7  UNL     1     -38.007  14.506  -5.132  1.00 20.00     0.201 C 
ENDBRANCH   7   8
ENDBRANCH   3   7
BRANCH   2  10
HETATM   10  C8  UNL     1     -33.606  16.857  -3.859  1.00 20.00     0.120 C 
HETATM   11 CL11 UNL     1     -34.269  16.620  -2.218  1.00 20.00    -0.130 Cl
ENDBRANCH   2  10
TORSDOF 4
ENDMDL
MODEL 6
REMARK VINA RESULT:      -3.7     10.791     11.954
REMARK  4 active torsions:
REMARK  status: ('A' for Active; 'I' for Inactive)
REMARK    1  A    between atoms: C4_4  and  C6_6 
REMARK    2  A    between atoms: C5_5  and  C8_8 
REMARK    3  A    between atoms: C6_6  and  C9_9 
REMARK    4  A    between atoms: C9_9  and  O10_10 
ROOT
HETATM    1  C3  UNL     1     -33.747  16.539  -4.575  1.00 20.00     0.019 A 
HETATM    2  C5  UNL     1     -33.758  15.206  -3.882  1.00 20.00     0.011 A 
HETATM    3  C6  UNL     1     -34.287  16.443  -3.157  1.00 20.00    -0.010 A 
ENDROOT
BRANCH   3   4
HETATM    4  C4  UNL     1     -33.481  17.021  -1.983  1.00 20.00    -0.004 A 
HETATM    5  C1  UNL     1     -33.250  18.496  -1.806  1.00 20.00     0.006 A 
HETATM    6  C2  UNL     1     -34.126  17.751  -0.839  1.00 20.00     0.006 A 
ENDBRANCH   3   4
BRANCH   3   7
HETATM    7  C9  UNL     1     -35.778  16.604  -2.989  1.00 20.00     0.177 C 
BRANCH   7   8
HETATM    8  O10 UNL     1     -36.259  17.530  -3.954  1.00 20.00    -0.395 OA
HETATM    9  C7  UNL     1     -36.719  18.729  -3.344  1.00 20.00     0.201 C 
ENDBRANCH   7   8
ENDBRANCH   3   7
BRANCH   2  10
HETATM   10  C8  UNL     1     -34.644  14.110  -4.366  1.00 20.00     0.120 C 
HETATM   11 CL11 UNL     1     -34.769  14.118  -6.147  1.00 20.00    -0.130 Cl
ENDBRANCH   2  10
TORSDOF 4
ENDMDL
MODEL 7
REMARK VINA RESULT:      -3.7     11.128     12.079
REMARK  4 active torsions:
REMARK  status: ('A' for Active; 'I' for Inactive)
REMARK    1  A    between atoms: C4_4  and  C6_6 
REMARK    2  A    between atoms: C5_5  and  C8_8 
REMARK    3  A    between atoms: C6_6  and  C9_9 
REMARK    4  A    between atoms: C9_9  and  O10_10 
ROOT
HETATM    1  C3  UNL     1     -33.722  17.447  -5.307  1.00 20.00     0.019 A 
HETATM    2  C5  UNL     1     -33.494  15.998  -5.633  1.00 20.00     0.011 A 
HETATM    3  C6  UNL     1     -34.511  16.385  -4.559  1.00 20.00    -0.010 A 
ENDROOT
BRANCH   3   4
HETATM    4  C4  UNL     1     -34.193  16.080  -3.086  1.00 20.00    -0.004 A 
HETATM    5  C1  UNL     1     -33.568  17.091  -2.166  1.00 20.00     0.006 A 
HETATM    6  C2  UNL     1     -34.990  16.656  -1.949  1.00 20.00     0.006 A 
ENDBRANCH   3   4
BRANCH   3   7
HETATM    7  C9  UNL     1     -35.981  16.284  -4.882  1.00 20.00     0.177 C 
BRANCH   7   8
HETATM    8  O10 UNL     1     -36.464  15.013  -4.468  1.00 20.00    -0.395 OA
HETATM    9  C7  UNL     1     -37.855  14.872  -4.724  1.00 20.00     0.201 C 
ENDBRANCH   7   8
ENDBRANCH   3   7
BRANCH   2  10
HETATM   10  C8  UNL     1     -33.888  15.452  -6.962  1.00 20.00     0.120 C 
HETATM   11 CL11 UNL     1     -34.302  13.719  -6.852  1.00 20.00    -0.130 Cl
ENDBRANCH   2  10
TORSDOF 4
ENDMDL
MODEL 8
REMARK VINA RESULT:      -3.6     11.136     11.916
REMARK  4 active torsions:
REMARK  status: ('A' for Active; 'I' for Inactive)
REMARK    1  A    between atoms: C4_4  and  C6_6 
REMARK    2  A    between atoms: C5_5  and  C8_8 
REMARK    3  A    between atoms: C6_6  and  C9_9 
REMARK    4  A    between atoms: C9_9  and  O10_10 
ROOT
HETATM    1  C3  UNL     1     -35.353  17.111  -4.306  1.00 20.00     0.019 A 
HETATM    2  C5  UNL     1     -35.045  16.475  -2.981  1.00 20.00     0.011 A 
HETATM    3  C6  UNL     1     -35.024  15.628  -4.253  1.00 20.00    -0.010 A 
ENDROOT
BRANCH   3   4
HETATM    4  C4  UNL     1     -36.130  14.583  -4.473  1.00 20.00    -0.004 A 
HETATM    5  C1  UNL     1     -36.882  14.459  -5.769  1.00 20.00     0.006 A 
HETATM    6  C2  UNL     1     -35.938  13.371  -5.341  1.00 20.00     0.006 A 
ENDBRANCH   3   4
BRANCH   3   7
HETATM    7  C9  UNL     1     -33.691  15.210  -4.825  1.00 20.00     0.177 C 
BRANCH   7   8
HETATM    8  O10 UNL     1     -33.336  16.097  -5.877  1.00 20.00    -0.395 OA
HETATM    9  C7  UNL     1     -33.581  15.520  -7.152  1.00 20.00     0.201 C 
ENDBRANCH   7   8
ENDBRANCH   3   7
BRANCH   2  10
HETATM   10  C8  UNL     1     -33.811  16.845  -2.233  1.00 20.00     0.120 C 
HETATM   11 CL11 UNL     1     -34.207  17.570  -0.650  1.00 20.00    -0.130 Cl
ENDBRANCH   2  10
TORSDOF 4
ENDMDL
MODEL 9
REMARK VINA RESULT:      -3.4     10.579     12.005
REMARK  4 active torsions:
REMARK  status: ('A' for Active; 'I' for Inactive)
REMARK    1  A    between atoms: C4_4  and  C6_6 
REMARK    2  A    between atoms: C5_5  and  C8_8 
REMARK    3  A    between atoms: C6_6  and  C9_9 
REMARK    4  A    between atoms: C9_9  and  O10_10 
ROOT
HETATM    1  C3  UNL     1     -34.230  14.556  -3.856  1.00 20.00     0.019 A 
HETATM    2  C5  UNL     1     -34.058  16.026  -3.597  1.00 20.00     0.011 A 
HETATM    3  C6  UNL     1     -35.119  15.548  -4.589  1.00 20.00    -0.010 A 
ENDROOT
BRANCH   3   4
HETATM    4  C4  UNL     1     -34.911  15.811  -6.089  1.00 20.00    -0.004 A 
HETATM    5  C1  UNL     1     -33.946  16.843  -6.605  1.00 20.00     0.006 A 
HETATM    6  C2  UNL     1     -33.671  15.382  -6.823  1.00 20.00     0.006 A 
ENDBRANCH   3   4
BRANCH   3   7
HETATM    7  C9  UNL     1     -36.569  15.588  -4.175  1.00 20.00     0.177 C 
BRANCH   7   8
HETATM    8  O10 UNL     1     -37.195  14.368  -4.547  1.00 20.00    -0.395 OA
HETATM    9  C7  UNL     1     -38.469  14.592  -5.137  1.00 20.00     0.201 C 
ENDBRANCH   7   8
ENDBRANCH   3   7
BRANCH   2  10
HETATM   10  C8  UNL     1     -34.395  16.603  -2.265  1.00 20.00     0.120 C 
HETATM   11 CL11 UNL     1     -33.051  17.590  -1.629  1.00 20.00    -0.130 Cl
ENDBRANCH   2  10
TORSDOF 4
ENDMDL
