MODEL 1
REMARK VINA RESULT:      -5.1      0.000      0.000
REMARK  2 active torsions:
REMARK  status: ('A' for Active; 'I' for Inactive)
REMARK    1  A    between atoms: C4_4  and  C6_6 
REMARK    2  A    between atoms: C5_5  and  C8_8 
ROOT
HETATM    1  C3  UNL     1     -32.495   6.515   2.452  1.00 20.00     0.016 A 
HETATM    2  C5  UNL     1     -33.034   7.850   2.024  1.00 20.00     0.009 A 
HETATM    3  C6  UNL     1     -32.770   7.579   3.503  1.00 20.00    -0.035 A 
HETATM    4  C7  UNL     1     -31.564   8.212   4.155  1.00 20.00     0.016 C 
ENDROOT
BRANCH   3   5
HETATM    5  C4  UNL     1     -33.964   7.431   4.460  1.00 20.00    -0.006 A 
HETATM    6  C1  UNL     1     -34.340   6.118   5.090  1.00 20.00     0.006 A 
HETATM    7  C2  UNL     1     -33.797   7.231   5.941  1.00 20.00     0.006 A 
ENDBRANCH   3   5
BRANCH   2   8
HETATM    8  C8  UNL     1     -32.197   8.776   1.207  1.00 20.00     0.120 C 
HETATM    9 CL9  UNL     1     -32.889  10.421   1.183  1.00 20.00    -0.130 Cl
ENDBRANCH   2   8
TORSDOF 2
ENDMDL
MODEL 2
REMARK VINA RESULT:      -5.1      1.266      1.539
REMARK  2 active torsions:
REMARK  status: ('A' for Active; 'I' for Inactive)
REMARK    1  A    between atoms: C4_4  and  C6_6 
REMARK    2  A    between atoms: C5_5  and  C8_8 
ROOT
HETATM    1  C3  UNL     1     -32.364   6.325   2.904  1.00 20.00     0.016 A 
HETATM    2  C5  UNL     1     -33.326   7.374   2.426  1.00 20.00     0.009 A 
HETATM    3  C6  UNL     1     -33.434   6.841   3.853  1.00 20.00    -0.035 A 
HETATM    4  C7  UNL     1     -32.964   7.713   4.992  1.00 20.00     0.016 C 
ENDROOT
BRANCH   3   5
HETATM    5  C4  UNL     1     -34.629   5.950   4.229  1.00 20.00    -0.006 A 
HETATM    6  C1  UNL     1     -34.506   4.463   4.412  1.00 20.00     0.006 A 
HETATM    7  C2  UNL     1     -34.792   5.345   5.595  1.00 20.00     0.006 A 
ENDBRANCH   3   5
BRANCH   2   8
HETATM    8  C8  UNL     1     -32.847   8.750   2.109  1.00 20.00     0.120 C 
HETATM    9 CL9  UNL     1     -31.560   8.717   0.872  1.00 20.00    -0.130 Cl
ENDBRANCH   2   8
TORSDOF 2
ENDMDL
MODEL 3
REMARK VINA RESULT:      -4.8      1.471      2.148
REMARK  2 active torsions:
REMARK  status: ('A' for Active; 'I' for Inactive)
REMARK    1  A    between atoms: C4_4  and  C6_6 
REMARK    2  A    between atoms: C5_5  and  C8_8 
ROOT
HETATM    1  C3  UNL     1     -34.230   6.946   2.166  1.00 20.00     0.016 A 
HETATM    2  C5  UNL     1     -33.260   7.393   3.221  1.00 20.00     0.009 A 
HETATM    3  C6  UNL     1     -33.807   5.968   3.250  1.00 20.00    -0.035 A 
HETATM    4  C7  UNL     1     -32.905   4.835   2.822  1.00 20.00     0.016 C 
ENDROOT
BRANCH   3   5
HETATM    5  C4  UNL     1     -34.793   5.568   4.359  1.00 20.00    -0.006 A 
HETATM    6  C1  UNL     1     -34.508   4.464   5.339  1.00 20.00     0.006 A 
HETATM    7  C2  UNL     1     -34.559   5.891   5.808  1.00 20.00     0.006 A 
ENDBRANCH   3   5
BRANCH   2   8
HETATM    8  C8  UNL     1     -31.848   7.713   2.863  1.00 20.00     0.120 C 
HETATM    9 CL9  UNL     1     -31.763   8.645   1.343  1.00 20.00    -0.130 Cl
ENDBRANCH   2   8
TORSDOF 2
ENDMDL
MODEL 4
REMARK VINA RESULT:      -4.7      2.664      4.159
REMARK  2 active torsions:
REMARK  status: ('A' for Active; 'I' for Inactive)
REMARK    1  A    between atoms: C4_4  and  C6_6 
REMARK    2  A    between atoms: C5_5  and  C8_8 
ROOT
HETATM    1  C3  UNL     1     -33.967   7.487   3.545  1.00 20.00     0.016 A 
HETATM    2  C5  UNL     1     -33.571   6.388   2.601  1.00 20.00     0.009 A 
HETATM    3  C6  UNL     1     -32.808   7.711   2.587  1.00 20.00    -0.035 A 
HETATM    4  C7  UNL     1     -31.427   7.761   3.196  1.00 20.00     0.016 C 
ENDROOT
BRANCH   3   5
HETATM    5  C4  UNL     1     -32.971   8.654   1.384  1.00 20.00    -0.006 A 
HETATM    6  C1  UNL     1     -32.631  10.117   1.448  1.00 20.00     0.006 A 
HETATM    7  C2  UNL     1     -31.800   9.189   0.607  1.00 20.00     0.006 A 
ENDBRANCH   3   5
BRANCH   2   8
HETATM    8  C8  UNL     1     -32.985   5.120   3.122  1.00 20.00     0.120 C 
HETATM    9 CL9  UNL     1     -34.151   4.243   4.149  1.00 20.00    -0.130 Cl
ENDBRANCH   2   8
TORSDOF 2
ENDMDL
MODEL 5
REMARK VINA RESULT:      -4.6      2.679      4.229
REMARK  2 active torsions:
REMARK  status: ('A' for Active; 'I' for Inactive)
REMARK    1  A    between atoms: C4_4  and  C6_6 
REMARK    2  A    between atoms: C5_5  and  C8_8 
ROOT
HETATM    1  C3  UNL     1     -33.164   7.192   4.668  1.00 20.00     0.016 A 
HETATM    2  C5  UNL     1     -34.473   6.938   3.976  1.00 20.00     0.009 A 
HETATM    3  C6  UNL     1     -33.183   6.998   3.160  1.00 20.00    -0.035 A 
HETATM    4  C7  UNL     1     -32.593   5.711   2.637  1.00 20.00     0.016 C 
ENDROOT
BRANCH   3   5
HETATM    5  C4  UNL     1     -32.947   8.194   2.224  1.00 20.00    -0.006 A 
HETATM    6  C1  UNL     1     -31.861   9.207   2.461  1.00 20.00     0.006 A 
HETATM    7  C2  UNL     1     -31.774   8.272   1.287  1.00 20.00     0.006 A 
ENDBRANCH   3   5
BRANCH   2   8
HETATM    8  C8  UNL     1     -35.221   5.671   4.216  1.00 20.00     0.120 C 
HETATM    9 CL9  UNL     1     -34.590   4.809   5.646  1.00 20.00    -0.130 Cl
ENDBRANCH   2   8
TORSDOF 2
ENDMDL
MODEL 6
REMARK VINA RESULT:      -4.6      2.838      4.102
REMARK  2 active torsions:
REMARK  status: ('A' for Active; 'I' for Inactive)
REMARK    1  A    between atoms: C4_4  and  C6_6 
REMARK    2  A    between atoms: C5_5  and  C8_8 
ROOT
HETATM    1  C3  UNL     1     -34.816   6.275   3.069  1.00 20.00     0.016 A 
HETATM    2  C5  UNL     1     -33.797   5.201   3.322  1.00 20.00     0.009 A 
HETATM    3  C6  UNL     1     -33.418   6.667   3.519  1.00 20.00    -0.035 A 
HETATM    4  C7  UNL     1     -33.285   7.201   4.925  1.00 20.00     0.016 C 
ENDROOT
BRANCH   3   5
HETATM    5  C4  UNL     1     -32.443   7.325   2.530  1.00 20.00    -0.006 A 
HETATM    6  C1  UNL     1     -32.672   8.697   1.957  1.00 20.00     0.006 A 
HETATM    7  C2  UNL     1     -31.539   8.462   2.916  1.00 20.00     0.006 A 
ENDBRANCH   3   5
BRANCH   2   8
HETATM    8  C8  UNL     1     -33.969   4.248   4.456  1.00 20.00     0.120 C 
HETATM    9 CL9  UNL     1     -35.026   4.934   5.721  1.00 20.00    -0.130 Cl
ENDBRANCH   2   8
TORSDOF 2
ENDMDL
MODEL 7
REMARK VINA RESULT:      -3.9      2.106      4.084
REMARK  2 active torsions:
REMARK  status: ('A' for Active; 'I' for Inactive)
REMARK    1  A    between atoms: C4_4  and  C6_6 
REMARK    2  A    between atoms: C5_5  and  C8_8 
ROOT
HETATM    1  C3  UNL     1     -31.989   7.965   4.004  1.00 20.00     0.016 A 
HETATM    2  C5  UNL     1     -33.478   7.772   4.056  1.00 20.00     0.009 A 
HETATM    3  C6  UNL     1     -32.718   7.465   2.767  1.00 20.00    -0.035 A 
HETATM    4  C7  UNL     1     -32.488   6.023   2.383  1.00 20.00     0.016 C 
ENDROOT
BRANCH   3   5
HETATM    5  C4  UNL     1     -32.905   8.390   1.553  1.00 20.00    -0.006 A 
HETATM    6  C1  UNL     1     -32.469   9.829   1.555  1.00 20.00     0.006 A 
HETATM    7  C2  UNL     1     -31.759   8.831   0.685  1.00 20.00     0.006 A 
ENDBRANCH   3   5
BRANCH   2   8
HETATM    8  C8  UNL     1     -34.072   6.710   4.918  1.00 20.00     0.120 C 
HETATM    9 CL9  UNL     1     -35.369   5.832   4.062  1.00 20.00    -0.130 Cl
ENDBRANCH   2   8
TORSDOF 2
ENDMDL
MODEL 8
REMARK VINA RESULT:      -3.7     10.454     11.186
REMARK  2 active torsions:
REMARK  status: ('A' for Active; 'I' for Inactive)
REMARK    1  A    between atoms: C4_4  and  C6_6 
REMARK    2  A    between atoms: C5_5  and  C8_8 
ROOT
HETATM    1  C3  UNL     1     -33.410  14.875  -4.389  1.00 20.00     0.016 A 
HETATM    2  C5  UNL     1     -34.764  14.263  -4.170  1.00 20.00     0.009 A 
HETATM    3  C6  UNL     1     -34.562  15.759  -3.937  1.00 20.00    -0.035 A 
HETATM    4  C7  UNL     1     -35.106  16.733  -4.955  1.00 20.00     0.016 C 
ENDROOT
BRANCH   3   5
HETATM    5  C4  UNL     1     -34.601  16.303  -2.500  1.00 20.00    -0.006 A 
HETATM    6  C1  UNL     1     -33.528  17.198  -1.942  1.00 20.00     0.006 A 
HETATM    7  C2  UNL     1     -34.909  17.740  -2.184  1.00 20.00     0.006 A 
ENDBRANCH   3   5
BRANCH   2   8
HETATM    8  C8  UNL     1     -35.542  13.720  -5.319  1.00 20.00     0.120 C 
HETATM    9 CL9  UNL     1     -34.528  13.587  -6.782  1.00 20.00    -0.130 Cl
ENDBRANCH   2   8
TORSDOF 2
ENDMDL
MODEL 9
REMARK VINA RESULT:      -3.7     10.385     11.385
REMARK  2 active torsions:
REMARK  status: ('A' for Active; 'I' for Inactive)
REMARK    1  A    between atoms: C4_4  and  C6_6 
REMARK    2  A    between atoms: C5_5  and  C8_8 
ROOT
HETATM    1  C3  UNL     1     -35.086  16.668  -2.147  1.00 20.00     0.016 A 
HETATM    2  C5  UNL     1     -33.651  17.040  -1.910  1.00 20.00     0.009 A 
HETATM    3  C6  UNL     1     -34.099  16.596  -3.301  1.00 20.00    -0.035 A 
HETATM    4  C7  UNL     1     -34.248  17.637  -4.384  1.00 20.00     0.016 C 
ENDROOT
BRANCH   3   5
HETATM    5  C4  UNL     1     -33.633  15.232  -3.835  1.00 20.00    -0.006 A 
HETATM    6  C1  UNL     1     -34.593  14.154  -4.256  1.00 20.00     0.006 A 
HETATM    7  C2  UNL     1     -33.743  14.847  -5.284  1.00 20.00     0.006 A 
ENDBRANCH   3   5
BRANCH   2   8
HETATM    8  C8  UNL     1     -33.279  18.448  -1.590  1.00 20.00     0.120 C 
HETATM    9 CL9  UNL     1     -31.984  18.511  -0.363  1.00 20.00    -0.130 Cl
ENDBRANCH   2   8
TORSDOF 2
ENDMDL
