MODEL 1
REMARK VINA RESULT:      -6.0      0.000      0.000
REMARK  2 active torsions:
REMARK  status: ('A' for Active; 'I' for Inactive)
REMARK    1  A    between atoms: C5_5  and  C6_6 
REMARK    2  A    between atoms: C7_7  and  C8_8 
ROOT
HETATM    1  C4  UNL     1     -31.949   7.690   3.520  1.00 20.00     0.011 A 
HETATM    2  C6  UNL     1     -33.443   7.691   3.378  1.00 20.00    -0.005 A 
HETATM    3  C7  UNL     1     -32.579   7.956   2.178  1.00 20.00     0.004 A 
ENDROOT
BRANCH   2   4
HETATM    4  C5  UNL     1     -34.281   6.438   3.521  1.00 20.00    -0.010 C 
HETATM    5  C2  UNL     1     -34.499   5.910   4.963  1.00 20.00     0.005 C 
HETATM    6  C1  UNL     1     -34.405   4.486   4.376  1.00 20.00     0.001 C 
HETATM    7  C3  UNL     1     -33.571   5.091   3.228  1.00 20.00     0.005 C 
ENDBRANCH   2   4
BRANCH   3   8
HETATM    8  C8  UNL     1     -32.529   9.319   1.583  1.00 20.00     0.119 C 
HETATM    9 CL9  UNL     1     -32.894   9.277  -0.164  1.00 20.00    -0.130 Cl
ENDBRANCH   3   8
TORSDOF 2
ENDMDL
MODEL 2
REMARK VINA RESULT:      -5.6      2.652      4.416
REMARK  2 active torsions:
REMARK  status: ('A' for Active; 'I' for Inactive)
REMARK    1  A    between atoms: C5_5  and  C6_6 
REMARK    2  A    between atoms: C7_7  and  C8_8 
ROOT
HETATM    1  C4  UNL     1     -33.727   7.314   6.026  1.00 20.00     0.011 A 
HETATM    2  C6  UNL     1     -33.193   6.882   4.692  1.00 20.00    -0.005 A 
HETATM    3  C7  UNL     1     -34.537   6.393   5.151  1.00 20.00     0.004 A 
ENDROOT
BRANCH   2   4
HETATM    4  C5  UNL     1     -33.025   7.838   3.528  1.00 20.00    -0.010 C 
HETATM    5  C2  UNL     1     -32.860   7.200   2.124  1.00 20.00     0.005 C 
HETATM    6  C1  UNL     1     -31.866   8.337   1.807  1.00 20.00     0.001 C 
HETATM    7  C3  UNL     1     -31.612   8.442   3.325  1.00 20.00     0.005 C 
ENDBRANCH   2   4
BRANCH   3   8
HETATM    8  C8  UNL     1     -34.720   4.966   5.530  1.00 20.00     0.119 C 
HETATM    9 CL9  UNL     1     -34.162   3.874   4.232  1.00 20.00    -0.130 Cl
ENDBRANCH   3   8
TORSDOF 2
ENDMDL
MODEL 3
REMARK VINA RESULT:      -5.2      2.496      4.466
REMARK  2 active torsions:
REMARK  status: ('A' for Active; 'I' for Inactive)
REMARK    1  A    between atoms: C5_5  and  C6_6 
REMARK    2  A    between atoms: C7_7  and  C8_8 
ROOT
HETATM    1  C4  UNL     1     -32.917   7.568   4.247  1.00 20.00     0.011 A 
HETATM    2  C6  UNL     1     -32.115   7.603   2.979  1.00 20.00    -0.005 A 
HETATM    3  C7  UNL     1     -33.415   6.852   3.019  1.00 20.00     0.004 A 
ENDROOT
BRANCH   2   4
HETATM    4  C5  UNL     1     -31.925   8.866   2.164  1.00 20.00    -0.010 C 
HETATM    5  C2  UNL     1     -33.211   9.543   1.623  1.00 20.00     0.005 C 
HETATM    6  C1  UNL     1     -32.406   9.886   0.352  1.00 20.00     0.001 C 
HETATM    7  C3  UNL     1     -31.503   8.680   0.683  1.00 20.00     0.005 C 
ENDBRANCH   2   4
BRANCH   3   8
HETATM    8  C8  UNL     1     -33.416   5.365   2.967  1.00 20.00     0.119 C 
HETATM    9 CL9  UNL     1     -34.502   4.674   4.205  1.00 20.00    -0.130 Cl
ENDBRANCH   3   8
TORSDOF 2
ENDMDL
MODEL 4
REMARK VINA RESULT:      -4.9      2.529      4.446
REMARK  2 active torsions:
REMARK  status: ('A' for Active; 'I' for Inactive)
REMARK    1  A    between atoms: C5_5  and  C6_6 
REMARK    2  A    between atoms: C7_7  and  C8_8 
ROOT
HETATM    1  C4  UNL     1     -35.055   6.129   3.156  1.00 20.00     0.011 A 
HETATM    2  C6  UNL     1     -33.878   6.977   3.544  1.00 20.00    -0.005 A 
HETATM    3  C7  UNL     1     -34.084   5.642   4.200  1.00 20.00     0.004 A 
ENDROOT
BRANCH   2   4
HETATM    4  C5  UNL     1     -32.725   7.256   2.603  1.00 20.00    -0.010 C 
HETATM    5  C2  UNL     1     -31.588   8.160   3.147  1.00 20.00     0.005 C 
HETATM    6  C1  UNL     1     -31.483   8.756   1.728  1.00 20.00     0.001 C 
HETATM    7  C3  UNL     1     -32.956   8.345   1.524  1.00 20.00     0.005 C 
ENDBRANCH   2   4
BRANCH   3   8
HETATM    8  C8  UNL     1     -34.493   5.571   5.629  1.00 20.00     0.119 C 
HETATM    9 CL9  UNL     1     -34.114   7.089   6.488  1.00 20.00    -0.130 Cl
ENDBRANCH   3   8
TORSDOF 2
ENDMDL
MODEL 5
REMARK VINA RESULT:      -4.8      1.737      2.081
REMARK  2 active torsions:
REMARK  status: ('A' for Active; 'I' for Inactive)
REMARK    1  A    between atoms: C5_5  and  C6_6 
REMARK    2  A    between atoms: C7_7  and  C8_8 
ROOT
HETATM    1  C4  UNL     1     -33.425   6.084   1.861  1.00 20.00     0.011 A 
HETATM    2  C6  UNL     1     -33.311   6.320   3.339  1.00 20.00    -0.005 A 
HETATM    3  C7  UNL     1     -33.409   7.490   2.402  1.00 20.00     0.004 A 
ENDROOT
BRANCH   2   4
HETATM    4  C5  UNL     1     -34.414   5.958   4.313  1.00 20.00    -0.010 C 
HETATM    5  C2  UNL     1     -34.182   6.345   5.797  1.00 20.00     0.005 C 
HETATM    6  C1  UNL     1     -34.890   5.026   6.173  1.00 20.00     0.001 C 
HETATM    7  C3  UNL     1     -34.460   4.485   4.793  1.00 20.00     0.005 C 
ENDBRANCH   2   4
BRANCH   3   8
HETATM    8  C8  UNL     1     -32.226   8.366   2.180  1.00 20.00     0.119 C 
HETATM    9 CL9  UNL     1     -31.172   8.408   3.621  1.00 20.00    -0.130 Cl
ENDBRANCH   3   8
TORSDOF 2
ENDMDL
MODEL 6
REMARK VINA RESULT:      -4.0     10.625     11.351
REMARK  2 active torsions:
REMARK  status: ('A' for Active; 'I' for Inactive)
REMARK    1  A    between atoms: C5_5  and  C6_6 
REMARK    2  A    between atoms: C7_7  and  C8_8 
ROOT
HETATM    1  C4  UNL     1     -33.396  14.942  -4.304  1.00 20.00     0.011 A 
HETATM    2  C6  UNL     1     -34.509  15.947  -4.227  1.00 20.00    -0.005 A 
HETATM    3  C7  UNL     1     -34.797  14.494  -3.977  1.00 20.00     0.004 A 
ENDROOT
BRANCH   2   4
HETATM    4  C5  UNL     1     -34.592  16.995  -3.137  1.00 20.00    -0.010 C 
HETATM    5  C2  UNL     1     -33.395  17.071  -2.154  1.00 20.00     0.005 C 
HETATM    6  C1  UNL     1     -34.422  17.384  -1.045  1.00 20.00     0.001 C 
HETATM    7  C3  UNL     1     -35.470  16.650  -1.907  1.00 20.00     0.005 C 
ENDBRANCH   2   4
BRANCH   3   8
HETATM    8  C8  UNL     1     -35.584  13.711  -4.969  1.00 20.00     0.119 C 
HETATM    9 CL9  UNL     1     -37.282  14.259  -5.027  1.00 20.00    -0.130 Cl
ENDBRANCH   3   8
TORSDOF 2
ENDMDL
MODEL 7
REMARK VINA RESULT:      -4.0     10.954     11.529
REMARK  2 active torsions:
REMARK  status: ('A' for Active; 'I' for Inactive)
REMARK    1  A    between atoms: C5_5  and  C6_6 
REMARK    2  A    between atoms: C7_7  and  C8_8 
ROOT
HETATM    1  C4  UNL     1     -33.426  16.787  -4.851  1.00 20.00     0.011 A 
HETATM    2  C6  UNL     1     -34.285  16.235  -3.751  1.00 20.00    -0.005 A 
HETATM    3  C7  UNL     1     -33.474  15.302  -4.602  1.00 20.00     0.004 A 
ENDROOT
BRANCH   2   4
HETATM    4  C5  UNL     1     -33.989  16.469  -2.284  1.00 20.00    -0.010 C 
HETATM    5  C2  UNL     1     -35.178  16.928  -1.400  1.00 20.00     0.005 C 
HETATM    6  C1  UNL     1     -34.172  17.817  -0.639  1.00 20.00     0.001 C 
HETATM    7  C3  UNL     1     -33.311  17.815  -1.918  1.00 20.00     0.005 C 
ENDBRANCH   2   4
BRANCH   3   8
HETATM    8  C8  UNL     1     -34.153  14.400  -5.573  1.00 20.00     0.119 C 
HETATM    9 CL9  UNL     1     -35.588  13.628  -4.845  1.00 20.00    -0.130 Cl
ENDBRANCH   3   8
TORSDOF 2
ENDMDL
MODEL 8
REMARK VINA RESULT:      -3.9     10.981     11.626
REMARK  2 active torsions:
REMARK  status: ('A' for Active; 'I' for Inactive)
REMARK    1  A    between atoms: C5_5  and  C6_6 
REMARK    2  A    between atoms: C7_7  and  C8_8 
ROOT
HETATM    1  C4  UNL     1     -35.055  16.828  -1.826  1.00 20.00     0.011 A 
HETATM    2  C6  UNL     1     -34.081  16.883  -2.966  1.00 20.00    -0.005 A 
HETATM    3  C7  UNL     1     -33.616  17.192  -1.572  1.00 20.00     0.004 A 
ENDROOT
BRANCH   2   4
HETATM    4  C5  UNL     1     -33.634  15.648  -3.722  1.00 20.00    -0.010 C 
HETATM    5  C2  UNL     1     -33.281  15.841  -5.220  1.00 20.00     0.005 C 
HETATM    6  C1  UNL     1     -33.907  14.452  -5.468  1.00 20.00     0.001 C 
HETATM    7  C3  UNL     1     -34.751  14.683  -4.198  1.00 20.00     0.005 C 
ENDBRANCH   2   4
BRANCH   3   8
HETATM    8  C8  UNL     1     -33.249  18.587  -1.203  1.00 20.00     0.119 C 
HETATM    9 CL9  UNL     1     -31.851  18.616  -0.093  1.00 20.00    -0.130 Cl
ENDBRANCH   3   8
TORSDOF 2
ENDMDL
MODEL 9
REMARK VINA RESULT:      -3.9     11.035     11.700
REMARK  2 active torsions:
REMARK  status: ('A' for Active; 'I' for Inactive)
REMARK    1  A    between atoms: C5_5  and  C6_6 
REMARK    2  A    between atoms: C7_7  and  C8_8 
ROOT
HETATM    1  C4  UNL     1     -34.774  15.144  -3.787  1.00 20.00     0.011 A 
HETATM    2  C6  UNL     1     -33.795  16.149  -3.253  1.00 20.00    -0.005 A 
HETATM    3  C7  UNL     1     -34.104  16.117  -4.722  1.00 20.00     0.004 A 
ENDROOT
BRANCH   2   4
HETATM    4  C5  UNL     1     -34.207  17.299  -2.357  1.00 20.00    -0.010 C 
HETATM    5  C2  UNL     1     -33.178  17.748  -1.287  1.00 20.00     0.005 C 
HETATM    6  C1  UNL     1     -34.377  17.997  -0.347  1.00 20.00     0.001 C 
HETATM    7  C3  UNL     1     -35.154  16.955  -1.178  1.00 20.00     0.005 C 
ENDBRANCH   2   4
BRANCH   3   8
HETATM    8  C8  UNL     1     -33.077  15.641  -5.689  1.00 20.00     0.119 C 
HETATM    9 CL9  UNL     1     -33.786  15.358  -7.302  1.00 20.00    -0.130 Cl
ENDBRANCH   3   8
TORSDOF 2
ENDMDL
