MODEL 1
REMARK VINA RESULT:      -4.3      0.000      0.000
REMARK  1 active torsions:
REMARK  status: ('A' for Active; 'I' for Inactive)
REMARK    1  A    between atoms: C4_4  and  C8_8 
ROOT
HETATM    1  C1  UNL     1     -31.437   7.717   2.857  1.00 20.00     0.017 A 
HETATM    2  C2  UNL     1     -33.285   5.887   2.844  1.00 20.00     0.025 C 
HETATM    3  C3  UNL     1     -33.732   8.025   4.040  1.00 20.00     0.084 C 
HETATM    4  C4  UNL     1     -32.409   8.087   1.771  1.00 20.00     0.009 A 
HETATM    5  C5  UNL     1     -33.478   5.341   4.253  1.00 20.00     0.044 C 
HETATM    6  C6  UNL     1     -32.897   7.335   2.995  1.00 20.00    -0.026 A 
HETATM    7  C7  UNL     1     -34.299   4.064   4.283  1.00 20.00     0.021 C 
HETATM    8  S9  UNL     1     -34.315   6.693   5.136  1.00 20.00    -0.164 SA
ENDROOT
BRANCH   4   9
HETATM    9  C8  UNL     1     -32.748   9.518   1.532  1.00 20.00     0.120 C 
HETATM   10 CL10 UNL     1     -33.088   9.823  -0.194  1.00 20.00    -0.130 Cl
ENDBRANCH   4   9
TORSDOF 1
ENDMDL
MODEL 2
REMARK VINA RESULT:      -4.1     11.063     11.660
REMARK  1 active torsions:
REMARK  status: ('A' for Active; 'I' for Inactive)
REMARK    1  A    between atoms: C4_4  and  C8_8 
ROOT
HETATM    1  C1  UNL     1     -35.189  16.695  -1.820  1.00 20.00     0.017 A 
HETATM    2  C2  UNL     1     -34.716  14.987  -3.724  1.00 20.00     0.025 C 
HETATM    3  C3  UNL     1     -35.165  17.359  -4.334  1.00 20.00     0.084 C 
HETATM    4  C4  UNL     1     -33.739  16.843  -2.189  1.00 20.00     0.009 A 
HETATM    5  C5  UNL     1     -35.973  14.788  -4.562  1.00 20.00     0.044 C 
HETATM    6  C6  UNL     1     -34.744  16.413  -3.242  1.00 20.00    -0.026 A 
HETATM    7  C7  UNL     1     -35.883  13.587  -5.485  1.00 20.00     0.021 C 
HETATM    8  S9  UNL     1     -36.126  16.340  -5.499  1.00 20.00    -0.164 SA
ENDROOT
BRANCH   4   9
HETATM    9  C8  UNL     1     -33.109  18.193  -2.198  1.00 20.00     0.120 C 
HETATM   10 CL10 UNL     1     -32.233  18.509  -0.675  1.00 20.00    -0.130 Cl
ENDBRANCH   4   9
TORSDOF 1
ENDMDL
MODEL 3
REMARK VINA RESULT:      -4.0     11.177     11.805
REMARK  1 active torsions:
REMARK  status: ('A' for Active; 'I' for Inactive)
REMARK    1  A    between atoms: C4_4  and  C8_8 
ROOT
HETATM    1  C1  UNL     1     -33.066  14.776  -4.516  1.00 20.00     0.017 A 
HETATM    2  C2  UNL     1     -34.641  16.024  -2.865  1.00 20.00     0.025 C 
HETATM    3  C3  UNL     1     -33.555  17.324  -4.690  1.00 20.00     0.084 C 
HETATM    4  C4  UNL     1     -34.404  14.889  -5.192  1.00 20.00     0.009 A 
HETATM    5  C5  UNL     1     -33.832  16.999  -2.020  1.00 20.00     0.044 C 
HETATM    6  C6  UNL     1     -33.964  15.958  -4.209  1.00 20.00    -0.026 A 
HETATM    7  C7  UNL     1     -34.608  17.531  -0.827  1.00 20.00     0.021 C 
HETATM    8  S9  UNL     1     -33.399  18.331  -3.180  1.00 20.00    -0.164 SA
ENDROOT
BRANCH   4   9
HETATM    9  C8  UNL     1     -34.477  15.142  -6.658  1.00 20.00     0.120 C 
HETATM   10 CL10 UNL     1     -34.338  13.622  -7.585  1.00 20.00    -0.130 Cl
ENDBRANCH   4   9
TORSDOF 1
ENDMDL
MODEL 4
REMARK VINA RESULT:      -3.9      2.944      4.523
REMARK  1 active torsions:
REMARK  status: ('A' for Active; 'I' for Inactive)
REMARK    1  A    between atoms: C4_4  and  C8_8 
ROOT
HETATM    1  C1  UNL     1     -34.969   6.376   3.386  1.00 20.00     0.017 A 
HETATM    2  C2  UNL     1     -32.925   6.908   1.867  1.00 20.00     0.025 C 
HETATM    3  C3  UNL     1     -32.651   7.072   4.337  1.00 20.00     0.084 C 
HETATM    4  C4  UNL     1     -34.122   5.135   3.345  1.00 20.00     0.009 A 
HETATM    5  C5  UNL     1     -32.575   8.386   1.974  1.00 20.00     0.044 C 
HETATM    6  C6  UNL     1     -33.468   6.498   3.211  1.00 20.00    -0.026 A 
HETATM    7  C7  UNL     1     -31.611   8.844   0.894  1.00 20.00     0.021 C 
HETATM    8  S9  UNL     1     -31.843   8.545   3.632  1.00 20.00    -0.164 SA
ENDROOT
BRANCH   4   9
HETATM    9  C8  UNL     1     -33.969   4.298   4.568  1.00 20.00     0.120 C 
HETATM   10 CL10 UNL     1     -34.820   5.025   5.960  1.00 20.00    -0.130 Cl
ENDBRANCH   4   9
TORSDOF 1
ENDMDL
MODEL 5
REMARK VINA RESULT:      -3.8     10.903     11.831
REMARK  1 active torsions:
REMARK  status: ('A' for Active; 'I' for Inactive)
REMARK    1  A    between atoms: C4_4  and  C8_8 
ROOT
HETATM    1  C1  UNL     1     -33.300  14.438  -4.282  1.00 20.00     0.017 A 
HETATM    2  C2  UNL     1     -34.278  16.247  -2.689  1.00 20.00     0.025 C 
HETATM    3  C3  UNL     1     -34.292  16.684  -5.141  1.00 20.00     0.084 C 
HETATM    4  C4  UNL     1     -34.792  14.253  -4.277  1.00 20.00     0.009 A 
HETATM    5  C5  UNL     1     -33.398  17.489  -2.718  1.00 20.00     0.044 C 
HETATM    6  C6  UNL     1     -34.203  15.636  -4.064  1.00 20.00    -0.026 A 
HETATM    7  C7  UNL     1     -33.711  18.460  -1.594  1.00 20.00     0.021 C 
HETATM    8  S9  UNL     1     -33.732  18.225  -4.348  1.00 20.00    -0.164 SA
ENDROOT
BRANCH   4   9
HETATM    9  C8  UNL     1     -35.499  13.878  -5.534  1.00 20.00     0.120 C 
HETATM   10 CL10 UNL     1     -37.262  14.119  -5.381  1.00 20.00    -0.130 Cl
ENDBRANCH   4   9
TORSDOF 1
ENDMDL
MODEL 6
REMARK VINA RESULT:      -3.8     11.295     11.903
REMARK  1 active torsions:
REMARK  status: ('A' for Active; 'I' for Inactive)
REMARK    1  A    between atoms: C4_4  and  C8_8 
ROOT
HETATM    1  C1  UNL     1     -35.671  16.890  -3.557  1.00 20.00     0.017 A 
HETATM    2  C2  UNL     1     -34.951  14.628  -4.621  1.00 20.00     0.025 C 
HETATM    3  C3  UNL     1     -33.492  16.620  -4.951  1.00 20.00     0.084 C 
HETATM    4  C4  UNL     1     -34.666  16.271  -2.626  1.00 20.00     0.009 A 
HETATM    5  C5  UNL     1     -35.018  14.729  -6.139  1.00 20.00     0.044 C 
HETATM    6  C6  UNL     1     -34.580  15.998  -4.117  1.00 20.00    -0.026 A 
HETATM    7  C7  UNL     1     -34.923  13.377  -6.825  1.00 20.00     0.021 C 
HETATM    8  S9  UNL     1     -33.609  15.795  -6.571  1.00 20.00    -0.164 SA
ENDROOT
BRANCH   4   9
HETATM    9  C8  UNL     1     -33.677  17.133  -1.920  1.00 20.00     0.120 C 
HETATM   10 CL10 UNL     1     -34.323  17.711  -0.358  1.00 20.00    -0.130 Cl
ENDBRANCH   4   9
TORSDOF 1
ENDMDL
MODEL 7
REMARK VINA RESULT:      -3.8     10.916     11.624
REMARK  1 active torsions:
REMARK  status: ('A' for Active; 'I' for Inactive)
REMARK    1  A    between atoms: C4_4  and  C8_8 
ROOT
HETATM    1  C1  UNL     1     -34.391  18.054  -3.353  1.00 20.00     0.017 A 
HETATM    2  C2  UNL     1     -32.767  17.791  -1.338  1.00 20.00     0.025 C 
HETATM    3  C3  UNL     1     -35.171  17.227  -1.014  1.00 20.00     0.084 C 
HETATM    4  C4  UNL     1     -34.011  16.601  -3.287  1.00 20.00     0.009 A 
HETATM    5  C5  UNL     1     -33.112  18.812  -0.262  1.00 20.00     0.044 C 
HETATM    6  C6  UNL     1     -34.063  17.425  -2.013  1.00 20.00    -0.026 A 
HETATM    7  C7  UNL     1     -32.032  18.942   0.796  1.00 20.00     0.021 C 
HETATM    8  S9  UNL     1     -34.669  18.193   0.447  1.00 20.00    -0.164 SA
ENDROOT
BRANCH   4   9
HETATM    9  C8  UNL     1     -35.023  15.552  -3.595  1.00 20.00     0.120 C 
HETATM   10 CL10 UNL     1     -34.242  14.009  -4.036  1.00 20.00    -0.130 Cl
ENDBRANCH   4   9
TORSDOF 1
ENDMDL
MODEL 8
REMARK VINA RESULT:      -3.8      1.485      1.972
REMARK  1 active torsions:
REMARK  status: ('A' for Active; 'I' for Inactive)
REMARK    1  A    between atoms: C4_4  and  C8_8 
ROOT
HETATM    1  C1  UNL     1     -33.882   8.286   2.489  1.00 20.00     0.017 A 
HETATM    2  C2  UNL     1     -33.588   6.959   4.707  1.00 20.00     0.025 C 
HETATM    3  C3  UNL     1     -32.974   5.850   2.563  1.00 20.00     0.084 C 
HETATM    4  C4  UNL     1     -32.434   8.402   2.877  1.00 20.00     0.009 A 
HETATM    5  C5  UNL     1     -34.571   5.797   4.746  1.00 20.00     0.044 C 
HETATM    6  C6  UNL     1     -33.220   7.161   3.260  1.00 20.00    -0.026 A 
HETATM    7  C7  UNL     1     -34.688   5.169   6.123  1.00 20.00     0.021 C 
HETATM    8  S9  UNL     1     -33.906   4.618   3.530  1.00 20.00    -0.164 SA
ENDROOT
BRANCH   4   9
HETATM    9  C8  UNL     1     -31.378   8.379   1.826  1.00 20.00     0.120 C 
HETATM   10 CL10 UNL     1     -31.925   9.206   0.342  1.00 20.00    -0.130 Cl
ENDBRANCH   4   9
TORSDOF 1
ENDMDL
MODEL 9
REMARK VINA RESULT:      -3.7     11.077     11.892
REMARK  1 active torsions:
REMARK  status: ('A' for Active; 'I' for Inactive)
REMARK    1  A    between atoms: C4_4  and  C8_8 
ROOT
HETATM    1  C1  UNL     1     -33.693  15.874  -3.442  1.00 20.00     0.017 A 
HETATM    2  C2  UNL     1     -34.208  15.712  -5.987  1.00 20.00     0.025 C 
HETATM    3  C3  UNL     1     -35.913  14.887  -4.370  1.00 20.00     0.084 C 
HETATM    4  C4  UNL     1     -34.552  17.058  -3.789  1.00 20.00     0.009 A 
HETATM    5  C5  UNL     1     -34.256  14.250  -6.410  1.00 20.00     0.044 C 
HETATM    6  C6  UNL     1     -34.705  15.763  -4.566  1.00 20.00    -0.026 A 
HETATM    7  C7  UNL     1     -34.234  14.071  -7.918  1.00 20.00     0.021 C 
HETATM    8  S9  UNL     1     -35.808  13.634  -5.689  1.00 20.00    -0.164 SA
ENDROOT
BRANCH   4   9
HETATM    9  C8  UNL     1     -35.587  17.533  -2.828  1.00 20.00     0.120 C 
HETATM   10 CL10 UNL     1     -35.289  16.893  -1.188  1.00 20.00    -0.130 Cl
ENDBRANCH   4   9
TORSDOF 1
ENDMDL
