MODEL 1
REMARK VINA RESULT:      -4.5      0.000      0.000
REMARK  2 active torsions:
REMARK  status: ('A' for Active; 'I' for Inactive)
REMARK    1  A    between atoms: C4_4  and  C7_7 
REMARK    2  A    between atoms: C6_6  and  C9_9 
ROOT
HETATM    1  C5  UNL     1     -32.853   5.740   3.012  1.00 20.00     0.021 A 
HETATM    2  C6  UNL     1     -34.255   6.273   2.963  1.00 20.00     0.009 A 
HETATM    3  C7  UNL     1     -33.100   7.207   3.330  1.00 20.00    -0.012 A 
HETATM    4  C8  UNL     1     -32.915   7.671   4.747  1.00 20.00     0.021 C 
ENDROOT
BRANCH   3   5
HETATM    5  C4  UNL     1     -32.693   8.234   2.236  1.00 20.00    -0.043 A 
HETATM    6  C1  UNL     1     -31.628   8.031   1.311  1.00 20.00     0.015 A 
HETATM    7  C2  UNL     1     -31.479   9.097   0.450  1.00 20.00     0.050 A 
HETATM    8  S10 UNL     1     -32.620  10.337   0.760  1.00 20.00    -0.113 SA
HETATM    9  C3  UNL     1     -33.316   9.448   2.048  1.00 20.00     0.057 A 
ENDBRANCH   3   5
BRANCH   2  10
HETATM   10  C9  UNL     1     -35.267   5.821   3.959  1.00 20.00     0.090 C 
HETATM   11 BR11 UNL     1     -34.530   4.410   5.087  1.00 20.00    -0.096 Br
ENDBRANCH   2  10
TORSDOF 2
ENDMDL
MODEL 2
REMARK VINA RESULT:      -4.2     10.486     11.653
REMARK  2 active torsions:
REMARK  status: ('A' for Active; 'I' for Inactive)
REMARK    1  A    between atoms: C4_4  and  C7_7 
REMARK    2  A    between atoms: C6_6  and  C9_9 
ROOT
HETATM    1  C5  UNL     1     -33.192  15.920  -5.209  1.00 20.00     0.021 A 
HETATM    2  C6  UNL     1     -34.604  16.294  -5.554  1.00 20.00     0.009 A 
HETATM    3  C7  UNL     1     -34.317  15.523  -4.265  1.00 20.00    -0.012 A 
HETATM    4  C8  UNL     1     -34.671  14.067  -4.152  1.00 20.00     0.021 C 
ENDROOT
BRANCH   3   5
HETATM    5  C4  UNL     1     -34.443  16.341  -2.949  1.00 20.00    -0.043 A 
HETATM    6  C1  UNL     1     -33.359  17.033  -2.336  1.00 20.00     0.015 A 
HETATM    7  C2  UNL     1     -33.743  17.677  -1.179  1.00 20.00     0.050 A 
HETATM    8  S10 UNL     1     -35.405  17.444  -0.837  1.00 20.00    -0.113 SA
HETATM    9  C3  UNL     1     -35.614  16.481  -2.238  1.00 20.00     0.057 A 
ENDBRANCH   3   5
BRANCH   2  10
HETATM   10  C9  UNL     1     -35.282  15.672  -6.726  1.00 20.00     0.090 C 
HETATM   11 BR11 UNL     1     -33.971  14.850  -7.914  1.00 20.00    -0.096 Br
ENDBRANCH   2  10
TORSDOF 2
ENDMDL
MODEL 3
REMARK VINA RESULT:      -4.2     10.748     11.483
REMARK  2 active torsions:
REMARK  status: ('A' for Active; 'I' for Inactive)
REMARK    1  A    between atoms: C4_4  and  C7_7 
REMARK    2  A    between atoms: C6_6  and  C9_9 
ROOT
HETATM    1  C5  UNL     1     -35.336  16.860  -1.554  1.00 20.00     0.021 A 
HETATM    2  C6  UNL     1     -34.037  16.615  -2.265  1.00 20.00     0.009 A 
HETATM    3  C7  UNL     1     -34.321  17.989  -1.655  1.00 20.00    -0.012 A 
HETATM    4  C8  UNL     1     -34.645  19.162  -2.536  1.00 20.00     0.021 C 
ENDROOT
BRANCH   3   5
HETATM    5  C4  UNL     1     -33.526  18.328  -0.363  1.00 20.00    -0.043 A 
HETATM    6  C1  UNL     1     -32.125  18.584  -0.335  1.00 20.00     0.015 A 
HETATM    7  C2  UNL     1     -31.673  18.858   0.938  1.00 20.00     0.050 A 
HETATM    8  S10 UNL     1     -32.937  18.806   2.093  1.00 20.00    -0.113 SA
HETATM    9  C3  UNL     1     -34.093  18.416   0.890  1.00 20.00     0.057 A 
ENDBRANCH   3   5
BRANCH   2  10
HETATM   10  C9  UNL     1     -34.018  16.380  -3.736  1.00 20.00     0.090 C 
HETATM   11 BR11 UNL     1     -34.467  14.524  -4.136  1.00 20.00    -0.096 Br
ENDBRANCH   2  10
TORSDOF 2
ENDMDL
MODEL 4
REMARK VINA RESULT:      -4.1     10.499     11.737
REMARK  2 active torsions:
REMARK  status: ('A' for Active; 'I' for Inactive)
REMARK    1  A    between atoms: C4_4  and  C7_7 
REMARK    2  A    between atoms: C6_6  and  C9_9 
ROOT
HETATM    1  C5  UNL     1     -33.283  16.278  -5.167  1.00 20.00     0.021 A 
HETATM    2  C6  UNL     1     -34.757  16.470  -5.375  1.00 20.00     0.009 A 
HETATM    3  C7  UNL     1     -34.257  15.728  -4.135  1.00 20.00    -0.012 A 
HETATM    4  C8  UNL     1     -34.411  14.238  -4.024  1.00 20.00     0.021 C 
ENDROOT
BRANCH   3   5
HETATM    5  C4  UNL     1     -34.366  16.509  -2.795  1.00 20.00    -0.043 A 
HETATM    6  C1  UNL     1     -35.535  16.533  -1.981  1.00 20.00     0.015 A 
HETATM    7  C2  UNL     1     -35.364  17.301  -0.850  1.00 20.00     0.050 A 
HETATM    8  S10 UNL     1     -33.797  17.989  -0.773  1.00 20.00    -0.113 SA
HETATM    9  C3  UNL     1     -33.345  17.260  -2.256  1.00 20.00     0.057 A 
ENDBRANCH   3   5
BRANCH   2  10
HETATM   10  C9  UNL     1     -35.454  15.778  -6.496  1.00 20.00     0.090 C 
HETATM   11 BR11 UNL     1     -34.163  15.148  -7.817  1.00 20.00    -0.096 Br
ENDBRANCH   2  10
TORSDOF 2
ENDMDL
MODEL 5
REMARK VINA RESULT:      -4.1     10.452     11.161
REMARK  2 active torsions:
REMARK  status: ('A' for Active; 'I' for Inactive)
REMARK    1  A    between atoms: C4_4  and  C7_7 
REMARK    2  A    between atoms: C6_6  and  C9_9 
ROOT
HETATM    1  C5  UNL     1     -33.951  17.349  -1.504  1.00 20.00     0.021 A 
HETATM    2  C6  UNL     1     -35.319  16.992  -0.998  1.00 20.00     0.009 A 
HETATM    3  C7  UNL     1     -35.114  17.290  -2.484  1.00 20.00    -0.012 A 
HETATM    4  C8  UNL     1     -35.610  18.576  -3.080  1.00 20.00     0.021 C 
ENDROOT
BRANCH   3   5
HETATM    5  C4  UNL     1     -35.165  16.057  -3.430  1.00 20.00    -0.043 A 
HETATM    6  C1  UNL     1     -34.024  15.282  -3.790  1.00 20.00     0.015 A 
HETATM    7  C2  UNL     1     -34.348  14.248  -4.641  1.00 20.00     0.050 A 
HETATM    8  S10 UNL     1     -36.021  14.214  -5.003  1.00 20.00    -0.113 SA
HETATM    9  C3  UNL     1     -36.317  15.585  -4.021  1.00 20.00     0.057 A 
ENDBRANCH   3   5
BRANCH   2  10
HETATM   10  C9  UNL     1     -36.049  17.919  -0.089  1.00 20.00     0.090 C 
HETATM   11 BR11 UNL     1     -35.013  18.240   1.533  1.00 20.00    -0.096 Br
ENDBRANCH   2  10
TORSDOF 2
ENDMDL
MODEL 6
REMARK VINA RESULT:      -4.0     10.700     11.448
REMARK  2 active torsions:
REMARK  status: ('A' for Active; 'I' for Inactive)
REMARK    1  A    between atoms: C4_4  and  C7_7 
REMARK    2  A    between atoms: C6_6  and  C9_9 
ROOT
HETATM    1  C5  UNL     1     -33.801  16.700  -2.427  1.00 20.00     0.021 A 
HETATM    2  C6  UNL     1     -35.032  16.679  -1.568  1.00 20.00     0.009 A 
HETATM    3  C7  UNL     1     -35.161  16.920  -3.073  1.00 20.00    -0.012 A 
HETATM    4  C8  UNL     1     -35.485  18.288  -3.601  1.00 20.00     0.021 C 
ENDROOT
BRANCH   3   5
HETATM    5  C4  UNL     1     -35.740  15.735  -3.897  1.00 20.00    -0.043 A 
HETATM    6  C1  UNL     1     -37.124  15.572  -4.192  1.00 20.00     0.015 A 
HETATM    7  C2  UNL     1     -37.366  14.438  -4.936  1.00 20.00     0.050 A 
HETATM    8  S10 UNL     1     -35.927  13.574  -5.275  1.00 20.00    -0.113 SA
HETATM    9  C3  UNL     1     -34.976  14.718  -4.426  1.00 20.00     0.057 A 
ENDBRANCH   3   5
BRANCH   2  10
HETATM   10  C9  UNL     1     -35.265  17.752  -0.562  1.00 20.00     0.090 C 
HETATM   11 BR11 UNL     1     -33.573  18.558  -0.020  1.00 20.00    -0.096 Br
ENDBRANCH   2  10
TORSDOF 2
ENDMDL
MODEL 7
REMARK VINA RESULT:      -4.0     10.559     11.344
REMARK  2 active torsions:
REMARK  status: ('A' for Active; 'I' for Inactive)
REMARK    1  A    between atoms: C4_4  and  C7_7 
REMARK    2  A    between atoms: C6_6  and  C9_9 
ROOT
HETATM    1  C5  UNL     1     -35.507  15.862  -4.068  1.00 20.00     0.021 A 
HETATM    2  C6  UNL     1     -34.251  15.136  -3.683  1.00 20.00     0.009 A 
HETATM    3  C7  UNL     1     -34.327  16.655  -3.527  1.00 20.00    -0.012 A 
HETATM    4  C8  UNL     1     -33.581  17.556  -4.469  1.00 20.00     0.021 C 
ENDROOT
BRANCH   3   5
HETATM    5  C4  UNL     1     -34.449  17.175  -2.067  1.00 20.00    -0.043 A 
HETATM    6  C1  UNL     1     -33.387  17.805  -1.355  1.00 20.00     0.015 A 
HETATM    7  C2  UNL     1     -33.762  18.168  -0.080  1.00 20.00     0.050 A 
HETATM    8  S10 UNL     1     -35.389  17.750   0.255  1.00 20.00    -0.113 SA
HETATM    9  C3  UNL     1     -35.595  17.081  -1.308  1.00 20.00     0.057 A 
ENDBRANCH   3   5
BRANCH   2  10
HETATM   10  C9  UNL     1     -33.414  14.478  -4.725  1.00 20.00     0.090 C 
HETATM   11 BR11 UNL     1     -34.458  14.168  -6.344  1.00 20.00    -0.096 Br
ENDBRANCH   2  10
TORSDOF 2
ENDMDL
MODEL 8
REMARK VINA RESULT:      -3.9     10.657     11.540
REMARK  2 active torsions:
REMARK  status: ('A' for Active; 'I' for Inactive)
REMARK    1  A    between atoms: C4_4  and  C7_7 
REMARK    2  A    between atoms: C6_6  and  C9_9 
ROOT
HETATM    1  C5  UNL     1     -35.273  16.706  -1.323  1.00 20.00     0.021 A 
HETATM    2  C6  UNL     1     -35.540  17.933  -2.145  1.00 20.00     0.009 A 
HETATM    3  C7  UNL     1     -34.197  17.212  -2.272  1.00 20.00    -0.012 A 
HETATM    4  C8  UNL     1     -32.952  17.811  -1.684  1.00 20.00     0.021 C 
ENDROOT
BRANCH   3   5
HETATM    5  C4  UNL     1     -33.990  16.403  -3.583  1.00 20.00    -0.043 A 
HETATM    6  C1  UNL     1     -34.369  15.039  -3.746  1.00 20.00     0.015 A 
HETATM    7  C2  UNL     1     -34.071  14.565  -5.005  1.00 20.00     0.050 A 
HETATM    8  S10 UNL     1     -33.337  15.762  -5.985  1.00 20.00    -0.113 SA
HETATM    9  C3  UNL     1     -33.416  16.920  -4.725  1.00 20.00     0.057 A 
ENDBRANCH   3   5
BRANCH   2  10
HETATM   10  C9  UNL     1     -35.677  19.263  -1.488  1.00 20.00     0.090 C 
HETATM   11 BR11 UNL     1     -36.390  19.062   0.317  1.00 20.00    -0.096 Br
ENDBRANCH   2  10
TORSDOF 2
ENDMDL
MODEL 9
REMARK VINA RESULT:      -3.8     10.593     11.587
REMARK  2 active torsions:
REMARK  status: ('A' for Active; 'I' for Inactive)
REMARK    1  A    between atoms: C4_4  and  C7_7 
REMARK    2  A    between atoms: C6_6  and  C9_9 
ROOT
HETATM    1  C5  UNL     1     -34.250  18.923  -2.465  1.00 20.00     0.021 A 
HETATM    2  C6  UNL     1     -33.342  18.108  -1.590  1.00 20.00     0.009 A 
HETATM    3  C7  UNL     1     -34.490  17.426  -2.336  1.00 20.00    -0.012 A 
HETATM    4  C8  UNL     1     -35.711  16.962  -1.595  1.00 20.00     0.021 C 
ENDROOT
BRANCH   3   5
HETATM    5  C4  UNL     1     -34.076  16.547  -3.549  1.00 20.00    -0.043 A 
HETATM    6  C1  UNL     1     -34.173  15.126  -3.573  1.00 20.00     0.015 A 
HETATM    7  C2  UNL     1     -33.738  14.596  -4.768  1.00 20.00     0.050 A 
HETATM    8  S10 UNL     1     -33.215  15.811  -5.856  1.00 20.00    -0.113 SA
HETATM    9  C3  UNL     1     -33.570  17.050  -4.728  1.00 20.00     0.057 A 
ENDBRANCH   3   5
BRANCH   2  10
HETATM   10  C9  UNL     1     -33.349  18.302  -0.113  1.00 20.00     0.090 C 
HETATM   11 BR11 UNL     1     -31.558  18.740   0.526  1.00 20.00    -0.096 Br
ENDBRANCH   2  10
TORSDOF 2
ENDMDL
