MODEL 1
REMARK VINA RESULT:      -4.7      0.000      0.000
REMARK  1 active torsions:
REMARK  status: ('A' for Active; 'I' for Inactive)
REMARK    1  A    between atoms: C5_5  and  C10_10 
ROOT
HETATM    1  C1  UNL     1     -32.599   7.904   5.077  1.00 20.00     0.036 C 
HETATM    2  C2  UNL     1     -31.382   8.110   2.815  1.00 20.00     0.016 A 
HETATM    3  C3  UNL     1     -32.849   6.059   3.395  1.00 20.00     0.047 C 
HETATM    4  C4  UNL     1     -33.941   7.485   5.654  1.00 20.00     0.169 C 
HETATM    5  C5  UNL     1     -32.785   8.586   2.562  1.00 20.00     0.009 A 
HETATM    6  C6  UNL     1     -32.523   7.520   3.618  1.00 20.00    -0.031 A 
HETATM    7  C7  UNL     1     -34.164   5.654   4.095  1.00 20.00     0.054 C 
HETATM    8  C8  UNL     1     -35.407   6.178   3.363  1.00 20.00     0.045 C 
HETATM    9  C9  UNL     1     -34.248   4.121   4.144  1.00 20.00     0.045 C 
HETATM   10  O11 UNL     1     -34.159   6.086   5.468  1.00 20.00    -0.381 OA
ENDROOT
BRANCH   5  11
HETATM   11  C10 UNL     1     -33.415   8.318   1.239  1.00 20.00     0.120 C 
HETATM   12 CL12 UNL     1     -32.891   9.512   0.019  1.00 20.00    -0.130 Cl
ENDBRANCH   5  11
TORSDOF 1
ENDMDL
MODEL 2
REMARK VINA RESULT:      -4.3     11.102     12.171
REMARK  1 active torsions:
REMARK  status: ('A' for Active; 'I' for Inactive)
REMARK    1  A    between atoms: C5_5  and  C10_10 
ROOT
HETATM    1  C1  UNL     1     -33.421  15.290  -3.873  1.00 20.00     0.036 C 
HETATM    2  C2  UNL     1     -33.454  17.523  -2.590  1.00 20.00     0.016 A 
HETATM    3  C3  UNL     1     -35.134  17.016  -4.490  1.00 20.00     0.047 C 
HETATM    4  C4  UNL     1     -34.370  14.233  -4.417  1.00 20.00     0.169 C 
HETATM    5  C5  UNL     1     -34.496  16.665  -1.930  1.00 20.00     0.009 A 
HETATM    6  C6  UNL     1     -34.203  16.498  -3.416  1.00 20.00    -0.031 A 
HETATM    7  C7  UNL     1     -35.998  15.885  -5.090  1.00 20.00     0.054 C 
HETATM    8  C8  UNL     1     -37.123  15.440  -4.147  1.00 20.00     0.045 C 
HETATM    9  C9  UNL     1     -36.637  16.388  -6.393  1.00 20.00     0.045 C 
HETATM   10  O11 UNL     1     -35.175  14.767  -5.469  1.00 20.00    -0.381 OA
ENDROOT
BRANCH   5  11
HETATM   11  C10 UNL     1     -35.726  17.306  -1.386  1.00 20.00     0.120 C 
HETATM   12 CL12 UNL     1     -35.659  17.427   0.395  1.00 20.00    -0.130 Cl
ENDBRANCH   5  11
TORSDOF 1
ENDMDL
MODEL 3
REMARK VINA RESULT:      -4.2     11.358     12.205
REMARK  1 active torsions:
REMARK  status: ('A' for Active; 'I' for Inactive)
REMARK    1  A    between atoms: C5_5  and  C10_10 
ROOT
HETATM    1  C1  UNL     1     -34.744  16.022  -2.945  1.00 20.00     0.036 C 
HETATM    2  C2  UNL     1     -33.133  14.559  -4.325  1.00 20.00     0.016 A 
HETATM    3  C3  UNL     1     -35.690  14.521  -4.720  1.00 20.00     0.047 C 
HETATM    4  C4  UNL     1     -35.968  16.907  -3.120  1.00 20.00     0.169 C 
HETATM    5  C5  UNL     1     -33.387  15.780  -5.164  1.00 20.00     0.009 A 
HETATM    6  C6  UNL     1     -34.469  15.265  -4.224  1.00 20.00    -0.031 A 
HETATM    7  C7  UNL     1     -36.933  15.435  -4.772  1.00 20.00     0.054 C 
HETATM    8  C8  UNL     1     -36.893  16.418  -5.950  1.00 20.00     0.045 C 
HETATM    9  C9  UNL     1     -38.186  14.559  -4.923  1.00 20.00     0.045 C 
HETATM   10  O11 UNL     1     -37.098  16.136  -3.526  1.00 20.00    -0.381 OA
ENDROOT
BRANCH   5  11
HETATM   11  C10 UNL     1     -33.432  15.644  -6.648  1.00 20.00     0.120 C 
HETATM   12 CL12 UNL     1     -33.737  17.219  -7.432  1.00 20.00    -0.130 Cl
ENDBRANCH   5  11
TORSDOF 1
ENDMDL
MODEL 4
REMARK VINA RESULT:      -4.2     11.156     12.379
REMARK  1 active torsions:
REMARK  status: ('A' for Active; 'I' for Inactive)
REMARK    1  A    between atoms: C5_5  and  C10_10 
ROOT
HETATM    1  C1  UNL     1     -33.862  17.966  -4.943  1.00 20.00     0.036 C 
HETATM    2  C2  UNL     1     -32.918  15.580  -5.165  1.00 20.00     0.016 A 
HETATM    3  C3  UNL     1     -33.418  16.641  -2.859  1.00 20.00     0.047 C 
HETATM    4  C4  UNL     1     -34.901  18.750  -4.156  1.00 20.00     0.169 C 
HETATM    5  C5  UNL     1     -34.403  15.412  -5.004  1.00 20.00     0.009 A 
HETATM    6  C6  UNL     1     -33.695  16.589  -4.345  1.00 20.00    -0.031 A 
HETATM    7  C7  UNL     1     -34.432  17.539  -2.120  1.00 20.00     0.054 C 
HETATM    8  C8  UNL     1     -35.808  16.876  -1.972  1.00 20.00     0.045 C 
HETATM    9  C9  UNL     1     -33.893  17.843  -0.714  1.00 20.00     0.045 C 
HETATM   10  O11 UNL     1     -34.548  18.816  -2.774  1.00 20.00    -0.381 OA
ENDROOT
BRANCH   5  11
HETATM   11  C10 UNL     1     -34.924  14.227  -4.265  1.00 20.00     0.120 C 
HETATM   12 CL12 UNL     1     -36.050  13.278  -5.275  1.00 20.00    -0.130 Cl
ENDBRANCH   5  11
TORSDOF 1
ENDMDL
MODEL 5
REMARK VINA RESULT:      -4.2     11.463     12.437
REMARK  1 active torsions:
REMARK  status: ('A' for Active; 'I' for Inactive)
REMARK    1  A    between atoms: C5_5  and  C10_10 
ROOT
HETATM    1  C1  UNL     1     -36.601  16.886  -3.266  1.00 20.00     0.036 C 
HETATM    2  C2  UNL     1     -34.973  17.013  -1.274  1.00 20.00     0.016 A 
HETATM    3  C3  UNL     1     -34.405  15.682  -3.418  1.00 20.00     0.047 C 
HETATM    4  C4  UNL     1     -36.606  16.954  -4.785  1.00 20.00     0.169 C 
HETATM    5  C5  UNL     1     -34.509  18.066  -2.240  1.00 20.00     0.009 A 
HETATM    6  C6  UNL     1     -35.181  16.801  -2.759  1.00 20.00    -0.031 A 
HETATM    7  C7  UNL     1     -34.533  15.727  -4.956  1.00 20.00     0.054 C 
HETATM    8  C8  UNL     1     -33.698  16.851  -5.584  1.00 20.00     0.045 C 
HETATM    9  C9  UNL     1     -34.046  14.390  -5.533  1.00 20.00     0.045 C 
HETATM   10  O11 UNL     1     -35.914  15.837  -5.346  1.00 20.00    -0.381 OA
ENDROOT
BRANCH   5  11
HETATM   11  C10 UNL     1     -33.051  18.350  -2.360  1.00 20.00     0.120 C 
HETATM   12 CL12 UNL     1     -32.221  18.142  -0.793  1.00 20.00    -0.130 Cl
ENDBRANCH   5  11
TORSDOF 1
ENDMDL
MODEL 6
REMARK VINA RESULT:      -4.1     11.239     12.659
REMARK  1 active torsions:
REMARK  status: ('A' for Active; 'I' for Inactive)
REMARK    1  A    between atoms: C5_5  and  C10_10 
ROOT
HETATM    1  C1  UNL     1     -35.600  13.567  -5.064  1.00 20.00     0.036 C 
HETATM    2  C2  UNL     1     -33.216  14.391  -4.539  1.00 20.00     0.016 A 
HETATM    3  C3  UNL     1     -34.746  15.623  -6.222  1.00 20.00     0.047 C 
HETATM    4  C4  UNL     1     -37.008  14.102  -5.272  1.00 20.00     0.169 C 
HETATM    5  C5  UNL     1     -34.126  15.210  -3.667  1.00 20.00     0.009 A 
HETATM    6  C6  UNL     1     -34.615  14.712  -5.021  1.00 20.00    -0.031 A 
HETATM    7  C7  UNL     1     -36.211  16.047  -6.460  1.00 20.00     0.054 C 
HETATM    8  C8  UNL     1     -36.691  17.097  -5.449  1.00 20.00     0.045 C 
HETATM    9  C9  UNL     1     -36.331  16.649  -7.868  1.00 20.00     0.045 C 
HETATM   10  O11 UNL     1     -37.078  14.899  -6.455  1.00 20.00    -0.381 OA
ENDROOT
BRANCH   5  11
HETATM   11  C10 UNL     1     -33.769  16.627  -3.375  1.00 20.00     0.120 C 
HETATM   12 CL12 UNL     1     -34.025  17.017  -1.651  1.00 20.00    -0.130 Cl
ENDBRANCH   5  11
TORSDOF 1
ENDMDL
MODEL 7
REMARK VINA RESULT:      -4.1     11.476     12.588
REMARK  1 active torsions:
REMARK  status: ('A' for Active; 'I' for Inactive)
REMARK    1  A    between atoms: C5_5  and  C10_10 
ROOT
HETATM    1  C1  UNL     1     -34.071  14.875  -6.150  1.00 20.00     0.036 C 
HETATM    2  C2  UNL     1     -35.894  13.302  -5.235  1.00 20.00     0.016 A 
HETATM    3  C3  UNL     1     -34.806  15.130  -3.765  1.00 20.00     0.047 C 
HETATM    4  C4  UNL     1     -33.661  16.339  -6.122  1.00 20.00     0.169 C 
HETATM    5  C5  UNL     1     -36.612  14.560  -5.634  1.00 20.00     0.009 A 
HETATM    6  C6  UNL     1     -35.171  14.629  -5.145  1.00 20.00    -0.031 A 
HETATM    7  C7  UNL     1     -34.288  16.584  -3.804  1.00 20.00     0.054 C 
HETATM    8  C8  UNL     1     -35.414  17.604  -4.017  1.00 20.00     0.045 C 
HETATM    9  C9  UNL     1     -33.602  16.902  -2.466  1.00 20.00     0.045 C 
HETATM   10  O11 UNL     1     -33.267  16.731  -4.807  1.00 20.00    -0.381 OA
ENDROOT
BRANCH   5  11
HETATM   11  C10 UNL     1     -37.790  15.008  -4.837  1.00 20.00     0.120 C 
HETATM   12 CL12 UNL     1     -38.537  16.465  -5.550  1.00 20.00    -0.130 Cl
ENDBRANCH   5  11
TORSDOF 1
ENDMDL
MODEL 8
REMARK VINA RESULT:      -4.0     11.527     12.896
REMARK  1 active torsions:
REMARK  status: ('A' for Active; 'I' for Inactive)
REMARK    1  A    between atoms: C5_5  and  C10_10 
ROOT
HETATM    1  C1  UNL     1     -33.251  14.973  -4.181  1.00 20.00     0.036 C 
HETATM    2  C2  UNL     1     -33.577  16.791  -2.386  1.00 20.00     0.016 A 
HETATM    3  C3  UNL     1     -33.864  17.296  -4.907  1.00 20.00     0.047 C 
HETATM    4  C4  UNL     1     -33.885  14.464  -5.466  1.00 20.00     0.169 C 
HETATM    5  C5  UNL     1     -34.957  16.285  -2.701  1.00 20.00     0.009 A 
HETATM    6  C6  UNL     1     -33.882  16.286  -3.780  1.00 20.00    -0.031 A 
HETATM    7  C7  UNL     1     -34.413  16.697  -6.219  1.00 20.00     0.054 C 
HETATM    8  C8  UNL     1     -35.940  16.547  -6.204  1.00 20.00     0.045 C 
HETATM    9  C9  UNL     1     -34.035  17.625  -7.384  1.00 20.00     0.045 C 
HETATM   10  O11 UNL     1     -33.778  15.438  -6.505  1.00 20.00    -0.381 OA
ENDROOT
BRANCH   5  11
HETATM   11  C10 UNL     1     -36.105  17.233  -2.660  1.00 20.00     0.120 C 
HETATM   12 CL12 UNL     1     -36.368  17.862  -1.010  1.00 20.00    -0.130 Cl
ENDBRANCH   5  11
TORSDOF 1
ENDMDL
MODEL 9
REMARK VINA RESULT:      -4.0     11.011     12.507
REMARK  1 active torsions:
REMARK  status: ('A' for Active; 'I' for Inactive)
REMARK    1  A    between atoms: C5_5  and  C10_10 
ROOT
HETATM    1  C1  UNL     1     -34.257  17.391  -5.908  1.00 20.00     0.036 C 
HETATM    2  C2  UNL     1     -35.113  18.329  -3.667  1.00 20.00     0.016 A 
HETATM    3  C3  UNL     1     -35.449  15.851  -4.327  1.00 20.00     0.047 C 
HETATM    4  C4  UNL     1     -33.551  16.170  -6.478  1.00 20.00     0.169 C 
HETATM    5  C5  UNL     1     -33.789  17.690  -3.356  1.00 20.00     0.009 A 
HETATM    6  C6  UNL     1     -34.658  17.132  -4.475  1.00 20.00    -0.031 A 
HETATM    7  C7  UNL     1     -34.747  14.663  -5.019  1.00 20.00     0.054 C 
HETATM    8  C8  UNL     1     -33.532  14.157  -4.231  1.00 20.00     0.045 C 
HETATM    9  C9  UNL     1     -35.747  13.505  -5.151  1.00 20.00     0.045 C 
HETATM   10  O11 UNL     1     -34.375  15.009  -6.365  1.00 20.00    -0.381 OA
ENDROOT
BRANCH   5  11
HETATM   11  C10 UNL     1     -33.595  17.027  -2.036  1.00 20.00     0.120 C 
HETATM   12 CL12 UNL     1     -35.051  17.184  -1.013  1.00 20.00    -0.130 Cl
ENDBRANCH   5  11
TORSDOF 1
ENDMDL
