MODEL 1
REMARK VINA RESULT:      -4.6      0.000      0.000
REMARK  2 active torsions:
REMARK  status: ('A' for Active; 'I' for Inactive)
REMARK    1  A    between atoms: C7_7  and  C10_10 
REMARK    2  A    between atoms: C7_7  and  C11_11 
ROOT
HETATM    1  C1  UNL     1     -33.585  14.778  -4.508  1.00 20.00     0.140 C 
HETATM    2  C2  UNL     1     -35.097  16.371  -2.347  1.00 20.00     0.001 C 
HETATM    3  C3  UNL     1     -33.647  16.660  -2.705  1.00 20.00     0.013 C 
HETATM    4  C4  UNL     1     -35.865  16.795  -3.593  1.00 20.00     0.007 C 
HETATM    5  C5  UNL     1     -33.541  16.282  -4.174  1.00 20.00     0.061 C 
HETATM    6  C6  UNL     1     -34.970  16.403  -4.775  1.00 20.00     0.013 C 
HETATM    7  C7  UNL     1     -34.899  14.924  -5.325  1.00 20.00     0.025 C 
HETATM    8  O12 UNL     1     -32.861  13.843  -4.236  1.00 20.00    -0.297 OA
ENDROOT
BRANCH   7   9
HETATM    9  C10 UNL     1     -34.669  14.856  -6.837  1.00 20.00     0.013 C 
HETATM   10  C8  UNL     1     -34.527  13.447  -7.307  1.00 20.00     0.006 C 
ENDBRANCH   7   9
BRANCH   7  11
HETATM   11  C11 UNL     1     -36.007  13.966  -4.898  1.00 20.00     0.013 C 
HETATM   12  C9  UNL     1     -37.288  14.247  -5.613  1.00 20.00     0.006 C 
ENDBRANCH   7  11
TORSDOF 2
ENDMDL
MODEL 2
REMARK VINA RESULT:      -4.3     11.344     12.367
REMARK  2 active torsions:
REMARK  status: ('A' for Active; 'I' for Inactive)
REMARK    1  A    between atoms: C7_7  and  C10_10 
REMARK    2  A    between atoms: C7_7  and  C11_11 
ROOT
HETATM    1  C1  UNL     1     -33.945   7.151   4.479  1.00 20.00     0.140 C 
HETATM    2  C2  UNL     1     -33.441   4.146   4.018  1.00 20.00     0.001 C 
HETATM    3  C3  UNL     1     -34.775   4.680   4.515  1.00 20.00     0.013 C 
HETATM    4  C4  UNL     1     -33.359   4.664   2.587  1.00 20.00     0.007 C 
HETATM    5  C5  UNL     1     -34.877   6.067   3.902  1.00 20.00     0.061 C 
HETATM    6  C6  UNL     1     -33.990   6.061   2.624  1.00 20.00     0.013 C 
HETATM    7  C7  UNL     1     -33.199   7.332   3.127  1.00 20.00     0.025 C 
HETATM    8  O12 UNL     1     -33.842   7.664   5.573  1.00 20.00    -0.297 OA
ENDROOT
BRANCH   7   9
HETATM    9  C10 UNL     1     -33.597   8.617   2.397  1.00 20.00     0.013 C 
HETATM   10  C8  UNL     1     -32.704   8.885   1.232  1.00 20.00     0.006 C 
ENDBRANCH   7   9
BRANCH   7  11
HETATM   11  C11 UNL     1     -31.682   7.213   3.233  1.00 20.00     0.013 C 
HETATM   12  C9  UNL     1     -31.066   8.454   3.792  1.00 20.00     0.006 C 
ENDBRANCH   7  11
TORSDOF 2
ENDMDL
MODEL 3
REMARK VINA RESULT:      -4.3      1.450      3.928
REMARK  2 active torsions:
REMARK  status: ('A' for Active; 'I' for Inactive)
REMARK    1  A    between atoms: C7_7  and  C10_10 
REMARK    2  A    between atoms: C7_7  and  C11_11 
ROOT
HETATM    1  C1  UNL     1     -33.540  15.553  -4.478  1.00 20.00     0.140 C 
HETATM    2  C2  UNL     1     -36.400  14.966  -5.465  1.00 20.00     0.001 C 
HETATM    3  C3  UNL     1     -35.414  13.859  -5.124  1.00 20.00     0.013 C 
HETATM    4  C4  UNL     1     -36.698  15.608  -4.116  1.00 20.00     0.007 C 
HETATM    5  C5  UNL     1     -34.535  14.461  -4.039  1.00 20.00     0.061 C 
HETATM    6  C6  UNL     1     -35.371  15.575  -3.348  1.00 20.00     0.013 C 
HETATM    7  C7  UNL     1     -34.226  16.634  -3.596  1.00 20.00     0.025 C 
HETATM    8  O12 UNL     1     -32.585  15.557  -5.226  1.00 20.00    -0.297 OA
ENDROOT
BRANCH   7   9
HETATM    9  C10 UNL     1     -33.427  16.962  -2.333  1.00 20.00     0.013 C 
HETATM   10  C8  UNL     1     -34.320  17.378  -1.212  1.00 20.00     0.006 C 
ENDBRANCH   7   9
BRANCH   7  11
HETATM   11  C11 UNL     1     -34.601  17.905  -4.350  1.00 20.00     0.013 C 
HETATM   12  C9  UNL     1     -33.488  18.902  -4.346  1.00 20.00     0.006 C 
ENDBRANCH   7  11
TORSDOF 2
ENDMDL
MODEL 4
REMARK VINA RESULT:      -4.3      1.676      2.368
REMARK  2 active torsions:
REMARK  status: ('A' for Active; 'I' for Inactive)
REMARK    1  A    between atoms: C7_7  and  C10_10 
REMARK    2  A    between atoms: C7_7  and  C11_11 
ROOT
HETATM    1  C1  UNL     1     -35.551  13.767  -5.486  1.00 20.00     0.140 C 
HETATM    2  C2  UNL     1     -34.080  15.642  -3.532  1.00 20.00     0.001 C 
HETATM    3  C3  UNL     1     -33.345  14.629  -4.395  1.00 20.00     0.013 C 
HETATM    4  C4  UNL     1     -34.612  16.653  -4.541  1.00 20.00     0.007 C 
HETATM    5  C5  UNL     1     -34.206  14.504  -5.642  1.00 20.00     0.061 C 
HETATM    6  C6  UNL     1     -35.008  15.830  -5.772  1.00 20.00     0.013 C 
HETATM    7  C7  UNL     1     -36.371  15.036  -5.853  1.00 20.00     0.025 C 
HETATM    8  O12 UNL     1     -35.848  12.628  -5.191  1.00 20.00    -0.297 OA
ENDROOT
BRANCH   7   9
HETATM    9  C10 UNL     1     -36.950  14.979  -7.269  1.00 20.00     0.013 C 
HETATM   10  C8  UNL     1     -37.240  16.343  -7.798  1.00 20.00     0.006 C 
ENDBRANCH   7   9
BRANCH   7  11
HETATM   11  C11 UNL     1     -37.450  15.395  -4.837  1.00 20.00     0.013 C 
HETATM   12  C9  UNL     1     -38.738  14.693  -5.122  1.00 20.00     0.006 C 
ENDBRANCH   7  11
TORSDOF 2
ENDMDL
MODEL 5
REMARK VINA RESULT:      -4.3      1.069      3.955
REMARK  2 active torsions:
REMARK  status: ('A' for Active; 'I' for Inactive)
REMARK    1  A    between atoms: C7_7  and  C10_10 
REMARK    2  A    between atoms: C7_7  and  C11_11 
ROOT
HETATM    1  C1  UNL     1     -34.059  14.334  -4.856  1.00 20.00     0.140 C 
HETATM    2  C2  UNL     1     -33.946  14.732  -7.910  1.00 20.00     0.001 C 
HETATM    3  C3  UNL     1     -34.528  13.479  -7.273  1.00 20.00     0.013 C 
HETATM    4  C4  UNL     1     -34.937  15.823  -7.523  1.00 20.00     0.007 C 
HETATM    5  C5  UNL     1     -35.085  13.958  -5.943  1.00 20.00     0.061 C 
HETATM    6  C6  UNL     1     -35.393  15.474  -6.102  1.00 20.00     0.013 C 
HETATM    7  C7  UNL     1     -34.523  15.817  -4.829  1.00 20.00     0.025 C 
HETATM    8  O12 UNL     1     -33.215  13.704  -4.253  1.00 20.00    -0.297 OA
ENDROOT
BRANCH   7   9
HETATM    9  C10 UNL     1     -35.367  16.153  -3.597  1.00 20.00     0.013 C 
HETATM   10  C8  UNL     1     -34.513  16.485  -2.420  1.00 20.00     0.006 C 
ENDBRANCH   7   9
BRANCH   7  11
HETATM   11  C11 UNL     1     -33.393  16.826  -5.006  1.00 20.00     0.013 C 
HETATM   12  C9  UNL     1     -33.912  18.218  -5.168  1.00 20.00     0.006 C 
ENDBRANCH   7  11
TORSDOF 2
ENDMDL
MODEL 6
REMARK VINA RESULT:      -4.2      1.656      3.594
REMARK  2 active torsions:
REMARK  status: ('A' for Active; 'I' for Inactive)
REMARK    1  A    between atoms: C7_7  and  C10_10 
REMARK    2  A    between atoms: C7_7  and  C11_11 
ROOT
HETATM    1  C1  UNL     1     -36.056  13.897  -5.047  1.00 20.00     0.140 C 
HETATM    2  C2  UNL     1     -38.086  15.543  -6.680  1.00 20.00     0.001 C 
HETATM    3  C3  UNL     1     -38.490  14.739  -5.454  1.00 20.00     0.013 C 
HETATM    4  C4  UNL     1     -37.220  16.658  -6.107  1.00 20.00     0.007 C 
HETATM    5  C5  UNL     1     -37.250  14.749  -4.574  1.00 20.00     0.061 C 
HETATM    6  C6  UNL     1     -36.432  16.014  -4.960  1.00 20.00     0.013 C 
HETATM    7  C7  UNL     1     -35.139  15.141  -5.210  1.00 20.00     0.025 C 
HETATM    8  O12 UNL     1     -35.899  12.706  -5.220  1.00 20.00    -0.297 OA
ENDROOT
BRANCH   7   9
HETATM    9  C10 UNL     1     -34.104  15.267  -4.090  1.00 20.00     0.013 C 
HETATM   10  C8  UNL     1     -32.940  14.362  -4.315  1.00 20.00     0.006 C 
ENDBRANCH   7   9
BRANCH   7  11
HETATM   11  C11 UNL     1     -34.477  15.251  -6.580  1.00 20.00     0.013 C 
HETATM   12  C9  UNL     1     -33.708  16.524  -6.723  1.00 20.00     0.006 C 
ENDBRANCH   7  11
TORSDOF 2
ENDMDL
MODEL 7
REMARK VINA RESULT:      -4.2      2.490      3.621
REMARK  2 active torsions:
REMARK  status: ('A' for Active; 'I' for Inactive)
REMARK    1  A    between atoms: C7_7  and  C10_10 
REMARK    2  A    between atoms: C7_7  and  C11_11 
ROOT
HETATM    1  C1  UNL     1     -35.792  17.026  -2.609  1.00 20.00     0.140 C 
HETATM    2  C2  UNL     1     -33.989  19.110  -1.228  1.00 20.00     0.001 C 
HETATM    3  C3  UNL     1     -34.995  18.267  -0.459  1.00 20.00     0.013 C 
HETATM    4  C4  UNL     1     -32.946  18.097  -1.683  1.00 20.00     0.007 C 
HETATM    5  C5  UNL     1     -35.075  16.968  -1.246  1.00 20.00     0.061 C 
HETATM    6  C6  UNL     1     -33.733  16.824  -2.018  1.00 20.00     0.013 C 
HETATM    7  C7  UNL     1     -34.501  16.643  -3.386  1.00 20.00     0.025 C 
HETATM    8  O12 UNL     1     -36.932  17.275  -2.941  1.00 20.00    -0.297 OA
ENDROOT
BRANCH   7   9
HETATM    9  C10 UNL     1     -34.514  15.194  -3.880  1.00 20.00     0.013 C 
HETATM   10  C8  UNL     1     -33.169  14.767  -4.364  1.00 20.00     0.006 C 
ENDBRANCH   7   9
BRANCH   7  11
HETATM   11  C11 UNL     1     -34.147  17.602  -4.518  1.00 20.00     0.013 C 
HETATM   12  C9  UNL     1     -34.930  17.310  -5.757  1.00 20.00     0.006 C 
ENDBRANCH   7  11
TORSDOF 2
ENDMDL
MODEL 8
REMARK VINA RESULT:      -4.1      1.703      4.284
REMARK  2 active torsions:
REMARK  status: ('A' for Active; 'I' for Inactive)
REMARK    1  A    between atoms: C7_7  and  C10_10 
REMARK    2  A    between atoms: C7_7  and  C11_11 
ROOT
HETATM    1  C1  UNL     1     -36.715  14.612  -5.357  1.00 20.00     0.140 C 
HETATM    2  C2  UNL     1     -35.107  13.361  -7.669  1.00 20.00     0.001 C 
HETATM    3  C3  UNL     1     -36.468  14.005  -7.880  1.00 20.00     0.013 C 
HETATM    4  C4  UNL     1     -34.207  14.537  -7.308  1.00 20.00     0.007 C 
HETATM    5  C5  UNL     1     -36.542  15.086  -6.813  1.00 20.00     0.061 C 
HETATM    6  C6  UNL     1     -35.077  15.470  -6.458  1.00 20.00     0.013 C 
HETATM    7  C7  UNL     1     -35.346  15.208  -4.924  1.00 20.00     0.025 C 
HETATM    8  O12 UNL     1     -37.592  14.007  -4.776  1.00 20.00    -0.297 OA
ENDROOT
BRANCH   7   9
HETATM    9  C10 UNL     1     -35.490  16.497  -4.111  1.00 20.00     0.013 C 
HETATM   10  C8  UNL     1     -35.506  16.221  -2.644  1.00 20.00     0.006 C 
ENDBRANCH   7   9
BRANCH   7  11
HETATM   11  C11 UNL     1     -34.431  14.215  -4.214  1.00 20.00     0.013 C 
HETATM   12  C9  UNL     1     -33.006  14.664  -4.231  1.00 20.00     0.006 C 
ENDBRANCH   7  11
TORSDOF 2
ENDMDL
MODEL 9
REMARK VINA RESULT:      -4.0      1.584      3.974
REMARK  2 active torsions:
REMARK  status: ('A' for Active; 'I' for Inactive)
REMARK    1  A    between atoms: C7_7  and  C10_10 
REMARK    2  A    between atoms: C7_7  and  C11_11 
ROOT
HETATM    1  C1  UNL     1     -35.909  14.095  -5.193  1.00 20.00     0.140 C 
HETATM    2  C2  UNL     1     -35.918  15.535  -7.918  1.00 20.00     0.001 C 
HETATM    3  C3  UNL     1     -37.181  14.955  -7.300  1.00 20.00     0.013 C 
HETATM    4  C4  UNL     1     -35.566  16.694  -6.992  1.00 20.00     0.007 C 
HETATM    5  C5  UNL     1     -36.947  15.058  -5.801  1.00 20.00     0.061 C 
HETATM    6  C6  UNL     1     -35.927  16.212  -5.582  1.00 20.00     0.013 C 
HETATM    7  C7  UNL     1     -34.982  15.261  -4.747  1.00 20.00     0.025 C 
HETATM    8  O12 UNL     1     -35.848  12.887  -5.099  1.00 20.00    -0.297 OA
ENDROOT
BRANCH   7   9
HETATM    9  C10 UNL     1     -35.043  15.524  -3.240  1.00 20.00     0.013 C 
HETATM   10  C8  UNL     1     -34.292  16.758  -2.868  1.00 20.00     0.006 C 
ENDBRANCH   7   9
BRANCH   7  11
HETATM   11  C11 UNL     1     -33.538  15.123  -5.218  1.00 20.00     0.013 C 
HETATM   12  C9  UNL     1     -32.735  14.259  -4.300  1.00 20.00     0.006 C 
ENDBRANCH   7  11
TORSDOF 2
ENDMDL
