MODEL 1
REMARK VINA RESULT:      -5.0      0.000      0.000
REMARK  2 active torsions:
REMARK  status: ('A' for Active; 'I' for Inactive)
REMARK    1  A    between atoms: C4_4  and  C7_7 
REMARK    2  A    between atoms: C6_6  and  C10_10 
ROOT
HETATM    1  C1  UNL     1     -34.605   5.370   5.508  1.00 20.00     0.015 A 
HETATM    2  C2  UNL     1     -34.575   4.416   4.515  1.00 20.00     0.051 A 
HETATM    3  C3  UNL     1     -33.875   6.540   5.149  1.00 20.00    -0.048 A 
HETATM    4  C4  UNL     1     -33.316   6.435   3.894  1.00 20.00    -0.003 A 
HETATM    5  C8  UNL     1     -33.744   7.722   6.034  1.00 20.00     0.049 C 
HETATM    6  S11 UNL     1     -33.670   4.931   3.157  1.00 20.00    -0.105 SA
ENDROOT
BRANCH   4   7
HETATM    7  C7  UNL     1     -32.458   7.538   3.210  1.00 20.00    -0.005 A 
HETATM    8  C5  UNL     1     -31.939   7.229   1.814  1.00 20.00     0.021 A 
HETATM    9  C6  UNL     1     -33.081   8.188   1.973  1.00 20.00     0.010 A 
HETATM   10  C9  UNL     1     -31.588   8.339   4.135  1.00 20.00     0.021 C 
BRANCH   9  11
HETATM   11  C10 UNL     1     -32.901   9.631   1.651  1.00 20.00     0.091 C 
HETATM   12 BR12 UNL     1     -32.917   9.908  -0.280  1.00 20.00    -0.096 Br
ENDBRANCH   9  11
ENDBRANCH   4   7
TORSDOF 2
ENDMDL
MODEL 2
REMARK VINA RESULT:      -4.8      1.250      1.841
REMARK  2 active torsions:
REMARK  status: ('A' for Active; 'I' for Inactive)
REMARK    1  A    between atoms: C4_4  and  C7_7 
REMARK    2  A    between atoms: C6_6  and  C10_10 
ROOT
HETATM    1  C1  UNL     1     -34.499   4.863   4.813  1.00 20.00     0.015 A 
HETATM    2  C2  UNL     1     -34.685   5.728   5.868  1.00 20.00     0.051 A 
HETATM    3  C3  UNL     1     -33.694   5.435   3.787  1.00 20.00    -0.048 A 
HETATM    4  C4  UNL     1     -33.296   6.718   4.096  1.00 20.00    -0.003 A 
HETATM    5  C8  UNL     1     -33.337   4.720   2.538  1.00 20.00     0.049 C 
HETATM    6  S11 UNL     1     -33.893   7.225   5.618  1.00 20.00    -0.105 SA
ENDROOT
BRANCH   4   7
HETATM    7  C7  UNL     1     -32.412   7.616   3.185  1.00 20.00    -0.005 A 
HETATM    8  C5  UNL     1     -32.219   7.151   1.750  1.00 20.00     0.021 A 
HETATM    9  C6  UNL     1     -33.139   8.302   2.027  1.00 20.00     0.010 A 
HETATM   10  C9  UNL     1     -31.265   8.298   3.875  1.00 20.00     0.021 C 
BRANCH   9  11
HETATM   11  C10 UNL     1     -32.788   9.674   1.562  1.00 20.00     0.091 C 
HETATM   12 BR12 UNL     1     -32.908   9.788  -0.382  1.00 20.00    -0.096 Br
ENDBRANCH   9  11
ENDBRANCH   4   7
TORSDOF 2
ENDMDL
MODEL 3
REMARK VINA RESULT:      -4.7     11.192     11.918
REMARK  2 active torsions:
REMARK  status: ('A' for Active; 'I' for Inactive)
REMARK    1  A    between atoms: C4_4  and  C7_7 
REMARK    2  A    between atoms: C6_6  and  C10_10 
ROOT
HETATM    1  C1  UNL     1     -35.714  13.630  -5.141  1.00 20.00     0.015 A 
HETATM    2  C2  UNL     1     -37.059  13.924  -5.194  1.00 20.00     0.051 A 
HETATM    3  C3  UNL     1     -34.970  14.648  -4.476  1.00 20.00    -0.048 A 
HETATM    4  C4  UNL     1     -35.775  15.681  -4.047  1.00 20.00    -0.003 A 
HETATM    5  C8  UNL     1     -33.501  14.586  -4.280  1.00 20.00     0.049 C 
HETATM    6  S11 UNL     1     -37.420  15.421  -4.446  1.00 20.00    -0.105 SA
ENDROOT
BRANCH   4   7
HETATM    7  C7  UNL     1     -35.271  16.943  -3.291  1.00 20.00    -0.005 A 
HETATM    8  C5  UNL     1     -36.138  17.442  -2.145  1.00 20.00     0.021 A 
HETATM    9  C6  UNL     1     -34.860  16.722  -1.835  1.00 20.00     0.010 A 
HETATM   10  C9  UNL     1     -34.556  17.955  -4.139  1.00 20.00     0.021 C 
BRANCH   9  11
HETATM   11  C10 UNL     1     -33.721  17.448  -1.205  1.00 20.00     0.091 C 
HETATM   12 BR12 UNL     1     -34.319  18.412   0.382  1.00 20.00    -0.096 Br
ENDBRANCH   9  11
ENDBRANCH   4   7
TORSDOF 2
ENDMDL
MODEL 4
REMARK VINA RESULT:      -4.5     11.302     11.882
REMARK  2 active torsions:
REMARK  status: ('A' for Active; 'I' for Inactive)
REMARK    1  A    between atoms: C4_4  and  C7_7 
REMARK    2  A    between atoms: C6_6  and  C10_10 
ROOT
HETATM    1  C1  UNL     1     -33.909  18.496   2.290  1.00 20.00     0.015 A 
HETATM    2  C2  UNL     1     -32.607  18.873   2.043  1.00 20.00     0.051 A 
HETATM    3  C3  UNL     1     -34.624  18.223   1.088  1.00 20.00    -0.048 A 
HETATM    4  C4  UNL     1     -33.841  18.402  -0.032  1.00 20.00    -0.003 A 
HETATM    5  C8  UNL     1     -36.044  17.797   1.065  1.00 20.00     0.049 C 
HETATM    6  S11 UNL     1     -32.252  18.899   0.369  1.00 20.00    -0.105 SA
ENDROOT
BRANCH   4   7
HETATM    7  C7  UNL     1     -34.323  18.188  -1.495  1.00 20.00    -0.005 A 
HETATM    8  C5  UNL     1     -33.337  17.531  -2.448  1.00 20.00     0.021 A 
HETATM    9  C6  UNL     1     -34.494  16.731  -1.929  1.00 20.00     0.010 A 
HETATM   10  C9  UNL     1     -35.233  19.255  -2.032  1.00 20.00     0.021 C 
BRANCH   9  11
HETATM   11  C10 UNL     1     -35.579  16.293  -2.851  1.00 20.00     0.091 C 
HETATM   12 BR12 UNL     1     -34.886  15.036  -4.172  1.00 20.00    -0.096 Br
ENDBRANCH   9  11
ENDBRANCH   4   7
TORSDOF 2
ENDMDL
MODEL 5
REMARK VINA RESULT:      -4.5     11.260     11.870
REMARK  2 active torsions:
REMARK  status: ('A' for Active; 'I' for Inactive)
REMARK    1  A    between atoms: C4_4  and  C7_7 
REMARK    2  A    between atoms: C6_6  and  C10_10 
ROOT
HETATM    1  C1  UNL     1     -33.614  18.730   2.188  1.00 20.00     0.015 A 
HETATM    2  C2  UNL     1     -34.924  18.468   2.526  1.00 20.00     0.051 A 
HETATM    3  C3  UNL     1     -33.386  18.600   0.788  1.00 20.00    -0.048 A 
HETATM    4  C4  UNL     1     -34.530  18.244   0.108  1.00 20.00    -0.003 A 
HETATM    5  C8  UNL     1     -32.064  18.826   0.154  1.00 20.00     0.049 C 
HETATM    6  S11 UNL     1     -35.871  18.066   1.158  1.00 20.00    -0.105 SA
ENDROOT
BRANCH   4   7
HETATM    7  C7  UNL     1     -34.616  18.020  -1.429  1.00 20.00    -0.005 A 
HETATM    8  C5  UNL     1     -33.662  16.996  -2.022  1.00 20.00     0.021 A 
HETATM    9  C6  UNL     1     -35.112  16.642  -1.870  1.00 20.00     0.010 A 
HETATM   10  C9  UNL     1     -34.945  19.243  -2.237  1.00 20.00     0.021 C 
BRANCH   9  11
HETATM   11  C10 UNL     1     -35.969  16.448  -3.073  1.00 20.00     0.091 C 
HETATM   12 BR12 UNL     1     -35.186  15.113  -4.261  1.00 20.00    -0.096 Br
ENDBRANCH   9  11
ENDBRANCH   4   7
TORSDOF 2
ENDMDL
MODEL 6
REMARK VINA RESULT:      -4.5     11.441     12.194
REMARK  2 active torsions:
REMARK  status: ('A' for Active; 'I' for Inactive)
REMARK    1  A    between atoms: C4_4  and  C7_7 
REMARK    2  A    between atoms: C6_6  and  C10_10 
ROOT
HETATM    1  C1  UNL     1     -35.456  14.322  -5.649  1.00 20.00     0.015 A 
HETATM    2  C2  UNL     1     -34.124  14.336  -5.998  1.00 20.00     0.051 A 
HETATM    3  C3  UNL     1     -35.757  15.288  -4.646  1.00 20.00    -0.048 A 
HETATM    4  C4  UNL     1     -34.643  16.005  -4.266  1.00 20.00    -0.003 A 
HETATM    5  C8  UNL     1     -37.117  15.486  -4.087  1.00 20.00     0.049 C 
HETATM    6  S11 UNL     1     -33.242  15.510  -5.117  1.00 20.00    -0.105 SA
ENDROOT
BRANCH   4   7
HETATM    7  C7  UNL     1     -34.634  17.130  -3.193  1.00 20.00    -0.005 A 
HETATM    8  C5  UNL     1     -35.022  16.725  -1.779  1.00 20.00     0.021 A 
HETATM    9  C6  UNL     1     -33.580  16.988  -2.094  1.00 20.00     0.010 A 
HETATM   10  C9  UNL     1     -35.044  18.488  -3.685  1.00 20.00     0.021 C 
BRANCH   9  11
HETATM   11  C10 UNL     1     -32.881  18.162  -1.499  1.00 20.00     0.091 C 
HETATM   12 BR12 UNL     1     -33.622  18.579   0.257  1.00 20.00    -0.096 Br
ENDBRANCH   9  11
ENDBRANCH   4   7
TORSDOF 2
ENDMDL
MODEL 7
REMARK VINA RESULT:      -4.5     11.286     12.726
REMARK  2 active torsions:
REMARK  status: ('A' for Active; 'I' for Inactive)
REMARK    1  A    between atoms: C4_4  and  C7_7 
REMARK    2  A    between atoms: C6_6  and  C10_10 
ROOT
HETATM    1  C1  UNL     1     -34.496  14.140  -7.555  1.00 20.00     0.015 A 
HETATM    2  C2  UNL     1     -35.194  13.146  -6.907  1.00 20.00     0.051 A 
HETATM    3  C3  UNL     1     -34.404  15.328  -6.773  1.00 20.00    -0.048 A 
HETATM    4  C4  UNL     1     -35.036  15.195  -5.555  1.00 20.00    -0.003 A 
HETATM    5  C8  UNL     1     -33.706  16.553  -7.232  1.00 20.00     0.049 C 
HETATM    6  S11 UNL     1     -35.736  13.645  -5.361  1.00 20.00    -0.105 SA
ENDROOT
BRANCH   4   7
HETATM    7  C7  UNL     1     -35.118  16.309  -4.473  1.00 20.00    -0.005 A 
HETATM    8  C5  UNL     1     -35.015  15.859  -3.024  1.00 20.00     0.021 A 
HETATM    9  C6  UNL     1     -33.842  16.540  -3.663  1.00 20.00     0.010 A 
HETATM   10  C9  UNL     1     -36.030  17.456  -4.801  1.00 20.00     0.021 C 
BRANCH   9  11
HETATM   11  C10 UNL     1     -33.417  17.893  -3.207  1.00 20.00     0.091 C 
HETATM   12 BR12 UNL     1     -33.365  17.972  -1.258  1.00 20.00    -0.096 Br
ENDBRANCH   9  11
ENDBRANCH   4   7
TORSDOF 2
ENDMDL
MODEL 8
REMARK VINA RESULT:      -4.3     11.022     12.416
REMARK  2 active torsions:
REMARK  status: ('A' for Active; 'I' for Inactive)
REMARK    1  A    between atoms: C4_4  and  C7_7 
REMARK    2  A    between atoms: C6_6  and  C10_10 
ROOT
HETATM    1  C1  UNL     1     -36.664  14.261  -7.001  1.00 20.00     0.015 A 
HETATM    2  C2  UNL     1     -37.576  14.432  -5.983  1.00 20.00     0.051 A 
HETATM    3  C3  UNL     1     -35.348  14.641  -6.610  1.00 20.00    -0.048 A 
HETATM    4  C4  UNL     1     -35.304  15.089  -5.308  1.00 20.00    -0.003 A 
HETATM    5  C8  UNL     1     -34.174  14.558  -7.513  1.00 20.00     0.049 C 
HETATM    6  S11 UNL     1     -36.846  15.051  -4.564  1.00 20.00    -0.105 SA
ENDROOT
BRANCH   4   7
HETATM    7  C7  UNL     1     -34.020  15.579  -4.580  1.00 20.00    -0.005 A 
HETATM    8  C5  UNL     1     -33.449  16.915  -5.031  1.00 20.00     0.021 A 
HETATM    9  C6  UNL     1     -34.182  16.836  -3.725  1.00 20.00     0.010 A 
HETATM   10  C9  UNL     1     -33.063  14.496  -4.170  1.00 20.00     0.021 C 
BRANCH   9  11
HETATM   11  C10 UNL     1     -33.453  17.029  -2.440  1.00 20.00     0.091 C 
HETATM   12 BR12 UNL     1     -34.711  17.312  -0.976  1.00 20.00    -0.096 Br
ENDBRANCH   9  11
ENDBRANCH   4   7
TORSDOF 2
ENDMDL
MODEL 9
REMARK VINA RESULT:      -4.3     11.449     12.494
REMARK  2 active torsions:
REMARK  status: ('A' for Active; 'I' for Inactive)
REMARK    1  A    between atoms: C4_4  and  C7_7 
REMARK    2  A    between atoms: C6_6  and  C10_10 
ROOT
HETATM    1  C1  UNL     1     -33.732  16.643  -2.378  1.00 20.00     0.015 A 
HETATM    2  C2  UNL     1     -34.772  17.388  -1.866  1.00 20.00     0.051 A 
HETATM    3  C3  UNL     1     -34.119  15.908  -3.535  1.00 20.00    -0.048 A 
HETATM    4  C4  UNL     1     -35.440  16.118  -3.864  1.00 20.00    -0.003 A 
HETATM    5  C8  UNL     1     -33.193  15.024  -4.285  1.00 20.00     0.049 C 
HETATM    6  S11 UNL     1     -36.208  17.197  -2.779  1.00 20.00    -0.105 SA
ENDROOT
BRANCH   4   7
HETATM    7  C7  UNL     1     -36.170  15.461  -5.071  1.00 20.00    -0.005 A 
HETATM    8  C5  UNL     1     -37.209  16.313  -5.783  1.00 20.00     0.021 A 
HETATM    9  C6  UNL     1     -35.879  16.084  -6.437  1.00 20.00     0.010 A 
HETATM   10  C9  UNL     1     -36.420  13.986  -4.943  1.00 20.00     0.021 C 
BRANCH   9  11
HETATM   11  C10 UNL     1     -35.784  15.271  -7.683  1.00 20.00     0.091 C 
HETATM   12 BR12 UNL     1     -33.969  14.593  -7.918  1.00 20.00    -0.096 Br
ENDBRANCH   9  11
ENDBRANCH   4   7
TORSDOF 2
ENDMDL
