MODEL 1
REMARK VINA RESULT:      -4.4      0.000      0.000
REMARK  1 active torsions:
REMARK  status: ('A' for Active; 'I' for Inactive)
REMARK    1  A    between atoms: C4_4  and  C8_8 
ROOT
HETATM    1  C1  UNL     1     -34.294   4.423   4.479  1.00 20.00     0.136 C 
HETATM    2  C2  UNL     1     -34.180   4.911   5.935  1.00 20.00     0.084 C 
HETATM    3  C3  UNL     1     -33.595   6.237   5.375  1.00 20.00     0.004 C 
HETATM    4  C4  UNL     1     -34.087   5.866   3.919  1.00 20.00     0.020 C 
HETATM    5  C5  UNL     1     -34.106   7.509   6.029  1.00 20.00     0.011 C 
HETATM    6  C6  UNL     1     -35.386   6.498   3.426  1.00 20.00     0.024 C 
HETATM    7  O9  UNL     1     -34.482   3.336   3.974  1.00 20.00    -0.297 OA
ENDROOT
BRANCH   4   8
HETATM    8  C8  UNL     1     -32.983   5.964   2.869  1.00 20.00     0.013 C 
HETATM    9  C7  UNL     1     -32.685   7.383   2.510  1.00 20.00     0.006 C 
ENDBRANCH   4   8
TORSDOF 1
ENDMDL
MODEL 2
REMARK VINA RESULT:      -4.3     12.417     13.482
REMARK  1 active torsions:
REMARK  status: ('A' for Active; 'I' for Inactive)
REMARK    1  A    between atoms: C4_4  and  C8_8 
ROOT
HETATM    1  C1  UNL     1     -35.415  13.720  -5.577  1.00 20.00     0.136 C 
HETATM    2  C2  UNL     1     -35.229  14.324  -6.981  1.00 20.00     0.084 C 
HETATM    3  C3  UNL     1     -34.861  15.663  -6.283  1.00 20.00     0.004 C 
HETATM    4  C4  UNL     1     -34.677  14.919  -4.901  1.00 20.00     0.020 C 
HETATM    5  C5  UNL     1     -33.686  16.416  -6.883  1.00 20.00     0.011 C 
HETATM    6  C6  UNL     1     -33.255  14.567  -4.468  1.00 20.00     0.024 C 
HETATM    7  O9  UNL     1     -35.928  12.700  -5.167  1.00 20.00    -0.297 OA
ENDROOT
BRANCH   4   8
HETATM    8  C8  UNL     1     -35.466  15.561  -3.763  1.00 20.00     0.013 C 
HETATM    9  C7  UNL     1     -34.569  16.252  -2.789  1.00 20.00     0.006 C 
ENDBRANCH   4   8
TORSDOF 1
ENDMDL
MODEL 3
REMARK VINA RESULT:      -4.1      1.620      2.986
REMARK  1 active torsions:
REMARK  status: ('A' for Active; 'I' for Inactive)
REMARK    1  A    between atoms: C4_4  and  C8_8 
ROOT
HETATM    1  C1  UNL     1     -33.699   6.854   5.042  1.00 20.00     0.136 C 
HETATM    2  C2  UNL     1     -32.811   8.036   4.614  1.00 20.00     0.084 C 
HETATM    3  C3  UNL     1     -32.518   7.256   3.303  1.00 20.00     0.004 C 
HETATM    4  C4  UNL     1     -33.720   6.271   3.593  1.00 20.00     0.020 C 
HETATM    5  C5  UNL     1     -32.528   8.082   2.029  1.00 20.00     0.011 C 
HETATM    6  C6  UNL     1     -35.041   6.531   2.873  1.00 20.00     0.024 C 
HETATM    7  O9  UNL     1     -34.194   6.519   6.098  1.00 20.00    -0.297 OA
ENDROOT
BRANCH   4   8
HETATM    8  C8  UNL     1     -33.323   4.799   3.519  1.00 20.00     0.013 C 
HETATM    9  C7  UNL     1     -34.294   3.926   4.244  1.00 20.00     0.006 C 
ENDBRANCH   4   8
TORSDOF 1
ENDMDL
MODEL 4
REMARK VINA RESULT:      -4.1     12.551     13.762
REMARK  1 active torsions:
REMARK  status: ('A' for Active; 'I' for Inactive)
REMARK    1  A    between atoms: C4_4  and  C8_8 
ROOT
HETATM    1  C1  UNL     1     -33.588  17.388  -4.491  1.00 20.00     0.136 C 
HETATM    2  C2  UNL     1     -33.219  16.092  -5.236  1.00 20.00     0.084 C 
HETATM    3  C3  UNL     1     -33.641  15.316  -3.958  1.00 20.00     0.004 C 
HETATM    4  C4  UNL     1     -34.364  16.601  -3.388  1.00 20.00     0.020 C 
HETATM    5  C5  UNL     1     -34.450  14.052  -4.193  1.00 20.00     0.011 C 
HETATM    6  C6  UNL     1     -35.880  16.695  -3.554  1.00 20.00     0.024 C 
HETATM    7  O9  UNL     1     -33.365  18.562  -4.697  1.00 20.00    -0.297 OA
ENDROOT
BRANCH   4   8
HETATM    8  C8  UNL     1     -33.935  16.952  -1.967  1.00 20.00     0.013 C 
HETATM    9  C7  UNL     1     -35.108  17.094  -1.053  1.00 20.00     0.006 C 
ENDBRANCH   4   8
TORSDOF 1
ENDMDL
MODEL 5
REMARK VINA RESULT:      -4.1     12.779     13.304
REMARK  1 active torsions:
REMARK  status: ('A' for Active; 'I' for Inactive)
REMARK    1  A    between atoms: C4_4  and  C8_8 
ROOT
HETATM    1  C1  UNL     1     -35.562  16.405  -2.965  1.00 20.00     0.136 C 
HETATM    2  C2  UNL     1     -35.264  16.999  -1.575  1.00 20.00     0.084 C 
HETATM    3  C3  UNL     1     -33.754  16.891  -1.926  1.00 20.00     0.004 C 
HETATM    4  C4  UNL     1     -34.101  16.666  -3.452  1.00 20.00     0.020 C 
HETATM    5  C5  UNL     1     -32.900  18.082  -1.527  1.00 20.00     0.011 C 
HETATM    6  C6  UNL     1     -33.997  17.868  -4.388  1.00 20.00     0.024 C 
HETATM    7  O9  UNL     1     -36.554  15.931  -3.476  1.00 20.00    -0.297 OA
ENDROOT
BRANCH   4   8
HETATM    8  C8  UNL     1     -33.424  15.434  -4.047  1.00 20.00     0.013 C 
HETATM    9  C7  UNL     1     -33.036  15.650  -5.472  1.00 20.00     0.006 C 
ENDBRANCH   4   8
TORSDOF 1
ENDMDL
MODEL 6
REMARK VINA RESULT:      -4.0     12.334     13.226
REMARK  1 active torsions:
REMARK  status: ('A' for Active; 'I' for Inactive)
REMARK    1  A    between atoms: C4_4  and  C8_8 
ROOT
HETATM    1  C1  UNL     1     -36.238  13.739  -5.168  1.00 20.00     0.136 C 
HETATM    2  C2  UNL     1     -37.607  14.431  -5.028  1.00 20.00     0.084 C 
HETATM    3  C3  UNL     1     -36.856  15.646  -4.417  1.00 20.00     0.004 C 
HETATM    4  C4  UNL     1     -35.473  15.080  -4.933  1.00 20.00     0.020 C 
HETATM    5  C5  UNL     1     -37.321  17.012  -4.890  1.00 20.00     0.011 C 
HETATM    6  C6  UNL     1     -34.902  15.667  -6.222  1.00 20.00     0.024 C 
HETATM    7  O9  UNL     1     -35.898  12.596  -5.388  1.00 20.00    -0.297 OA
ENDROOT
BRANCH   4   8
HETATM    8  C8  UNL     1     -34.412  14.997  -3.839  1.00 20.00     0.013 C 
HETATM    9  C7  UNL     1     -33.030  15.048  -4.403  1.00 20.00     0.006 C 
ENDBRANCH   4   8
TORSDOF 1
ENDMDL
MODEL 7
REMARK VINA RESULT:      -3.9      1.907      3.217
REMARK  1 active torsions:
REMARK  status: ('A' for Active; 'I' for Inactive)
REMARK    1  A    between atoms: C4_4  and  C8_8 
ROOT
HETATM    1  C1  UNL     1     -33.169   6.605   2.561  1.00 20.00     0.136 C 
HETATM    2  C2  UNL     1     -32.906   5.094   2.427  1.00 20.00     0.084 C 
HETATM    3  C3  UNL     1     -33.295   4.961   3.926  1.00 20.00     0.004 C 
HETATM    4  C4  UNL     1     -33.922   6.412   3.916  1.00 20.00     0.020 C 
HETATM    5  C5  UNL     1     -34.176   3.774   4.273  1.00 20.00     0.011 C 
HETATM    6  C6  UNL     1     -35.438   6.529   3.769  1.00 20.00     0.024 C 
HETATM    7  O9  UNL     1     -32.901   7.565   1.870  1.00 20.00    -0.297 OA
ENDROOT
BRANCH   4   8
HETATM    8  C8  UNL     1     -33.399   7.301   5.041  1.00 20.00     0.013 C 
HETATM    9  C7  UNL     1     -34.129   7.060   6.321  1.00 20.00     0.006 C 
ENDBRANCH   4   8
TORSDOF 1
ENDMDL
MODEL 8
REMARK VINA RESULT:      -3.9     11.816     13.199
REMARK  1 active torsions:
REMARK  status: ('A' for Active; 'I' for Inactive)
REMARK    1  A    between atoms: C4_4  and  C8_8 
ROOT
HETATM    1  C1  UNL     1     -35.393  13.795  -4.828  1.00 20.00     0.136 C 
HETATM    2  C2  UNL     1     -34.108  13.996  -4.002  1.00 20.00     0.084 C 
HETATM    3  C3  UNL     1     -34.187  15.504  -4.368  1.00 20.00     0.004 C 
HETATM    4  C4  UNL     1     -35.680  15.330  -4.858  1.00 20.00     0.020 C 
HETATM    5  C5  UNL     1     -33.885  16.472  -3.237  1.00 20.00     0.011 C 
HETATM    6  C6  UNL     1     -36.795  15.740  -3.897  1.00 20.00     0.024 C 
HETATM    7  O9  UNL     1     -35.958  12.818  -5.269  1.00 20.00    -0.297 OA
ENDROOT
BRANCH   4   8
HETATM    8  C8  UNL     1     -35.921  15.882  -6.261  1.00 20.00     0.013 C 
HETATM    9  C7  UNL     1     -37.106  16.789  -6.303  1.00 20.00     0.006 C 
ENDBRANCH   4   8
TORSDOF 1
ENDMDL
MODEL 9
REMARK VINA RESULT:      -3.8     12.254     13.144
REMARK  1 active torsions:
REMARK  status: ('A' for Active; 'I' for Inactive)
REMARK    1  A    between atoms: C4_4  and  C8_8 
ROOT
HETATM    1  C1  UNL     1     -33.771  14.405  -4.340  1.00 20.00     0.136 C 
HETATM    2  C2  UNL     1     -34.335  15.589  -3.534  1.00 20.00     0.084 C 
HETATM    3  C3  UNL     1     -35.222  15.920  -4.766  1.00 20.00     0.004 C 
HETATM    4  C4  UNL     1     -34.921  14.500  -5.393  1.00 20.00     0.020 C 
HETATM    5  C5  UNL     1     -36.659  16.305  -4.458  1.00 20.00     0.011 C 
HETATM    6  C6  UNL     1     -35.974  13.409  -5.216  1.00 20.00     0.024 C 
HETATM    7  O9  UNL     1     -32.811  13.678  -4.198  1.00 20.00    -0.297 OA
ENDROOT
BRANCH   4   8
HETATM    8  C8  UNL     1     -34.428  14.573  -6.835  1.00 20.00     0.013 C 
HETATM    9  C7  UNL     1     -35.127  13.585  -7.710  1.00 20.00     0.006 C 
ENDBRANCH   4   8
TORSDOF 1
ENDMDL
