MODEL 1
REMARK VINA RESULT:      -4.2      0.000      0.000
REMARK  3 active torsions:
REMARK  status: ('A' for Active; 'I' for Inactive)
REMARK    1  A    between atoms: C4_4  and  C9_9 
REMARK    2  A    between atoms: C5_5  and  C6_6 
REMARK    3  A    between atoms: C9_9  and  O10_10 
ROOT
HETATM    1  C3  UNL     1     -33.272  14.496  -4.454  1.00 20.00     0.018 A 
HETATM    2  C4  UNL     1     -34.722  14.450  -4.068  1.00 20.00     0.019 A 
HETATM    3  C6  UNL     1     -34.007  15.796  -4.174  1.00 20.00    -0.031 A 
HETATM    4  C8  UNL     1     -33.693  16.478  -2.864  1.00 20.00     0.016 C 
ENDROOT
BRANCH   3   5
HETATM    5  C5  UNL     1     -34.295  16.782  -5.314  1.00 20.00    -0.036 A 
HETATM    6  C1  UNL     1     -35.650  17.441  -5.429  1.00 20.00     0.011 A 
HETATM    7  C2  UNL     1     -34.454  18.256  -5.024  1.00 20.00     0.011 A 
HETATM    8  C7  UNL     1     -33.610  16.423  -6.610  1.00 20.00     0.016 C 
ENDBRANCH   3   5
BRANCH   2   9
HETATM    9  C9  UNL     1     -35.749  14.021  -5.060  1.00 20.00     0.169 C 
BRANCH   9  10
HETATM   10  O10 UNL     1     -35.912  12.604  -5.007  1.00 20.00    -0.400 OA
HETATM   11  H26 UNL     1     -36.827  12.423  -5.272  1.00 20.00     0.209 HD
ENDBRANCH   9  10
ENDBRANCH   2   9
TORSDOF 3
ENDMDL
MODEL 2
REMARK VINA RESULT:      -4.0     11.533     13.162
REMARK  3 active torsions:
REMARK  status: ('A' for Active; 'I' for Inactive)
REMARK    1  A    between atoms: C4_4  and  C9_9 
REMARK    2  A    between atoms: C5_5  and  C6_6 
REMARK    3  A    between atoms: C9_9  and  O10_10 
ROOT
HETATM    1  C3  UNL     1     -33.989   8.325   3.955  1.00 20.00     0.018 A 
HETATM    2  C4  UNL     1     -32.668   7.617   3.873  1.00 20.00     0.019 A 
HETATM    3  C6  UNL     1     -33.792   7.029   4.724  1.00 20.00    -0.031 A 
HETATM    4  C8  UNL     1     -33.618   7.154   6.219  1.00 20.00     0.016 C 
ENDROOT
BRANCH   3   5
HETATM    5  C5  UNL     1     -34.549   5.762   4.307  1.00 20.00    -0.036 A 
HETATM    6  C1  UNL     1     -33.794   4.486   4.009  1.00 20.00     0.011 A 
HETATM    7  C2  UNL     1     -34.638   4.583   5.249  1.00 20.00     0.011 A 
HETATM    8  C7  UNL     1     -35.766   6.036   3.460  1.00 20.00     0.016 C 
ENDBRANCH   3   5
BRANCH   2   9
HETATM    9  C9  UNL     1     -32.233   6.987   2.594  1.00 20.00     0.169 C 
BRANCH   9  10
HETATM   10  O10 UNL     1     -31.842   7.996   1.663  1.00 20.00    -0.400 OA
HETATM   11  H26 UNL     1     -32.652   8.465   1.410  1.00 20.00     0.209 HD
ENDBRANCH   9  10
ENDBRANCH   2   9
TORSDOF 3
ENDMDL
MODEL 3
REMARK VINA RESULT:      -4.0     10.729     12.428
REMARK  3 active torsions:
REMARK  status: ('A' for Active; 'I' for Inactive)
REMARK    1  A    between atoms: C4_4  and  C9_9 
REMARK    2  A    between atoms: C5_5  and  C6_6 
REMARK    3  A    between atoms: C9_9  and  O10_10 
ROOT
HETATM    1  C3  UNL     1     -31.720   7.263   3.220  1.00 20.00     0.018 A 
HETATM    2  C4  UNL     1     -32.721   7.565   2.143  1.00 20.00     0.019 A 
HETATM    3  C6  UNL     1     -32.952   6.384   3.085  1.00 20.00    -0.031 A 
HETATM    4  C8  UNL     1     -32.739   5.014   2.486  1.00 20.00     0.016 C 
ENDROOT
BRANCH   3   5
HETATM    5  C5  UNL     1     -34.040   6.408   4.166  1.00 20.00    -0.036 A 
HETATM    6  C1  UNL     1     -35.496   6.259   3.787  1.00 20.00     0.011 A 
HETATM    7  C2  UNL     1     -34.795   5.147   4.516  1.00 20.00     0.011 A 
HETATM    8  C7  UNL     1     -33.736   7.346   5.308  1.00 20.00     0.016 C 
ENDBRANCH   3   5
BRANCH   2   9
HETATM    9  C9  UNL     1     -33.546   8.804   2.212  1.00 20.00     0.169 C 
BRANCH   9  10
HETATM   10  O10 UNL     1     -32.957   9.826   1.409  1.00 20.00    -0.400 OA
HETATM   11  H26 UNL     1     -33.654  10.147   0.817  1.00 20.00     0.209 HD
ENDBRANCH   9  10
ENDBRANCH   2   9
TORSDOF 3
ENDMDL
MODEL 4
REMARK VINA RESULT:      -4.0      1.074      2.597
REMARK  3 active torsions:
REMARK  status: ('A' for Active; 'I' for Inactive)
REMARK    1  A    between atoms: C4_4  and  C9_9 
REMARK    2  A    between atoms: C5_5  and  C6_6 
REMARK    3  A    between atoms: C9_9  and  O10_10 
ROOT
HETATM    1  C3  UNL     1     -36.020  16.362  -5.831  1.00 20.00     0.018 A 
HETATM    2  C4  UNL     1     -35.920  14.877  -6.030  1.00 20.00     0.019 A 
HETATM    3  C6  UNL     1     -34.664  15.686  -5.708  1.00 20.00    -0.031 A 
HETATM    4  C8  UNL     1     -33.704  15.892  -6.855  1.00 20.00     0.016 C 
ENDROOT
BRANCH   3   5
HETATM    5  C5  UNL     1     -33.967  15.596  -4.345  1.00 20.00    -0.036 A 
HETATM    6  C1  UNL     1     -33.600  16.854  -3.592  1.00 20.00     0.011 A 
HETATM    7  C2  UNL     1     -34.709  15.976  -3.084  1.00 20.00     0.011 A 
HETATM    8  C7  UNL     1     -33.003  14.441  -4.234  1.00 20.00     0.016 C 
ENDBRANCH   3   5
BRANCH   2   9
HETATM    9  C9  UNL     1     -36.535  13.945  -5.043  1.00 20.00     0.169 C 
BRANCH   9  10
HETATM   10  O10 UNL     1     -35.925  12.659  -5.144  1.00 20.00    -0.400 OA
HETATM   11  H26 UNL     1     -35.739  12.516  -6.085  1.00 20.00     0.209 HD
ENDBRANCH   9  10
ENDBRANCH   2   9
TORSDOF 3
ENDMDL
MODEL 5
REMARK VINA RESULT:      -3.9      1.305      2.314
REMARK  3 active torsions:
REMARK  status: ('A' for Active; 'I' for Inactive)
REMARK    1  A    between atoms: C4_4  and  C9_9 
REMARK    2  A    between atoms: C5_5  and  C6_6 
REMARK    3  A    between atoms: C9_9  and  O10_10 
ROOT
HETATM    1  C3  UNL     1     -34.926  15.237  -5.957  1.00 20.00     0.018 A 
HETATM    2  C4  UNL     1     -35.689  14.456  -4.927  1.00 20.00     0.019 A 
HETATM    3  C6  UNL     1     -34.459  15.261  -4.511  1.00 20.00    -0.031 A 
HETATM    4  C8  UNL     1     -33.223  14.455  -4.190  1.00 20.00     0.016 C 
ENDROOT
BRANCH   3   5
HETATM    5  C5  UNL     1     -34.572  16.548  -3.684  1.00 20.00    -0.036 A 
HETATM    6  C1  UNL     1     -35.136  16.507  -2.282  1.00 20.00     0.011 A 
HETATM    7  C2  UNL     1     -33.671  16.769  -2.491  1.00 20.00     0.011 A 
HETATM    8  C7  UNL     1     -34.907  17.768  -4.507  1.00 20.00     0.016 C 
ENDBRANCH   3   5
BRANCH   2   9
HETATM    9  C9  UNL     1     -37.069  14.867  -4.544  1.00 20.00     0.169 C 
BRANCH   9  10
HETATM   10  O10 UNL     1     -38.003  13.861  -4.937  1.00 20.00    -0.400 OA
HETATM   11  H26 UNL     1     -38.230  13.368  -4.133  1.00 20.00     0.209 HD
ENDBRANCH   9  10
ENDBRANCH   2   9
TORSDOF 3
ENDMDL
MODEL 6
REMARK VINA RESULT:      -3.8      1.922      3.179
REMARK  3 active torsions:
REMARK  status: ('A' for Active; 'I' for Inactive)
REMARK    1  A    between atoms: C4_4  and  C9_9 
REMARK    2  A    between atoms: C5_5  and  C6_6 
REMARK    3  A    between atoms: C9_9  and  O10_10 
ROOT
HETATM    1  C3  UNL     1     -35.396  15.558  -4.020  1.00 20.00     0.018 A 
HETATM    2  C4  UNL     1     -34.423  14.426  -4.169  1.00 20.00     0.019 A 
HETATM    3  C6  UNL     1     -35.457  14.686  -5.263  1.00 20.00    -0.031 A 
HETATM    4  C8  UNL     1     -36.598  13.699  -5.337  1.00 20.00     0.016 C 
ENDROOT
BRANCH   3   5
HETATM    5  C5  UNL     1     -35.067  15.261  -6.631  1.00 20.00    -0.036 A 
HETATM    6  C1  UNL     1     -34.114  14.509  -7.531  1.00 20.00     0.011 A 
HETATM    7  C2  UNL     1     -35.567  14.613  -7.901  1.00 20.00     0.011 A 
HETATM    8  C7  UNL     1     -34.957  16.766  -6.643  1.00 20.00     0.016 C 
ENDBRANCH   3   5
BRANCH   2   9
HETATM    9  C9  UNL     1     -32.972  14.705  -4.371  1.00 20.00     0.169 C 
BRANCH   9  10
HETATM   10  O10 UNL     1     -32.225  13.493  -4.272  1.00 20.00    -0.400 OA
HETATM   11  H26 UNL     1     -32.870  12.769  -4.313  1.00 20.00     0.209 HD
ENDBRANCH   9  10
ENDBRANCH   2   9
TORSDOF 3
ENDMDL
MODEL 7
REMARK VINA RESULT:      -3.8      1.904      3.004
REMARK  3 active torsions:
REMARK  status: ('A' for Active; 'I' for Inactive)
REMARK    1  A    between atoms: C4_4  and  C9_9 
REMARK    2  A    between atoms: C5_5  and  C6_6 
REMARK    3  A    between atoms: C9_9  and  O10_10 
ROOT
HETATM    1  C3  UNL     1     -34.532  14.285  -4.052  1.00 20.00     0.018 A 
HETATM    2  C4  UNL     1     -34.588  15.095  -5.314  1.00 20.00     0.019 A 
HETATM    3  C6  UNL     1     -35.388  15.539  -4.091  1.00 20.00    -0.031 A 
HETATM    4  C8  UNL     1     -36.882  15.332  -4.173  1.00 20.00     0.016 C 
ENDROOT
BRANCH   3   5
HETATM    5  C5  UNL     1     -34.993  16.770  -3.265  1.00 20.00    -0.036 A 
HETATM    6  C1  UNL     1     -35.044  16.723  -1.755  1.00 20.00     0.011 A 
HETATM    7  C2  UNL     1     -33.716  16.767  -2.457  1.00 20.00     0.011 A 
HETATM    8  C7  UNL     1     -35.377  18.079  -3.909  1.00 20.00     0.016 C 
ENDBRANCH   3   5
BRANCH   2   9
HETATM    9  C9  UNL     1     -33.383  15.837  -5.783  1.00 20.00     0.169 C 
BRANCH   9  10
HETATM   10  O10 UNL     1     -32.201  15.122  -5.424  1.00 20.00    -0.400 OA
HETATM   11  H26 UNL     1     -31.829  15.576  -4.653  1.00 20.00     0.209 HD
ENDBRANCH   9  10
ENDBRANCH   2   9
TORSDOF 3
ENDMDL
MODEL 8
REMARK VINA RESULT:      -3.8      1.161      2.591
REMARK  3 active torsions:
REMARK  status: ('A' for Active; 'I' for Inactive)
REMARK    1  A    between atoms: C4_4  and  C9_9 
REMARK    2  A    between atoms: C5_5  and  C6_6 
REMARK    3  A    between atoms: C9_9  and  O10_10 
ROOT
HETATM    1  C3  UNL     1     -36.987  15.176  -4.575  1.00 20.00     0.018 A 
HETATM    2  C4  UNL     1     -36.520  14.746  -5.935  1.00 20.00     0.019 A 
HETATM    3  C6  UNL     1     -35.965  16.026  -5.313  1.00 20.00    -0.031 A 
HETATM    4  C8  UNL     1     -36.469  17.318  -5.909  1.00 20.00     0.016 C 
ENDROOT
BRANCH   3   5
HETATM    5  C5  UNL     1     -34.523  16.120  -4.797  1.00 20.00    -0.036 A 
HETATM    6  C1  UNL     1     -33.361  15.876  -5.733  1.00 20.00     0.011 A 
HETATM    7  C2  UNL     1     -33.634  17.264  -5.226  1.00 20.00     0.011 A 
HETATM    8  C7  UNL     1     -34.356  15.635  -3.378  1.00 20.00     0.016 C 
ENDBRANCH   3   5
BRANCH   2   9
HETATM    9  C9  UNL     1     -35.690  13.517  -6.089  1.00 20.00     0.169 C 
BRANCH   9  10
HETATM   10  O10 UNL     1     -35.927  12.630  -4.996  1.00 20.00    -0.400 OA
HETATM   11  H26 UNL     1     -36.615  13.044  -4.451  1.00 20.00     0.209 HD
ENDBRANCH   9  10
ENDBRANCH   2   9
TORSDOF 3
ENDMDL
MODEL 9
REMARK VINA RESULT:      -3.8      1.605      2.571
REMARK  3 active torsions:
REMARK  status: ('A' for Active; 'I' for Inactive)
REMARK    1  A    between atoms: C4_4  and  C9_9 
REMARK    2  A    between atoms: C5_5  and  C6_6 
REMARK    3  A    between atoms: C9_9  and  O10_10 
ROOT
HETATM    1  C3  UNL     1     -35.672  13.530  -4.928  1.00 20.00     0.018 A 
HETATM    2  C4  UNL     1     -35.701  14.574  -6.007  1.00 20.00     0.019 A 
HETATM    3  C6  UNL     1     -35.381  14.978  -4.569  1.00 20.00    -0.031 A 
HETATM    4  C8  UNL     1     -36.473  15.722  -3.837  1.00 20.00     0.016 C 
ENDROOT
BRANCH   3   5
HETATM    5  C5  UNL     1     -33.970  15.399  -4.138  1.00 20.00    -0.036 A 
HETATM    6  C1  UNL     1     -33.407  16.734  -4.569  1.00 20.00     0.011 A 
HETATM    7  C2  UNL     1     -33.780  16.509  -3.131  1.00 20.00     0.011 A 
HETATM    8  C7  UNL     1     -32.994  14.251  -4.063  1.00 20.00     0.016 C 
ENDBRANCH   3   5
BRANCH   2   9
HETATM    9  C9  UNL     1     -34.664  14.575  -7.078  1.00 20.00     0.169 C 
BRANCH   9  10
HETATM   10  O10 UNL     1     -34.068  13.282  -7.178  1.00 20.00    -0.400 OA
HETATM   11  H26 UNL     1     -33.119  13.404  -7.026  1.00 20.00     0.209 HD
ENDBRANCH   9  10
ENDBRANCH   2   9
TORSDOF 3
ENDMDL
