MODEL 1
REMARK VINA RESULT:      -6.3      0.000      0.000
REMARK  1 active torsions:
REMARK  status: ('A' for Active; 'I' for Inactive)
REMARK    1  A    between atoms: C5_5  and  C10_10 
ROOT
HETATM    1  C1  UNL     1     -32.806   5.841   2.588  1.00 20.00     0.011 C 
HETATM    2  C2  UNL     1     -33.452   4.856   3.564  1.00 20.00     0.009 C 
HETATM    3  C3  UNL     1     -31.443   7.912   3.424  1.00 20.00     0.016 A 
HETATM    4  C4  UNL     1     -33.587   7.016   4.614  1.00 20.00     0.018 C 
HETATM    5  C5  UNL     1     -32.609   8.477   2.666  1.00 20.00     0.005 A 
HETATM    6  C6  UNL     1     -32.740   7.134   3.364  1.00 20.00    -0.035 A 
HETATM    7  C7  UNL     1     -34.403   5.721   4.412  1.00 20.00    -0.047 C 
HETATM    8  C8  UNL     1     -35.713   6.011   3.660  1.00 20.00     0.015 C 
HETATM    9  C9  UNL     1     -34.726   5.045   5.747  1.00 20.00     0.015 C 
ENDROOT
BRANCH   5  10
HETATM   10  C10 UNL     1     -32.541   8.596   1.182  1.00 20.00     0.090 C 
HETATM   11 BR11 UNL     1     -32.564  10.473   0.648  1.00 20.00    -0.096 Br
ENDBRANCH   5  10
TORSDOF 1
ENDMDL
MODEL 2
REMARK VINA RESULT:      -5.1      2.582      4.765
REMARK  1 active torsions:
REMARK  status: ('A' for Active; 'I' for Inactive)
REMARK    1  A    between atoms: C5_5  and  C10_10 
ROOT
HETATM    1  C1  UNL     1     -31.815   7.937   3.197  1.00 20.00     0.011 C 
HETATM    2  C2  UNL     1     -31.278   8.750   2.017  1.00 20.00     0.009 C 
HETATM    3  C3  UNL     1     -33.207   5.751   2.839  1.00 20.00     0.016 A 
HETATM    4  C4  UNL     1     -33.388   7.849   1.296  1.00 20.00     0.018 C 
HETATM    5  C5  UNL     1     -34.130   6.707   3.538  1.00 20.00     0.005 A 
HETATM    6  C6  UNL     1     -33.032   7.240   2.636  1.00 20.00    -0.035 A 
HETATM    7  C7  UNL     1     -32.532   9.130   1.207  1.00 20.00    -0.047 C 
HETATM    8  C8  UNL     1     -33.265  10.323   1.843  1.00 20.00     0.015 C 
HETATM    9  C9  UNL     1     -32.174   9.471  -0.241  1.00 20.00     0.015 C 
ENDROOT
BRANCH   5  10
HETATM   10  C10 UNL     1     -34.074   6.840   5.021  1.00 20.00     0.090 C 
HETATM   11 BR11 UNL     1     -34.550   5.151   5.875  1.00 20.00    -0.096 Br
ENDBRANCH   5  10
TORSDOF 1
ENDMDL
MODEL 3
REMARK VINA RESULT:      -4.4     11.240     12.106
REMARK  1 active torsions:
REMARK  status: ('A' for Active; 'I' for Inactive)
REMARK    1  A    between atoms: C5_5  and  C10_10 
ROOT
HETATM    1  C1  UNL     1     -35.442  16.018  -3.642  1.00 20.00     0.011 C 
HETATM    2  C2  UNL     1     -35.679  16.554  -2.228  1.00 20.00     0.009 C 
HETATM    3  C3  UNL     1     -33.230  14.780  -4.289  1.00 20.00     0.016 A 
HETATM    4  C4  UNL     1     -33.324  16.808  -2.649  1.00 20.00     0.018 C 
HETATM    5  C5  UNL     1     -33.269  16.011  -5.148  1.00 20.00     0.005 A 
HETATM    6  C6  UNL     1     -33.939  16.018  -3.785  1.00 20.00    -0.035 A 
HETATM    7  C7  UNL     1     -34.515  17.534  -1.988  1.00 20.00    -0.047 C 
HETATM    8  C8  UNL     1     -34.777  18.888  -2.668  1.00 20.00     0.015 C 
HETATM    9  C9  UNL     1     -34.280  17.758  -0.492  1.00 20.00     0.015 C 
ENDROOT
BRANCH   5  10
HETATM   10  C10 UNL     1     -34.050  16.006  -6.416  1.00 20.00     0.090 C 
HETATM   11 BR11 UNL     1     -34.287  14.180  -7.063  1.00 20.00    -0.096 Br
ENDBRANCH   5  10
TORSDOF 1
ENDMDL
MODEL 4
REMARK VINA RESULT:      -4.4     10.955     11.878
REMARK  1 active torsions:
REMARK  status: ('A' for Active; 'I' for Inactive)
REMARK    1  A    between atoms: C5_5  and  C10_10 
ROOT
HETATM    1  C1  UNL     1     -33.661  15.625  -3.440  1.00 20.00     0.011 C 
HETATM    2  C2  UNL     1     -34.187  14.421  -4.224  1.00 20.00     0.009 C 
HETATM    3  C3  UNL     1     -35.080  16.768  -1.563  1.00 20.00     0.016 A 
HETATM    4  C4  UNL     1     -36.103  15.799  -3.760  1.00 20.00     0.018 C 
HETATM    5  C5  UNL     1     -34.883  17.820  -2.616  1.00 20.00     0.005 A 
HETATM    6  C6  UNL     1     -34.911  16.353  -3.008  1.00 20.00    -0.035 A 
HETATM    7  C7  UNL     1     -35.490  14.922  -4.873  1.00 20.00    -0.047 C 
HETATM    8  C8  UNL     1     -35.200  15.759  -6.131  1.00 20.00     0.015 C 
HETATM    9  C9  UNL     1     -36.410  13.756  -5.244  1.00 20.00     0.015 C 
ENDROOT
BRANCH   5  10
HETATM   10  C10 UNL     1     -33.628  18.623  -2.636  1.00 20.00     0.090 C 
HETATM   11 BR11 UNL     1     -32.706  18.489  -0.921  1.00 20.00    -0.096 Br
ENDBRANCH   5  10
TORSDOF 1
ENDMDL
MODEL 5
REMARK VINA RESULT:      -4.2     11.246     12.140
REMARK  1 active torsions:
REMARK  status: ('A' for Active; 'I' for Inactive)
REMARK    1  A    between atoms: C5_5  and  C10_10 
ROOT
HETATM    1  C1  UNL     1     -35.649  16.570  -5.089  1.00 20.00     0.011 C 
HETATM    2  C2  UNL     1     -35.525  15.752  -6.376  1.00 20.00     0.009 C 
HETATM    3  C3  UNL     1     -33.612  16.934  -3.489  1.00 20.00     0.016 A 
HETATM    4  C4  UNL     1     -34.055  14.710  -4.781  1.00 20.00     0.018 C 
HETATM    5  C5  UNL     1     -34.627  16.177  -2.683  1.00 20.00     0.005 A 
HETATM    6  C6  UNL     1     -34.577  16.003  -4.190  1.00 20.00    -0.035 A 
HETATM    7  C7  UNL     1     -35.055  14.363  -5.905  1.00 20.00    -0.047 C 
HETATM    8  C8  UNL     1     -36.229  13.534  -5.356  1.00 20.00     0.015 C 
HETATM    9  C9  UNL     1     -34.380  13.591  -7.042  1.00 20.00     0.015 C 
ENDROOT
BRANCH   5  10
HETATM   10  C10 UNL     1     -35.732  16.911  -2.005  1.00 20.00     0.090 C 
HETATM   11 BR11 UNL     1     -35.126  17.625  -0.293  1.00 20.00    -0.096 Br
ENDBRANCH   5  10
TORSDOF 1
ENDMDL
MODEL 6
REMARK VINA RESULT:      -4.1     11.237     12.274
REMARK  1 active torsions:
REMARK  status: ('A' for Active; 'I' for Inactive)
REMARK    1  A    between atoms: C5_5  and  C10_10 
ROOT
HETATM    1  C1  UNL     1     -34.398  17.982  -3.708  1.00 20.00     0.011 C 
HETATM    2  C2  UNL     1     -34.691  18.897  -2.517  1.00 20.00     0.009 C 
HETATM    3  C3  UNL     1     -35.437  15.588  -3.891  1.00 20.00     0.016 A 
HETATM    4  C4  UNL     1     -34.656  16.657  -1.641  1.00 20.00     0.018 C 
HETATM    5  C5  UNL     1     -33.952  15.379  -3.820  1.00 20.00     0.005 A 
HETATM    6  C6  UNL     1     -34.576  16.590  -3.151  1.00 20.00    -0.035 A 
HETATM    7  C7  UNL     1     -34.219  18.096  -1.289  1.00 20.00    -0.047 C 
HETATM    8  C8  UNL     1     -32.693  18.179  -1.123  1.00 20.00     0.015 C 
HETATM    9  C9  UNL     1     -34.894  18.594  -0.009  1.00 20.00     0.015 C 
ENDROOT
BRANCH   5  10
HETATM   10  C10 UNL     1     -33.128  15.492  -5.057  1.00 20.00     0.090 C 
HETATM   11 BR11 UNL     1     -34.129  14.848  -6.603  1.00 20.00    -0.096 Br
ENDBRANCH   5  10
TORSDOF 1
ENDMDL
MODEL 7
REMARK VINA RESULT:      -4.1     11.148     12.106
REMARK  1 active torsions:
REMARK  status: ('A' for Active; 'I' for Inactive)
REMARK    1  A    between atoms: C5_5  and  C10_10 
ROOT
HETATM    1  C1  UNL     1     -35.161  17.574  -4.026  1.00 20.00     0.011 C 
HETATM    2  C2  UNL     1     -35.025  16.783  -5.328  1.00 20.00     0.009 C 
HETATM    3  C3  UNL     1     -33.483  17.258  -2.044  1.00 20.00     0.016 A 
HETATM    4  C4  UNL     1     -34.295  15.306  -3.575  1.00 20.00     0.018 C 
HETATM    5  C5  UNL     1     -34.821  16.836  -1.510  1.00 20.00     0.005 A 
HETATM    6  C6  UNL     1     -34.516  16.685  -2.990  1.00 20.00    -0.035 A 
HETATM    7  C7  UNL     1     -35.099  15.307  -4.893  1.00 20.00    -0.047 C 
HETATM    8  C8  UNL     1     -36.553  14.872  -4.647  1.00 20.00     0.015 C 
HETATM    9  C9  UNL     1     -34.467  14.388  -5.940  1.00 20.00     0.015 C 
ENDROOT
BRANCH   5  10
HETATM   10  C10 UNL     1     -35.771  17.863  -0.996  1.00 20.00     0.090 C 
HETATM   11 BR11 UNL     1     -35.891  17.767   0.949  1.00 20.00    -0.096 Br
ENDBRANCH   5  10
TORSDOF 1
ENDMDL
MODEL 8
REMARK VINA RESULT:      -4.0      1.094      1.708
REMARK  1 active torsions:
REMARK  status: ('A' for Active; 'I' for Inactive)
REMARK    1  A    between atoms: C5_5  and  C10_10 
ROOT
HETATM    1  C1  UNL     1     -34.534   7.492   2.898  1.00 20.00     0.011 C 
HETATM    2  C2  UNL     1     -35.231   6.287   3.533  1.00 20.00     0.009 C 
HETATM    3  C3  UNL     1     -32.320   7.236   1.528  1.00 20.00     0.016 A 
HETATM    4  C4  UNL     1     -32.872   5.832   3.658  1.00 20.00     0.018 C 
HETATM    5  C5  UNL     1     -31.969   8.102   2.703  1.00 20.00     0.005 A 
HETATM    6  C6  UNL     1     -33.084   7.079   2.825  1.00 20.00    -0.035 A 
HETATM    7  C7  UNL     1     -34.173   5.682   4.475  1.00 20.00    -0.047 C 
HETATM    8  C8  UNL     1     -34.086   6.469   5.793  1.00 20.00     0.015 C 
HETATM    9  C9  UNL     1     -34.480   4.214   4.783  1.00 20.00     0.015 C 
ENDROOT
BRANCH   5  10
HETATM   10  C10 UNL     1     -32.239   9.567   2.650  1.00 20.00     0.090 C 
HETATM   11 BR11 UNL     1     -32.584  10.131   0.814  1.00 20.00    -0.096 Br
ENDBRANCH   5  10
TORSDOF 1
ENDMDL
MODEL 9
REMARK VINA RESULT:      -3.7     11.341     12.552
REMARK  1 active torsions:
REMARK  status: ('A' for Active; 'I' for Inactive)
REMARK    1  A    between atoms: C5_5  and  C10_10 
ROOT
HETATM    1  C1  UNL     1     -36.043  16.606  -5.615  1.00 20.00     0.011 C 
HETATM    2  C2  UNL     1     -35.582  17.347  -4.359  1.00 20.00     0.009 C 
HETATM    3  C3  UNL     1     -37.636  14.535  -5.482  1.00 20.00     0.016 A 
HETATM    4  C4  UNL     1     -35.761  15.031  -3.735  1.00 20.00     0.018 C 
HETATM    5  C5  UNL     1     -36.358  14.022  -6.082  1.00 20.00     0.005 A 
HETATM    6  C6  UNL     1     -36.325  15.204  -5.129  1.00 20.00    -0.035 A 
HETATM    7  C7  UNL     1     -34.870  16.273  -3.516  1.00 20.00    -0.047 C 
HETATM    8  C8  UNL     1     -33.442  16.018  -4.028  1.00 20.00     0.015 C 
HETATM    9  C9  UNL     1     -34.813  16.673  -2.040  1.00 20.00     0.015 C 
ENDROOT
BRANCH   5  10
HETATM   10  C10 UNL     1     -36.112  14.174  -7.544  1.00 20.00     0.090 C 
HETATM   11 BR11 UNL     1     -34.197  14.162  -7.917  1.00 20.00    -0.096 Br
ENDBRANCH   5  10
TORSDOF 1
ENDMDL
