MODEL 1
REMARK VINA RESULT:      -4.6      0.000      0.000
REMARK  1 active torsions:
REMARK  status: ('A' for Active; 'I' for Inactive)
REMARK    1  A    between atoms: C6_6  and  C11_11 
ROOT
HETATM    1  C1  UNL     1     -33.305  14.518  -4.509  1.00 20.00     0.002 C 
HETATM    2  C2  UNL     1     -34.789  14.252  -4.264  1.00 20.00     0.010 C 
HETATM    3  C3  UNL     1     -33.040  15.670  -5.485  1.00 20.00     0.009 C 
HETATM    4  C4  UNL     1     -36.953  15.617  -3.873  1.00 20.00     0.016 A 
HETATM    5  C5  UNL     1     -35.526  15.924  -6.018  1.00 20.00     0.018 C 
HETATM    6  C6  UNL     1     -35.831  16.547  -3.507  1.00 20.00     0.005 A 
HETATM    7  C7  UNL     1     -35.615  15.476  -4.567  1.00 20.00    -0.035 A 
HETATM    8  C8  UNL     1     -34.094  15.794  -6.609  1.00 20.00    -0.047 C 
HETATM    9  C9  UNL     1     -33.775  17.049  -7.445  1.00 20.00     0.015 C 
HETATM   10  C10 UNL     1     -34.012  14.574  -7.549  1.00 20.00     0.015 C 
ENDROOT
BRANCH   6  11
HETATM   11  C11 UNL     1     -35.216  16.483  -2.151  1.00 20.00     0.090 C 
HETATM   12 BR12 UNL     1     -33.552  17.501  -2.107  1.00 20.00    -0.096 Br
ENDBRANCH   6  11
TORSDOF 1
ENDMDL
MODEL 2
REMARK VINA RESULT:      -4.4     10.258     11.500
REMARK  1 active torsions:
REMARK  status: ('A' for Active; 'I' for Inactive)
REMARK    1  A    between atoms: C6_6  and  C11_11 
ROOT
HETATM    1  C1  UNL     1     -31.133   8.017   3.463  1.00 20.00     0.002 C 
HETATM    2  C2  UNL     1     -31.867   6.737   3.065  1.00 20.00     0.010 C 
HETATM    3  C3  UNL     1     -31.769   9.291   2.894  1.00 20.00     0.009 C 
HETATM    4  C4  UNL     1     -34.308   5.905   2.840  1.00 20.00     0.016 A 
HETATM    5  C5  UNL     1     -33.446   7.955   1.504  1.00 20.00     0.018 C 
HETATM    6  C6  UNL     1     -34.378   7.080   3.774  1.00 20.00     0.005 A 
HETATM    7  C7  UNL     1     -33.300   7.027   2.700  1.00 20.00    -0.035 A 
HETATM    8  C8  UNL     1     -32.401   9.106   1.496  1.00 20.00    -0.047 C 
HETATM    9  C9  UNL     1     -33.097  10.421   1.094  1.00 20.00     0.015 C 
HETATM   10  C10 UNL     1     -31.302   8.822   0.452  1.00 20.00     0.015 C 
ENDROOT
BRANCH   6  11
HETATM   11  C11 UNL     1     -34.088   6.903   5.225  1.00 20.00     0.090 C 
HETATM   12 BR12 UNL     1     -34.508   5.082   5.788  1.00 20.00    -0.096 Br
ENDBRANCH   6  11
TORSDOF 1
ENDMDL
MODEL 3
REMARK VINA RESULT:      -4.3      2.193      4.236
REMARK  1 active torsions:
REMARK  status: ('A' for Active; 'I' for Inactive)
REMARK    1  A    between atoms: C6_6  and  C11_11 
ROOT
HETATM    1  C1  UNL     1     -33.313  14.479  -4.413  1.00 20.00     0.002 C 
HETATM    2  C2  UNL     1     -32.813  15.595  -5.329  1.00 20.00     0.010 C 
HETATM    3  C3  UNL     1     -34.736  14.706  -3.890  1.00 20.00     0.009 C 
HETATM    4  C4  UNL     1     -33.724  17.057  -7.261  1.00 20.00     0.016 A 
HETATM    5  C5  UNL     1     -34.853  17.039  -4.925  1.00 20.00     0.018 C 
HETATM    6  C6  UNL     1     -34.616  15.848  -7.229  1.00 20.00     0.005 A 
HETATM    7  C7  UNL     1     -33.965  16.345  -5.946  1.00 20.00    -0.035 A 
HETATM    8  C8  UNL     1     -35.083  16.191  -3.642  1.00 20.00    -0.047 C 
HETATM    9  C9  UNL     1     -36.566  16.287  -3.230  1.00 20.00     0.015 C 
HETATM   10  C10 UNL     1     -34.239  16.745  -2.476  1.00 20.00     0.015 C 
ENDROOT
BRANCH   6  11
HETATM   11  C11 UNL     1     -34.200  14.593  -7.916  1.00 20.00     0.090 C 
HETATM   12 BR12 UNL     1     -35.296  13.093  -7.319  1.00 20.00    -0.096 Br
ENDBRANCH   6  11
TORSDOF 1
ENDMDL
MODEL 4
REMARK VINA RESULT:      -4.3      2.211      4.504
REMARK  1 active torsions:
REMARK  status: ('A' for Active; 'I' for Inactive)
REMARK    1  A    between atoms: C6_6  and  C11_11 
ROOT
HETATM    1  C1  UNL     1     -36.283  16.884  -3.991  1.00 20.00     0.002 C 
HETATM    2  C2  UNL     1     -35.589  15.524  -4.024  1.00 20.00     0.010 C 
HETATM    3  C3  UNL     1     -35.421  17.999  -3.387  1.00 20.00     0.009 C 
HETATM    4  C4  UNL     1     -33.247  14.568  -4.575  1.00 20.00     0.016 A 
HETATM    5  C5  UNL     1     -33.580  16.357  -2.725  1.00 20.00     0.018 C 
HETATM    6  C6  UNL     1     -33.303  15.897  -5.275  1.00 20.00     0.005 A 
HETATM    7  C7  UNL     1     -34.090  15.681  -3.989  1.00 20.00    -0.035 A 
HETATM    8  C8  UNL     1     -34.489  17.525  -2.250  1.00 20.00    -0.047 C 
HETATM    9  C9  UNL     1     -33.605  18.710  -1.813  1.00 20.00     0.015 C 
HETATM   10  C10 UNL     1     -35.323  17.089  -1.028  1.00 20.00     0.015 C 
ENDROOT
BRANCH   6  11
HETATM   11  C11 UNL     1     -33.950  16.013  -6.612  1.00 20.00     0.090 C 
HETATM   12 BR12 UNL     1     -34.195  14.248  -7.407  1.00 20.00    -0.096 Br
ENDBRANCH   6  11
TORSDOF 1
ENDMDL
MODEL 5
REMARK VINA RESULT:      -4.2      1.830      3.372
REMARK  1 active torsions:
REMARK  status: ('A' for Active; 'I' for Inactive)
REMARK    1  A    between atoms: C6_6  and  C11_11 
ROOT
HETATM    1  C1  UNL     1     -35.839  17.759  -4.482  1.00 20.00     0.002 C 
HETATM    2  C2  UNL     1     -34.601  18.200  -3.704  1.00 20.00     0.010 C 
HETATM    3  C3  UNL     1     -36.005  16.237  -4.562  1.00 20.00     0.009 C 
HETATM    4  C4  UNL     1     -33.354  17.544  -1.532  1.00 20.00     0.016 A 
HETATM    5  C5  UNL     1     -33.745  15.831  -3.441  1.00 20.00     0.018 C 
HETATM    6  C6  UNL     1     -34.752  17.022  -1.355  1.00 20.00     0.005 A 
HETATM    7  C7  UNL     1     -34.150  17.124  -2.750  1.00 20.00    -0.035 A 
HETATM    8  C8  UNL     1     -34.669  15.464  -4.637  1.00 20.00    -0.047 C 
HETATM    9  C9  UNL     1     -34.972  13.953  -4.598  1.00 20.00     0.015 C 
HETATM   10  C10 UNL     1     -33.958  15.763  -5.973  1.00 20.00     0.015 C 
ENDROOT
BRANCH   6  11
HETATM   11  C11 UNL     1     -35.833  17.926  -0.870  1.00 20.00     0.090 C 
HETATM   12 BR12 UNL     1     -35.950  17.867   1.077  1.00 20.00    -0.096 Br
ENDBRANCH   6  11
TORSDOF 1
ENDMDL
MODEL 6
REMARK VINA RESULT:      -4.1      1.346      2.194
REMARK  1 active torsions:
REMARK  status: ('A' for Active; 'I' for Inactive)
REMARK    1  A    between atoms: C6_6  and  C11_11 
ROOT
HETATM    1  C1  UNL     1     -33.294  15.499  -5.096  1.00 20.00     0.002 C 
HETATM    2  C2  UNL     1     -33.666  15.393  -3.618  1.00 20.00     0.010 C 
HETATM    3  C3  UNL     1     -34.488  15.806  -6.008  1.00 20.00     0.009 C 
HETATM    4  C4  UNL     1     -35.169  16.634  -1.914  1.00 20.00     0.016 A 
HETATM    5  C5  UNL     1     -36.148  15.592  -4.078  1.00 20.00     0.018 C 
HETATM    6  C6  UNL     1     -34.919  17.628  -3.014  1.00 20.00     0.005 A 
HETATM    7  C7  UNL     1     -34.944  16.137  -3.327  1.00 20.00    -0.035 A 
HETATM    8  C8  UNL     1     -35.816  15.172  -5.538  1.00 20.00    -0.047 C 
HETATM    9  C9  UNL     1     -36.945  15.648  -6.473  1.00 20.00     0.015 C 
HETATM   10  C10 UNL     1     -35.737  13.635  -5.647  1.00 20.00     0.015 C 
ENDROOT
BRANCH   6  11
HETATM   11  C11 UNL     1     -33.669  18.438  -3.022  1.00 20.00     0.090 C 
HETATM   12 BR12 UNL     1     -32.887  18.506  -1.236  1.00 20.00    -0.096 Br
ENDBRANCH   6  11
TORSDOF 1
ENDMDL
MODEL 7
REMARK VINA RESULT:      -4.0      1.522      3.011
REMARK  1 active torsions:
REMARK  status: ('A' for Active; 'I' for Inactive)
REMARK    1  A    between atoms: C6_6  and  C11_11 
ROOT
HETATM    1  C1  UNL     1     -35.207  16.948  -6.382  1.00 20.00     0.002 C 
HETATM    2  C2  UNL     1     -34.026  16.005  -6.157  1.00 20.00     0.010 C 
HETATM    3  C3  UNL     1     -36.547  16.380  -5.898  1.00 20.00     0.009 C 
HETATM    4  C4  UNL     1     -33.149  14.423  -4.305  1.00 20.00     0.016 A 
HETATM    5  C5  UNL     1     -35.504  14.113  -5.349  1.00 20.00     0.018 C 
HETATM    6  C6  UNL     1     -34.057  15.389  -3.598  1.00 20.00     0.005 A 
HETATM    7  C7  UNL     1     -34.322  15.023  -5.052  1.00 20.00    -0.035 A 
HETATM    8  C8  UNL     1     -36.674  14.849  -6.060  1.00 20.00    -0.047 C 
HETATM    9  C9  UNL     1     -38.010  14.399  -5.436  1.00 20.00     0.015 C 
HETATM   10  C10 UNL     1     -36.710  14.476  -7.556  1.00 20.00     0.015 C 
ENDROOT
BRANCH   6  11
HETATM   11  C11 UNL     1     -33.548  16.725  -3.177  1.00 20.00     0.090 C 
HETATM   12 BR12 UNL     1     -34.332  17.247  -1.468  1.00 20.00    -0.096 Br
ENDBRANCH   6  11
TORSDOF 1
ENDMDL
MODEL 8
REMARK VINA RESULT:      -4.0      1.864      3.055
REMARK  1 active torsions:
REMARK  status: ('A' for Active; 'I' for Inactive)
REMARK    1  A    between atoms: C6_6  and  C11_11 
ROOT
HETATM    1  C1  UNL     1     -35.203  17.404  -5.585  1.00 20.00     0.002 C 
HETATM    2  C2  UNL     1     -34.115  17.496  -4.516  1.00 20.00     0.010 C 
HETATM    3  C3  UNL     1     -35.971  16.077  -5.567  1.00 20.00     0.009 C 
HETATM    4  C4  UNL     1     -33.811  16.887  -2.019  1.00 20.00     0.016 A 
HETATM    5  C5  UNL     1     -34.427  15.091  -3.786  1.00 20.00     0.018 C 
HETATM    6  C6  UNL     1     -35.297  16.983  -2.221  1.00 20.00     0.005 A 
HETATM    7  C7  UNL     1     -34.399  16.555  -3.374  1.00 20.00    -0.035 A 
HETATM    8  C8  UNL     1     -35.110  14.860  -5.164  1.00 20.00    -0.047 C 
HETATM    9  C9  UNL     1     -36.023  13.620  -5.076  1.00 20.00     0.015 C 
HETATM   10  C10 UNL     1     -34.047  14.581  -6.247  1.00 20.00     0.015 C 
ENDROOT
BRANCH   6  11
HETATM   11  C11 UNL     1     -35.976  18.309  -2.171  1.00 20.00     0.090 C 
HETATM   12 BR12 UNL     1     -37.796  18.170  -2.859  1.00 20.00    -0.096 Br
ENDBRANCH   6  11
TORSDOF 1
ENDMDL
MODEL 9
REMARK VINA RESULT:      -3.9      2.416      4.167
REMARK  1 active torsions:
REMARK  status: ('A' for Active; 'I' for Inactive)
REMARK    1  A    between atoms: C6_6  and  C11_11 
ROOT
HETATM    1  C1  UNL     1     -33.376  15.694  -4.394  1.00 20.00     0.002 C 
HETATM    2  C2  UNL     1     -33.624  16.920  -5.271  1.00 20.00     0.010 C 
HETATM    3  C3  UNL     1     -34.214  15.679  -3.110  1.00 20.00     0.009 C 
HETATM    4  C4  UNL     1     -35.634  18.335  -6.083  1.00 20.00     0.016 A 
HETATM    5  C5  UNL     1     -35.128  18.022  -3.558  1.00 20.00     0.018 C 
HETATM    6  C6  UNL     1     -36.220  17.007  -5.695  1.00 20.00     0.005 A 
HETATM    7  C7  UNL     1     -34.975  17.524  -4.987  1.00 20.00    -0.035 A 
HETATM    8  C8  UNL     1     -34.469  17.080  -2.512  1.00 20.00    -0.047 C 
HETATM    9  C9  UNL     1     -35.409  16.932  -1.299  1.00 20.00     0.015 C 
HETATM   10  C10 UNL     1     -33.145  17.688  -2.004  1.00 20.00     0.015 C 
ENDROOT
BRANCH   6  11
HETATM   11  C11 UNL     1     -36.194  15.867  -6.653  1.00 20.00     0.090 C 
HETATM   12 BR12 UNL     1     -36.702  14.210  -5.757  1.00 20.00    -0.096 Br
ENDBRANCH   6  11
TORSDOF 1
ENDMDL
