MODEL 1
REMARK VINA RESULT:      -6.3      0.000      0.000
REMARK  2 active torsions:
REMARK  status: ('A' for Active; 'I' for Inactive)
REMARK    1  A    between atoms: C5_5  and  C6_6 
REMARK    2  A    between atoms: C7_7  and  C8_8 
ROOT
HETATM    1  C4  UNL     1     -31.593   8.138   3.495  1.00 20.00     0.011 A 
HETATM    2  C6  UNL     1     -32.595   7.196   2.896  1.00 20.00    -0.005 A 
HETATM    3  C7  UNL     1     -32.408   8.561   2.301  1.00 20.00     0.000 A 
ENDROOT
BRANCH   2   4
HETATM    4  C5  UNL     1     -33.864   6.785   3.613  1.00 20.00    -0.010 C 
HETATM    5  C2  UNL     1     -33.851   6.884   5.162  1.00 20.00     0.005 C 
HETATM    6  C1  UNL     1     -34.704   5.598   5.177  1.00 20.00     0.001 C 
HETATM    7  C3  UNL     1     -34.096   5.262   3.799  1.00 20.00     0.005 C 
ENDBRANCH   2   4
BRANCH   3   8
HETATM    8  C8  UNL     1     -31.762   8.708   0.967  1.00 20.00     0.090 C 
HETATM    9 BR9  UNL     1     -33.004   9.509  -0.308  1.00 20.00    -0.096 Br
ENDBRANCH   3   8
TORSDOF 2
ENDMDL
MODEL 2
REMARK VINA RESULT:      -5.4      1.035      1.317
REMARK  2 active torsions:
REMARK  status: ('A' for Active; 'I' for Inactive)
REMARK    1  A    between atoms: C5_5  and  C6_6 
REMARK    2  A    between atoms: C7_7  and  C8_8 
ROOT
HETATM    1  C4  UNL     1     -32.487   6.338   2.547  1.00 20.00     0.011 A 
HETATM    2  C6  UNL     1     -33.550   7.248   3.088  1.00 20.00    -0.005 A 
HETATM    3  C7  UNL     1     -32.102   7.580   3.307  1.00 20.00     0.000 A 
ENDROOT
BRANCH   2   4
HETATM    4  C5  UNL     1     -34.475   6.845   4.218  1.00 20.00    -0.010 C 
HETATM    5  C2  UNL     1     -33.881   6.884   5.651  1.00 20.00     0.005 C 
HETATM    6  C1  UNL     1     -34.718   5.624   5.952  1.00 20.00     0.001 C 
HETATM    7  C3  UNL     1     -34.681   5.324   4.439  1.00 20.00     0.005 C 
ENDBRANCH   2   4
BRANCH   3   8
HETATM    8  C8  UNL     1     -31.489   8.735   2.595  1.00 20.00     0.090 C 
HETATM    9 BR9  UNL     1     -32.732   9.466   1.279  1.00 20.00    -0.096 Br
ENDBRANCH   3   8
TORSDOF 2
ENDMDL
MODEL 3
REMARK VINA RESULT:      -5.4      2.605      4.589
REMARK  2 active torsions:
REMARK  status: ('A' for Active; 'I' for Inactive)
REMARK    1  A    between atoms: C5_5  and  C6_6 
REMARK    2  A    between atoms: C7_7  and  C8_8 
ROOT
HETATM    1  C4  UNL     1     -32.898   6.507   2.755  1.00 20.00     0.011 A 
HETATM    2  C6  UNL     1     -32.173   7.754   3.172  1.00 20.00    -0.005 A 
HETATM    3  C7  UNL     1     -33.532   7.457   3.737  1.00 20.00     0.000 A 
ENDROOT
BRANCH   2   4
HETATM    4  C5  UNL     1     -31.917   8.908   2.226  1.00 20.00    -0.010 C 
HETATM    5  C2  UNL     1     -33.164   9.569   1.581  1.00 20.00     0.005 C 
HETATM    6  C1  UNL     1     -32.320   9.735   0.299  1.00 20.00     0.001 C 
HETATM    7  C3  UNL     1     -31.475   8.540   0.785  1.00 20.00     0.005 C 
ENDBRANCH   2   4
BRANCH   3   8
HETATM    8  C8  UNL     1     -33.674   7.072   5.169  1.00 20.00     0.090 C 
HETATM    9 BR9  UNL     1     -34.650   5.390   5.331  1.00 20.00    -0.096 Br
ENDBRANCH   3   8
TORSDOF 2
ENDMDL
MODEL 4
REMARK VINA RESULT:      -5.0      2.430      4.340
REMARK  2 active torsions:
REMARK  status: ('A' for Active; 'I' for Inactive)
REMARK    1  A    between atoms: C5_5  and  C6_6 
REMARK    2  A    between atoms: C7_7  and  C8_8 
ROOT
HETATM    1  C4  UNL     1     -33.127   5.131   2.688  1.00 20.00     0.011 A 
HETATM    2  C6  UNL     1     -32.700   6.516   3.076  1.00 20.00    -0.005 A 
HETATM    3  C7  UNL     1     -34.138   6.111   3.222  1.00 20.00     0.000 A 
ENDROOT
BRANCH   2   4
HETATM    4  C5  UNL     1     -32.241   7.545   2.064  1.00 20.00    -0.010 C 
HETATM    5  C2  UNL     1     -31.551   8.816   2.627  1.00 20.00     0.005 C 
HETATM    6  C1  UNL     1     -32.260   9.606   1.507  1.00 20.00     0.001 C 
HETATM    7  C3  UNL     1     -33.328   8.493   1.494  1.00 20.00     0.005 C 
ENDBRANCH   2   4
BRANCH   3   8
HETATM    8  C8  UNL     1     -34.722   5.921   4.579  1.00 20.00     0.090 C 
HETATM    9 BR9  UNL     1     -33.863   7.111   5.866  1.00 20.00    -0.096 Br
ENDBRANCH   3   8
TORSDOF 2
ENDMDL
MODEL 5
REMARK VINA RESULT:      -4.0     10.292     11.183
REMARK  2 active torsions:
REMARK  status: ('A' for Active; 'I' for Inactive)
REMARK    1  A    between atoms: C5_5  and  C6_6 
REMARK    2  A    between atoms: C7_7  and  C8_8 
ROOT
HETATM    1  C4  UNL     1     -33.438  16.382  -4.552  1.00 20.00     0.011 A 
HETATM    2  C6  UNL     1     -33.663  16.252  -3.074  1.00 20.00    -0.005 A 
HETATM    3  C7  UNL     1     -34.612  15.593  -4.033  1.00 20.00     0.000 A 
ENDROOT
BRANCH   2   4
HETATM    4  C5  UNL     1     -34.067  17.422  -2.201  1.00 20.00    -0.010 C 
HETATM    5  C2  UNL     1     -33.011  17.924  -1.181  1.00 20.00     0.005 C 
HETATM    6  C1  UNL     1     -34.182  18.182  -0.210  1.00 20.00     0.001 C 
HETATM    7  C3  UNL     1     -34.967  17.100  -0.980  1.00 20.00     0.005 C 
ENDBRANCH   2   4
BRANCH   3   8
HETATM    8  C8  UNL     1     -34.631  14.108  -4.157  1.00 20.00     0.090 C 
HETATM    9 BR9  UNL     1     -36.014  13.545  -5.414  1.00 20.00    -0.096 Br
ENDBRANCH   3   8
TORSDOF 2
ENDMDL
MODEL 6
REMARK VINA RESULT:      -3.9     10.734     11.446
REMARK  2 active torsions:
REMARK  status: ('A' for Active; 'I' for Inactive)
REMARK    1  A    between atoms: C5_5  and  C6_6 
REMARK    2  A    between atoms: C7_7  and  C8_8 
ROOT
HETATM    1  C4  UNL     1     -34.370  14.464  -4.141  1.00 20.00     0.011 A 
HETATM    2  C6  UNL     1     -34.406  15.897  -3.696  1.00 20.00    -0.005 A 
HETATM    3  C7  UNL     1     -33.321  15.431  -4.623  1.00 20.00     0.000 A 
ENDROOT
BRANCH   2   4
HETATM    4  C5  UNL     1     -34.134  16.318  -2.267  1.00 20.00    -0.010 C 
HETATM    5  C2  UNL     1     -35.319  16.952  -1.491  1.00 20.00     0.005 C 
HETATM    6  C1  UNL     1     -34.287  17.888  -0.829  1.00 20.00     0.001 C 
HETATM    7  C3  UNL     1     -33.395  17.667  -2.068  1.00 20.00     0.005 C 
ENDBRANCH   2   4
BRANCH   3   8
HETATM    8  C8  UNL     1     -33.312  15.882  -6.043  1.00 20.00     0.090 C 
HETATM    9 BR9  UNL     1     -34.113  17.655  -6.202  1.00 20.00    -0.096 Br
ENDBRANCH   3   8
TORSDOF 2
ENDMDL
MODEL 7
REMARK VINA RESULT:      -3.8     10.739     11.460
REMARK  2 active torsions:
REMARK  status: ('A' for Active; 'I' for Inactive)
REMARK    1  A    between atoms: C5_5  and  C6_6 
REMARK    2  A    between atoms: C7_7  and  C8_8 
ROOT
HETATM    1  C4  UNL     1     -33.237  17.547  -1.773  1.00 20.00     0.011 A 
HETATM    2  C6  UNL     1     -34.033  16.949  -2.895  1.00 20.00    -0.005 A 
HETATM    3  C7  UNL     1     -34.545  16.858  -1.487  1.00 20.00     0.000 A 
ENDROOT
BRANCH   2   4
HETATM    4  C5  UNL     1     -33.567  15.736  -3.674  1.00 20.00    -0.010 C 
HETATM    5  C2  UNL     1     -33.313  15.939  -5.191  1.00 20.00     0.005 C 
HETATM    6  C1  UNL     1     -33.879  14.519  -5.400  1.00 20.00     0.001 C 
HETATM    7  C3  UNL     1     -34.657  14.711  -4.082  1.00 20.00     0.005 C 
ENDBRANCH   2   4
BRANCH   3   8
HETATM    8  C8  UNL     1     -35.737  17.652  -1.078  1.00 20.00     0.090 C 
HETATM    9 BR9  UNL     1     -35.830  17.794   0.866  1.00 20.00    -0.096 Br
ENDBRANCH   3   8
TORSDOF 2
ENDMDL
MODEL 8
REMARK VINA RESULT:      -3.8     10.855     11.415
REMARK  2 active torsions:
REMARK  status: ('A' for Active; 'I' for Inactive)
REMARK    1  A    between atoms: C5_5  and  C6_6 
REMARK    2  A    between atoms: C7_7  and  C8_8 
ROOT
HETATM    1  C4  UNL     1     -36.916  14.820  -4.571  1.00 20.00     0.011 A 
HETATM    2  C6  UNL     1     -35.483  15.262  -4.610  1.00 20.00    -0.005 A 
HETATM    3  C7  UNL     1     -35.846  13.871  -5.043  1.00 20.00     0.000 A 
ENDROOT
BRANCH   2   4
HETATM    4  C5  UNL     1     -34.678  15.543  -3.358  1.00 20.00    -0.010 C 
HETATM    5  C2  UNL     1     -35.334  16.476  -2.305  1.00 20.00     0.005 C 
HETATM    6  C1  UNL     1     -33.924  17.047  -2.043  1.00 20.00     0.001 C 
HETATM    7  C3  UNL     1     -33.558  16.609  -3.476  1.00 20.00     0.005 C 
ENDBRANCH   2   4
BRANCH   3   8
HETATM    8  C8  UNL     1     -35.759  13.495  -6.481  1.00 20.00     0.090 C 
HETATM    9 BR9  UNL     1     -34.255  14.398  -7.335  1.00 20.00    -0.096 Br
ENDBRANCH   3   8
TORSDOF 2
ENDMDL
MODEL 9
REMARK VINA RESULT:      -3.8      2.661      4.623
REMARK  2 active torsions:
REMARK  status: ('A' for Active; 'I' for Inactive)
REMARK    1  A    between atoms: C5_5  and  C6_6 
REMARK    2  A    between atoms: C7_7  and  C8_8 
ROOT
HETATM    1  C4  UNL     1     -35.375   6.266   3.498  1.00 20.00     0.011 A 
HETATM    2  C6  UNL     1     -33.884   6.437   3.527  1.00 20.00    -0.005 A 
HETATM    3  C7  UNL     1     -34.625   6.139   4.798  1.00 20.00     0.000 A 
ENDROOT
BRANCH   2   4
HETATM    4  C5  UNL     1     -33.207   7.766   3.268  1.00 20.00    -0.010 C 
HETATM    5  C2  UNL     1     -32.752   8.044   1.811  1.00 20.00     0.005 C 
HETATM    6  C1  UNL     1     -31.519   8.751   2.410  1.00 20.00     0.001 C 
HETATM    7  C3  UNL     1     -31.711   7.873   3.663  1.00 20.00     0.005 C 
ENDBRANCH   2   4
BRANCH   3   8
HETATM    8  C8  UNL     1     -34.476   4.809   5.452  1.00 20.00     0.090 C 
HETATM    9 BR9  UNL     1     -33.627   3.541   4.235  1.00 20.00    -0.096 Br
ENDBRANCH   3   8
TORSDOF 2
ENDMDL
