MODEL 1
REMARK VINA RESULT:      -5.7      0.000      0.000
REMARK  1 active torsions:
REMARK  status: ('A' for Active; 'I' for Inactive)
REMARK    1  A    between atoms: C5_5  and  C10_10 
ROOT
HETATM    1  C1  UNL     1     -34.398   6.468   5.892  1.00 20.00     0.002 C 
HETATM    2  C2  UNL     1     -33.342   7.479   5.458  1.00 20.00     0.011 C 
HETATM    3  C3  UNL     1     -34.148   5.283   4.972  1.00 20.00     0.010 C 
HETATM    4  C4  UNL     1     -31.705   7.501   3.453  1.00 20.00     0.017 A 
HETATM    5  C5  UNL     1     -32.839   8.399   3.061  1.00 20.00     0.005 A 
HETATM    6  C6  UNL     1     -33.102   7.205   3.979  1.00 20.00    -0.029 A 
HETATM    7  C7  UNL     1     -33.869   5.928   3.586  1.00 20.00    -0.040 C 
HETATM    8  C8  UNL     1     -33.083   4.931   2.730  1.00 20.00     0.015 C 
HETATM    9  C9  UNL     1     -35.210   6.250   2.902  1.00 20.00     0.015 C 
ENDROOT
BRANCH   5  10
HETATM   10  C10 UNL     1     -33.220   8.486   1.625  1.00 20.00     0.090 C 
HETATM   11 BR11 UNL     1     -32.607  10.173   0.856  1.00 20.00    -0.096 Br
ENDBRANCH   5  10
TORSDOF 1
ENDMDL
MODEL 2
REMARK VINA RESULT:      -4.4     11.027     12.135
REMARK  1 active torsions:
REMARK  status: ('A' for Active; 'I' for Inactive)
REMARK    1  A    between atoms: C5_5  and  C10_10 
ROOT
HETATM    1  C1  UNL     1     -34.530  16.575  -2.215  1.00 20.00     0.002 C 
HETATM    2  C2  UNL     1     -35.854  16.289  -2.916  1.00 20.00     0.011 C 
HETATM    3  C3  UNL     1     -33.574  16.844  -3.367  1.00 20.00     0.010 C 
HETATM    4  C4  UNL     1     -36.436  15.942  -5.414  1.00 20.00     0.017 A 
HETATM    5  C5  UNL     1     -36.365  14.569  -4.820  1.00 20.00     0.005 A 
HETATM    6  C6  UNL     1     -35.477  15.682  -4.261  1.00 20.00    -0.029 A 
HETATM    7  C7  UNL     1     -33.949  15.777  -4.432  1.00 20.00    -0.040 C 
HETATM    8  C8  UNL     1     -33.474  16.264  -5.803  1.00 20.00     0.015 C 
HETATM    9  C9  UNL     1     -33.248  14.451  -4.084  1.00 20.00     0.015 C 
ENDROOT
BRANCH   5  10
HETATM   10  C10 UNL     1     -35.902  13.442  -5.675  1.00 20.00     0.090 C 
HETATM   11 BR11 UNL     1     -35.967  13.943  -7.561  1.00 20.00    -0.096 Br
ENDBRANCH   5  10
TORSDOF 1
ENDMDL
MODEL 3
REMARK VINA RESULT:      -4.3     11.328     12.155
REMARK  1 active torsions:
REMARK  status: ('A' for Active; 'I' for Inactive)
REMARK    1  A    between atoms: C5_5  and  C10_10 
ROOT
HETATM    1  C1  UNL     1     -34.527  17.419  -1.911  1.00 20.00     0.002 C 
HETATM    2  C2  UNL     1     -33.424  16.624  -2.601  1.00 20.00     0.011 C 
HETATM    3  C3  UNL     1     -35.796  16.692  -2.327  1.00 20.00     0.010 C 
HETATM    4  C4  UNL     1     -33.515  14.724  -4.357  1.00 20.00     0.017 A 
HETATM    5  C5  UNL     1     -33.201  15.972  -5.124  1.00 20.00     0.005 A 
HETATM    6  C6  UNL     1     -34.060  16.056  -3.862  1.00 20.00    -0.029 A 
HETATM    7  C7  UNL     1     -35.571  16.359  -3.828  1.00 20.00    -0.040 C 
HETATM    8  C8  UNL     1     -36.480  15.188  -4.212  1.00 20.00     0.015 C 
HETATM    9  C9  UNL     1     -35.930  17.591  -4.677  1.00 20.00     0.015 C 
ENDROOT
BRANCH   5  10
HETATM   10  C10 UNL     1     -33.702  16.099  -6.520  1.00 20.00     0.090 C 
HETATM   11 BR11 UNL     1     -34.230  14.353  -7.219  1.00 20.00    -0.096 Br
ENDBRANCH   5  10
TORSDOF 1
ENDMDL
MODEL 4
REMARK VINA RESULT:      -4.3     11.013     12.440
REMARK  1 active torsions:
REMARK  status: ('A' for Active; 'I' for Inactive)
REMARK    1  A    between atoms: C5_5  and  C10_10 
ROOT
HETATM    1  C1  UNL     1     -36.654  14.066  -6.227  1.00 20.00     0.002 C 
HETATM    2  C2  UNL     1     -35.718  13.664  -5.092  1.00 20.00     0.011 C 
HETATM    3  C3  UNL     1     -35.781  14.948  -7.106  1.00 20.00     0.010 C 
HETATM    4  C4  UNL     1     -33.340  14.467  -4.460  1.00 20.00     0.017 A 
HETATM    5  C5  UNL     1     -34.272  15.192  -3.537  1.00 20.00     0.005 A 
HETATM    6  C6  UNL     1     -34.738  14.821  -4.945  1.00 20.00    -0.029 A 
HETATM    7  C7  UNL     1     -34.975  15.814  -6.099  1.00 20.00    -0.040 C 
HETATM    8  C8  UNL     1     -33.709  16.323  -6.793  1.00 20.00     0.015 C 
HETATM    9  C9  UNL     1     -35.839  17.009  -5.660  1.00 20.00     0.015 C 
ENDROOT
BRANCH   5  10
HETATM   10  C10 UNL     1     -33.907  16.560  -3.081  1.00 20.00     0.090 C 
HETATM   11 BR11 UNL     1     -34.964  17.064  -1.518  1.00 20.00    -0.096 Br
ENDBRANCH   5  10
TORSDOF 1
ENDMDL
MODEL 5
REMARK VINA RESULT:      -4.0      1.139      2.427
REMARK  1 active torsions:
REMARK  status: ('A' for Active; 'I' for Inactive)
REMARK    1  A    between atoms: C5_5  and  C10_10 
ROOT
HETATM    1  C1  UNL     1     -33.669   3.750   4.615  1.00 20.00     0.002 C 
HETATM    2  C2  UNL     1     -33.009   4.236   3.328  1.00 20.00     0.011 C 
HETATM    3  C3  UNL     1     -34.980   4.520   4.648  1.00 20.00     0.010 C 
HETATM    4  C4  UNL     1     -33.633   6.139   1.689  1.00 20.00     0.017 A 
HETATM    5  C5  UNL     1     -32.537   6.688   2.550  1.00 20.00     0.005 A 
HETATM    6  C6  UNL     1     -33.510   5.660   3.128  1.00 20.00    -0.029 A 
HETATM    7  C7  UNL     1     -34.596   5.951   4.182  1.00 20.00    -0.040 C 
HETATM    8  C8  UNL     1     -35.851   6.648   3.650  1.00 20.00     0.015 C 
HETATM    9  C9  UNL     1     -34.038   6.737   5.381  1.00 20.00     0.015 C 
ENDROOT
BRANCH   5  10
HETATM   10  C10 UNL     1     -32.532   8.143   2.862  1.00 20.00     0.090 C 
HETATM   11 BR11 UNL     1     -32.254   9.190   1.236  1.00 20.00    -0.096 Br
ENDBRANCH   5  10
TORSDOF 1
ENDMDL
MODEL 6
REMARK VINA RESULT:      -4.0     11.001     12.615
REMARK  1 active torsions:
REMARK  status: ('A' for Active; 'I' for Inactive)
REMARK    1  A    between atoms: C5_5  and  C10_10 
ROOT
HETATM    1  C1  UNL     1     -33.707  15.656  -7.235  1.00 20.00     0.002 C 
HETATM    2  C2  UNL     1     -34.668  16.674  -6.630  1.00 20.00     0.011 C 
HETATM    3  C3  UNL     1     -34.309  14.320  -6.829  1.00 20.00     0.010 C 
HETATM    4  C4  UNL     1     -36.656  16.400  -4.995  1.00 20.00     0.017 A 
HETATM    5  C5  UNL     1     -35.506  16.874  -4.160  1.00 20.00     0.005 A 
HETATM    6  C6  UNL     1     -35.240  16.003  -5.388  1.00 20.00    -0.029 A 
HETATM    7  C7  UNL     1     -34.765  14.538  -5.360  1.00 20.00    -0.040 C 
HETATM    8  C8  UNL     1     -35.846  13.507  -5.023  1.00 20.00     0.015 C 
HETATM    9  C9  UNL     1     -33.558  14.343  -4.424  1.00 20.00     0.015 C 
ENDROOT
BRANCH   5  10
HETATM   10  C10 UNL     1     -35.415  16.422  -2.745  1.00 20.00     0.090 C 
HETATM   11 BR11 UNL     1     -33.873  17.236  -1.865  1.00 20.00    -0.096 Br
ENDBRANCH   5  10
TORSDOF 1
ENDMDL
MODEL 7
REMARK VINA RESULT:      -4.0     10.792     12.179
REMARK  1 active torsions:
REMARK  status: ('A' for Active; 'I' for Inactive)
REMARK    1  A    between atoms: C5_5  and  C10_10 
ROOT
HETATM    1  C1  UNL     1     -35.463  13.846  -5.037  1.00 20.00     0.002 C 
HETATM    2  C2  UNL     1     -34.521  14.361  -3.954  1.00 20.00     0.011 C 
HETATM    3  C3  UNL     1     -35.744  15.084  -5.874  1.00 20.00     0.010 C 
HETATM    4  C4  UNL     1     -33.774  16.758  -3.322  1.00 20.00     0.017 A 
HETATM    5  C5  UNL     1     -34.837  16.390  -2.332  1.00 20.00     0.005 A 
HETATM    6  C6  UNL     1     -34.896  15.823  -3.751  1.00 20.00    -0.029 A 
HETATM    7  C7  UNL     1     -35.922  16.220  -4.830  1.00 20.00    -0.040 C 
HETATM    8  C8  UNL     1     -35.662  17.564  -5.516  1.00 20.00     0.015 C 
HETATM    9  C9  UNL     1     -37.364  16.186  -4.292  1.00 20.00     0.015 C 
ENDROOT
BRANCH   5  10
HETATM   10  C10 UNL     1     -35.716  17.462  -1.793  1.00 20.00     0.090 C 
HETATM   11 BR11 UNL     1     -35.528  17.589   0.147  1.00 20.00    -0.096 Br
ENDBRANCH   5  10
TORSDOF 1
ENDMDL
MODEL 8
REMARK VINA RESULT:      -4.0     10.829     12.670
REMARK  1 active torsions:
REMARK  status: ('A' for Active; 'I' for Inactive)
REMARK    1  A    between atoms: C5_5  and  C10_10 
ROOT
HETATM    1  C1  UNL     1     -33.796  17.837  -3.339  1.00 20.00     0.002 C 
HETATM    2  C2  UNL     1     -33.500  17.754  -4.833  1.00 20.00     0.011 C 
HETATM    3  C3  UNL     1     -33.836  16.380  -2.908  1.00 20.00     0.010 C 
HETATM    4  C4  UNL     1     -33.419  15.742  -6.460  1.00 20.00     0.017 A 
HETATM    5  C5  UNL     1     -34.752  16.390  -6.681  1.00 20.00     0.005 A 
HETATM    6  C6  UNL     1     -34.109  16.437  -5.294  1.00 20.00    -0.029 A 
HETATM    7  C7  UNL     1     -34.599  15.662  -4.055  1.00 20.00    -0.040 C 
HETATM    8  C8  UNL     1     -34.237  14.174  -4.031  1.00 20.00     0.015 C 
HETATM    9  C9  UNL     1     -36.113  15.829  -3.834  1.00 20.00     0.015 C 
ENDROOT
BRANCH   5  10
HETATM   10  C10 UNL     1     -35.908  15.536  -7.069  1.00 20.00     0.090 C 
HETATM   11 BR11 UNL     1     -35.289  13.802  -7.719  1.00 20.00    -0.096 Br
ENDBRANCH   5  10
TORSDOF 1
ENDMDL
MODEL 9
REMARK VINA RESULT:      -4.0     11.152     12.182
REMARK  1 active torsions:
REMARK  status: ('A' for Active; 'I' for Inactive)
REMARK    1  A    between atoms: C5_5  and  C10_10 
ROOT
HETATM    1  C1  UNL     1     -36.885  14.387  -5.029  1.00 20.00     0.002 C 
HETATM    2  C2  UNL     1     -36.717  15.504  -4.003  1.00 20.00     0.011 C 
HETATM    3  C3  UNL     1     -35.548  13.665  -4.982  1.00 20.00     0.010 C 
HETATM    4  C4  UNL     1     -34.645  16.337  -2.694  1.00 20.00     0.017 A 
HETATM    5  C5  UNL     1     -34.823  17.300  -3.828  1.00 20.00     0.005 A 
HETATM    6  C6  UNL     1     -35.231  15.837  -4.007  1.00 20.00    -0.029 A 
HETATM    7  C7  UNL     1     -34.499  14.807  -4.888  1.00 20.00    -0.040 C 
HETATM    8  C8  UNL     1     -33.207  14.239  -4.293  1.00 20.00     0.015 C 
HETATM    9  C9  UNL     1     -34.220  15.352  -6.300  1.00 20.00     0.015 C 
ENDROOT
BRANCH   5  10
HETATM   10  C10 UNL     1     -33.617  17.939  -4.420  1.00 20.00     0.090 C 
HETATM   11 BR11 UNL     1     -34.125  19.158  -5.859  1.00 20.00    -0.096 Br
ENDBRANCH   5  10
TORSDOF 1
ENDMDL
