MODEL 1
REMARK VINA RESULT:      -4.3      0.000      0.000
REMARK  2 active torsions:
REMARK  status: ('A' for Active; 'I' for Inactive)
REMARK    1  A    between atoms: C3_3  and  C9_9 
REMARK    2  A    between atoms: C4_4  and  C10_10 
ROOT
HETATM    1  C1  UNL     1     -37.197  14.451  -4.758  1.00 20.00     0.131 C 
HETATM    2  C2  UNL     1     -36.696  15.610  -3.878  1.00 20.00     0.084 C 
HETATM    3  C3  UNL     1     -35.757  14.056  -5.160  1.00 20.00     0.060 C 
HETATM    4  C4  UNL     1     -35.277  14.986  -3.990  1.00 20.00     0.011 C 
HETATM    5  O11 UNL     1     -38.297  14.021  -5.032  1.00 20.00    -0.298 OA
ENDROOT
BRANCH   4   6
HETATM    6  C10 UNL     1     -34.146  15.966  -4.243  1.00 20.00    -0.047 C 
HETATM    7  C6  UNL     1     -34.602  17.056  -5.234  1.00 20.00     0.015 C 
HETATM    8  C7  UNL     1     -32.930  15.231  -4.836  1.00 20.00     0.015 C 
HETATM    9  C8  UNL     1     -33.725  16.640  -2.921  1.00 20.00     0.015 C 
ENDBRANCH   4   6
BRANCH   3  10
HETATM   10  C9  UNL     1     -35.391  14.397  -6.594  1.00 20.00     0.008 C 
HETATM   11  C5  UNL     1     -34.840  13.214  -7.328  1.00 20.00     0.006 C 
ENDBRANCH   3  10
TORSDOF 2
ENDMDL
MODEL 2
REMARK VINA RESULT:      -4.2     11.098     11.876
REMARK  2 active torsions:
REMARK  status: ('A' for Active; 'I' for Inactive)
REMARK    1  A    between atoms: C3_3  and  C9_9 
REMARK    2  A    between atoms: C4_4  and  C10_10 
ROOT
HETATM    1  C1  UNL     1     -33.754   5.529   3.427  1.00 20.00     0.131 C 
HETATM    2  C2  UNL     1     -32.838   5.837   2.229  1.00 20.00     0.084 C 
HETATM    3  C3  UNL     1     -33.974   7.032   3.721  1.00 20.00     0.060 C 
HETATM    4  C4  UNL     1     -33.353   7.301   2.305  1.00 20.00     0.011 C 
HETATM    5  O11 UNL     1     -34.146   4.503   3.941  1.00 20.00    -0.298 OA
ENDROOT
BRANCH   4   6
HETATM    6  C10 UNL     1     -32.294   8.379   2.155  1.00 20.00    -0.047 C 
HETATM    7  C6  UNL     1     -31.522   8.183   0.836  1.00 20.00     0.015 C 
HETATM    8  C7  UNL     1     -31.299   8.310   3.329  1.00 20.00     0.015 C 
HETATM    9  C8  UNL     1     -32.955   9.772   2.143  1.00 20.00     0.015 C 
ENDBRANCH   4   6
BRANCH   3  10
HETATM   10  C9  UNL     1     -33.264   7.537   4.964  1.00 20.00     0.008 C 
HETATM   11  C5  UNL     1     -34.004   7.181   6.216  1.00 20.00     0.006 C 
ENDBRANCH   3  10
TORSDOF 2
ENDMDL
MODEL 3
REMARK VINA RESULT:      -4.1      1.472      2.640
REMARK  2 active torsions:
REMARK  status: ('A' for Active; 'I' for Inactive)
REMARK    1  A    between atoms: C3_3  and  C9_9 
REMARK    2  A    between atoms: C4_4  and  C10_10 
ROOT
HETATM    1  C1  UNL     1     -35.721  13.752  -4.860  1.00 20.00     0.131 C 
HETATM    2  C2  UNL     1     -36.532  15.043  -4.645  1.00 20.00     0.084 C 
HETATM    3  C3  UNL     1     -34.561  14.263  -3.973  1.00 20.00     0.060 C 
HETATM    4  C4  UNL     1     -35.552  15.379  -3.487  1.00 20.00     0.011 C 
HETATM    5  O11 UNL     1     -35.917  12.733  -5.487  1.00 20.00    -0.298 OA
ENDROOT
BRANCH   4   6
HETATM    6  C10 UNL     1     -35.072  16.818  -3.430  1.00 20.00    -0.047 C 
HETATM    7  C6  UNL     1     -33.826  16.925  -2.529  1.00 20.00     0.015 C 
HETATM    8  C7  UNL     1     -36.180  17.723  -2.857  1.00 20.00     0.015 C 
HETATM    9  C8  UNL     1     -34.708  17.311  -4.845  1.00 20.00     0.015 C 
ENDBRANCH   4   6
BRANCH   3  10
HETATM   10  C9  UNL     1     -33.309  14.648  -4.741  1.00 20.00     0.008 C 
HETATM   11  C5  UNL     1     -32.079  14.025  -4.155  1.00 20.00     0.006 C 
ENDBRANCH   3  10
TORSDOF 2
ENDMDL
MODEL 4
REMARK VINA RESULT:      -4.1      1.473      2.327
REMARK  2 active torsions:
REMARK  status: ('A' for Active; 'I' for Inactive)
REMARK    1  A    between atoms: C3_3  and  C9_9 
REMARK    2  A    between atoms: C4_4  and  C10_10 
ROOT
HETATM    1  C1  UNL     1     -35.721  13.744  -4.867  1.00 20.00     0.131 C 
HETATM    2  C2  UNL     1     -36.538  15.029  -4.639  1.00 20.00     0.084 C 
HETATM    3  C3  UNL     1     -34.563  14.253  -3.975  1.00 20.00     0.060 C 
HETATM    4  C4  UNL     1     -35.559  15.359  -3.477  1.00 20.00     0.011 C 
HETATM    5  O11 UNL     1     -35.912  12.730  -5.504  1.00 20.00    -0.298 OA
ENDROOT
BRANCH   4   6
HETATM    6  C10 UNL     1     -35.087  16.799  -3.406  1.00 20.00    -0.047 C 
HETATM    7  C6  UNL     1     -36.196  17.691  -2.813  1.00 20.00     0.015 C 
HETATM    8  C7  UNL     1     -34.736  17.312  -4.816  1.00 20.00     0.015 C 
HETATM    9  C8  UNL     1     -33.835  16.902  -2.512  1.00 20.00     0.015 C 
ENDBRANCH   4   6
BRANCH   3  10
HETATM   10  C9  UNL     1     -33.313  14.651  -4.739  1.00 20.00     0.008 C 
HETATM   11  C5  UNL     1     -32.081  14.023  -4.165  1.00 20.00     0.006 C 
ENDBRANCH   3  10
TORSDOF 2
ENDMDL
MODEL 5
REMARK VINA RESULT:      -3.9      1.617      2.775
REMARK  2 active torsions:
REMARK  status: ('A' for Active; 'I' for Inactive)
REMARK    1  A    between atoms: C3_3  and  C9_9 
REMARK    2  A    between atoms: C4_4  and  C10_10 
ROOT
HETATM    1  C1  UNL     1     -35.580  13.778  -4.900  1.00 20.00     0.131 C 
HETATM    2  C2  UNL     1     -34.404  14.451  -4.170  1.00 20.00     0.084 C 
HETATM    3  C3  UNL     1     -36.303  15.130  -5.104  1.00 20.00     0.060 C 
HETATM    4  C4  UNL     1     -34.948  15.808  -4.697  1.00 20.00     0.011 C 
HETATM    5  O11 UNL     1     -35.839  12.631  -5.195  1.00 20.00    -0.298 OA
ENDROOT
BRANCH   4   6
HETATM    6  C10 UNL     1     -34.963  16.944  -3.691  1.00 20.00    -0.047 C 
HETATM    7  C6  UNL     1     -33.559  17.573  -3.581  1.00 20.00     0.015 C 
HETATM    8  C7  UNL     1     -35.383  16.419  -2.305  1.00 20.00     0.015 C 
HETATM    9  C8  UNL     1     -35.962  18.031  -4.135  1.00 20.00     0.015 C 
ENDBRANCH   4   6
BRANCH   3  10
HETATM   10  C9  UNL     1     -37.533  15.320  -4.233  1.00 20.00     0.008 C 
HETATM   11  C5  UNL     1     -38.801  15.180  -5.016  1.00 20.00     0.006 C 
ENDBRANCH   3  10
TORSDOF 2
ENDMDL
MODEL 6
REMARK VINA RESULT:      -3.9      2.022      2.994
REMARK  2 active torsions:
REMARK  status: ('A' for Active; 'I' for Inactive)
REMARK    1  A    between atoms: C3_3  and  C9_9 
REMARK    2  A    between atoms: C4_4  and  C10_10 
ROOT
HETATM    1  C1  UNL     1     -34.145  14.276  -5.640  1.00 20.00     0.131 C 
HETATM    2  C2  UNL     1     -34.380  14.517  -4.139  1.00 20.00     0.084 C 
HETATM    3  C3  UNL     1     -33.617  15.715  -5.849  1.00 20.00     0.060 C 
HETATM    4  C4  UNL     1     -33.522  15.804  -4.285  1.00 20.00     0.011 C 
HETATM    5  O11 UNL     1     -34.313  13.326  -6.374  1.00 20.00    -0.298 OA
ENDROOT
BRANCH   4   6
HETATM    6  C10 UNL     1     -34.061  17.036  -3.581  1.00 20.00    -0.047 C 
HETATM    7  C6  UNL     1     -33.722  16.978  -2.078  1.00 20.00     0.015 C 
HETATM    8  C7  UNL     1     -35.591  17.112  -3.743  1.00 20.00     0.015 C 
HETATM    9  C8  UNL     1     -33.432  18.308  -4.185  1.00 20.00     0.015 C 
ENDBRANCH   4   6
BRANCH   3  10
HETATM   10  C9  UNL     1     -34.570  16.629  -6.600  1.00 20.00     0.008 C 
HETATM   11  C5  UNL     1     -33.903  17.303  -7.759  1.00 20.00     0.006 C 
ENDBRANCH   3  10
TORSDOF 2
ENDMDL
MODEL 7
REMARK VINA RESULT:      -3.8      2.726      4.622
REMARK  2 active torsions:
REMARK  status: ('A' for Active; 'I' for Inactive)
REMARK    1  A    between atoms: C3_3  and  C9_9 
REMARK    2  A    between atoms: C4_4  and  C10_10 
ROOT
HETATM    1  C1  UNL     1     -33.258  18.128  -3.334  1.00 20.00     0.131 C 
HETATM    2  C2  UNL     1     -33.378  17.716  -4.812  1.00 20.00     0.084 C 
HETATM    3  C3  UNL     1     -33.708  16.730  -2.847  1.00 20.00     0.060 C 
HETATM    4  C4  UNL     1     -33.467  16.245  -4.320  1.00 20.00     0.011 C 
HETATM    5  O11 UNL     1     -32.937  19.153  -2.772  1.00 20.00    -0.298 OA
ENDROOT
BRANCH   4   6
HETATM    6  C10 UNL     1     -34.522  15.388  -4.997  1.00 20.00    -0.047 C 
HETATM    7  C6  UNL     1     -34.783  14.115  -4.167  1.00 20.00     0.015 C 
HETATM    8  C7  UNL     1     -34.047  14.977  -6.404  1.00 20.00     0.015 C 
HETATM    9  C8  UNL     1     -35.840  16.177  -5.127  1.00 20.00     0.015 C 
ENDBRANCH   4   6
BRANCH   3  10
HETATM   10  C9  UNL     1     -35.108  16.693  -2.260  1.00 20.00     0.008 C 
HETATM   11  C5  UNL     1     -35.120  17.081  -0.814  1.00 20.00     0.006 C 
ENDBRANCH   3  10
TORSDOF 2
ENDMDL
MODEL 8
REMARK VINA RESULT:      -3.8      2.279      3.921
REMARK  2 active torsions:
REMARK  status: ('A' for Active; 'I' for Inactive)
REMARK    1  A    between atoms: C3_3  and  C9_9 
REMARK    2  A    between atoms: C4_4  and  C10_10 
ROOT
HETATM    1  C1  UNL     1     -33.424  14.396  -4.454  1.00 20.00     0.131 C 
HETATM    2  C2  UNL     1     -34.004  14.775  -5.828  1.00 20.00     0.084 C 
HETATM    3  C3  UNL     1     -34.361  15.385  -3.721  1.00 20.00     0.060 C 
HETATM    4  C4  UNL     1     -35.165  15.471  -5.066  1.00 20.00     0.011 C 
HETATM    5  O11 UNL     1     -32.562  13.624  -4.091  1.00 20.00    -0.298 OA
ENDROOT
BRANCH   4   6
HETATM    6  C10 UNL     1     -35.574  16.834  -5.595  1.00 20.00    -0.047 C 
HETATM    7  C6  UNL     1     -36.452  17.563  -4.559  1.00 20.00     0.015 C 
HETATM    8  C7  UNL     1     -36.373  16.677  -6.902  1.00 20.00     0.015 C 
HETATM    9  C8  UNL     1     -34.322  17.690  -5.877  1.00 20.00     0.015 C 
ENDBRANCH   4   6
BRANCH   3  10
HETATM   10  C9  UNL     1     -33.665  16.620  -3.176  1.00 20.00     0.008 C 
HETATM   11  C5  UNL     1     -34.122  16.956  -1.790  1.00 20.00     0.006 C 
ENDBRANCH   3  10
TORSDOF 2
ENDMDL
MODEL 9
REMARK VINA RESULT:      -3.8      2.279      4.026
REMARK  2 active torsions:
REMARK  status: ('A' for Active; 'I' for Inactive)
REMARK    1  A    between atoms: C3_3  and  C9_9 
REMARK    2  A    between atoms: C4_4  and  C10_10 
ROOT
HETATM    1  C1  UNL     1     -33.424  14.396  -4.454  1.00 20.00     0.131 C 
HETATM    2  C2  UNL     1     -34.004  14.775  -5.829  1.00 20.00     0.084 C 
HETATM    3  C3  UNL     1     -34.360  15.386  -3.721  1.00 20.00     0.060 C 
HETATM    4  C4  UNL     1     -35.165  15.472  -5.066  1.00 20.00     0.011 C 
HETATM    5  O11 UNL     1     -32.563  13.624  -4.091  1.00 20.00    -0.298 OA
ENDROOT
BRANCH   4   6
HETATM    6  C10 UNL     1     -35.573  16.835  -5.596  1.00 20.00    -0.047 C 
HETATM    7  C6  UNL     1     -34.322  17.689  -5.879  1.00 20.00     0.015 C 
HETATM    8  C7  UNL     1     -36.450  17.564  -4.561  1.00 20.00     0.015 C 
HETATM    9  C8  UNL     1     -36.375  16.675  -6.904  1.00 20.00     0.015 C 
ENDBRANCH   4   6
BRANCH   3  10
HETATM   10  C9  UNL     1     -33.664  16.621  -3.178  1.00 20.00     0.008 C 
HETATM   11  C5  UNL     1     -34.120  16.957  -1.792  1.00 20.00     0.006 C 
ENDBRANCH   3  10
TORSDOF 2
ENDMDL
