MODEL 1
REMARK VINA RESULT:      -5.2      0.000      0.000
REMARK  1 active torsions:
REMARK  status: ('A' for Active; 'I' for Inactive)
REMARK    1  A    between atoms: C4_4  and  C10_10 
ROOT
HETATM    1  C1  UNL     1     -33.105   6.319   2.042  1.00 20.00     0.007 C 
HETATM    2  C2  UNL     1     -33.457   5.202   3.027  1.00 20.00     0.009 C 
HETATM    3  C3  UNL     1     -33.631   6.837   4.967  1.00 20.00     0.013 C 
HETATM    4  C4  UNL     1     -32.852   7.689   2.703  1.00 20.00     0.003 C 
HETATM    5  C5  UNL     1     -32.486   7.529   4.192  1.00 20.00    -0.013 C 
HETATM    6  C6  UNL     1     -34.320   5.670   4.212  1.00 20.00    -0.047 C 
HETATM    7  C7  UNL     1     -32.141   8.853   4.878  1.00 20.00     0.010 C 
HETATM    8  C8  UNL     1     -35.715   6.107   3.715  1.00 20.00     0.015 C 
HETATM    9  C9  UNL     1     -34.523   4.486   5.178  1.00 20.00     0.015 C 
ENDROOT
BRANCH   4  10
HETATM   10  C10 UNL     1     -31.804   8.460   1.895  1.00 20.00     0.119 C 
HETATM   11 CL11 UNL     1     -32.520   9.935   1.227  1.00 20.00    -0.130 Cl
ENDBRANCH   4  10
TORSDOF 1
ENDMDL
MODEL 2
REMARK VINA RESULT:      -4.5     11.399     12.083
REMARK  1 active torsions:
REMARK  status: ('A' for Active; 'I' for Inactive)
REMARK    1  A    between atoms: C4_4  and  C10_10 
ROOT
HETATM    1  C1  UNL     1     -32.842  18.109  -1.448  1.00 20.00     0.007 C 
HETATM    2  C2  UNL     1     -33.332  16.979  -2.355  1.00 20.00     0.009 C 
HETATM    3  C3  UNL     1     -35.685  17.100  -1.396  1.00 20.00     0.013 C 
HETATM    4  C4  UNL     1     -33.862  18.551  -0.379  1.00 20.00     0.003 C 
HETATM    5  C5  UNL     1     -34.898  17.443  -0.109  1.00 20.00    -0.013 C 
HETATM    6  C6  UNL     1     -34.832  17.060  -2.691  1.00 20.00    -0.047 C 
HETATM    7  C7  UNL     1     -35.886  17.795   1.007  1.00 20.00     0.010 C 
HETATM    8  C8  UNL     1     -35.117  18.307  -3.555  1.00 20.00     0.015 C 
HETATM    9  C9  UNL     1     -35.223  15.822  -3.522  1.00 20.00     0.015 C 
ENDROOT
BRANCH   4  10
HETATM   10  C10 UNL     1     -33.118  19.012   0.877  1.00 20.00     0.119 C 
HETATM   11 CL11 UNL     1     -31.383  18.706   0.701  1.00 20.00    -0.130 Cl
ENDBRANCH   4  10
TORSDOF 1
ENDMDL
MODEL 3
REMARK VINA RESULT:      -4.2     11.314     12.333
REMARK  1 active torsions:
REMARK  status: ('A' for Active; 'I' for Inactive)
REMARK    1  A    between atoms: C4_4  and  C10_10 
ROOT
HETATM    1  C1  UNL     1     -33.641  15.458  -3.753  1.00 20.00     0.007 C 
HETATM    2  C2  UNL     1     -33.613  14.398  -4.856  1.00 20.00     0.009 C 
HETATM    3  C3  UNL     1     -35.867  15.148  -5.766  1.00 20.00     0.013 C 
HETATM    4  C4  UNL     1     -34.978  16.217  -3.638  1.00 20.00     0.003 C 
HETATM    5  C5  UNL     1     -36.131  15.409  -4.264  1.00 20.00    -0.013 C 
HETATM    6  C6  UNL     1     -34.397  14.797  -6.119  1.00 20.00    -0.047 C 
HETATM    7  C7  UNL     1     -37.499  16.078  -4.102  1.00 20.00     0.010 C 
HETATM    8  C8  UNL     1     -33.716  15.995  -6.813  1.00 20.00     0.015 C 
HETATM    9  C9  UNL     1     -34.379  13.616  -7.110  1.00 20.00     0.015 C 
ENDROOT
BRANCH   4  10
HETATM   10  C10 UNL     1     -35.223  16.601  -2.176  1.00 20.00     0.119 C 
HETATM   11 CL11 UNL     1     -33.739  17.252  -1.464  1.00 20.00    -0.130 Cl
ENDBRANCH   4  10
TORSDOF 1
ENDMDL
MODEL 4
REMARK VINA RESULT:      -4.2     10.951     12.440
REMARK  1 active torsions:
REMARK  status: ('A' for Active; 'I' for Inactive)
REMARK    1  A    between atoms: C4_4  and  C10_10 
ROOT
HETATM    1  C1  UNL     1     -34.306  14.397  -4.022  1.00 20.00     0.007 C 
HETATM    2  C2  UNL     1     -33.508  15.681  -3.788  1.00 20.00     0.009 C 
HETATM    3  C3  UNL     1     -35.513  17.143  -4.347  1.00 20.00     0.013 C 
HETATM    4  C4  UNL     1     -35.709  14.623  -4.621  1.00 20.00     0.003 C 
HETATM    5  C5  UNL     1     -35.794  15.987  -5.335  1.00 20.00    -0.013 C 
HETATM    6  C6  UNL     1     -34.369  16.872  -3.333  1.00 20.00    -0.047 C 
HETATM    7  C7  UNL     1     -37.140  16.228  -6.023  1.00 20.00     0.010 C 
HETATM    8  C8  UNL     1     -34.954  16.602  -1.931  1.00 20.00     0.015 C 
HETATM    9  C9  UNL     1     -33.474  18.123  -3.228  1.00 20.00     0.015 C 
ENDROOT
BRANCH   4  10
HETATM   10  C10 UNL     1     -36.078  13.439  -5.519  1.00 20.00     0.119 C 
HETATM   11 CL11 UNL     1     -34.978  13.361  -6.903  1.00 20.00    -0.130 Cl
ENDBRANCH   4  10
TORSDOF 1
ENDMDL
MODEL 5
REMARK VINA RESULT:      -4.1      2.299      4.391
REMARK  1 active torsions:
REMARK  status: ('A' for Active; 'I' for Inactive)
REMARK    1  A    between atoms: C4_4  and  C10_10 
ROOT
HETATM    1  C1  UNL     1     -32.105   8.399   4.565  1.00 20.00     0.007 C 
HETATM    2  C2  UNL     1     -31.338   8.338   3.242  1.00 20.00     0.009 C 
HETATM    3  C3  UNL     1     -33.345   7.376   2.011  1.00 20.00     0.013 C 
HETATM    4  C4  UNL     1     -33.488   7.718   4.526  1.00 20.00     0.003 C 
HETATM    5  C5  UNL     1     -33.570   6.691   3.380  1.00 20.00    -0.013 C 
HETATM    6  C6  UNL     1     -32.236   8.461   1.998  1.00 20.00    -0.047 C 
HETATM    7  C7  UNL     1     -34.894   5.922   3.347  1.00 20.00     0.010 C 
HETATM    8  C8  UNL     1     -32.867   9.867   1.934  1.00 20.00     0.015 C 
HETATM    9  C9  UNL     1     -31.366   8.286   0.738  1.00 20.00     0.015 C 
ENDROOT
BRANCH   4  10
HETATM   10  C10 UNL     1     -33.804   7.125   5.902  1.00 20.00     0.119 C 
HETATM   11 CL11 UNL     1     -34.293   5.432   5.735  1.00 20.00    -0.130 Cl
ENDBRANCH   4  10
TORSDOF 1
ENDMDL
MODEL 6
REMARK VINA RESULT:      -4.1     10.684     12.009
REMARK  1 active torsions:
REMARK  status: ('A' for Active; 'I' for Inactive)
REMARK    1  A    between atoms: C4_4  and  C10_10 
ROOT
HETATM    1  C1  UNL     1     -36.397  16.460  -3.351  1.00 20.00     0.007 C 
HETATM    2  C2  UNL     1     -35.712  16.203  -4.694  1.00 20.00     0.009 C 
HETATM    3  C3  UNL     1     -33.404  16.195  -3.624  1.00 20.00     0.013 C 
HETATM    4  C4  UNL     1     -35.426  16.764  -2.192  1.00 20.00     0.003 C 
HETATM    5  C5  UNL     1     -34.067  17.262  -2.723  1.00 20.00    -0.013 C 
HETATM    6  C6  UNL     1     -34.377  15.447  -4.575  1.00 20.00    -0.047 C 
HETATM    7  C7  UNL     1     -33.091  17.660  -1.612  1.00 20.00     0.010 C 
HETATM    8  C8  UNL     1     -34.622  14.012  -4.064  1.00 20.00     0.015 C 
HETATM    9  C9  UNL     1     -33.740  15.338  -5.974  1.00 20.00     0.015 C 
ENDROOT
BRANCH   4  10
HETATM   10  C10 UNL     1     -36.091  17.730  -1.208  1.00 20.00     0.119 C 
HETATM   11 CL11 UNL     1     -35.734  17.241   0.455  1.00 20.00    -0.130 Cl
ENDBRANCH   4  10
TORSDOF 1
ENDMDL
MODEL 7
REMARK VINA RESULT:      -4.1     11.261     12.149
REMARK  1 active torsions:
REMARK  status: ('A' for Active; 'I' for Inactive)
REMARK    1  A    between atoms: C4_4  and  C10_10 
ROOT
HETATM    1  C1  UNL     1     -36.417  16.387  -4.134  1.00 20.00     0.007 C 
HETATM    2  C2  UNL     1     -36.208  16.699  -2.650  1.00 20.00     0.009 C 
HETATM    3  C3  UNL     1     -33.695  16.350  -2.831  1.00 20.00     0.013 C 
HETATM    4  C4  UNL     1     -35.157  15.866  -4.854  1.00 20.00     0.003 C 
HETATM    5  C5  UNL     1     -34.146  15.278  -3.850  1.00 20.00    -0.013 C 
HETATM    6  C6  UNL     1     -34.824  17.290  -2.329  1.00 20.00    -0.047 C 
HETATM    7  C7  UNL     1     -32.912  14.668  -4.519  1.00 20.00     0.010 C 
HETATM    8  C8  UNL     1     -34.678  18.686  -2.971  1.00 20.00     0.015 C 
HETATM    9  C9  UNL     1     -34.700  17.467  -0.803  1.00 20.00     0.015 C 
ENDROOT
BRANCH   4  10
HETATM   10  C10 UNL     1     -35.567  14.886  -5.956  1.00 20.00     0.119 C 
HETATM   11 CL11 UNL     1     -36.162  13.381  -5.237  1.00 20.00    -0.130 Cl
ENDBRANCH   4  10
TORSDOF 1
ENDMDL
MODEL 8
REMARK VINA RESULT:      -4.0     11.099     12.077
REMARK  1 active torsions:
REMARK  status: ('A' for Active; 'I' for Inactive)
REMARK    1  A    between atoms: C4_4  and  C10_10 
ROOT
HETATM    1  C1  UNL     1     -33.304  17.557  -3.819  1.00 20.00     0.007 C 
HETATM    2  C2  UNL     1     -33.530  16.099  -4.222  1.00 20.00     0.009 C 
HETATM    3  C3  UNL     1     -35.582  15.903  -2.731  1.00 20.00     0.013 C 
HETATM    4  C4  UNL     1     -34.213  18.045  -2.673  1.00 20.00     0.003 C 
HETATM    5  C5  UNL     1     -34.749  16.860  -1.846  1.00 20.00    -0.013 C 
HETATM    6  C6  UNL     1     -35.002  15.656  -4.149  1.00 20.00    -0.047 C 
HETATM    7  C7  UNL     1     -35.590  17.292  -0.641  1.00 20.00     0.010 C 
HETATM    8  C8  UNL     1     -35.838  16.410  -5.205  1.00 20.00     0.015 C 
HETATM    9  C9  UNL     1     -35.087  14.153  -4.480  1.00 20.00     0.015 C 
ENDROOT
BRANCH   4  10
HETATM   10  C10 UNL     1     -33.466  19.087  -1.837  1.00 20.00     0.119 C 
HETATM   11 CL11 UNL     1     -32.192  18.303  -0.890  1.00 20.00    -0.130 Cl
ENDBRANCH   4  10
TORSDOF 1
ENDMDL
MODEL 9
REMARK VINA RESULT:      -4.0     11.048     12.642
REMARK  1 active torsions:
REMARK  status: ('A' for Active; 'I' for Inactive)
REMARK    1  A    between atoms: C4_4  and  C10_10 
ROOT
HETATM    1  C1  UNL     1     -33.513  17.866  -4.699  1.00 20.00     0.007 C 
HETATM    2  C2  UNL     1     -34.446  18.437  -3.630  1.00 20.00     0.009 C 
HETATM    3  C3  UNL     1     -34.796  16.149  -2.576  1.00 20.00     0.013 C 
HETATM    4  C4  UNL     1     -33.440  16.326  -4.719  1.00 20.00     0.003 C 
HETATM    5  C5  UNL     1     -34.682  15.702  -4.053  1.00 20.00    -0.013 C 
HETATM    6  C6  UNL     1     -34.446  17.638  -2.315  1.00 20.00    -0.047 C 
HETATM    7  C7  UNL     1     -34.703  14.173  -4.120  1.00 20.00     0.010 C 
HETATM    8  C8  UNL     1     -33.069  17.747  -1.626  1.00 20.00     0.015 C 
HETATM    9  C9  UNL     1     -35.491  18.248  -1.361  1.00 20.00     0.015 C 
ENDROOT
BRANCH   4  10
HETATM   10  C10 UNL     1     -33.208  15.844  -6.154  1.00 20.00     0.119 C 
HETATM   11 CL11 UNL     1     -34.519  16.406  -7.201  1.00 20.00    -0.130 Cl
ENDBRANCH   4  10
TORSDOF 1
ENDMDL
