MODEL 1
REMARK VINA RESULT:      -5.2      0.000      0.000
REMARK  1 active torsions:
REMARK  status: ('A' for Active; 'I' for Inactive)
REMARK    1  A    between atoms: C4_4  and  C10_10 
ROOT
HETATM    1  C1  UNL     1     -32.412   6.013   2.500  1.00 20.00     0.006 C 
HETATM    2  C2  UNL     1     -33.539   5.074   2.945  1.00 20.00     0.009 C 
HETATM    3  C3  UNL     1     -33.567   6.669   4.921  1.00 20.00     0.013 C 
HETATM    4  C4  UNL     1     -32.820   7.486   2.593  1.00 20.00    -0.001 C 
HETATM    5  C5  UNL     1     -33.165   7.886   4.055  1.00 20.00    -0.013 C 
HETATM    6  C6  UNL     1     -34.351   5.578   4.165  1.00 20.00    -0.047 C 
HETATM    7  C7  UNL     1     -32.063   8.660   4.787  1.00 20.00     0.010 C 
HETATM    8  C8  UNL     1     -35.726   6.114   3.717  1.00 20.00     0.015 C 
HETATM    9  C9  UNL     1     -34.607   4.397   5.123  1.00 20.00     0.015 C 
ENDROOT
BRANCH   4  10
HETATM   10  C10 UNL     1     -31.780   8.378   1.911  1.00 20.00     0.090 C 
HETATM   11 BR11 UNL     1     -32.675   9.873   1.067  1.00 20.00    -0.096 Br
ENDBRANCH   4  10
TORSDOF 1
ENDMDL
MODEL 2
REMARK VINA RESULT:      -4.3     11.037     12.215
REMARK  1 active torsions:
REMARK  status: ('A' for Active; 'I' for Inactive)
REMARK    1  A    between atoms: C4_4  and  C10_10 
ROOT
HETATM    1  C1  UNL     1     -36.178  17.075  -2.696  1.00 20.00     0.006 C 
HETATM    2  C2  UNL     1     -36.087  16.195  -3.948  1.00 20.00     0.009 C 
HETATM    3  C3  UNL     1     -33.636  16.828  -3.744  1.00 20.00     0.013 C 
HETATM    4  C4  UNL     1     -35.130  16.695  -1.648  1.00 20.00    -0.001 C 
HETATM    5  C5  UNL     1     -33.688  16.875  -2.199  1.00 20.00    -0.013 C 
HETATM    6  C6  UNL     1     -34.641  15.852  -4.387  1.00 20.00    -0.047 C 
HETATM    7  C7  UNL     1     -32.974  18.148  -1.729  1.00 20.00     0.010 C 
HETATM    8  C8  UNL     1     -34.293  14.396  -4.014  1.00 20.00     0.015 C 
HETATM    9  C9  UNL     1     -34.539  15.971  -5.921  1.00 20.00     0.015 C 
ENDROOT
BRANCH   4  10
HETATM   10  C10 UNL     1     -35.406  17.413  -0.324  1.00 20.00     0.090 C 
HETATM   11 BR11 UNL     1     -37.014  18.477  -0.498  1.00 20.00    -0.096 Br
ENDBRANCH   4  10
TORSDOF 1
ENDMDL
MODEL 3
REMARK VINA RESULT:      -4.1     11.238     12.725
REMARK  1 active torsions:
REMARK  status: ('A' for Active; 'I' for Inactive)
REMARK    1  A    between atoms: C4_4  and  C10_10 
ROOT
HETATM    1  C1  UNL     1     -34.362  17.707  -4.890  1.00 20.00     0.006 C 
HETATM    2  C2  UNL     1     -34.423  18.521  -3.592  1.00 20.00     0.009 C 
HETATM    3  C3  UNL     1     -34.862  16.217  -2.620  1.00 20.00     0.013 C 
HETATM    4  C4  UNL     1     -33.450  16.485  -4.760  1.00 20.00    -0.001 C 
HETATM    5  C5  UNL     1     -33.962  15.511  -3.662  1.00 20.00    -0.013 C 
HETATM    6  C6  UNL     1     -34.451  17.667  -2.300  1.00 20.00    -0.047 C 
HETATM    7  C7  UNL     1     -34.706  14.280  -4.190  1.00 20.00     0.010 C 
HETATM    8  C8  UNL     1     -33.076  17.697  -1.601  1.00 20.00     0.015 C 
HETATM    9  C9  UNL     1     -35.479  18.270  -1.319  1.00 20.00     0.015 C 
ENDROOT
BRANCH   4  10
HETATM   10  C10 UNL     1     -33.212  15.842  -6.128  1.00 20.00     0.090 C 
HETATM   11 BR11 UNL     1     -34.111  16.885  -7.489  1.00 20.00    -0.096 Br
ENDBRANCH   4  10
TORSDOF 1
ENDMDL
MODEL 4
REMARK VINA RESULT:      -4.0     11.473     12.313
REMARK  1 active torsions:
REMARK  status: ('A' for Active; 'I' for Inactive)
REMARK    1  A    between atoms: C4_4  and  C10_10 
ROOT
HETATM    1  C1  UNL     1     -36.175  15.887  -3.692  1.00 20.00     0.006 C 
HETATM    2  C2  UNL     1     -36.162  16.927  -2.565  1.00 20.00     0.009 C 
HETATM    3  C3  UNL     1     -33.668  16.464  -2.688  1.00 20.00     0.013 C 
HETATM    4  C4  UNL     1     -35.149  16.209  -4.782  1.00 20.00    -0.001 C 
HETATM    5  C5  UNL     1     -33.703  16.213  -4.214  1.00 20.00    -0.013 C 
HETATM    6  C6  UNL     1     -34.751  17.434  -2.176  1.00 20.00    -0.047 C 
HETATM    7  C7  UNL     1     -32.889  14.950  -4.516  1.00 20.00     0.010 C 
HETATM    8  C8  UNL     1     -34.512  18.852  -2.734  1.00 20.00     0.015 C 
HETATM    9  C9  UNL     1     -34.652  17.522  -0.639  1.00 20.00     0.015 C 
ENDROOT
BRANCH   4  10
HETATM   10  C10 UNL     1     -35.358  15.307  -6.001  1.00 20.00     0.090 C 
HETATM   11 BR11 UNL     1     -36.288  13.699  -5.454  1.00 20.00    -0.096 Br
ENDBRANCH   4  10
TORSDOF 1
ENDMDL
MODEL 5
REMARK VINA RESULT:      -4.0     10.987     12.390
REMARK  1 active torsions:
REMARK  status: ('A' for Active; 'I' for Inactive)
REMARK    1  A    between atoms: C4_4  and  C10_10 
ROOT
HETATM    1  C1  UNL     1     -35.260  16.924  -4.896  1.00 20.00     0.006 C 
HETATM    2  C2  UNL     1     -36.399  16.427  -5.793  1.00 20.00     0.009 C 
HETATM    3  C3  UNL     1     -34.995  14.311  -5.747  1.00 20.00     0.013 C 
HETATM    4  C4  UNL     1     -34.956  15.948  -3.757  1.00 20.00    -0.001 C 
HETATM    5  C5  UNL     1     -34.504  14.565  -4.303  1.00 20.00    -0.013 C 
HETATM    6  C6  UNL     1     -36.384  14.901  -6.063  1.00 20.00    -0.047 C 
HETATM    7  C7  UNL     1     -32.992  14.316  -4.253  1.00 20.00     0.010 C 
HETATM    8  C8  UNL     1     -37.473  14.192  -5.231  1.00 20.00     0.015 C 
HETATM    9  C9  UNL     1     -36.705  14.649  -7.550  1.00 20.00     0.015 C 
ENDROOT
BRANCH   4  10
HETATM   10  C10 UNL     1     -34.000  16.582  -2.744  1.00 20.00     0.090 C 
HETATM   11 BR11 UNL     1     -35.007  17.176  -1.200  1.00 20.00    -0.096 Br
ENDBRANCH   4  10
TORSDOF 1
ENDMDL
MODEL 6
REMARK VINA RESULT:      -4.0     11.071     12.521
REMARK  1 active torsions:
REMARK  status: ('A' for Active; 'I' for Inactive)
REMARK    1  A    between atoms: C4_4  and  C10_10 
ROOT
HETATM    1  C1  UNL     1     -33.913  15.748  -3.404  1.00 20.00     0.006 C 
HETATM    2  C2  UNL     1     -34.119  14.446  -4.187  1.00 20.00     0.009 C 
HETATM    3  C3  UNL     1     -35.913  15.855  -5.303  1.00 20.00     0.013 C 
HETATM    4  C4  UNL     1     -33.801  16.963  -4.327  1.00 20.00    -0.001 C 
HETATM    5  C5  UNL     1     -35.098  17.161  -5.161  1.00 20.00    -0.013 C 
HETATM    6  C6  UNL     1     -35.058  14.577  -5.413  1.00 20.00    -0.047 C 
HETATM    7  C7  UNL     1     -36.032  18.262  -4.645  1.00 20.00     0.010 C 
HETATM    8  C8  UNL     1     -34.242  14.584  -6.722  1.00 20.00     0.015 C 
HETATM    9  C9  UNL     1     -35.996  13.354  -5.462  1.00 20.00     0.015 C 
ENDROOT
BRANCH   4  10
HETATM   10  C10 UNL     1     -33.347  18.197  -3.543  1.00 20.00     0.090 C 
HETATM   11 BR11 UNL     1     -33.289  17.767  -1.655  1.00 20.00    -0.096 Br
ENDBRANCH   4  10
TORSDOF 1
ENDMDL
MODEL 7
REMARK VINA RESULT:      -4.0     11.408     12.467
REMARK  1 active torsions:
REMARK  status: ('A' for Active; 'I' for Inactive)
REMARK    1  A    between atoms: C4_4  and  C10_10 
ROOT
HETATM    1  C1  UNL     1     -34.181  14.837  -4.698  1.00 20.00     0.006 C 
HETATM    2  C2  UNL     1     -33.517  15.700  -3.619  1.00 20.00     0.009 C 
HETATM    3  C3  UNL     1     -35.454  17.236  -4.202  1.00 20.00     0.013 C 
HETATM    4  C4  UNL     1     -35.686  14.683  -4.466  1.00 20.00    -0.001 C 
HETATM    5  C5  UNL     1     -36.408  16.058  -4.508  1.00 20.00    -0.013 C 
HETATM    6  C6  UNL     1     -34.360  16.918  -3.164  1.00 20.00    -0.047 C 
HETATM    7  C7  UNL     1     -37.145  16.358  -5.819  1.00 20.00     0.010 C 
HETATM    8  C8  UNL     1     -34.989  16.655  -1.780  1.00 20.00     0.015 C 
HETATM    9  C9  UNL     1     -33.437  18.146  -3.023  1.00 20.00     0.015 C 
ENDROOT
BRANCH   4  10
HETATM   10  C10 UNL     1     -36.270  13.622  -5.402  1.00 20.00     0.090 C 
HETATM   11 BR11 UNL     1     -35.098  13.401  -6.927  1.00 20.00    -0.096 Br
ENDBRANCH   4  10
TORSDOF 1
ENDMDL
MODEL 8
REMARK VINA RESULT:      -3.8     11.447     12.586
REMARK  1 active torsions:
REMARK  status: ('A' for Active; 'I' for Inactive)
REMARK    1  A    between atoms: C4_4  and  C10_10 
ROOT
HETATM    1  C1  UNL     1     -34.711  15.695  -3.938  1.00 20.00     0.006 C 
HETATM    2  C2  UNL     1     -33.787  16.261  -2.854  1.00 20.00     0.009 C 
HETATM    3  C3  UNL     1     -35.366  18.237  -3.083  1.00 20.00     0.013 C 
HETATM    4  C4  UNL     1     -36.190  15.844  -3.569  1.00 20.00    -0.001 C 
HETATM    5  C5  UNL     1     -36.583  17.339  -3.403  1.00 20.00    -0.013 C 
HETATM    6  C6  UNL     1     -34.294  17.570  -2.198  1.00 20.00    -0.047 C 
HETATM    7  C7  UNL     1     -37.332  17.943  -4.596  1.00 20.00     0.010 C 
HETATM    8  C8  UNL     1     -34.857  17.289  -0.790  1.00 20.00     0.015 C 
HETATM    9  C9  UNL     1     -33.109  18.544  -2.034  1.00 20.00     0.015 C 
ENDROOT
BRANCH   4  10
HETATM   10  C10 UNL     1     -37.070  15.052  -4.539  1.00 20.00     0.090 C 
HETATM   11 BR11 UNL     1     -36.027  13.624  -5.327  1.00 20.00    -0.096 Br
ENDBRANCH   4  10
TORSDOF 1
ENDMDL
MODEL 9
REMARK VINA RESULT:      -3.7     11.038     12.466
REMARK  1 active torsions:
REMARK  status: ('A' for Active; 'I' for Inactive)
REMARK    1  A    between atoms: C4_4  and  C10_10 
ROOT
HETATM    1  C1  UNL     1     -35.469  16.374  -2.875  1.00 20.00     0.006 C 
HETATM    2  C2  UNL     1     -34.002  16.083  -3.212  1.00 20.00     0.009 C 
HETATM    3  C3  UNL     1     -35.098  14.441  -4.810  1.00 20.00     0.013 C 
HETATM    4  C4  UNL     1     -36.312  16.610  -4.131  1.00 20.00    -0.001 C 
HETATM    5  C5  UNL     1     -36.321  15.356  -5.049  1.00 20.00    -0.013 C 
HETATM    6  C6  UNL     1     -33.797  15.191  -4.463  1.00 20.00    -0.047 C 
HETATM    7  C7  UNL     1     -37.591  14.502  -4.960  1.00 20.00     0.010 C 
HETATM    8  C8  UNL     1     -33.326  16.039  -5.662  1.00 20.00     0.015 C 
HETATM    9  C9  UNL     1     -32.690  14.157  -4.168  1.00 20.00     0.015 C 
ENDROOT
BRANCH   4  10
HETATM   10  C10 UNL     1     -37.698  17.142  -3.757  1.00 20.00     0.090 C 
HETATM   11 BR11 UNL     1     -37.515  18.487  -2.377  1.00 20.00    -0.096 Br
ENDBRANCH   4  10
TORSDOF 1
ENDMDL
