MODEL 1
REMARK VINA RESULT:      -4.3      0.000      0.000
REMARK  1 active torsions:
REMARK  status: ('A' for Active; 'I' for Inactive)
REMARK    1  A    between atoms: C5_5  and  C10_10 
ROOT
HETATM    1  C1  UNL     1     -34.863  14.119  -6.089  1.00 20.00     0.019 C 
HETATM    2  C2  UNL     1     -35.312  16.165  -2.960  1.00 20.00     0.017 A 
HETATM    3  C3  UNL     1     -36.018  13.393  -5.408  1.00 20.00     0.075 C 
HETATM    4  C4  UNL     1     -36.595  16.104  -5.200  1.00 20.00     0.084 C 
HETATM    5  C5  UNL     1     -34.921  17.386  -3.733  1.00 20.00     0.006 A 
HETATM    6  C6  UNL     1     -35.255  16.084  -4.485  1.00 20.00    -0.020 A 
HETATM    7  C7  UNL     1     -34.175  15.209  -5.201  1.00 20.00    -0.038 C 
HETATM    8  C8  UNL     1     -33.325  16.069  -6.160  1.00 20.00     0.015 C 
HETATM    9  C9  UNL     1     -33.229  14.473  -4.230  1.00 20.00     0.015 C 
HETATM   10  S11 UNL     1     -37.421  14.496  -5.067  1.00 20.00    -0.168 SA
ENDROOT
BRANCH   5  11
HETATM   11  C10 UNL     1     -33.579  17.984  -3.516  1.00 20.00     0.090 C 
HETATM   12 BR12 UNL     1     -33.067  17.858  -1.634  1.00 20.00    -0.096 Br
ENDBRANCH   5  11
TORSDOF 1
ENDMDL
MODEL 2
REMARK VINA RESULT:      -4.2      2.997      4.171
REMARK  1 active torsions:
REMARK  status: ('A' for Active; 'I' for Inactive)
REMARK    1  A    between atoms: C5_5  and  C10_10 
ROOT
HETATM    1  C1  UNL     1     -34.980  16.271  -2.579  1.00 20.00     0.019 C 
HETATM    2  C2  UNL     1     -33.543  16.410  -6.056  1.00 20.00     0.017 A 
HETATM    3  C3  UNL     1     -33.645  16.962  -2.333  1.00 20.00     0.075 C 
HETATM    4  C4  UNL     1     -34.726  18.176  -4.589  1.00 20.00     0.084 C 
HETATM    5  C5  UNL     1     -34.928  16.584  -6.594  1.00 20.00     0.006 A 
HETATM    6  C6  UNL     1     -34.674  16.740  -5.083  1.00 20.00    -0.020 A 
HETATM    7  C7  UNL     1     -35.150  15.694  -4.024  1.00 20.00    -0.038 C 
HETATM    8  C8  UNL     1     -36.655  15.393  -4.191  1.00 20.00     0.015 C 
HETATM    9  C9  UNL     1     -34.374  14.361  -4.075  1.00 20.00     0.015 C 
HETATM   10  S11 UNL     1     -33.454  18.470  -3.331  1.00 20.00    -0.168 SA
ENDROOT
BRANCH   5  11
HETATM   11  C10 UNL     1     -35.586  15.446  -7.287  1.00 20.00     0.090 C 
HETATM   12 BR12 UNL     1     -34.255  14.163  -7.918  1.00 20.00    -0.096 Br
ENDBRANCH   5  11
TORSDOF 1
ENDMDL
MODEL 3
REMARK VINA RESULT:      -4.1     11.069     12.184
REMARK  1 active torsions:
REMARK  status: ('A' for Active; 'I' for Inactive)
REMARK    1  A    between atoms: C5_5  and  C10_10 
ROOT
HETATM    1  C1  UNL     1     -34.820   5.296   4.073  1.00 20.00     0.019 C 
HETATM    2  C2  UNL     1     -31.781   7.480   3.648  1.00 20.00     0.017 A 
HETATM    3  C3  UNL     1     -34.215   5.260   5.471  1.00 20.00     0.075 C 
HETATM    4  C4  UNL     1     -34.113   7.919   4.668  1.00 20.00     0.084 C 
HETATM    5  C5  UNL     1     -32.549   8.313   2.669  1.00 20.00     0.006 A 
HETATM    6  C6  UNL     1     -33.295   7.294   3.551  1.00 20.00    -0.020 A 
HETATM    7  C7  UNL     1     -33.904   5.967   2.994  1.00 20.00    -0.038 C 
HETATM    8  C8  UNL     1     -34.813   6.251   1.779  1.00 20.00     0.015 C 
HETATM    9  C9  UNL     1     -32.846   4.922   2.583  1.00 20.00     0.015 C 
HETATM   10  S11 UNL     1     -34.010   6.922   6.178  1.00 20.00    -0.168 SA
ENDROOT
BRANCH   5  11
HETATM   11  C10 UNL     1     -32.240   8.199   1.220  1.00 20.00     0.090 C 
HETATM   12 BR12 UNL     1     -32.751   9.832   0.278  1.00 20.00    -0.096 Br
ENDBRANCH   5  11
TORSDOF 1
ENDMDL
MODEL 4
REMARK VINA RESULT:      -4.1      1.695      2.555
REMARK  1 active torsions:
REMARK  status: ('A' for Active; 'I' for Inactive)
REMARK    1  A    between atoms: C5_5  and  C10_10 
ROOT
HETATM    1  C1  UNL     1     -35.947  15.963  -7.137  1.00 20.00     0.019 C 
HETATM    2  C2  UNL     1     -33.226  15.020  -4.710  1.00 20.00     0.017 A 
HETATM    3  C3  UNL     1     -35.288  14.790  -7.852  1.00 20.00     0.075 C 
HETATM    4  C4  UNL     1     -35.553  14.010  -5.197  1.00 20.00     0.084 C 
HETATM    5  C5  UNL     1     -34.130  15.413  -3.584  1.00 20.00     0.006 A 
HETATM    6  C6  UNL     1     -34.707  15.257  -5.003  1.00 20.00    -0.020 A 
HETATM    7  C7  UNL     1     -35.166  16.469  -5.877  1.00 20.00    -0.038 C 
HETATM    8  C8  UNL     1     -36.151  17.364  -5.094  1.00 20.00     0.015 C 
HETATM    9  C9  UNL     1     -34.003  17.345  -6.385  1.00 20.00     0.015 C 
HETATM   10  S11 UNL     1     -35.265  13.285  -6.834  1.00 20.00    -0.168 SA
ENDROOT
BRANCH   5  11
HETATM   11  C10 UNL     1     -33.867  16.678  -2.850  1.00 20.00     0.090 C 
HETATM   12 BR12 UNL     1     -35.208  16.957  -1.457  1.00 20.00    -0.096 Br
ENDBRANCH   5  11
TORSDOF 1
ENDMDL
MODEL 5
REMARK VINA RESULT:      -3.9      1.383      1.455
REMARK  1 active torsions:
REMARK  status: ('A' for Active; 'I' for Inactive)
REMARK    1  A    between atoms: C5_5  and  C10_10 
ROOT
HETATM    1  C1  UNL     1     -34.516  14.163  -6.640  1.00 20.00     0.019 C 
HETATM    2  C2  UNL     1     -36.538  16.178  -4.185  1.00 20.00     0.017 A 
HETATM    3  C3  UNL     1     -35.932  13.691  -6.945  1.00 20.00     0.075 C 
HETATM    4  C4  UNL     1     -36.086  16.456  -6.712  1.00 20.00     0.084 C 
HETATM    5  C5  UNL     1     -35.563  17.303  -4.345  1.00 20.00     0.006 A 
HETATM    6  C6  UNL     1     -35.534  16.125  -5.336  1.00 20.00    -0.020 A 
HETATM    7  C7  UNL     1     -34.397  15.053  -5.358  1.00 20.00    -0.038 C 
HETATM    8  C8  UNL     1     -33.011  15.730  -5.433  1.00 20.00     0.015 C 
HETATM    9  C9  UNL     1     -34.414  14.103  -4.142  1.00 20.00     0.015 C 
HETATM   10  S11 UNL     1     -37.040  15.065  -7.376  1.00 20.00    -0.168 SA
ENDROOT
BRANCH   5  11
HETATM   11  C10 UNL     1     -34.598  17.587  -3.252  1.00 20.00     0.090 C 
HETATM   12 BR12 UNL     1     -35.300  16.971  -1.536  1.00 20.00    -0.096 Br
ENDBRANCH   5  11
TORSDOF 1
ENDMDL
MODEL 6
REMARK VINA RESULT:      -3.8      2.172      3.417
REMARK  1 active torsions:
REMARK  status: ('A' for Active; 'I' for Inactive)
REMARK    1  A    between atoms: C5_5  and  C10_10 
ROOT
HETATM    1  C1  UNL     1     -35.533  16.956  -5.590  1.00 20.00     0.019 C 
HETATM    2  C2  UNL     1     -33.613  17.403  -2.381  1.00 20.00     0.017 A 
HETATM    3  C3  UNL     1     -34.092  16.897  -6.081  1.00 20.00     0.075 C 
HETATM    4  C4  UNL     1     -34.181  15.318  -3.795  1.00 20.00     0.084 C 
HETATM    5  C5  UNL     1     -34.691  16.654  -1.662  1.00 20.00     0.006 A 
HETATM    6  C6  UNL     1     -34.649  16.635  -3.201  1.00 20.00    -0.020 A 
HETATM    7  C7  UNL     1     -35.685  17.393  -4.094  1.00 20.00    -0.038 C 
HETATM    8  C8  UNL     1     -37.128  17.028  -3.685  1.00 20.00     0.015 C 
HETATM    9  C9  UNL     1     -35.536  18.928  -4.052  1.00 20.00     0.015 C 
HETATM   10  S11 UNL     1     -33.130  15.602  -5.245  1.00 20.00    -0.168 SA
ENDROOT
BRANCH   5  11
HETATM   11  C10 UNL     1     -35.637  17.401  -0.793  1.00 20.00     0.090 C 
HETATM   12 BR12 UNL     1     -34.674  18.349   0.618  1.00 20.00    -0.096 Br
ENDBRANCH   5  11
TORSDOF 1
ENDMDL
MODEL 7
REMARK VINA RESULT:      -3.8      2.848      4.118
REMARK  1 active torsions:
REMARK  status: ('A' for Active; 'I' for Inactive)
REMARK    1  A    between atoms: C5_5  and  C10_10 
ROOT
HETATM    1  C1  UNL     1     -36.128  17.164  -2.985  1.00 20.00     0.019 C 
HETATM    2  C2  UNL     1     -33.412  15.273  -4.781  1.00 20.00     0.017 A 
HETATM    3  C3  UNL     1     -35.234  16.734  -1.828  1.00 20.00     0.075 C 
HETATM    4  C4  UNL     1     -33.519  17.663  -3.809  1.00 20.00     0.084 C 
HETATM    5  C5  UNL     1     -33.551  16.219  -5.933  1.00 20.00     0.006 A 
HETATM    6  C6  UNL     1     -34.215  16.558  -4.586  1.00 20.00    -0.020 A 
HETATM    7  C7  UNL     1     -35.761  16.510  -4.359  1.00 20.00    -0.038 C 
HETATM    8  C8  UNL     1     -36.497  17.335  -5.436  1.00 20.00     0.015 C 
HETATM    9  C9  UNL     1     -36.344  15.081  -4.351  1.00 20.00     0.015 C 
HETATM   10  S11 UNL     1     -33.519  17.301  -2.033  1.00 20.00    -0.168 SA
ENDROOT
BRANCH   5  11
HETATM   11  C10 UNL     1     -34.217  15.755  -7.177  1.00 20.00     0.090 C 
HETATM   12 BR12 UNL     1     -34.326  13.805  -7.213  1.00 20.00    -0.096 Br
ENDBRANCH   5  11
TORSDOF 1
ENDMDL
MODEL 8
REMARK VINA RESULT:      -3.7      2.785      4.231
REMARK  1 active torsions:
REMARK  status: ('A' for Active; 'I' for Inactive)
REMARK    1  A    between atoms: C5_5  and  C10_10 
ROOT
HETATM    1  C1  UNL     1     -35.255  19.081  -3.050  1.00 20.00     0.019 C 
HETATM    2  C2  UNL     1     -34.842  15.378  -3.593  1.00 20.00     0.017 A 
HETATM    3  C3  UNL     1     -36.152  18.507  -1.960  1.00 20.00     0.075 C 
HETATM    4  C4  UNL     1     -33.809  17.013  -1.882  1.00 20.00     0.084 C 
HETATM    5  C5  UNL     1     -33.425  15.622  -4.006  1.00 20.00     0.006 A 
HETATM    6  C6  UNL     1     -34.221  16.747  -3.319  1.00 20.00    -0.020 A 
HETATM    7  C7  UNL     1     -34.727  18.020  -4.073  1.00 20.00    -0.038 C 
HETATM    8  C8  UNL     1     -33.568  18.699  -4.834  1.00 20.00     0.015 C 
HETATM    9  C9  UNL     1     -35.871  17.740  -5.069  1.00 20.00     0.015 C 
HETATM   10  S11 UNL     1     -35.257  17.377  -0.853  1.00 20.00    -0.168 SA
ENDROOT
BRANCH   5  11
HETATM   11  C10 UNL     1     -33.060  15.522  -5.443  1.00 20.00     0.090 C 
HETATM   12 BR12 UNL     1     -34.356  14.421  -6.406  1.00 20.00    -0.096 Br
ENDBRANCH   5  11
TORSDOF 1
ENDMDL
MODEL 9
REMARK VINA RESULT:      -3.7      1.780      2.635
REMARK  1 active torsions:
REMARK  status: ('A' for Active; 'I' for Inactive)
REMARK    1  A    between atoms: C5_5  and  C10_10 
ROOT
HETATM    1  C1  UNL     1     -35.174  13.947  -4.557  1.00 20.00     0.019 C 
HETATM    2  C2  UNL     1     -35.634  17.116  -6.539  1.00 20.00     0.017 A 
HETATM    3  C3  UNL     1     -35.639  13.405  -5.903  1.00 20.00     0.075 C 
HETATM    4  C4  UNL     1     -33.745  15.355  -6.483  1.00 20.00     0.084 C 
HETATM    5  C5  UNL     1     -34.482  17.717  -5.796  1.00 20.00     0.006 A 
HETATM    6  C6  UNL     1     -34.738  16.201  -5.704  1.00 20.00    -0.020 A 
HETATM    7  C7  UNL     1     -35.284  15.503  -4.417  1.00 20.00    -0.038 C 
HETATM    8  C8  UNL     1     -34.434  15.883  -3.187  1.00 20.00     0.015 C 
HETATM    9  C9  UNL     1     -36.761  15.827  -4.113  1.00 20.00     0.015 C 
HETATM   10  S11 UNL     1     -34.576  13.950  -7.272  1.00 20.00    -0.168 SA
ENDROOT
BRANCH   5  11
HETATM   11  C10 UNL     1     -34.747  18.742  -4.753  1.00 20.00     0.090 C 
HETATM   12 BR12 UNL     1     -33.089  19.258  -3.858  1.00 20.00    -0.096 Br
ENDBRANCH   5  11
TORSDOF 1
ENDMDL
