MODEL 1
REMARK VINA RESULT:      -4.8      0.000      0.000
REMARK  2 active torsions:
REMARK  status: ('A' for Active; 'I' for Inactive)
REMARK    1  A    between atoms: C4_4  and  C8_8 
REMARK    2  A    between atoms: C8_8  and  O9_9 
ROOT
HETATM    1  C1  UNL     1     -31.504   8.114   3.288  1.00 20.00     0.018 A 
HETATM    2  C2  UNL     1     -34.085   7.842   3.507  1.00 20.00     0.025 C 
HETATM    3  C3  UNL     1     -32.720   5.871   2.781  1.00 20.00     0.084 C 
HETATM    4  C4  UNL     1     -32.043   8.208   1.890  1.00 20.00     0.019 A 
HETATM    5  C5  UNL     1     -34.532   6.813   4.541  1.00 20.00     0.044 C 
HETATM    6  C6  UNL     1     -32.775   7.371   2.925  1.00 20.00    -0.025 A 
HETATM    7  C7  UNL     1     -33.817   6.966   5.878  1.00 20.00     0.021 C 
HETATM    8  S10 UNL     1     -34.101   5.226   3.773  1.00 20.00    -0.164 SA
ENDROOT
BRANCH   4   9
HETATM    9  C8  UNL     1     -32.585   9.499   1.381  1.00 20.00     0.169 C 
BRANCH   9  10
HETATM   10  O9  UNL     1     -32.848   9.397  -0.018  1.00 20.00    -0.400 OA
HETATM   11  H24 UNL     1     -32.814   8.453  -0.236  1.00 20.00     0.209 HD
ENDBRANCH   9  10
ENDBRANCH   4   9
TORSDOF 2
ENDMDL
MODEL 2
REMARK VINA RESULT:      -4.0     10.924     11.635
REMARK  2 active torsions:
REMARK  status: ('A' for Active; 'I' for Inactive)
REMARK    1  A    between atoms: C4_4  and  C8_8 
REMARK    2  A    between atoms: C8_8  and  O9_9 
ROOT
HETATM    1  C1  UNL     1     -36.530  15.390  -4.194  1.00 20.00     0.018 A 
HETATM    2  C2  UNL     1     -34.013  15.694  -3.596  1.00 20.00     0.025 C 
HETATM    3  C3  UNL     1     -35.185  17.519  -4.849  1.00 20.00     0.084 C 
HETATM    4  C4  UNL     1     -35.771  15.068  -5.449  1.00 20.00     0.019 A 
HETATM    5  C5  UNL     1     -33.713  16.878  -2.683  1.00 20.00     0.044 C 
HETATM    6  C6  UNL     1     -35.196  16.063  -4.456  1.00 20.00    -0.025 A 
HETATM    7  C7  UNL     1     -34.641  16.948  -1.476  1.00 20.00     0.021 C 
HETATM    8  S10 UNL     1     -33.968  18.318  -3.759  1.00 20.00    -0.164 SA
ENDROOT
BRANCH   4   9
HETATM    9  C8  UNL     1     -35.189  13.710  -5.644  1.00 20.00     0.169 C 
BRANCH   9  10
HETATM   10  O9  UNL     1     -36.013  12.732  -5.010  1.00 20.00    -0.400 OA
HETATM   11  H24 UNL     1     -36.857  13.168  -4.815  1.00 20.00     0.209 HD
ENDBRANCH   9  10
ENDBRANCH   4   9
TORSDOF 2
ENDMDL
MODEL 3
REMARK VINA RESULT:      -4.0     10.573     11.804
REMARK  2 active torsions:
REMARK  status: ('A' for Active; 'I' for Inactive)
REMARK    1  A    between atoms: C4_4  and  C8_8 
REMARK    2  A    between atoms: C8_8  and  O9_9 
ROOT
HETATM    1  C1  UNL     1     -33.385  15.120  -4.210  1.00 20.00     0.018 A 
HETATM    2  C2  UNL     1     -35.134  16.957  -4.802  1.00 20.00     0.025 C 
HETATM    3  C3  UNL     1     -34.706  16.428  -2.391  1.00 20.00     0.084 C 
HETATM    4  C4  UNL     1     -34.727  14.462  -4.077  1.00 20.00     0.019 A 
HETATM    5  C5  UNL     1     -34.796  18.350  -4.280  1.00 20.00     0.044 C 
HETATM    6  C6  UNL     1     -34.590  15.952  -3.816  1.00 20.00    -0.025 A 
HETATM    7  C7  UNL     1     -33.357  18.760  -4.568  1.00 20.00     0.021 C 
HETATM    8  S10 UNL     1     -35.065  18.209  -2.490  1.00 20.00    -0.164 SA
ENDROOT
BRANCH   4   9
HETATM    9  C8  UNL     1     -35.420  13.923  -5.281  1.00 20.00     0.169 C 
BRANCH   9  10
HETATM   10  O9  UNL     1     -35.919  12.614  -5.009  1.00 20.00    -0.400 OA
HETATM   11  H24 UNL     1     -35.146  12.030  -4.964  1.00 20.00     0.209 HD
ENDBRANCH   9  10
ENDBRANCH   4   9
TORSDOF 2
ENDMDL
MODEL 4
REMARK VINA RESULT:      -3.8     10.487     11.225
REMARK  2 active torsions:
REMARK  status: ('A' for Active; 'I' for Inactive)
REMARK    1  A    between atoms: C4_4  and  C8_8 
REMARK    2  A    between atoms: C8_8  and  O9_9 
ROOT
HETATM    1  C1  UNL     1     -33.918  17.146  -4.318  1.00 20.00     0.018 A 
HETATM    2  C2  UNL     1     -35.396  16.332  -2.334  1.00 20.00     0.025 C 
HETATM    3  C3  UNL     1     -33.221  17.469  -1.832  1.00 20.00     0.084 C 
HETATM    4  C4  UNL     1     -33.305  15.856  -3.857  1.00 20.00     0.019 A 
HETATM    5  C5  UNL     1     -35.883  17.439  -1.405  1.00 20.00     0.044 C 
HETATM    6  C6  UNL     1     -34.042  16.737  -2.863  1.00 20.00    -0.025 A 
HETATM    7  C7  UNL     1     -36.469  18.629  -2.156  1.00 20.00     0.021 C 
HETATM    8  S10 UNL     1     -34.383  17.934  -0.511  1.00 20.00    -0.164 SA
ENDROOT
BRANCH   4   9
HETATM    9  C8  UNL     1     -33.856  14.555  -4.330  1.00 20.00     0.169 C 
BRANCH   9  10
HETATM   10  O9  UNL     1     -32.803  13.599  -4.455  1.00 20.00    -0.400 OA
HETATM   11  H24 UNL     1     -32.999  13.077  -5.249  1.00 20.00     0.209 HD
ENDBRANCH   9  10
ENDBRANCH   4   9
TORSDOF 2
ENDMDL
MODEL 5
REMARK VINA RESULT:      -3.7     11.089     12.211
REMARK  2 active torsions:
REMARK  status: ('A' for Active; 'I' for Inactive)
REMARK    1  A    between atoms: C4_4  and  C8_8 
REMARK    2  A    between atoms: C8_8  and  O9_9 
ROOT
HETATM    1  C1  UNL     1     -34.884  16.884  -2.417  1.00 20.00     0.018 A 
HETATM    2  C2  UNL     1     -33.651  17.922  -4.464  1.00 20.00     0.025 C 
HETATM    3  C3  UNL     1     -33.372  15.476  -3.998  1.00 20.00     0.084 C 
HETATM    4  C4  UNL     1     -33.465  17.091  -1.975  1.00 20.00     0.019 A 
HETATM    5  C5  UNL     1     -34.062  17.344  -5.815  1.00 20.00     0.044 C 
HETATM    6  C6  UNL     1     -33.765  16.820  -3.439  1.00 20.00    -0.025 A 
HETATM    7  C7  UNL     1     -35.574  17.260  -5.990  1.00 20.00     0.021 C 
HETATM    8  S10 UNL     1     -33.334  15.682  -5.805  1.00 20.00    -0.164 SA
ENDROOT
BRANCH   4   9
HETATM    9  C8  UNL     1     -33.020  18.427  -1.487  1.00 20.00     0.169 C 
BRANCH   9  10
HETATM   10  O9  UNL     1     -31.746  18.313  -0.853  1.00 20.00    -0.400 OA
HETATM   11  H24 UNL     1     -31.873  17.738  -0.083  1.00 20.00     0.209 HD
ENDBRANCH   9  10
ENDBRANCH   4   9
TORSDOF 2
ENDMDL
MODEL 6
REMARK VINA RESULT:      -3.7     11.668     12.824
REMARK  2 active torsions:
REMARK  status: ('A' for Active; 'I' for Inactive)
REMARK    1  A    between atoms: C4_4  and  C8_8 
REMARK    2  A    between atoms: C8_8  and  O9_9 
ROOT
HETATM    1  C1  UNL     1     -33.998  14.993  -7.389  1.00 20.00     0.018 A 
HETATM    2  C2  UNL     1     -35.545  16.433  -5.867  1.00 20.00     0.025 C 
HETATM    3  C3  UNL     1     -33.157  16.098  -5.190  1.00 20.00     0.084 C 
HETATM    4  C4  UNL     1     -34.405  14.095  -6.257  1.00 20.00     0.019 A 
HETATM    5  C5  UNL     1     -35.108  17.885  -5.706  1.00 20.00     0.044 C 
HETATM    6  C6  UNL     1     -34.302  15.593  -6.030  1.00 20.00    -0.025 A 
HETATM    7  C7  UNL     1     -34.763  18.552  -7.033  1.00 20.00     0.021 C 
HETATM    8  S10 UNL     1     -33.633  17.771  -4.655  1.00 20.00    -0.164 SA
ENDROOT
BRANCH   4   9
HETATM    9  C8  UNL     1     -35.713  13.383  -6.299  1.00 20.00     0.169 C 
BRANCH   9  10
HETATM   10  O9  UNL     1     -35.919  12.674  -5.078  1.00 20.00    -0.400 OA
HETATM   11  H24 UNL     1     -35.116  12.153  -4.923  1.00 20.00     0.209 HD
ENDBRANCH   9  10
ENDBRANCH   4   9
TORSDOF 2
ENDMDL
MODEL 7
REMARK VINA RESULT:      -3.6     11.152     12.061
REMARK  2 active torsions:
REMARK  status: ('A' for Active; 'I' for Inactive)
REMARK    1  A    between atoms: C4_4  and  C8_8 
REMARK    2  A    between atoms: C8_8  and  O9_9 
ROOT
HETATM    1  C1  UNL     1     -35.705  14.020  -4.903  1.00 20.00     0.018 A 
HETATM    2  C2  UNL     1     -33.777  15.688  -5.441  1.00 20.00     0.025 C 
HETATM    3  C3  UNL     1     -36.139  16.525  -5.458  1.00 20.00     0.084 C 
HETATM    4  C4  UNL     1     -35.688  14.153  -6.398  1.00 20.00     0.019 A 
HETATM    5  C5  UNL     1     -33.653  16.855  -4.467  1.00 20.00     0.044 C 
HETATM    6  C6  UNL     1     -35.238  15.319  -5.533  1.00 20.00    -0.025 A 
HETATM    7  C7  UNL     1     -33.693  16.417  -3.008  1.00 20.00     0.021 C 
HETATM    8  S10 UNL     1     -35.095  17.887  -4.855  1.00 20.00    -0.164 SA
ENDROOT
BRANCH   4   9
HETATM    9  C8  UNL     1     -34.733  13.348  -7.210  1.00 20.00     0.169 C 
BRANCH   9  10
HETATM   10  O9  UNL     1     -35.072  11.964  -7.129  1.00 20.00    -0.400 OA
HETATM   11  H24 UNL     1     -36.035  11.923  -7.022  1.00 20.00     0.209 HD
ENDBRANCH   9  10
ENDBRANCH   4   9
TORSDOF 2
ENDMDL
MODEL 8
REMARK VINA RESULT:      -3.6     10.464     11.482
REMARK  2 active torsions:
REMARK  status: ('A' for Active; 'I' for Inactive)
REMARK    1  A    between atoms: C4_4  and  C8_8 
REMARK    2  A    between atoms: C8_8  and  O9_9 
ROOT
HETATM    1  C1  UNL     1     -35.015  16.361  -2.331  1.00 20.00     0.018 A 
HETATM    2  C2  UNL     1     -35.613  16.467  -4.864  1.00 20.00     0.025 C 
HETATM    3  C3  UNL     1     -34.465  14.424  -3.978  1.00 20.00     0.084 C 
HETATM    4  C4  UNL     1     -33.740  16.725  -3.035  1.00 20.00     0.019 A 
HETATM    5  C5  UNL     1     -36.585  15.391  -5.335  1.00 20.00     0.044 C 
HETATM    6  C6  UNL     1     -34.780  15.880  -3.750  1.00 20.00    -0.025 A 
HETATM    7  C7  UNL     1     -37.800  15.249  -4.425  1.00 20.00     0.021 C 
HETATM    8  S10 UNL     1     -35.589  13.874  -5.299  1.00 20.00    -0.164 SA
ENDROOT
BRANCH   4   9
HETATM    9  C8  UNL     1     -33.469  18.141  -3.409  1.00 20.00     0.169 C 
BRANCH   9  10
HETATM   10  O9  UNL     1     -32.660  18.761  -2.410  1.00 20.00    -0.400 OA
HETATM   11  H24 UNL     1     -31.862  18.218  -2.326  1.00 20.00     0.209 HD
ENDBRANCH   9  10
ENDBRANCH   4   9
TORSDOF 2
ENDMDL
MODEL 9
REMARK VINA RESULT:      -3.5     10.586     12.138
REMARK  2 active torsions:
REMARK  status: ('A' for Active; 'I' for Inactive)
REMARK    1  A    between atoms: C4_4  and  C8_8 
REMARK    2  A    between atoms: C8_8  and  O9_9 
ROOT
HETATM    1  C1  UNL     1     -36.534  14.075  -6.361  1.00 20.00     0.018 A 
HETATM    2  C2  UNL     1     -35.689  16.283  -5.268  1.00 20.00     0.025 C 
HETATM    3  C3  UNL     1     -34.803  14.098  -4.419  1.00 20.00     0.084 C 
HETATM    4  C4  UNL     1     -37.305  14.216  -5.080  1.00 20.00     0.019 A 
HETATM    5  C5  UNL     1     -34.190  16.530  -5.408  1.00 20.00     0.044 C 
HETATM    6  C6  UNL     1     -35.903  14.791  -5.182  1.00 20.00    -0.025 A 
HETATM    7  C7  UNL     1     -33.684  16.318  -6.830  1.00 20.00     0.021 C 
HETATM    8  S10 UNL     1     -33.451  15.309  -4.287  1.00 20.00    -0.164 SA
ENDROOT
BRANCH   4   9
HETATM    9  C8  UNL     1     -38.519  15.079  -5.028  1.00 20.00     0.169 C 
BRANCH   9  10
HETATM   10  O9  UNL     1     -38.949  15.231  -3.676  1.00 20.00    -0.400 OA
HETATM   11  H24 UNL     1     -39.597  14.529  -3.513  1.00 20.00     0.209 HD
ENDBRANCH   9  10
ENDBRANCH   4   9
TORSDOF 2
ENDMDL
