MODEL 1
REMARK VINA RESULT:      -4.9      0.000      0.000
REMARK  2 active torsions:
REMARK  status: ('A' for Active; 'I' for Inactive)
REMARK    1  A    between atoms: C5_5  and  C8_8 
REMARK    2  A    between atoms: C9_9  and  C10_10 
ROOT
HETATM    1  C1  UNL     1     -32.340   7.926   3.530  1.00 20.00     0.009 A 
HETATM    2  C2  UNL     1     -33.832   6.459   2.322  1.00 20.00     0.009 A 
HETATM    3  C3  UNL     1     -32.927   7.532   4.732  1.00 20.00     0.024 A 
HETATM    4  C4  UNL     1     -34.419   6.066   3.524  1.00 20.00     0.024 A 
HETATM    5  C5  UNL     1     -32.793   7.390   2.325  1.00 20.00    -0.053 A 
HETATM    6  C6  UNL     1     -33.966   6.602   4.730  1.00 20.00     0.034 A 
HETATM    7 CL11 UNL     1     -34.691   6.116   6.213  1.00 20.00    -0.084 Cl
ENDROOT
BRANCH   5   8
HETATM    8  C8  UNL     1     -32.165   7.811   1.041  1.00 20.00     0.024 A 
HETATM    9  C7  UNL     1     -31.116   8.897   1.060  1.00 20.00     0.016 A 
HETATM   10  C9  UNL     1     -32.454   9.170   0.440  1.00 20.00     0.008 A 
BRANCH  10  11
HETATM   11  C10 UNL     1     -33.383  10.151   1.071  1.00 20.00     0.119 C 
HETATM   12 CL12 UNL     1     -32.487  11.380   2.004  1.00 20.00    -0.130 Cl
ENDBRANCH  10  11
ENDBRANCH   5   8
TORSDOF 2
ENDMDL
MODEL 2
REMARK VINA RESULT:      -4.8      1.456      1.620
REMARK  2 active torsions:
REMARK  status: ('A' for Active; 'I' for Inactive)
REMARK    1  A    between atoms: C5_5  and  C8_8 
REMARK    2  A    between atoms: C9_9  and  C10_10 
ROOT
HETATM    1  C1  UNL     1     -32.955   7.829   4.490  1.00 20.00     0.009 A 
HETATM    2  C2  UNL     1     -32.792   6.279   2.644  1.00 20.00     0.009 A 
HETATM    3  C3  UNL     1     -33.805   6.946   5.156  1.00 20.00     0.024 A 
HETATM    4  C4  UNL     1     -33.642   5.396   3.310  1.00 20.00     0.024 A 
HETATM    5  C5  UNL     1     -32.449   7.496   3.234  1.00 20.00    -0.053 A 
HETATM    6  C6  UNL     1     -34.148   5.729   4.567  1.00 20.00     0.034 A 
HETATM    7 CL11 UNL     1     -35.197   4.639   5.388  1.00 20.00    -0.084 Cl
ENDROOT
BRANCH   5   8
HETATM    8  C8  UNL     1     -31.542   8.440   2.523  1.00 20.00     0.024 A 
HETATM    9  C7  UNL     1     -31.961   9.882   2.369  1.00 20.00     0.016 A 
HETATM   10  C9  UNL     1     -31.903   8.994   1.162  1.00 20.00     0.008 A 
BRANCH  10  11
HETATM   11  C10 UNL     1     -33.159   8.624   0.447  1.00 20.00     0.119 C 
HETATM   12 CL12 UNL     1     -33.543   9.804  -0.836  1.00 20.00    -0.130 Cl
ENDBRANCH  10  11
ENDBRANCH   5   8
TORSDOF 2
ENDMDL
MODEL 3
REMARK VINA RESULT:      -4.5     10.391     11.455
REMARK  2 active torsions:
REMARK  status: ('A' for Active; 'I' for Inactive)
REMARK    1  A    between atoms: C5_5  and  C8_8 
REMARK    2  A    between atoms: C9_9  and  C10_10 
ROOT
HETATM    1  C1  UNL     1     -34.853  14.949  -3.755  1.00 20.00     0.009 A 
HETATM    2  C2  UNL     1     -33.233  16.378  -4.838  1.00 20.00     0.009 A 
HETATM    3  C3  UNL     1     -34.962  14.190  -4.920  1.00 20.00     0.024 A 
HETATM    4  C4  UNL     1     -33.342  15.619  -6.003  1.00 20.00     0.024 A 
HETATM    5  C5  UNL     1     -33.989  16.043  -3.714  1.00 20.00    -0.053 A 
HETATM    6  C6  UNL     1     -34.207  14.524  -6.044  1.00 20.00     0.034 A 
HETATM    7 CL11 UNL     1     -34.341  13.588  -7.481  1.00 20.00    -0.084 Cl
ENDROOT
BRANCH   5   8
HETATM    8  C8  UNL     1     -33.874  16.854  -2.469  1.00 20.00     0.024 A 
HETATM    9  C7  UNL     1     -35.000  16.818  -1.464  1.00 20.00     0.016 A 
HETATM   10  C9  UNL     1     -34.745  18.072  -2.247  1.00 20.00     0.008 A 
BRANCH  10  11
HETATM   11  C10 UNL     1     -35.745  18.543  -3.248  1.00 20.00     0.119 C 
HETATM   12 CL12 UNL     1     -37.292  17.671  -3.076  1.00 20.00    -0.130 Cl
ENDBRANCH  10  11
ENDBRANCH   5   8
TORSDOF 2
ENDMDL
MODEL 4
REMARK VINA RESULT:      -4.5     10.431     11.094
REMARK  2 active torsions:
REMARK  status: ('A' for Active; 'I' for Inactive)
REMARK    1  A    between atoms: C5_5  and  C8_8 
REMARK    2  A    between atoms: C9_9  and  C10_10 
ROOT
HETATM    1  C1  UNL     1     -33.108  17.467  -1.912  1.00 20.00     0.009 A 
HETATM    2  C2  UNL     1     -35.361  16.835  -1.310  1.00 20.00     0.009 A 
HETATM    3  C3  UNL     1     -33.015  18.239  -0.754  1.00 20.00     0.024 A 
HETATM    4  C4  UNL     1     -35.268  17.607  -0.153  1.00 20.00     0.024 A 
HETATM    5  C5  UNL     1     -34.280  16.765  -2.190  1.00 20.00    -0.053 A 
HETATM    6  C6  UNL     1     -34.095  18.310   0.126  1.00 20.00     0.034 A 
HETATM    7 CL11 UNL     1     -33.982  19.263   1.554  1.00 20.00    -0.084 Cl
ENDROOT
BRANCH   5   8
HETATM    8  C8  UNL     1     -34.378  15.940  -3.427  1.00 20.00     0.024 A 
HETATM    9  C7  UNL     1     -33.421  16.208  -4.564  1.00 20.00     0.016 A 
HETATM   10  C9  UNL     1     -34.876  16.537  -4.726  1.00 20.00     0.008 A 
BRANCH  10  11
HETATM   11  C10 UNL     1     -35.311  17.958  -4.847  1.00 20.00     0.119 C 
HETATM   12 CL12 UNL     1     -37.052  18.133  -4.500  1.00 20.00    -0.130 Cl
ENDBRANCH  10  11
ENDBRANCH   5   8
TORSDOF 2
ENDMDL
MODEL 5
REMARK VINA RESULT:      -4.5      9.920     10.898
REMARK  2 active torsions:
REMARK  status: ('A' for Active; 'I' for Inactive)
REMARK    1  A    between atoms: C5_5  and  C8_8 
REMARK    2  A    between atoms: C9_9  and  C10_10 
ROOT
HETATM    1  C1  UNL     1     -35.244  16.942  -2.707  1.00 20.00     0.009 A 
HETATM    2  C2  UNL     1     -33.084  17.882  -2.170  1.00 20.00     0.009 A 
HETATM    3  C3  UNL     1     -35.628  17.062  -1.371  1.00 20.00     0.024 A 
HETATM    4  C4  UNL     1     -33.468  18.003  -0.834  1.00 20.00     0.024 A 
HETATM    5  C5  UNL     1     -33.972  17.351  -3.106  1.00 20.00    -0.053 A 
HETATM    6  C6  UNL     1     -34.741  17.593  -0.435  1.00 20.00     0.034 A 
HETATM    7 CL11 UNL     1     -35.214  17.741   1.213  1.00 20.00    -0.084 Cl
ENDROOT
BRANCH   5   8
HETATM    8  C8  UNL     1     -33.562  17.222  -4.532  1.00 20.00     0.024 A 
HETATM    9  C7  UNL     1     -34.471  16.492  -5.492  1.00 20.00     0.016 A 
HETATM   10  C9  UNL     1     -33.154  15.883  -5.109  1.00 20.00     0.008 A 
BRANCH  10  11
HETATM   11  C10 UNL     1     -33.118  14.632  -4.299  1.00 20.00     0.119 C 
HETATM   12 CL12 UNL     1     -34.716  13.838  -4.263  1.00 20.00    -0.130 Cl
ENDBRANCH  10  11
ENDBRANCH   5   8
TORSDOF 2
ENDMDL
MODEL 6
REMARK VINA RESULT:      -4.5      9.678     10.893
REMARK  2 active torsions:
REMARK  status: ('A' for Active; 'I' for Inactive)
REMARK    1  A    between atoms: C5_5  and  C8_8 
REMARK    2  A    between atoms: C9_9  and  C10_10 
ROOT
HETATM    1  C1  UNL     1     -35.595  16.889  -1.778  1.00 20.00     0.009 A 
HETATM    2  C2  UNL     1     -33.659  17.591  -3.041  1.00 20.00     0.009 A 
HETATM    3  C3  UNL     1     -35.000  17.356  -0.606  1.00 20.00     0.024 A 
HETATM    4  C4  UNL     1     -33.064  18.059  -1.869  1.00 20.00     0.024 A 
HETATM    5  C5  UNL     1     -34.925  17.006  -2.995  1.00 20.00    -0.053 A 
HETATM    6  C6  UNL     1     -33.735  17.942  -0.651  1.00 20.00     0.034 A 
HETATM    7 CL11 UNL     1     -33.000  18.518   0.794  1.00 20.00    -0.084 Cl
ENDROOT
BRANCH   5   8
HETATM    8  C8  UNL     1     -35.561  16.506  -4.246  1.00 20.00     0.024 A 
HETATM    9  C7  UNL     1     -36.661  15.477  -4.147  1.00 20.00     0.016 A 
HETATM   10  C9  UNL     1     -35.332  15.088  -4.725  1.00 20.00     0.008 A 
BRANCH  10  11
HETATM   11  C10 UNL     1     -34.457  14.122  -4.001  1.00 20.00     0.119 C 
HETATM   12 CL12 UNL     1     -32.739  14.372  -4.414  1.00 20.00    -0.130 Cl
ENDBRANCH  10  11
ENDBRANCH   5   8
TORSDOF 2
ENDMDL
MODEL 7
REMARK VINA RESULT:      -4.5     10.383     11.110
REMARK  2 active torsions:
REMARK  status: ('A' for Active; 'I' for Inactive)
REMARK    1  A    between atoms: C5_5  and  C8_8 
REMARK    2  A    between atoms: C9_9  and  C10_10 
ROOT
HETATM    1  C1  UNL     1     -35.516  16.639  -1.543  1.00 20.00     0.009 A 
HETATM    2  C2  UNL     1     -33.259  17.388  -1.968  1.00 20.00     0.009 A 
HETATM    3  C3  UNL     1     -35.544  17.389  -0.367  1.00 20.00     0.024 A 
HETATM    4  C4  UNL     1     -33.286  18.138  -0.792  1.00 20.00     0.024 A 
HETATM    5  C5  UNL     1     -34.374  16.638  -2.343  1.00 20.00    -0.053 A 
HETATM    6  C6  UNL     1     -34.429  18.139   0.008  1.00 20.00     0.034 A 
HETATM    7 CL11 UNL     1     -34.462  19.064   1.459  1.00 20.00    -0.084 Cl
ENDROOT
BRANCH   5   8
HETATM    8  C8  UNL     1     -34.345  15.837  -3.599  1.00 20.00     0.024 A 
HETATM    9  C7  UNL     1     -33.293  16.141  -4.638  1.00 20.00     0.016 A 
HETATM   10  C9  UNL     1     -34.731  16.453  -4.926  1.00 20.00     0.008 A 
BRANCH  10  11
HETATM   11  C10 UNL     1     -35.175  17.870  -5.061  1.00 20.00     0.119 C 
HETATM   12 CL12 UNL     1     -33.783  18.968  -5.261  1.00 20.00    -0.130 Cl
ENDBRANCH  10  11
ENDBRANCH   5   8
TORSDOF 2
ENDMDL
MODEL 8
REMARK VINA RESULT:      -4.4     10.160     11.145
REMARK  2 active torsions:
REMARK  status: ('A' for Active; 'I' for Inactive)
REMARK    1  A    between atoms: C5_5  and  C8_8 
REMARK    2  A    between atoms: C9_9  and  C10_10 
ROOT
HETATM    1  C1  UNL     1     -34.139  14.658  -4.455  1.00 20.00     0.009 A 
HETATM    2  C2  UNL     1     -36.381  15.417  -3.972  1.00 20.00     0.009 A 
HETATM    3  C3  UNL     1     -33.635  15.529  -3.490  1.00 20.00     0.024 A 
HETATM    4  C4  UNL     1     -35.878  16.289  -3.006  1.00 20.00     0.024 A 
HETATM    5  C5  UNL     1     -35.511  14.602  -4.697  1.00 20.00    -0.053 A 
HETATM    6  C6  UNL     1     -34.505  16.345  -2.765  1.00 20.00     0.034 A 
HETATM    7 CL11 UNL     1     -33.884  17.421  -1.573  1.00 20.00    -0.084 Cl
ENDROOT
BRANCH   5   8
HETATM    8  C8  UNL     1     -36.048  13.671  -5.729  1.00 20.00     0.024 A 
HETATM    9  C7  UNL     1     -35.139  13.212  -6.844  1.00 20.00     0.016 A 
HETATM   10  C9  UNL     1     -36.283  14.133  -7.150  1.00 20.00     0.008 A 
BRANCH  10  11
HETATM   11  C10 UNL     1     -36.016  15.530  -7.600  1.00 20.00     0.119 C 
HETATM   12 CL12 UNL     1     -34.278  15.786  -7.915  1.00 20.00    -0.130 Cl
ENDBRANCH  10  11
ENDBRANCH   5   8
TORSDOF 2
ENDMDL
MODEL 9
REMARK VINA RESULT:      -4.4     10.060     11.515
REMARK  2 active torsions:
REMARK  status: ('A' for Active; 'I' for Inactive)
REMARK    1  A    between atoms: C5_5  and  C8_8 
REMARK    2  A    between atoms: C9_9  and  C10_10 
ROOT
HETATM    1  C1  UNL     1     -34.311  14.867  -3.756  1.00 20.00     0.009 A 
HETATM    2  C2  UNL     1     -35.149  16.983  -4.567  1.00 20.00     0.009 A 
HETATM    3  C3  UNL     1     -33.967  14.505  -5.059  1.00 20.00     0.024 A 
HETATM    4  C4  UNL     1     -34.806  16.621  -5.869  1.00 20.00     0.024 A 
HETATM    5  C5  UNL     1     -34.902  16.106  -3.511  1.00 20.00    -0.053 A 
HETATM    6  C6  UNL     1     -34.214  15.381  -6.115  1.00 20.00     0.034 A 
HETATM    7 CL11 UNL     1     -33.790  14.934  -7.722  1.00 20.00    -0.084 Cl
ENDROOT
BRANCH   5   8
HETATM    8  C8  UNL     1     -35.270  16.492  -2.119  1.00 20.00     0.024 A 
HETATM    9  C7  UNL     1     -35.544  17.945  -1.811  1.00 20.00     0.016 A 
HETATM   10  C9  UNL     1     -34.317  17.287  -1.253  1.00 20.00     0.008 A 
BRANCH  10  11
HETATM   11  C10 UNL     1     -32.965  17.712  -1.718  1.00 20.00     0.119 C 
HETATM   12 CL12 UNL     1     -32.051  18.506  -0.408  1.00 20.00    -0.130 Cl
ENDBRANCH  10  11
ENDBRANCH   5   8
TORSDOF 2
ENDMDL
