MODEL 1
REMARK VINA RESULT:      -4.7      0.000      0.000
REMARK  1 active torsions:
REMARK  status: ('A' for Active; 'I' for Inactive)
REMARK    1  A    between atoms: C1_1  and  C5_5 
ROOT
HETATM    1  C2  UNL     1     -33.639  14.821  -4.790  1.00 20.00     0.013 C 
HETATM    2  C3  UNL     1     -33.682  15.506  -3.426  1.00 20.00     0.009 C 
HETATM    3  C4  UNL     1     -36.189  15.724  -3.610  1.00 20.00     0.013 C 
HETATM    4  C5  UNL     1     -34.949  14.098  -5.112  1.00 20.00     0.059 C 
HETATM    5  C6  UNL     1     -36.170  15.028  -4.983  1.00 20.00    -0.007 C 
HETATM    6  C7  UNL     1     -34.878  16.466  -3.265  1.00 20.00    -0.047 C 
HETATM    7  C9  UNL     1     -37.483  14.258  -5.181  1.00 20.00     0.011 C 
HETATM    8  C10 UNL     1     -34.944  16.941  -1.800  1.00 20.00     0.015 C 
HETATM    9  C11 UNL     1     -34.706  17.709  -4.158  1.00 20.00     0.015 C 
ENDROOT
BRANCH   4  10
HETATM   10  C1  UNL     1     -34.838  13.554  -6.506  1.00 20.00     0.127 C 
HETATM   11  C8  UNL     1     -34.414  14.520  -7.579  1.00 20.00     0.091 C 
HETATM   12  O12 UNL     1     -35.080  12.374  -6.759  1.00 20.00    -0.298 OA
ENDBRANCH   4  10
TORSDOF 1
ENDMDL
MODEL 2
REMARK VINA RESULT:      -4.7     11.604     12.483
REMARK  1 active torsions:
REMARK  status: ('A' for Active; 'I' for Inactive)
REMARK    1  A    between atoms: C1_1  and  C5_5 
ROOT
HETATM    1  C2  UNL     1     -34.207   7.167   4.313  1.00 20.00     0.013 C 
HETATM    2  C3  UNL     1     -33.857   8.314   3.367  1.00 20.00     0.009 C 
HETATM    3  C4  UNL     1     -32.525   6.726   1.928  1.00 20.00     0.013 C 
HETATM    4  C5  UNL     1     -34.199   5.812   3.601  1.00 20.00     0.059 C 
HETATM    5  C6  UNL     1     -32.872   5.553   2.864  1.00 20.00    -0.007 C 
HETATM    6  C7  UNL     1     -32.521   8.104   2.626  1.00 20.00    -0.047 C 
HETATM    7  C9  UNL     1     -32.928   4.253   2.050  1.00 20.00     0.011 C 
HETATM    8  C10 UNL     1     -32.365   9.205   1.558  1.00 20.00     0.015 C 
HETATM    9  C11 UNL     1     -31.332   8.218   3.598  1.00 20.00     0.015 C 
ENDROOT
BRANCH   4  10
HETATM   10  C1  UNL     1     -34.449   4.753   4.636  1.00 20.00     0.127 C 
HETATM   11  C8  UNL     1     -34.641   5.223   6.052  1.00 20.00     0.091 C 
HETATM   12  O12 UNL     1     -34.498   3.560   4.338  1.00 20.00    -0.298 OA
ENDBRANCH   4  10
TORSDOF 1
ENDMDL
MODEL 3
REMARK VINA RESULT:      -4.5      1.245      2.432
REMARK  1 active torsions:
REMARK  status: ('A' for Active; 'I' for Inactive)
REMARK    1  A    between atoms: C1_1  and  C5_5 
ROOT
HETATM    1  C2  UNL     1     -36.048  15.905  -5.072  1.00 20.00     0.013 C 
HETATM    2  C3  UNL     1     -35.667  17.267  -4.496  1.00 20.00     0.009 C 
HETATM    3  C4  UNL     1     -33.582  16.262  -3.490  1.00 20.00     0.013 C 
HETATM    4  C5  UNL     1     -34.822  15.024  -5.323  1.00 20.00     0.059 C 
HETATM    5  C6  UNL     1     -33.944  14.881  -4.068  1.00 20.00    -0.007 C 
HETATM    6  C7  UNL     1     -34.804  17.168  -3.221  1.00 20.00    -0.047 C 
HETATM    7  C9  UNL     1     -32.655  14.105  -4.371  1.00 20.00     0.011 C 
HETATM    8  C10 UNL     1     -34.308  18.578  -2.843  1.00 20.00     0.015 C 
HETATM    9  C11 UNL     1     -35.633  16.627  -2.040  1.00 20.00     0.015 C 
ENDROOT
BRANCH   4  10
HETATM   10  C1  UNL     1     -35.314  13.682  -5.785  1.00 20.00     0.127 C 
HETATM   11  C8  UNL     1     -35.025  13.311  -7.214  1.00 20.00     0.091 C 
HETATM   12  O12 UNL     1     -35.921  12.923  -5.031  1.00 20.00    -0.298 OA
ENDBRANCH   4  10
TORSDOF 1
ENDMDL
MODEL 4
REMARK VINA RESULT:      -4.4      2.521      4.665
REMARK  1 active torsions:
REMARK  status: ('A' for Active; 'I' for Inactive)
REMARK    1  A    between atoms: C1_1  and  C5_5 
ROOT
HETATM    1  C2  UNL     1     -34.219  14.958  -3.831  1.00 20.00     0.013 C 
HETATM    2  C3  UNL     1     -33.948  14.396  -5.224  1.00 20.00     0.009 C 
HETATM    3  C4  UNL     1     -33.803  16.740  -6.146  1.00 20.00     0.013 C 
HETATM    4  C5  UNL     1     -33.617  16.353  -3.646  1.00 20.00     0.059 C 
HETATM    5  C6  UNL     1     -34.067  17.329  -4.748  1.00 20.00    -0.007 C 
HETATM    6  C7  UNL     1     -34.407  15.335  -6.359  1.00 20.00    -0.047 C 
HETATM    7  C9  UNL     1     -33.353  18.682  -4.623  1.00 20.00     0.011 C 
HETATM    8  C10 UNL     1     -33.907  14.774  -7.705  1.00 20.00     0.015 C 
HETATM    9  C11 UNL     1     -35.945  15.408  -6.420  1.00 20.00     0.015 C 
ENDROOT
BRANCH   4  10
HETATM   10  C1  UNL     1     -34.029  16.851  -2.291  1.00 20.00     0.127 C 
HETATM   11  C8  UNL     1     -35.484  16.717  -1.935  1.00 20.00     0.091 C 
HETATM   12  O12 UNL     1     -33.215  17.342  -1.510  1.00 20.00    -0.298 OA
ENDBRANCH   4  10
TORSDOF 1
ENDMDL
MODEL 5
REMARK VINA RESULT:      -4.3      1.751      2.292
REMARK  1 active torsions:
REMARK  status: ('A' for Active; 'I' for Inactive)
REMARK    1  A    between atoms: C1_1  and  C5_5 
ROOT
HETATM    1  C2  UNL     1     -33.693  16.567  -2.715  1.00 20.00     0.013 C 
HETATM    2  C3  UNL     1     -34.613  17.283  -1.730  1.00 20.00     0.009 C 
HETATM    3  C4  UNL     1     -36.616  16.625  -3.117  1.00 20.00     0.013 C 
HETATM    4  C5  UNL     1     -34.406  15.423  -3.441  1.00 20.00     0.059 C 
HETATM    5  C6  UNL     1     -35.706  15.889  -4.119  1.00 20.00    -0.007 C 
HETATM    6  C7  UNL     1     -35.920  17.788  -2.376  1.00 20.00    -0.047 C 
HETATM    7  C9  UNL     1     -36.474  14.708  -4.729  1.00 20.00     0.011 C 
HETATM    8  C10 UNL     1     -36.857  18.307  -1.268  1.00 20.00     0.015 C 
HETATM    9  C11 UNL     1     -35.637  18.956  -3.341  1.00 20.00     0.015 C 
ENDROOT
BRANCH   4  10
HETATM   10  C1  UNL     1     -33.450  14.859  -4.452  1.00 20.00     0.127 C 
HETATM   11  C8  UNL     1     -33.046  15.767  -5.582  1.00 20.00     0.091 C 
HETATM   12  O12 UNL     1     -33.016  13.712  -4.359  1.00 20.00    -0.298 OA
ENDBRANCH   4  10
TORSDOF 1
ENDMDL
MODEL 6
REMARK VINA RESULT:      -4.3     10.480     11.485
REMARK  1 active torsions:
REMARK  status: ('A' for Active; 'I' for Inactive)
REMARK    1  A    between atoms: C1_1  and  C5_5 
ROOT
HETATM    1  C2  UNL     1     -33.844   7.212   1.415  1.00 20.00     0.013 C 
HETATM    2  C3  UNL     1     -34.687   6.349   2.349  1.00 20.00     0.009 C 
HETATM    3  C4  UNL     1     -33.043   6.760   4.219  1.00 20.00     0.013 C 
HETATM    4  C5  UNL     1     -33.035   8.265   2.177  1.00 20.00     0.059 C 
HETATM    5  C6  UNL     1     -32.182   7.642   3.295  1.00 20.00    -0.007 C 
HETATM    6  C7  UNL     1     -33.864   5.685   3.472  1.00 20.00    -0.047 C 
HETATM    7  C9  UNL     1     -31.480   8.721   4.132  1.00 20.00     0.011 C 
HETATM    8  C10 UNL     1     -34.828   5.012   4.468  1.00 20.00     0.015 C 
HETATM    9  C11 UNL     1     -32.938   4.595   2.900  1.00 20.00     0.015 C 
ENDROOT
BRANCH   4  10
HETATM   10  C1  UNL     1     -32.170   8.983   1.182  1.00 20.00     0.127 C 
HETATM   11  C8  UNL     1     -32.571  10.389   0.826  1.00 20.00     0.091 C 
HETATM   12  O12 UNL     1     -31.180   8.448   0.685  1.00 20.00    -0.298 OA
ENDBRANCH   4  10
TORSDOF 1
ENDMDL
MODEL 7
REMARK VINA RESULT:      -4.2      2.304      3.189
REMARK  1 active torsions:
REMARK  status: ('A' for Active; 'I' for Inactive)
REMARK    1  A    between atoms: C1_1  and  C5_5 
ROOT
HETATM    1  C2  UNL     1     -33.127  17.563  -2.553  1.00 20.00     0.013 C 
HETATM    2  C3  UNL     1     -33.573  17.610  -1.094  1.00 20.00     0.009 C 
HETATM    3  C4  UNL     1     -35.863  16.788  -1.763  1.00 20.00     0.013 C 
HETATM    4  C5  UNL     1     -33.910  16.525  -3.361  1.00 20.00     0.059 C 
HETATM    5  C6  UNL     1     -35.432  16.726  -3.240  1.00 20.00    -0.007 C 
HETATM    6  C7  UNL     1     -35.090  17.833  -0.928  1.00 20.00    -0.047 C 
HETATM    7  C9  UNL     1     -36.202  15.602  -3.948  1.00 20.00     0.011 C 
HETATM    8  C10 UNL     1     -35.462  17.660   0.558  1.00 20.00     0.015 C 
HETATM    9  C11 UNL     1     -35.482  19.263  -1.350  1.00 20.00     0.015 C 
ENDROOT
BRANCH   4  10
HETATM   10  C1  UNL     1     -33.470  16.635  -4.792  1.00 20.00     0.127 C 
HETATM   11  C8  UNL     1     -33.832  17.903  -5.516  1.00 20.00     0.091 C 
HETATM   12  O12 UNL     1     -32.841  15.733  -5.343  1.00 20.00    -0.298 OA
ENDBRANCH   4  10
TORSDOF 1
ENDMDL
MODEL 8
REMARK VINA RESULT:      -4.2      1.918      2.976
REMARK  1 active torsions:
REMARK  status: ('A' for Active; 'I' for Inactive)
REMARK    1  A    between atoms: C1_1  and  C5_5 
ROOT
HETATM    1  C2  UNL     1     -36.501  17.269  -3.874  1.00 20.00     0.013 C 
HETATM    2  C3  UNL     1     -35.381  18.136  -3.305  1.00 20.00     0.009 C 
HETATM    3  C4  UNL     1     -33.922  16.093  -3.051  1.00 20.00     0.013 C 
HETATM    4  C5  UNL     1     -35.962  16.008  -4.556  1.00 20.00     0.059 C 
HETATM    5  C6  UNL     1     -35.035  15.201  -3.630  1.00 20.00    -0.007 C 
HETATM    6  C7  UNL     1     -34.442  17.369  -2.352  1.00 20.00    -0.047 C 
HETATM    7  C9  UNL     1     -34.402  14.013  -4.369  1.00 20.00     0.011 C 
HETATM    8  C10 UNL     1     -33.242  18.270  -2.000  1.00 20.00     0.015 C 
HETATM    9  C11 UNL     1     -35.166  17.013  -1.040  1.00 20.00     0.015 C 
ENDROOT
BRANCH   4  10
HETATM   10  C1  UNL     1     -37.141  15.183  -4.983  1.00 20.00     0.127 C 
HETATM   11  C8  UNL     1     -37.268  14.894  -6.454  1.00 20.00     0.091 C 
HETATM   12  O12 UNL     1     -37.962  14.762  -4.169  1.00 20.00    -0.298 OA
ENDBRANCH   4  10
TORSDOF 1
ENDMDL
MODEL 9
REMARK VINA RESULT:      -4.2      2.193      4.352
REMARK  1 active torsions:
REMARK  status: ('A' for Active; 'I' for Inactive)
REMARK    1  A    between atoms: C1_1  and  C5_5 
ROOT
HETATM    1  C2  UNL     1     -33.697  14.972  -3.716  1.00 20.00     0.013 C 
HETATM    2  C3  UNL     1     -33.629  14.396  -5.128  1.00 20.00     0.009 C 
HETATM    3  C4  UNL     1     -35.500  15.929  -5.847  1.00 20.00     0.013 C 
HETATM    4  C5  UNL     1     -34.228  16.408  -3.705  1.00 20.00     0.059 C 
HETATM    5  C6  UNL     1     -35.580  16.530  -4.432  1.00 20.00    -0.007 C 
HETATM    6  C7  UNL     1     -34.971  14.478  -5.883  1.00 20.00    -0.047 C 
HETATM    7  C9  UNL     1     -36.035  17.993  -4.527  1.00 20.00     0.011 C 
HETATM    8  C10 UNL     1     -34.745  14.063  -7.351  1.00 20.00     0.015 C 
HETATM    9  C11 UNL     1     -36.002  13.509  -5.273  1.00 20.00     0.015 C 
ENDROOT
BRANCH   4  10
HETATM   10  C1  UNL     1     -34.353  16.837  -2.272  1.00 20.00     0.127 C 
HETATM   11  C8  UNL     1     -33.220  17.651  -1.709  1.00 20.00     0.091 C 
HETATM   12  O12 UNL     1     -35.334  16.539  -1.593  1.00 20.00    -0.298 OA
ENDBRANCH   4  10
TORSDOF 1
ENDMDL
