MODEL 1
REMARK VINA RESULT:      -6.1      0.000      0.000
REMARK  3 active torsions:
REMARK  status: ('A' for Active; 'I' for Inactive)
REMARK    1  A    between atoms: C1_1  and  C9_9 
REMARK    2  A    between atoms: C5_5  and  C8_8 
REMARK    3  A    between atoms: C6_6  and  C9_9 
ROOT
HETATM    1  C2  UNL     1     -33.756   5.388   3.332  1.00 20.00     0.005 C 
HETATM    2  C3  UNL     1     -32.998   6.081   2.195  1.00 20.00     0.008 C 
HETATM    3  C4  UNL     1     -33.394   7.692   3.933  1.00 20.00     0.012 C 
HETATM    4  C5  UNL     1     -34.317   6.509   4.213  1.00 20.00    -0.014 C 
HETATM    5  C6  UNL     1     -33.173   7.585   2.427  1.00 20.00     0.030 C 
ENDROOT
BRANCH   5   6
HETATM    6  C9  UNL     1     -31.995   8.408   1.936  1.00 20.00     0.274 C 
HETATM    7  F12 UNL     1     -31.453   9.044   3.010  1.00 20.00    -0.238 F 
BRANCH   6   8
HETATM    8  C1  UNL     1     -32.322   9.501   0.923  1.00 20.00     0.208 C 
HETATM    9  O10 UNL     1     -32.529  10.656   1.389  1.00 20.00    -0.646 OA
HETATM   10  O11 UNL     1     -32.358   9.105  -0.278  1.00 20.00    -0.646 OA
ENDBRANCH   6   8
ENDBRANCH   5   6
BRANCH   4  11
HETATM   11  C8  UNL     1     -34.385   6.139   5.685  1.00 20.00     0.000 C 
HETATM   12  C7  UNL     1     -34.589   4.670   5.885  1.00 20.00     0.005 C 
ENDBRANCH   4  11
TORSDOF 3
ENDMDL
MODEL 2
REMARK VINA RESULT:      -5.8      3.321      5.197
REMARK  3 active torsions:
REMARK  status: ('A' for Active; 'I' for Inactive)
REMARK    1  A    between atoms: C1_1  and  C9_9 
REMARK    2  A    between atoms: C5_5  and  C8_8 
REMARK    3  A    between atoms: C6_6  and  C9_9 
ROOT
HETATM    1  C2  UNL     1     -31.441   8.504   3.001  1.00 20.00     0.005 C 
HETATM    2  C3  UNL     1     -32.121   7.573   4.011  1.00 20.00     0.008 C 
HETATM    3  C4  UNL     1     -33.477   7.660   2.030  1.00 20.00     0.012 C 
HETATM    4  C5  UNL     1     -32.502   8.832   1.946  1.00 20.00    -0.014 C 
HETATM    5  C6  UNL     1     -33.568   7.417   3.533  1.00 20.00     0.030 C 
ENDROOT
BRANCH   5   6
HETATM    6  C9  UNL     1     -34.173   6.069   3.885  1.00 20.00     0.274 C 
HETATM    7  F12 UNL     1     -35.411   6.009   3.325  1.00 20.00    -0.238 F 
BRANCH   6   8
HETATM    8  C1  UNL     1     -34.373   5.796   5.373  1.00 20.00     0.208 C 
HETATM    9  O10 UNL     1     -34.339   6.800   6.138  1.00 20.00    -0.646 OA
HETATM   10  O11 UNL     1     -34.538   4.576   5.661  1.00 20.00    -0.646 OA
ENDBRANCH   6   8
ENDBRANCH   5   6
BRANCH   4  11
HETATM   11  C8  UNL     1     -31.924   9.031   0.555  1.00 20.00     0.000 C 
HETATM   12  C7  UNL     1     -32.975   9.414  -0.439  1.00 20.00     0.005 C 
ENDBRANCH   4  11
TORSDOF 3
ENDMDL
MODEL 3
REMARK VINA RESULT:      -5.7      3.209      5.108
REMARK  3 active torsions:
REMARK  status: ('A' for Active; 'I' for Inactive)
REMARK    1  A    between atoms: C1_1  and  C9_9 
REMARK    2  A    between atoms: C5_5  and  C8_8 
REMARK    3  A    between atoms: C6_6  and  C9_9 
ROOT
HETATM    1  C2  UNL     1     -31.539   8.883   2.910  1.00 20.00     0.005 C 
HETATM    2  C3  UNL     1     -31.908   7.716   3.831  1.00 20.00     0.008 C 
HETATM    3  C4  UNL     1     -33.114   7.462   1.770  1.00 20.00     0.012 C 
HETATM    4  C5  UNL     1     -32.596   8.897   1.801  1.00 20.00    -0.014 C 
HETATM    5  C6  UNL     1     -33.188   7.108   3.252  1.00 20.00     0.030 C 
ENDROOT
BRANCH   5   6
HETATM    6  C9  UNL     1     -33.312   5.616   3.506  1.00 20.00     0.274 C 
HETATM    7  F12 UNL     1     -33.146   4.976   2.317  1.00 20.00    -0.238 F 
BRANCH   6   8
HETATM    8  C1  UNL     1     -34.656   5.142   4.052  1.00 20.00     0.208 C 
HETATM    9  O10 UNL     1     -35.635   5.921   3.889  1.00 20.00    -0.646 OA
HETATM   10  O11 UNL     1     -34.617   4.014   4.623  1.00 20.00    -0.646 OA
ENDBRANCH   6   8
ENDBRANCH   5   6
BRANCH   4  11
HETATM   11  C8  UNL     1     -32.055   9.367   0.462  1.00 20.00     0.000 C 
HETATM   12  C7  UNL     1     -33.112   9.377  -0.598  1.00 20.00     0.005 C 
ENDBRANCH   4  11
TORSDOF 3
ENDMDL
MODEL 4
REMARK VINA RESULT:      -5.3      3.173      5.041
REMARK  3 active torsions:
REMARK  status: ('A' for Active; 'I' for Inactive)
REMARK    1  A    between atoms: C1_1  and  C9_9 
REMARK    2  A    between atoms: C5_5  and  C8_8 
REMARK    3  A    between atoms: C6_6  and  C9_9 
ROOT
HETATM    1  C2  UNL     1     -31.724   8.181   3.596  1.00 20.00     0.005 C 
HETATM    2  C3  UNL     1     -32.663   7.299   4.426  1.00 20.00     0.008 C 
HETATM    3  C4  UNL     1     -33.546   7.456   2.198  1.00 20.00     0.012 C 
HETATM    4  C5  UNL     1     -32.507   8.566   2.337  1.00 20.00    -0.014 C 
HETATM    5  C6  UNL     1     -33.977   7.228   3.644  1.00 20.00     0.030 C 
ENDROOT
BRANCH   5   6
HETATM    6  C9  UNL     1     -34.725   5.921   3.846  1.00 20.00     0.274 C 
HETATM    7  F12 UNL     1     -35.179   5.896   5.128  1.00 20.00    -0.238 F 
BRANCH   6   8
HETATM    8  C1  UNL     1     -33.904   4.648   3.667  1.00 20.00     0.208 C 
HETATM    9  O10 UNL     1     -33.100   4.630   2.694  1.00 20.00    -0.646 OA
HETATM   10  O11 UNL     1     -34.146   3.748   4.521  1.00 20.00    -0.646 OA
ENDBRANCH   6   8
ENDBRANCH   5   6
BRANCH   4  11
HETATM   11  C8  UNL     1     -31.629   8.721   1.107  1.00 20.00     0.000 C 
HETATM   12  C7  UNL     1     -32.343   9.421  -0.006  1.00 20.00     0.005 C 
ENDBRANCH   4  11
TORSDOF 3
ENDMDL
MODEL 5
REMARK VINA RESULT:      -5.2      1.311      1.812
REMARK  3 active torsions:
REMARK  status: ('A' for Active; 'I' for Inactive)
REMARK    1  A    between atoms: C1_1  and  C9_9 
REMARK    2  A    between atoms: C5_5  and  C8_8 
REMARK    3  A    between atoms: C6_6  and  C9_9 
ROOT
HETATM    1  C2  UNL     1     -33.037   7.257   4.901  1.00 20.00     0.005 C 
HETATM    2  C3  UNL     1     -32.257   8.378   4.205  1.00 20.00     0.008 C 
HETATM    3  C4  UNL     1     -33.541   7.207   2.546  1.00 20.00     0.012 C 
HETATM    4  C5  UNL     1     -33.516   6.320   3.788  1.00 20.00    -0.014 C 
HETATM    5  C6  UNL     1     -32.273   8.039   2.712  1.00 20.00     0.030 C 
ENDROOT
BRANCH   5   6
HETATM    6  C9  UNL     1     -32.241   9.266   1.818  1.00 20.00     0.274 C 
HETATM    7  F12 UNL     1     -33.460   9.866   1.890  1.00 20.00    -0.238 F 
BRANCH   6   8
HETATM    8  C1  UNL     1     -31.990   9.005   0.335  1.00 20.00     0.208 C 
HETATM    9  O10 UNL     1     -32.917   9.328  -0.457  1.00 20.00    -0.646 OA
HETATM   10  O11 UNL     1     -30.869   8.477   0.083  1.00 20.00    -0.646 OA
ENDBRANCH   6   8
ENDBRANCH   5   6
BRANCH   4  11
HETATM   11  C8  UNL     1     -34.855   5.668   4.086  1.00 20.00     0.000 C 
HETATM   12  C7  UNL     1     -34.832   4.903   5.372  1.00 20.00     0.005 C 
ENDBRANCH   4  11
TORSDOF 3
ENDMDL
MODEL 6
REMARK VINA RESULT:      -5.1     10.756     11.143
REMARK  3 active torsions:
REMARK  status: ('A' for Active; 'I' for Inactive)
REMARK    1  A    between atoms: C1_1  and  C9_9 
REMARK    2  A    between atoms: C5_5  and  C8_8 
REMARK    3  A    between atoms: C6_6  and  C9_9 
ROOT
HETATM    1  C2  UNL     1     -33.620  16.923  -2.466  1.00 20.00     0.005 C 
HETATM    2  C3  UNL     1     -33.599  16.056  -3.730  1.00 20.00     0.008 C 
HETATM    3  C4  UNL     1     -35.854  16.137  -2.907  1.00 20.00     0.012 C 
HETATM    4  C5  UNL     1     -34.956  16.631  -1.775  1.00 20.00    -0.014 C 
HETATM    5  C6  UNL     1     -34.906  15.259  -3.717  1.00 20.00     0.030 C 
ENDROOT
BRANCH   5   6
HETATM    6  C9  UNL     1     -35.427  14.940  -5.108  1.00 20.00     0.274 C 
HETATM    7  F12 UNL     1     -36.228  15.968  -5.499  1.00 20.00    -0.238 F 
BRANCH   6   8
HETATM    8  C1  UNL     1     -36.276  13.678  -5.229  1.00 20.00     0.208 C 
HETATM    9  O10 UNL     1     -37.505  13.801  -4.971  1.00 20.00    -0.646 OA
HETATM   10  O11 UNL     1     -35.629  12.645  -5.565  1.00 20.00    -0.646 OA
ENDBRANCH   6   8
ENDBRANCH   5   6
BRANCH   4  11
HETATM   11  C8  UNL     1     -35.526  17.832  -1.040  1.00 20.00     0.000 C 
HETATM   12  C7  UNL     1     -35.558  17.618   0.441  1.00 20.00     0.005 C 
ENDBRANCH   4  11
TORSDOF 3
ENDMDL
MODEL 7
REMARK VINA RESULT:      -5.1      3.169      4.912
REMARK  3 active torsions:
REMARK  status: ('A' for Active; 'I' for Inactive)
REMARK    1  A    between atoms: C1_1  and  C9_9 
REMARK    2  A    between atoms: C5_5  and  C8_8 
REMARK    3  A    between atoms: C6_6  and  C9_9 
ROOT
HETATM    1  C2  UNL     1     -32.526   7.261   1.496  1.00 20.00     0.005 C 
HETATM    2  C3  UNL     1     -33.067   6.448   2.677  1.00 20.00     0.008 C 
HETATM    3  C4  UNL     1     -32.898   8.747   3.355  1.00 20.00     0.012 C 
HETATM    4  C5  UNL     1     -32.074   8.604   2.078  1.00 20.00    -0.014 C 
HETATM    5  C6  UNL     1     -32.880   7.328   3.916  1.00 20.00     0.030 C 
ENDROOT
BRANCH   5   6
HETATM    6  C9  UNL     1     -33.934   7.094   4.984  1.00 20.00     0.274 C 
HETATM    7  F12 UNL     1     -33.312   7.101   6.194  1.00 20.00    -0.238 F 
BRANCH   6   8
HETATM    8  C1  UNL     1     -34.679   5.764   4.905  1.00 20.00     0.208 C 
HETATM    9  O10 UNL     1     -34.313   4.866   5.712  1.00 20.00    -0.646 OA
HETATM   10  O11 UNL     1     -35.577   5.723   4.015  1.00 20.00    -0.646 OA
ENDBRANCH   6   8
ENDBRANCH   5   6
BRANCH   4  11
HETATM   11  C8  UNL     1     -32.255   9.766   1.116  1.00 20.00     0.000 C 
HETATM   12  C7  UNL     1     -32.941   9.347  -0.146  1.00 20.00     0.005 C 
ENDBRANCH   4  11
TORSDOF 3
ENDMDL
MODEL 8
REMARK VINA RESULT:      -4.9     10.774     11.477
REMARK  3 active torsions:
REMARK  status: ('A' for Active; 'I' for Inactive)
REMARK    1  A    between atoms: C1_1  and  C9_9 
REMARK    2  A    between atoms: C5_5  and  C8_8 
REMARK    3  A    between atoms: C6_6  and  C9_9 
ROOT
HETATM    1  C2  UNL     1     -33.385  17.656  -3.862  1.00 20.00     0.005 C 
HETATM    2  C3  UNL     1     -33.797  16.951  -5.159  1.00 20.00     0.008 C 
HETATM    3  C4  UNL     1     -34.723  15.731  -3.309  1.00 20.00     0.012 C 
HETATM    4  C5  UNL     1     -33.654  16.655  -2.733  1.00 20.00    -0.014 C 
HETATM    5  C6  UNL     1     -34.257  15.550  -4.750  1.00 20.00     0.030 C 
ENDROOT
BRANCH   5   6
HETATM    6  C9  UNL     1     -35.333  14.982  -5.660  1.00 20.00     0.274 C 
HETATM    7  F12 UNL     1     -36.535  15.167  -5.050  1.00 20.00    -0.238 F 
BRANCH   6   8
HETATM    8  C1  UNL     1     -35.238  13.488  -5.955  1.00 20.00     0.208 C 
HETATM    9  O10 UNL     1     -34.460  13.149  -6.890  1.00 20.00    -0.646 OA
HETATM   10  O11 UNL     1     -35.973  12.765  -5.223  1.00 20.00    -0.646 OA
ENDBRANCH   6   8
ENDBRANCH   5   6
BRANCH   4  11
HETATM   11  C8  UNL     1     -34.073  17.317  -1.431  1.00 20.00     0.000 C 
HETATM   12  C7  UNL     1     -35.494  17.009  -1.078  1.00 20.00     0.005 C 
ENDBRANCH   4  11
TORSDOF 3
ENDMDL
MODEL 9
REMARK VINA RESULT:      -4.8     10.344     11.130
REMARK  3 active torsions:
REMARK  status: ('A' for Active; 'I' for Inactive)
REMARK    1  A    between atoms: C1_1  and  C9_9 
REMARK    2  A    between atoms: C5_5  and  C8_8 
REMARK    3  A    between atoms: C6_6  and  C9_9 
ROOT
HETATM    1  C2  UNL     1     -35.899  17.088  -2.207  1.00 20.00     0.005 C 
HETATM    2  C3  UNL     1     -36.080  15.967  -3.236  1.00 20.00     0.008 C 
HETATM    3  C4  UNL     1     -33.736  16.185  -2.759  1.00 20.00     0.012 C 
HETATM    4  C5  UNL     1     -34.410  17.447  -2.229  1.00 20.00    -0.014 C 
HETATM    5  C6  UNL     1     -34.699  15.734  -3.853  1.00 20.00     0.030 C 
ENDROOT
BRANCH   5   6
HETATM    6  C9  UNL     1     -34.474  14.298  -4.294  1.00 20.00     0.274 C 
HETATM    7  F12 UNL     1     -33.181  14.185  -4.704  1.00 20.00    -0.238 F 
BRANCH   6   8
HETATM    8  C1  UNL     1     -35.328  13.818  -5.464  1.00 20.00     0.208 C 
HETATM    9  O10 UNL     1     -35.342  14.554  -6.488  1.00 20.00    -0.646 OA
HETATM   10  O11 UNL     1     -35.936  12.729  -5.251  1.00 20.00    -0.646 OA
ENDBRANCH   6   8
ENDBRANCH   5   6
BRANCH   4  11
HETATM   11  C8  UNL     1     -33.878  17.887  -0.876  1.00 20.00     0.000 C 
HETATM   12  C7  UNL     1     -32.442  18.303  -0.947  1.00 20.00     0.005 C 
ENDBRANCH   4  11
TORSDOF 3
ENDMDL
