MODEL 1
REMARK VINA RESULT:      -5.3      0.000      0.000
REMARK  2 active torsions:
REMARK  status: ('A' for Active; 'I' for Inactive)
REMARK    1  A    between atoms: C2_2  and  C6_6 
REMARK    2  A    between atoms: C3_3  and  C7_7 
ROOT
HETATM    1  C1  UNL     1     -31.420   8.313   3.460  1.00 20.00     0.011 A 
HETATM    2  C2  UNL     1     -32.000   8.217   2.073  1.00 20.00     0.004 A 
HETATM    3  C3  UNL     1     -32.402   7.218   3.134  1.00 20.00    -0.006 A 
ENDROOT
BRANCH   3   4
HETATM    4  C7  UNL     1     -33.756   7.214   3.757  1.00 20.00    -0.018 C 
HETATM    5  C4  UNL     1     -34.556   5.952   3.382  1.00 20.00     0.010 C 
HETATM    6  C5  UNL     1     -33.683   7.329   5.291  1.00 20.00     0.010 C 
ENDBRANCH   3   4
BRANCH   2   7
HETATM    7  C6  UNL     1     -32.929   9.268   1.573  1.00 20.00     0.119 C 
HETATM    8 CL8  UNL     1     -32.965   9.304  -0.211  1.00 20.00    -0.130 Cl
ENDBRANCH   2   7
TORSDOF 2
ENDMDL
MODEL 2
REMARK VINA RESULT:      -4.9      1.501      2.586
REMARK  2 active torsions:
REMARK  status: ('A' for Active; 'I' for Inactive)
REMARK    1  A    between atoms: C2_2  and  C6_6 
REMARK    2  A    between atoms: C3_3  and  C7_7 
ROOT
HETATM    1  C1  UNL     1     -33.684   5.488   2.638  1.00 20.00     0.011 A 
HETATM    2  C2  UNL     1     -33.495   6.981   2.709  1.00 20.00     0.004 A 
HETATM    3  C3  UNL     1     -34.310   6.269   3.764  1.00 20.00    -0.006 A 
ENDROOT
BRANCH   3   4
HETATM    4  C7  UNL     1     -33.827   6.089   5.162  1.00 20.00    -0.018 C 
HETATM    5  C4  UNL     1     -33.963   7.383   5.987  1.00 20.00     0.010 C 
HETATM    6  C5  UNL     1     -34.571   4.950   5.884  1.00 20.00     0.010 C 
ENDBRANCH   3   4
BRANCH   2   7
HETATM    7  C6  UNL     1     -32.150   7.555   2.992  1.00 20.00     0.119 C 
HETATM    8 CL8  UNL     1     -31.607   8.616   1.663  1.00 20.00    -0.130 Cl
ENDBRANCH   2   7
TORSDOF 2
ENDMDL
MODEL 3
REMARK VINA RESULT:      -4.8      2.676      3.967
REMARK  2 active torsions:
REMARK  status: ('A' for Active; 'I' for Inactive)
REMARK    1  A    between atoms: C2_2  and  C6_6 
REMARK    2  A    between atoms: C3_3  and  C7_7 
ROOT
HETATM    1  C1  UNL     1     -33.766   7.159   4.850  1.00 20.00     0.011 A 
HETATM    2  C2  UNL     1     -34.372   6.376   3.714  1.00 20.00     0.004 A 
HETATM    3  C3  UNL     1     -33.687   7.696   3.444  1.00 20.00    -0.006 A 
ENDROOT
BRANCH   3   4
HETATM    4  C7  UNL     1     -32.373   7.788   2.748  1.00 20.00    -0.018 C 
HETATM    5  C4  UNL     1     -32.441   8.707   1.513  1.00 20.00     0.010 C 
HETATM    6  C5  UNL     1     -31.259   8.285   3.687  1.00 20.00     0.010 C 
ENDBRANCH   3   4
BRANCH   2   7
HETATM    7  C6  UNL     1     -33.783   5.072   3.303  1.00 20.00     0.119 C 
HETATM    8 CL8  UNL     1     -34.122   3.800   4.508  1.00 20.00    -0.130 Cl
ENDBRANCH   2   7
TORSDOF 2
ENDMDL
MODEL 4
REMARK VINA RESULT:      -4.7      2.827      4.155
REMARK  2 active torsions:
REMARK  status: ('A' for Active; 'I' for Inactive)
REMARK    1  A    between atoms: C2_2  and  C6_6 
REMARK    2  A    between atoms: C3_3  and  C7_7 
ROOT
HETATM    1  C1  UNL     1     -33.632   7.461   5.962  1.00 20.00     0.011 A 
HETATM    2  C2  UNL     1     -34.474   6.291   5.523  1.00 20.00     0.004 A 
HETATM    3  C3  UNL     1     -33.921   7.254   4.498  1.00 20.00    -0.006 A 
ENDROOT
BRANCH   3   4
HETATM    4  C7  UNL     1     -32.823   6.881   3.561  1.00 20.00    -0.018 C 
HETATM    5  C4  UNL     1     -33.367   6.418   2.196  1.00 20.00     0.010 C 
HETATM    6  C5  UNL     1     -31.835   8.043   3.344  1.00 20.00     0.010 C 
ENDBRANCH   3   4
BRANCH   2   7
HETATM    7  C6  UNL     1     -33.963   4.900   5.670  1.00 20.00     0.119 C 
HETATM    8 CL8  UNL     1     -34.429   3.888   4.275  1.00 20.00    -0.130 Cl
ENDBRANCH   2   7
TORSDOF 2
ENDMDL
MODEL 5
REMARK VINA RESULT:      -4.5      2.588      4.021
REMARK  2 active torsions:
REMARK  status: ('A' for Active; 'I' for Inactive)
REMARK    1  A    between atoms: C2_2  and  C6_6 
REMARK    2  A    between atoms: C3_3  and  C7_7 
ROOT
HETATM    1  C1  UNL     1     -33.943   5.759   2.090  1.00 20.00     0.011 A 
HETATM    2  C2  UNL     1     -33.815   5.629   3.586  1.00 20.00     0.004 A 
HETATM    3  C3  UNL     1     -32.767   6.380   2.798  1.00 20.00    -0.006 A 
ENDROOT
BRANCH   3   4
HETATM    4  C7  UNL     1     -32.627   7.862   2.862  1.00 20.00    -0.018 C 
HETATM    5  C4  UNL     1     -31.446   8.288   3.755  1.00 20.00     0.010 C 
HETATM    6  C5  UNL     1     -32.453   8.484   1.464  1.00 20.00     0.010 C 
ENDBRANCH   3   4
BRANCH   2   7
HETATM    7  C6  UNL     1     -34.784   6.317   4.485  1.00 20.00     0.119 C 
HETATM    8 CL8  UNL     1     -33.994   6.863   5.990  1.00 20.00    -0.130 Cl
ENDBRANCH   2   7
TORSDOF 2
ENDMDL
MODEL 6
REMARK VINA RESULT:      -4.3      2.229      3.801
REMARK  2 active torsions:
REMARK  status: ('A' for Active; 'I' for Inactive)
REMARK    1  A    between atoms: C2_2  and  C6_6 
REMARK    2  A    between atoms: C3_3  and  C7_7 
ROOT
HETATM    1  C1  UNL     1     -31.282   7.861   3.352  1.00 20.00     0.011 A 
HETATM    2  C2  UNL     1     -32.745   7.568   3.561  1.00 20.00     0.004 A 
HETATM    3  C3  UNL     1     -32.320   8.812   2.816  1.00 20.00    -0.006 A 
ENDROOT
BRANCH   3   4
HETATM    4  C7  UNL     1     -32.508   8.968   1.346  1.00 20.00    -0.018 C 
HETATM    5  C4  UNL     1     -32.950  10.396   0.972  1.00 20.00     0.010 C 
HETATM    6  C5  UNL     1     -31.230   8.614   0.563  1.00 20.00     0.010 C 
ENDBRANCH   3   4
BRANCH   2   7
HETATM    7  C6  UNL     1     -33.383   6.408   2.879  1.00 20.00     0.119 C 
HETATM    8 CL8  UNL     1     -34.862   5.889   3.734  1.00 20.00    -0.130 Cl
ENDBRANCH   2   7
TORSDOF 2
ENDMDL
MODEL 7
REMARK VINA RESULT:      -4.2      2.970      3.945
REMARK  2 active torsions:
REMARK  status: ('A' for Active; 'I' for Inactive)
REMARK    1  A    between atoms: C2_2  and  C6_6 
REMARK    2  A    between atoms: C3_3  and  C7_7 
ROOT
HETATM    1  C1  UNL     1     -35.202   6.151   3.704  1.00 20.00     0.011 A 
HETATM    2  C2  UNL     1     -34.169   5.770   2.676  1.00 20.00     0.004 A 
HETATM    3  C3  UNL     1     -34.014   7.047   3.469  1.00 20.00    -0.006 A 
ENDROOT
BRANCH   3   4
HETATM    4  C7  UNL     1     -32.977   7.212   4.525  1.00 20.00    -0.018 C 
HETATM    5  C4  UNL     1     -31.978   8.333   4.178  1.00 20.00     0.010 C 
HETATM    6  C5  UNL     1     -33.601   7.500   5.903  1.00 20.00     0.010 C 
ENDBRANCH   3   4
BRANCH   2   7
HETATM    7  C6  UNL     1     -33.294   4.584   2.893  1.00 20.00     0.119 C 
HETATM    8 CL8  UNL     1     -33.837   3.630   4.302  1.00 20.00    -0.130 Cl
ENDBRANCH   2   7
TORSDOF 2
ENDMDL
MODEL 8
REMARK VINA RESULT:      -4.1      2.847      3.631
REMARK  2 active torsions:
REMARK  status: ('A' for Active; 'I' for Inactive)
REMARK    1  A    between atoms: C2_2  and  C6_6 
REMARK    2  A    between atoms: C3_3  and  C7_7 
ROOT
HETATM    1  C1  UNL     1     -32.872   7.330   2.409  1.00 20.00     0.011 A 
HETATM    2  C2  UNL     1     -33.670   7.565   3.665  1.00 20.00     0.004 A 
HETATM    3  C3  UNL     1     -33.833   6.276   2.893  1.00 20.00    -0.006 A 
ENDROOT
BRANCH   3   4
HETATM    4  C7  UNL     1     -33.324   4.970   3.400  1.00 20.00    -0.018 C 
HETATM    5  C4  UNL     1     -34.376   4.236   4.253  1.00 20.00     0.010 C 
HETATM    6  C5  UNL     1     -32.869   4.047   2.254  1.00 20.00     0.010 C 
ENDBRANCH   3   4
BRANCH   2   7
HETATM    7  C6  UNL     1     -32.989   7.623   4.988  1.00 20.00     0.119 C 
HETATM    8 CL8  UNL     1     -34.090   7.132   6.305  1.00 20.00    -0.130 Cl
ENDBRANCH   2   7
TORSDOF 2
ENDMDL
MODEL 9
REMARK VINA RESULT:      -3.7      2.861      4.355
REMARK  2 active torsions:
REMARK  status: ('A' for Active; 'I' for Inactive)
REMARK    1  A    between atoms: C2_2  and  C6_6 
REMARK    2  A    between atoms: C3_3  and  C7_7 
ROOT
HETATM    1  C1  UNL     1     -35.370   6.344   3.851  1.00 20.00     0.011 A 
HETATM    2  C2  UNL     1     -35.011   5.322   4.898  1.00 20.00     0.004 A 
HETATM    3  C3  UNL     1     -34.513   5.162   3.480  1.00 20.00    -0.006 A 
ENDROOT
BRANCH   3   4
HETATM    4  C7  UNL     1     -33.083   5.357   3.107  1.00 20.00    -0.018 C 
HETATM    5  C4  UNL     1     -32.620   4.334   2.053  1.00 20.00     0.010 C 
HETATM    6  C5  UNL     1     -32.817   6.780   2.581  1.00 20.00     0.010 C 
ENDBRANCH   3   4
BRANCH   2   7
HETATM    7  C6  UNL     1     -34.108   5.686   6.025  1.00 20.00     0.119 C 
HETATM    8 CL8  UNL     1     -33.747   7.435   6.025  1.00 20.00    -0.130 Cl
ENDBRANCH   2   7
TORSDOF 2
ENDMDL
