MODEL 1
REMARK VINA RESULT:      -4.9      0.000      0.000
REMARK  1 active torsions:
REMARK  status: ('A' for Active; 'I' for Inactive)
REMARK    1  A    between atoms: C5_5  and  C7_7 
ROOT
HETATM    1  C1  UNL     1     -34.035   7.253   4.162  1.00 20.00     0.038 C 
HETATM    2  C2  UNL     1     -31.605   8.036   3.664  1.00 20.00     0.018 A 
HETATM    3  C3  UNL     1     -34.778   6.015   3.691  1.00 20.00     0.168 C 
HETATM    4  C4  UNL     1     -32.715   5.887   2.676  1.00 20.00     0.177 C 
HETATM    5  C5  UNL     1     -32.442   8.510   2.509  1.00 20.00     0.007 A 
HETATM    6  C6  UNL     1     -32.839   7.257   3.266  1.00 20.00    -0.012 A 
HETATM    7  O8  UNL     1     -33.744   5.097   3.302  1.00 20.00    -0.390 OA
ENDROOT
BRANCH   5   8
HETATM    8  C7  UNL     1     -31.889   8.463   1.127  1.00 20.00     0.090 C 
HETATM    9 BR9  UNL     1     -32.977   9.544  -0.080  1.00 20.00    -0.096 Br
ENDBRANCH   5   8
TORSDOF 1
ENDMDL
MODEL 2
REMARK VINA RESULT:      -4.8      1.703      2.532
REMARK  1 active torsions:
REMARK  status: ('A' for Active; 'I' for Inactive)
REMARK    1  A    between atoms: C5_5  and  C7_7 
ROOT
HETATM    1  C1  UNL     1     -34.286   4.639   4.153  1.00 20.00     0.038 C 
HETATM    2  C2  UNL     1     -34.331   6.617   2.464  1.00 20.00     0.018 A 
HETATM    3  C3  UNL     1     -34.268   4.652   5.671  1.00 20.00     0.168 C 
HETATM    4  C4  UNL     1     -34.223   6.873   5.062  1.00 20.00     0.177 C 
HETATM    5  C5  UNL     1     -32.888   6.410   2.829  1.00 20.00     0.007 A 
HETATM    6  C6  UNL     1     -33.976   6.064   3.826  1.00 20.00    -0.012 A 
HETATM    7  O8  UNL     1     -34.763   5.953   6.030  1.00 20.00    -0.390 OA
ENDROOT
BRANCH   5   8
HETATM    8  C7  UNL     1     -31.994   7.589   3.005  1.00 20.00     0.090 C 
HETATM    9 BR9  UNL     1     -32.193   8.826   1.508  1.00 20.00    -0.096 Br
ENDBRANCH   5   8
TORSDOF 1
ENDMDL
MODEL 3
REMARK VINA RESULT:      -4.7      2.951      4.163
REMARK  1 active torsions:
REMARK  status: ('A' for Active; 'I' for Inactive)
REMARK    1  A    between atoms: C5_5  and  C7_7 
ROOT
HETATM    1  C1  UNL     1     -31.442   8.500   0.863  1.00 20.00     0.038 C 
HETATM    2  C2  UNL     1     -31.508   8.244   3.451  1.00 20.00     0.018 A 
HETATM    3  C3  UNL     1     -32.278   9.376  -0.053  1.00 20.00     0.168 C 
HETATM    4  C4  UNL     1     -33.109   9.769   2.058  1.00 20.00     0.177 C 
HETATM    5  C5  UNL     1     -32.569   7.326   2.912  1.00 20.00     0.007 A 
HETATM    6  C6  UNL     1     -32.199   8.584   2.148  1.00 20.00    -0.012 A 
HETATM    7  O8  UNL     1     -32.800  10.405   0.803  1.00 20.00    -0.390 OA
ENDROOT
BRANCH   5   8
HETATM    8  C7  UNL     1     -33.864   7.188   3.635  1.00 20.00     0.090 C 
HETATM    9 BR9  UNL     1     -33.580   7.273   5.565  1.00 20.00    -0.096 Br
ENDBRANCH   5   8
TORSDOF 1
ENDMDL
MODEL 4
REMARK VINA RESULT:      -4.6      2.947      4.057
REMARK  1 active torsions:
REMARK  status: ('A' for Active; 'I' for Inactive)
REMARK    1  A    between atoms: C5_5  and  C7_7 
ROOT
HETATM    1  C1  UNL     1     -32.515   7.603   1.543  1.00 20.00     0.038 C 
HETATM    2  C2  UNL     1     -32.988   5.338   2.732  1.00 20.00     0.018 A 
HETATM    3  C3  UNL     1     -32.106   8.944   2.125  1.00 20.00     0.168 C 
HETATM    4  C4  UNL     1     -32.366   7.565   3.951  1.00 20.00     0.177 C 
HETATM    5  C5  UNL     1     -34.266   6.126   2.809  1.00 20.00     0.007 A 
HETATM    6  C6  UNL     1     -32.933   6.849   2.764  1.00 20.00    -0.012 A 
HETATM    7  O8  UNL     1     -31.557   8.630   3.415  1.00 20.00    -0.390 OA
ENDROOT
BRANCH   5   8
HETATM    8  C7  UNL     1     -35.098   6.067   4.043  1.00 20.00     0.090 C 
HETATM    9 BR9  UNL     1     -34.535   4.579   5.174  1.00 20.00    -0.096 Br
ENDBRANCH   5   8
TORSDOF 1
ENDMDL
MODEL 5
REMARK VINA RESULT:      -3.6     10.322     11.089
REMARK  1 active torsions:
REMARK  status: ('A' for Active; 'I' for Inactive)
REMARK    1  A    between atoms: C5_5  and  C7_7 
ROOT
HETATM    1  C1  UNL     1     -33.457  15.193  -4.072  1.00 20.00     0.038 C 
HETATM    2  C2  UNL     1     -33.672  17.711  -3.452  1.00 20.00     0.018 A 
HETATM    3  C3  UNL     1     -34.522  14.114  -4.156  1.00 20.00     0.168 C 
HETATM    4  C4  UNL     1     -35.647  15.999  -3.460  1.00 20.00     0.177 C 
HETATM    5  C5  UNL     1     -33.565  16.967  -2.151  1.00 20.00     0.007 A 
HETATM    6  C6  UNL     1     -34.181  16.289  -3.360  1.00 20.00    -0.012 A 
HETATM    7  O8  UNL     1     -35.758  14.833  -4.297  1.00 20.00    -0.390 OA
ENDROOT
BRANCH   5   8
HETATM    8  C7  UNL     1     -34.379  17.402  -0.981  1.00 20.00     0.090 C 
HETATM    9 BR9  UNL     1     -33.351  18.614   0.152  1.00 20.00    -0.096 Br
ENDBRANCH   5   8
TORSDOF 1
ENDMDL
MODEL 6
REMARK VINA RESULT:      -3.6     10.968     11.646
REMARK  1 active torsions:
REMARK  status: ('A' for Active; 'I' for Inactive)
REMARK    1  A    between atoms: C5_5  and  C7_7 
ROOT
HETATM    1  C1  UNL     1     -33.962  17.512  -1.058  1.00 20.00     0.038 C 
HETATM    2  C2  UNL     1     -35.705  17.014  -2.925  1.00 20.00     0.018 A 
HETATM    3  C3  UNL     1     -32.618  18.214  -1.139  1.00 20.00     0.168 C 
HETATM    4  C4  UNL     1     -33.397  18.179  -3.306  1.00 20.00     0.177 C 
HETATM    5  C5  UNL     1     -34.697  15.901  -2.985  1.00 20.00     0.007 A 
HETATM    6  C6  UNL     1     -34.276  17.275  -2.500  1.00 20.00    -0.012 A 
HETATM    7  O8  UNL     1     -32.682  18.985  -2.350  1.00 20.00    -0.390 OA
ENDROOT
BRANCH   5   8
HETATM    8  C7  UNL     1     -34.271  15.359  -4.306  1.00 20.00     0.090 C 
HETATM    9 BR9  UNL     1     -35.495  13.957  -4.894  1.00 20.00    -0.096 Br
ENDBRANCH   5   8
TORSDOF 1
ENDMDL
MODEL 7
REMARK VINA RESULT:      -3.6     10.906     11.760
REMARK  1 active torsions:
REMARK  status: ('A' for Active; 'I' for Inactive)
REMARK    1  A    between atoms: C5_5  and  C7_7 
ROOT
HETATM    1  C1  UNL     1     -35.128  14.299  -4.490  1.00 20.00     0.038 C 
HETATM    2  C2  UNL     1     -32.892  15.380  -5.268  1.00 20.00     0.018 A 
HETATM    3  C3  UNL     1     -36.061  13.352  -5.223  1.00 20.00     0.168 C 
HETATM    4  C4  UNL     1     -34.391  13.822  -6.737  1.00 20.00     0.177 C 
HETATM    5  C5  UNL     1     -33.990  16.260  -5.798  1.00 20.00     0.007 A 
HETATM    6  C6  UNL     1     -34.242  14.778  -5.594  1.00 20.00    -0.012 A 
HETATM    7  O8  UNL     1     -35.251  12.771  -6.258  1.00 20.00    -0.390 OA
ENDROOT
BRANCH   5   8
HETATM    8  C7  UNL     1     -33.862  16.866  -7.152  1.00 20.00     0.090 C 
HETATM    9 BR9  UNL     1     -35.572  17.608  -7.732  1.00 20.00    -0.096 Br
ENDBRANCH   5   8
TORSDOF 1
ENDMDL
MODEL 8
REMARK VINA RESULT:      -3.6     10.626     11.359
REMARK  1 active torsions:
REMARK  status: ('A' for Active; 'I' for Inactive)
REMARK    1  A    between atoms: C5_5  and  C7_7 
ROOT
HETATM    1  C1  UNL     1     -36.624  15.527  -3.894  1.00 20.00     0.038 C 
HETATM    2  C2  UNL     1     -34.194  14.607  -4.027  1.00 20.00     0.018 A 
HETATM    3  C3  UNL     1     -37.886  15.056  -4.596  1.00 20.00     0.168 C 
HETATM    4  C4  UNL     1     -36.219  13.682  -5.395  1.00 20.00     0.177 C 
HETATM    5  C5  UNL     1     -34.353  15.542  -5.193  1.00 20.00     0.007 A 
HETATM    6  C6  UNL     1     -35.559  14.801  -4.650  1.00 20.00    -0.012 A 
HETATM    7  O8  UNL     1     -37.601  13.703  -4.988  1.00 20.00    -0.390 OA
ENDROOT
BRANCH   5   8
HETATM    8  C7  UNL     1     -33.733  15.199  -6.504  1.00 20.00     0.090 C 
HETATM    9 BR9  UNL     1     -34.452  16.339  -7.917  1.00 20.00    -0.096 Br
ENDBRANCH   5   8
TORSDOF 1
ENDMDL
MODEL 9
REMARK VINA RESULT:      -3.6     10.508     11.496
REMARK  1 active torsions:
REMARK  status: ('A' for Active; 'I' for Inactive)
REMARK    1  A    between atoms: C5_5  and  C7_7 
ROOT
HETATM    1  C1  UNL     1     -35.086  14.765  -7.018  1.00 20.00     0.038 C 
HETATM    2  C2  UNL     1     -35.932  16.260  -5.065  1.00 20.00     0.018 A 
HETATM    3  C3  UNL     1     -34.817  13.271  -7.058  1.00 20.00     0.168 C 
HETATM    4  C4  UNL     1     -35.460  13.696  -4.888  1.00 20.00     0.177 C 
HETATM    5  C5  UNL     1     -34.445  16.136  -4.884  1.00 20.00     0.007 A 
HETATM    6  C6  UNL     1     -35.221  15.017  -5.551  1.00 20.00    -0.012 A 
HETATM    7  O8  UNL     1     -35.568  12.736  -5.956  1.00 20.00    -0.390 OA
ENDROOT
BRANCH   5   8
HETATM    8  C7  UNL     1     -33.876  16.002  -3.514  1.00 20.00     0.090 C 
HETATM    9 BR9  UNL     1     -35.125  16.699  -2.185  1.00 20.00    -0.096 Br
ENDBRANCH   5   8
TORSDOF 1
ENDMDL
