MODEL 1
REMARK VINA RESULT:      -5.7      0.000      0.000
REMARK  2 active torsions:
REMARK  status: ('A' for Active; 'I' for Inactive)
REMARK    1  A    between atoms: C4_4  and  C6_6 
REMARK    2  A    between atoms: C7_7  and  C8_8 
ROOT
HETATM    1  C1  UNL     1     -34.029   6.596   5.444  1.00 20.00     0.034 A 
HETATM    2  C2  UNL     1     -34.672   5.382   5.376  1.00 20.00     0.142 A 
HETATM    3  C3  UNL     1     -34.099   5.878   3.332  1.00 20.00     0.148 A 
HETATM    4  C4  UNL     1     -33.658   6.919   4.116  1.00 20.00    -0.029 A 
HETATM    5  O9  UNL     1     -34.719   4.938   4.092  1.00 20.00    -0.334 OA
ENDROOT
BRANCH   4   6
HETATM    6  C6  UNL     1     -32.926   8.156   3.651  1.00 20.00     0.026 A 
HETATM    7  C5  UNL     1     -31.455   8.085   3.305  1.00 20.00     0.016 A 
HETATM    8  C7  UNL     1     -32.466   8.265   2.213  1.00 20.00     0.005 A 
BRANCH   8   9
HETATM    9  C8  UNL     1     -32.568   9.566   1.492  1.00 20.00     0.090 C 
HETATM   10 BR10 UNL     1     -33.050   9.276  -0.377  1.00 20.00    -0.096 Br
ENDBRANCH   8   9
ENDBRANCH   4   6
TORSDOF 2
ENDMDL
MODEL 2
REMARK VINA RESULT:      -5.6      0.629      1.178
REMARK  2 active torsions:
REMARK  status: ('A' for Active; 'I' for Inactive)
REMARK    1  A    between atoms: C4_4  and  C6_6 
REMARK    2  A    between atoms: C7_7  and  C8_8 
ROOT
HETATM    1  C1  UNL     1     -34.111   5.920   3.413  1.00 20.00     0.034 A 
HETATM    2  C2  UNL     1     -34.755   5.100   4.310  1.00 20.00     0.142 A 
HETATM    3  C3  UNL     1     -33.990   6.781   5.467  1.00 20.00     0.148 A 
HETATM    4  C4  UNL     1     -33.614   7.012   4.165  1.00 20.00    -0.029 A 
HETATM    5  O9  UNL     1     -34.685   5.618   5.565  1.00 20.00    -0.334 OA
ENDROOT
BRANCH   4   6
HETATM    6  C6  UNL     1     -32.827   8.192   3.644  1.00 20.00     0.026 A 
HETATM    7  C5  UNL     1     -31.395   8.013   3.191  1.00 20.00     0.016 A 
HETATM    8  C7  UNL     1     -32.467   8.272   2.176  1.00 20.00     0.005 A 
BRANCH   8   9
HETATM    9  C8  UNL     1     -32.524   9.579   1.463  1.00 20.00     0.090 C 
HETATM   10 BR10 UNL     1     -33.072   9.322  -0.393  1.00 20.00    -0.096 Br
ENDBRANCH   8   9
ENDBRANCH   4   6
TORSDOF 2
ENDMDL
MODEL 3
REMARK VINA RESULT:      -5.3      3.366      4.874
REMARK  2 active torsions:
REMARK  status: ('A' for Active; 'I' for Inactive)
REMARK    1  A    between atoms: C4_4  and  C6_6 
REMARK    2  A    between atoms: C7_7  and  C8_8 
ROOT
HETATM    1  C1  UNL     1     -33.142   9.636   1.875  1.00 20.00     0.034 A 
HETATM    2  C2  UNL     1     -32.641  10.346   0.808  1.00 20.00     0.142 A 
HETATM    3  C3  UNL     1     -31.466   8.514   0.923  1.00 20.00     0.148 A 
HETATM    4  C4  UNL     1     -32.378   8.447   1.950  1.00 20.00    -0.029 A 
HETATM    5  O9  UNL     1     -31.619   9.668   0.222  1.00 20.00    -0.334 OA
ENDROOT
BRANCH   4   6
HETATM    6  C6  UNL     1     -32.531   7.329   2.954  1.00 20.00     0.026 A 
HETATM    7  C5  UNL     1     -33.692   7.329   3.924  1.00 20.00     0.016 A 
HETATM    8  C7  UNL     1     -33.659   6.330   2.807  1.00 20.00     0.005 A 
BRANCH   8   9
HETATM    9  C8  UNL     1     -33.424   4.888   3.098  1.00 20.00     0.090 C 
HETATM   10 BR10 UNL     1     -34.410   4.342   4.692  1.00 20.00    -0.096 Br
ENDBRANCH   8   9
ENDBRANCH   4   6
TORSDOF 2
ENDMDL
MODEL 4
REMARK VINA RESULT:      -4.8      1.339      1.786
REMARK  2 active torsions:
REMARK  status: ('A' for Active; 'I' for Inactive)
REMARK    1  A    between atoms: C4_4  and  C6_6 
REMARK    2  A    between atoms: C7_7  and  C8_8 
ROOT
HETATM    1  C1  UNL     1     -34.361   5.078   4.454  1.00 20.00     0.034 A 
HETATM    2  C2  UNL     1     -34.898   5.182   5.716  1.00 20.00     0.142 A 
HETATM    3  C3  UNL     1     -33.737   6.999   5.400  1.00 20.00     0.148 A 
HETATM    4  C4  UNL     1     -33.607   6.258   4.249  1.00 20.00    -0.029 A 
HETATM    5  O9  UNL     1     -34.521   6.351   6.300  1.00 20.00    -0.334 OA
ENDROOT
BRANCH   4   6
HETATM    6  C6  UNL     1     -32.816   6.630   3.017  1.00 20.00     0.026 A 
HETATM    7  C5  UNL     1     -33.496   6.697   1.667  1.00 20.00     0.016 A 
HETATM    8  C7  UNL     1     -33.056   7.962   2.339  1.00 20.00     0.005 A 
BRANCH   8   9
HETATM    9  C8  UNL     1     -31.909   8.741   1.793  1.00 20.00     0.090 C 
HETATM   10 BR10 UNL     1     -32.546  10.176   0.633  1.00 20.00    -0.096 Br
ENDBRANCH   8   9
ENDBRANCH   4   6
TORSDOF 2
ENDMDL
MODEL 5
REMARK VINA RESULT:      -4.5      1.333      1.369
REMARK  2 active torsions:
REMARK  status: ('A' for Active; 'I' for Inactive)
REMARK    1  A    between atoms: C4_4  and  C6_6 
REMARK    2  A    between atoms: C7_7  and  C8_8 
ROOT
HETATM    1  C1  UNL     1     -34.076   6.038   4.369  1.00 20.00     0.034 A 
HETATM    2  C2  UNL     1     -34.145   4.665   4.390  1.00 20.00     0.142 A 
HETATM    3  C3  UNL     1     -32.964   5.185   2.634  1.00 20.00     0.148 A 
HETATM    4  C4  UNL     1     -33.309   6.376   3.228  1.00 20.00    -0.029 A 
HETATM    5  O9  UNL     1     -33.470   4.137   3.335  1.00 20.00    -0.334 OA
ENDROOT
BRANCH   4   6
HETATM    6  C6  UNL     1     -32.943   7.763   2.756  1.00 20.00     0.026 A 
HETATM    7  C5  UNL     1     -31.775   8.497   3.379  1.00 20.00     0.016 A 
HETATM    8  C7  UNL     1     -31.665   7.982   1.975  1.00 20.00     0.005 A 
BRANCH   8   9
HETATM    9  C8  UNL     1     -31.643   8.933   0.828  1.00 20.00     0.090 C 
HETATM   10 BR10 UNL     1     -32.323  10.680   1.374  1.00 20.00    -0.096 Br
ENDBRANCH   8   9
ENDBRANCH   4   6
TORSDOF 2
ENDMDL
MODEL 6
REMARK VINA RESULT:      -4.4     10.666     11.573
REMARK  2 active torsions:
REMARK  status: ('A' for Active; 'I' for Inactive)
REMARK    1  A    between atoms: C4_4  and  C6_6 
REMARK    2  A    between atoms: C7_7  and  C8_8 
ROOT
HETATM    1  C1  UNL     1     -34.275  14.336  -6.461  1.00 20.00     0.034 A 
HETATM    2  C2  UNL     1     -35.152  13.314  -6.740  1.00 20.00     0.142 A 
HETATM    3  C3  UNL     1     -35.193  13.574  -4.576  1.00 20.00     0.148 A 
HETATM    4  C4  UNL     1     -34.301  14.504  -5.056  1.00 20.00    -0.029 A 
HETATM    5  O9  UNL     1     -35.716  12.843  -5.596  1.00 20.00    -0.334 OA
ENDROOT
BRANCH   4   6
HETATM    6  C6  UNL     1     -33.511  15.503  -4.243  1.00 20.00     0.026 A 
HETATM    7  C5  UNL     1     -33.424  16.947  -4.686  1.00 20.00     0.016 A 
HETATM    8  C7  UNL     1     -34.230  16.590  -3.473  1.00 20.00     0.005 A 
BRANCH   8   9
HETATM    9  C8  UNL     1     -33.757  16.983  -2.116  1.00 20.00     0.090 C 
HETATM   10 BR10 UNL     1     -35.270  17.221  -0.906  1.00 20.00    -0.096 Br
ENDBRANCH   8   9
ENDBRANCH   4   6
TORSDOF 2
ENDMDL
MODEL 7
REMARK VINA RESULT:      -4.3     10.849     11.297
REMARK  2 active torsions:
REMARK  status: ('A' for Active; 'I' for Inactive)
REMARK    1  A    between atoms: C4_4  and  C6_6 
REMARK    2  A    between atoms: C7_7  and  C8_8 
ROOT
HETATM    1  C1  UNL     1     -35.541  16.737  -1.735  1.00 20.00     0.034 A 
HETATM    2  C2  UNL     1     -35.004  17.412  -0.663  1.00 20.00     0.142 A 
HETATM    3  C3  UNL     1     -33.386  17.181  -2.106  1.00 20.00     0.148 A 
HETATM    4  C4  UNL     1     -34.490  16.587  -2.672  1.00 20.00    -0.029 A 
HETATM    5  O9  UNL     1     -33.690  17.685  -0.881  1.00 20.00    -0.334 OA
ENDROOT
BRANCH   4   6
HETATM    6  C6  UNL     1     -34.563  15.911  -4.020  1.00 20.00     0.026 A 
HETATM    7  C5  UNL     1     -33.394  15.096  -4.528  1.00 20.00     0.016 A 
HETATM    8  C7  UNL     1     -34.654  14.402  -4.105  1.00 20.00     0.005 A 
BRANCH   8   9
HETATM    9  C8  UNL     1     -35.535  13.763  -5.123  1.00 20.00     0.090 C 
HETATM   10 BR10 UNL     1     -34.619  13.644  -6.843  1.00 20.00    -0.096 Br
ENDBRANCH   8   9
ENDBRANCH   4   6
TORSDOF 2
ENDMDL
MODEL 8
REMARK VINA RESULT:      -4.3     11.045     11.401
REMARK  2 active torsions:
REMARK  status: ('A' for Active; 'I' for Inactive)
REMARK    1  A    between atoms: C4_4  and  C6_6 
REMARK    2  A    between atoms: C7_7  and  C8_8 
ROOT
HETATM    1  C1  UNL     1     -35.668  14.931  -4.167  1.00 20.00     0.034 A 
HETATM    2  C2  UNL     1     -35.178  13.858  -4.875  1.00 20.00     0.142 A 
HETATM    3  C3  UNL     1     -33.440  15.012  -4.242  1.00 20.00     0.148 A 
HETATM    4  C4  UNL     1     -34.540  15.680  -3.757  1.00 20.00    -0.029 A 
HETATM    5  O9  UNL     1     -33.820  13.900  -4.925  1.00 20.00    -0.334 OA
ENDROOT
BRANCH   4   6
HETATM    6  C6  UNL     1     -34.540  16.957  -2.950  1.00 20.00     0.026 A 
HETATM    7  C5  UNL     1     -34.997  16.947  -1.508  1.00 20.00     0.016 A 
HETATM    8  C7  UNL     1     -33.544  17.140  -1.824  1.00 20.00     0.005 A 
BRANCH   8   9
HETATM    9  C8  UNL     1     -32.899  18.465  -1.605  1.00 20.00     0.090 C 
HETATM   10 BR10 UNL     1     -32.717  18.830   0.304  1.00 20.00    -0.096 Br
ENDBRANCH   8   9
ENDBRANCH   4   6
TORSDOF 2
ENDMDL
MODEL 9
REMARK VINA RESULT:      -4.3     10.797     11.320
REMARK  2 active torsions:
REMARK  status: ('A' for Active; 'I' for Inactive)
REMARK    1  A    between atoms: C4_4  and  C6_6 
REMARK    2  A    between atoms: C7_7  and  C8_8 
ROOT
HETATM    1  C1  UNL     1     -33.338  17.301  -2.066  1.00 20.00     0.034 A 
HETATM    2  C2  UNL     1     -33.719  17.763  -0.828  1.00 20.00     0.142 A 
HETATM    3  C3  UNL     1     -35.467  16.769  -1.668  1.00 20.00     0.148 A 
HETATM    4  C4  UNL     1     -34.473  16.656  -2.611  1.00 20.00    -0.029 A 
HETATM    5  O9  UNL     1     -35.017  17.444  -0.578  1.00 20.00    -0.334 OA
ENDROOT
BRANCH   4   6
HETATM    6  C6  UNL     1     -34.576  15.979  -3.958  1.00 20.00     0.026 A 
HETATM    7  C5  UNL     1     -33.382  15.255  -4.540  1.00 20.00     0.016 A 
HETATM    8  C7  UNL     1     -34.559  14.468  -4.048  1.00 20.00     0.005 A 
BRANCH   8   9
HETATM    9  C8  UNL     1     -35.449  13.766  -5.016  1.00 20.00     0.090 C 
HETATM   10 BR10 UNL     1     -34.652  13.760  -6.797  1.00 20.00    -0.096 Br
ENDBRANCH   8   9
ENDBRANCH   4   6
TORSDOF 2
ENDMDL
