MODEL 1
REMARK VINA RESULT:      -7.0      0.000      0.000
REMARK  1 active torsions:
REMARK  status: ('A' for Active; 'I' for Inactive)
REMARK    1  A    between atoms: C7_7  and  C11_11 
ROOT
HETATM    1  C1  UNL     1     -33.749   5.018   3.178  1.00 20.00     0.005 C 
HETATM    2  C2  UNL     1     -32.677   5.836   2.455  1.00 20.00     0.010 C 
HETATM    3  C3  UNL     1     -33.988   7.746   3.522  1.00 20.00     0.014 C 
HETATM    4  C4  UNL     1     -31.428   8.011   3.170  1.00 20.00     0.016 A 
HETATM    5  C5  UNL     1     -33.839   5.430   4.650  1.00 20.00    -0.015 C 
HETATM    6  C6  UNL     1     -34.262   6.915   4.791  1.00 20.00    -0.014 C 
HETATM    7  C7  UNL     1     -32.045   8.256   1.825  1.00 20.00     0.009 A 
HETATM    8  C8  UNL     1     -32.727   7.313   2.810  1.00 20.00    -0.035 A 
HETATM    9  C9  UNL     1     -34.798   4.508   5.408  1.00 20.00     0.010 C 
HETATM   10  C10 UNL     1     -33.597   7.545   6.020  1.00 20.00     0.010 C 
ENDROOT
BRANCH   7  11
HETATM   11  C11 UNL     1     -32.594   9.597   1.480  1.00 20.00     0.120 C 
HETATM   12 CL12 UNL     1     -33.090   9.671  -0.233  1.00 20.00    -0.130 Cl
ENDBRANCH   7  11
TORSDOF 1
ENDMDL
MODEL 2
REMARK VINA RESULT:      -4.6     11.084     12.039
REMARK  1 active torsions:
REMARK  status: ('A' for Active; 'I' for Inactive)
REMARK    1  A    between atoms: C7_7  and  C11_11 
ROOT
HETATM    1  C1  UNL     1     -36.401  13.912  -5.164  1.00 20.00     0.005 C 
HETATM    2  C2  UNL     1     -36.779  15.111  -4.293  1.00 20.00     0.010 C 
HETATM    3  C3  UNL     1     -34.255  15.128  -3.926  1.00 20.00     0.014 C 
HETATM    4  C4  UNL     1     -35.552  17.378  -3.897  1.00 20.00     0.016 A 
HETATM    5  C5  UNL     1     -35.281  14.285  -6.139  1.00 20.00    -0.015 C 
HETATM    6  C6  UNL     1     -33.990  14.691  -5.381  1.00 20.00    -0.014 C 
HETATM    7  C7  UNL     1     -35.805  16.753  -2.558  1.00 20.00     0.009 A 
HETATM    8  C8  UNL     1     -35.566  15.865  -3.774  1.00 20.00    -0.035 A 
HETATM    9  C9  UNL     1     -35.010  13.136  -7.113  1.00 20.00     0.010 C 
HETATM   10  C10 UNL     1     -33.234  15.776  -6.156  1.00 20.00     0.010 C 
ENDROOT
BRANCH   7  11
HETATM   11  C11 UNL     1     -34.813  16.899  -1.457  1.00 20.00     0.120 C 
HETATM   12 CL12 UNL     1     -35.610  17.333   0.080  1.00 20.00    -0.130 Cl
ENDBRANCH   7  11
TORSDOF 1
ENDMDL
MODEL 3
REMARK VINA RESULT:      -4.5     11.014     11.979
REMARK  1 active torsions:
REMARK  status: ('A' for Active; 'I' for Inactive)
REMARK    1  A    between atoms: C7_7  and  C11_11 
ROOT
HETATM    1  C1  UNL     1     -32.802  18.050  -1.142  1.00 20.00     0.005 C 
HETATM    2  C2  UNL     1     -33.254  17.974  -2.601  1.00 20.00     0.010 C 
HETATM    3  C3  UNL     1     -35.136  16.628  -1.527  1.00 20.00     0.014 C 
HETATM    4  C4  UNL     1     -35.643  18.042  -3.647  1.00 20.00     0.016 A 
HETATM    5  C5  UNL     1     -33.949  18.528  -0.247  1.00 20.00    -0.015 C 
HETATM    6  C6  UNL     1     -35.137  17.532  -0.278  1.00 20.00    -0.014 C 
HETATM    7  C7  UNL     1     -34.957  16.804  -4.144  1.00 20.00     0.009 A 
HETATM    8  C8  UNL     1     -34.629  17.345  -2.758  1.00 20.00    -0.035 A 
HETATM    9  C9  UNL     1     -33.455  18.754   1.185  1.00 20.00     0.010 C 
HETATM   10  C10 UNL     1     -36.467  18.282  -0.138  1.00 20.00     0.010 C 
ENDROOT
BRANCH   7  11
HETATM   11  C11 UNL     1     -35.730  15.549  -4.360  1.00 20.00     0.120 C 
HETATM   12 CL12 UNL     1     -34.680  14.111  -4.226  1.00 20.00    -0.130 Cl
ENDBRANCH   7  11
TORSDOF 1
ENDMDL
MODEL 4
REMARK VINA RESULT:      -4.4     10.956     11.895
REMARK  1 active torsions:
REMARK  status: ('A' for Active; 'I' for Inactive)
REMARK    1  A    between atoms: C7_7  and  C11_11 
ROOT
HETATM    1  C1  UNL     1     -33.348  18.369   0.179  1.00 20.00     0.005 C 
HETATM    2  C2  UNL     1     -32.997  18.128  -1.290  1.00 20.00     0.010 C 
HETATM    3  C3  UNL     1     -35.171  16.799  -1.172  1.00 20.00     0.014 C 
HETATM    4  C4  UNL     1     -34.524  17.970  -3.399  1.00 20.00     0.016 A 
HETATM    5  C5  UNL     1     -34.787  18.874   0.314  1.00 20.00    -0.015 C 
HETATM    6  C6  UNL     1     -35.800  17.819  -0.203  1.00 20.00    -0.014 C 
HETATM    7  C7  UNL     1     -33.688  16.726  -3.342  1.00 20.00     0.009 A 
HETATM    8  C8  UNL     1     -34.105  17.416  -2.049  1.00 20.00    -0.035 A 
HETATM    9  C9  UNL     1     -35.087  19.263   1.763  1.00 20.00     0.010 C 
HETATM   10  C10 UNL     1     -37.013  18.509  -0.838  1.00 20.00     0.010 C 
ENDROOT
BRANCH   7  11
HETATM   11  C11 UNL     1     -34.251  15.418  -3.778  1.00 20.00     0.120 C 
HETATM   12 CL12 UNL     1     -32.965  14.314  -4.337  1.00 20.00    -0.130 Cl
ENDBRANCH   7  11
TORSDOF 1
ENDMDL
MODEL 5
REMARK VINA RESULT:      -4.4     10.900     12.589
REMARK  1 active torsions:
REMARK  status: ('A' for Active; 'I' for Inactive)
REMARK    1  A    between atoms: C7_7  and  C11_11 
ROOT
HETATM    1  C1  UNL     1     -33.969  14.283  -5.347  1.00 20.00     0.005 C 
HETATM    2  C2  UNL     1     -34.550  14.647  -3.980  1.00 20.00     0.010 C 
HETATM    3  C3  UNL     1     -33.446  16.874  -4.552  1.00 20.00     0.014 C 
HETATM    4  C4  UNL     1     -35.614  16.869  -3.122  1.00 20.00     0.016 A 
HETATM    5  C5  UNL     1     -34.369  15.323  -6.398  1.00 20.00    -0.015 C 
HETATM    6  C6  UNL     1     -33.799  16.722  -6.046  1.00 20.00    -0.014 C 
HETATM    7  C7  UNL     1     -34.511  16.492  -2.179  1.00 20.00     0.009 A 
HETATM    8  C8  UNL     1     -34.403  16.124  -3.654  1.00 20.00    -0.035 A 
HETATM    9  C9  UNL     1     -33.920  14.880  -7.792  1.00 20.00     0.010 C 
HETATM   10  C10 UNL     1     -34.764  17.823  -6.500  1.00 20.00     0.010 C 
ENDROOT
BRANCH   7  11
HETATM   11  C11 UNL     1     -33.668  17.545  -1.545  1.00 20.00     0.120 C 
HETATM   12 CL12 UNL     1     -34.274  17.968   0.079  1.00 20.00    -0.130 Cl
ENDBRANCH   7  11
TORSDOF 1
ENDMDL
MODEL 6
REMARK VINA RESULT:      -4.4     11.334     12.187
REMARK  1 active torsions:
REMARK  status: ('A' for Active; 'I' for Inactive)
REMARK    1  A    between atoms: C7_7  and  C11_11 
ROOT
HETATM    1  C1  UNL     1     -33.670  16.295  -3.115  1.00 20.00     0.005 C 
HETATM    2  C2  UNL     1     -33.337  16.182  -4.604  1.00 20.00     0.010 C 
HETATM    3  C3  UNL     1     -35.428  14.724  -4.549  1.00 20.00     0.014 C 
HETATM    4  C4  UNL     1     -34.895  16.090  -6.693  1.00 20.00     0.016 A 
HETATM    5  C5  UNL     1     -35.133  16.703  -2.920  1.00 20.00    -0.015 C 
HETATM    6  C6  UNL     1     -36.095  15.632  -3.497  1.00 20.00    -0.014 C 
HETATM    7  C7  UNL     1     -33.989  14.896  -6.742  1.00 20.00     0.009 A 
HETATM    8  C8  UNL     1     -34.418  15.465  -5.395  1.00 20.00    -0.035 A 
HETATM    9  C9  UNL     1     -35.425  16.968  -1.441  1.00 20.00     0.010 C 
HETATM   10  C10 UNL     1     -37.358  16.295  -4.059  1.00 20.00     0.010 C 
ENDROOT
BRANCH   7  11
HETATM   11  C11 UNL     1     -34.485  13.592  -7.264  1.00 20.00     0.120 C 
HETATM   12 CL12 UNL     1     -36.142  13.744  -7.913  1.00 20.00    -0.130 Cl
ENDBRANCH   7  11
TORSDOF 1
ENDMDL
MODEL 7
REMARK VINA RESULT:      -4.3     10.654     12.395
REMARK  1 active torsions:
REMARK  status: ('A' for Active; 'I' for Inactive)
REMARK    1  A    between atoms: C7_7  and  C11_11 
ROOT
HETATM    1  C1  UNL     1     -34.478  17.322  -5.701  1.00 20.00     0.005 C 
HETATM    2  C2  UNL     1     -34.305  18.037  -4.360  1.00 20.00     0.010 C 
HETATM    3  C3  UNL     1     -34.866  15.702  -3.501  1.00 20.00     0.014 C 
HETATM    4  C4  UNL     1     -33.269  17.209  -2.114  1.00 20.00     0.016 A 
HETATM    5  C5  UNL     1     -33.635  16.044  -5.744  1.00 20.00    -0.015 C 
HETATM    6  C6  UNL     1     -34.092  15.036  -4.657  1.00 20.00    -0.014 C 
HETATM    7  C7  UNL     1     -34.650  17.716  -1.825  1.00 20.00     0.009 A 
HETATM    8  C8  UNL     1     -34.345  17.084  -3.177  1.00 20.00    -0.035 A 
HETATM    9  C9  UNL     1     -33.686  15.412  -7.137  1.00 20.00     0.010 C 
HETATM   10  C10 UNL     1     -32.893  14.237  -4.132  1.00 20.00     0.010 C 
ENDROOT
BRANCH   7  11
HETATM   11  C11 UNL     1     -35.498  17.051  -0.795  1.00 20.00     0.120 C 
HETATM   12 CL12 UNL     1     -35.227  17.759   0.821  1.00 20.00    -0.130 Cl
ENDBRANCH   7  11
TORSDOF 1
ENDMDL
MODEL 8
REMARK VINA RESULT:      -4.1     11.196     12.135
REMARK  1 active torsions:
REMARK  status: ('A' for Active; 'I' for Inactive)
REMARK    1  A    between atoms: C7_7  and  C11_11 
ROOT
HETATM    1  C1  UNL     1     -34.776  17.355  -0.996  1.00 20.00     0.005 C 
HETATM    2  C2  UNL     1     -33.670  16.974  -1.981  1.00 20.00     0.010 C 
HETATM    3  C3  UNL     1     -35.681  16.080  -3.270  1.00 20.00     0.014 C 
HETATM    4  C4  UNL     1     -33.637  16.989  -4.589  1.00 20.00     0.016 A 
HETATM    5  C5  UNL     1     -35.892  18.124  -1.709  1.00 20.00    -0.015 C 
HETATM    6  C6  UNL     1     -36.567  17.250  -2.798  1.00 20.00    -0.014 C 
HETATM    7  C7  UNL     1     -33.241  15.617  -4.132  1.00 20.00     0.009 A 
HETATM    8  C8  UNL     1     -34.213  16.441  -3.296  1.00 20.00    -0.035 A 
HETATM    9  C9  UNL     1     -36.920  18.640  -0.700  1.00 20.00     0.010 C 
HETATM   10  C10 UNL     1     -37.013  18.118  -3.980  1.00 20.00     0.010 C 
ENDROOT
BRANCH   7  11
HETATM   11  C11 UNL     1     -33.658  14.414  -4.905  1.00 20.00     0.120 C 
HETATM   12 CL12 UNL     1     -34.032  14.832  -6.600  1.00 20.00    -0.130 Cl
ENDBRANCH   7  11
TORSDOF 1
ENDMDL
