MODEL 1
REMARK VINA RESULT:      -5.0      0.000      0.000
REMARK  3 active torsions:
REMARK  status: ('A' for Active; 'I' for Inactive)
REMARK    1  A    between atoms: C2_2  and  C6_6 
REMARK    2  A    between atoms: C3_3  and  C7_7 
REMARK    3  A    between atoms: C6_6  and  O8_8 
ROOT
HETATM    1  C1  UNL     1     -35.019   6.310   3.228  1.00 20.00     0.017 A 
HETATM    2  C2  UNL     1     -33.903   5.311   3.340  1.00 20.00     0.018 A 
HETATM    3  C3  UNL     1     -33.648   6.777   3.687  1.00 20.00    -0.038 A 
HETATM    4  C4  UNL     1     -33.486   7.193   5.125  1.00 20.00     0.015 C 
ENDROOT
BRANCH   2   5
HETATM    5  C6  UNL     1     -33.956   4.236   4.371  1.00 20.00     0.169 C 
BRANCH   5   6
HETATM    6  O8  UNL     1     -35.245   4.216   4.984  1.00 20.00    -0.400 OA
HETATM    7  H22 UNL     1     -35.328   3.353   5.417  1.00 20.00     0.209 HD
ENDBRANCH   5   6
ENDBRANCH   2   5
BRANCH   3   8
HETATM    8  C7  UNL     1     -32.818   7.579   2.721  1.00 20.00     0.005 C 
HETATM    9  C5  UNL     1     -31.615   8.197   3.373  1.00 20.00     0.006 C 
ENDBRANCH   3   8
TORSDOF 3
ENDMDL
MODEL 2
REMARK VINA RESULT:      -4.6      2.524      3.772
REMARK  3 active torsions:
REMARK  status: ('A' for Active; 'I' for Inactive)
REMARK    1  A    between atoms: C2_2  and  C6_6 
REMARK    2  A    between atoms: C3_3  and  C7_7 
REMARK    3  A    between atoms: C6_6  and  O8_8 
ROOT
HETATM    1  C1  UNL     1     -32.582   6.053   2.967  1.00 20.00     0.017 A 
HETATM    2  C2  UNL     1     -33.337   7.245   2.451  1.00 20.00     0.018 A 
HETATM    3  C3  UNL     1     -33.676   6.668   3.824  1.00 20.00    -0.038 A 
HETATM    4  C4  UNL     1     -33.268   7.405   5.072  1.00 20.00     0.015 C 
ENDROOT
BRANCH   2   5
HETATM    5  C6  UNL     1     -32.646   8.554   2.275  1.00 20.00     0.169 C 
BRANCH   5   6
HETATM    6  O8  UNL     1     -31.554   8.408   1.367  1.00 20.00    -0.400 OA
HETATM    7  H22 UNL     1     -30.937   9.130   1.563  1.00 20.00     0.209 HD
ENDBRANCH   5   6
ENDBRANCH   2   5
BRANCH   3   8
HETATM    8  C7  UNL     1     -34.974   5.917   3.954  1.00 20.00     0.005 C 
HETATM    9  C5  UNL     1     -34.840   4.680   4.792  1.00 20.00     0.006 C 
ENDBRANCH   3   8
TORSDOF 3
ENDMDL
MODEL 3
REMARK VINA RESULT:      -4.3      1.114      1.751
REMARK  3 active torsions:
REMARK  status: ('A' for Active; 'I' for Inactive)
REMARK    1  A    between atoms: C2_2  and  C6_6 
REMARK    2  A    between atoms: C3_3  and  C7_7 
REMARK    3  A    between atoms: C6_6  and  O8_8 
ROOT
HETATM    1  C1  UNL     1     -33.283   7.054   4.756  1.00 20.00     0.017 A 
HETATM    2  C2  UNL     1     -34.575   6.716   4.070  1.00 20.00     0.018 A 
HETATM    3  C3  UNL     1     -33.288   6.824   3.254  1.00 20.00    -0.038 A 
HETATM    4  C4  UNL     1     -32.625   5.580   2.726  1.00 20.00     0.015 C 
ENDROOT
BRANCH   2   5
HETATM    5  C6  UNL     1     -35.251   5.415   4.340  1.00 20.00     0.169 C 
BRANCH   5   6
HETATM    6  O8  UNL     1     -34.960   4.984   5.669  1.00 20.00    -0.400 OA
HETATM    7  H22 UNL     1     -34.641   4.071   5.597  1.00 20.00     0.209 HD
ENDBRANCH   5   6
ENDBRANCH   2   5
BRANCH   3   8
HETATM    8  C7  UNL     1     -33.141   8.024   2.357  1.00 20.00     0.005 C 
HETATM    9  C5  UNL     1     -31.705   8.391   2.122  1.00 20.00     0.006 C 
ENDBRANCH   3   8
TORSDOF 3
ENDMDL
MODEL 4
REMARK VINA RESULT:      -4.2      2.436      3.801
REMARK  3 active torsions:
REMARK  status: ('A' for Active; 'I' for Inactive)
REMARK    1  A    between atoms: C2_2  and  C6_6 
REMARK    2  A    between atoms: C3_3  and  C7_7 
REMARK    3  A    between atoms: C6_6  and  O8_8 
ROOT
HETATM    1  C1  UNL     1     -34.224   7.694   3.216  1.00 20.00     0.017 A 
HETATM    2  C2  UNL     1     -32.932   7.655   3.981  1.00 20.00     0.018 A 
HETATM    3  C3  UNL     1     -33.740   6.373   3.789  1.00 20.00    -0.038 A 
HETATM    4  C4  UNL     1     -33.260   5.317   2.829  1.00 20.00     0.015 C 
ENDROOT
BRANCH   2   5
HETATM    5  C6  UNL     1     -31.638   7.904   3.284  1.00 20.00     0.169 C 
BRANCH   5   6
HETATM    6  O8  UNL     1     -31.847   8.769   2.169  1.00 20.00    -0.400 OA
HETATM    7  H22 UNL     1     -32.516   8.343   1.612  1.00 20.00     0.209 HD
ENDBRANCH   5   6
ENDBRANCH   2   5
BRANCH   3   8
HETATM    8  C7  UNL     1     -34.457   5.824   4.994  1.00 20.00     0.005 C 
HETATM    9  C5  UNL     1     -34.516   4.324   4.993  1.00 20.00     0.006 C 
ENDBRANCH   3   8
TORSDOF 3
ENDMDL
MODEL 5
REMARK VINA RESULT:      -4.1     11.559     12.226
REMARK  3 active torsions:
REMARK  status: ('A' for Active; 'I' for Inactive)
REMARK    1  A    between atoms: C2_2  and  C6_6 
REMARK    2  A    between atoms: C3_3  and  C7_7 
REMARK    3  A    between atoms: C6_6  and  O8_8 
ROOT
HETATM    1  C1  UNL     1     -33.329  15.066  -4.180  1.00 20.00     0.017 A 
HETATM    2  C2  UNL     1     -34.696  14.449  -4.093  1.00 20.00     0.018 A 
HETATM    3  C3  UNL     1     -34.520  15.944  -3.833  1.00 20.00    -0.038 A 
HETATM    4  C4  UNL     1     -34.982  16.946  -4.857  1.00 20.00     0.015 C 
ENDROOT
BRANCH   2   5
HETATM    5  C6  UNL     1     -35.360  13.917  -5.317  1.00 20.00     0.169 C 
BRANCH   5   6
HETATM    6  O8  UNL     1     -35.943  12.645  -5.038  1.00 20.00    -0.400 OA
HETATM    7  H22 UNL     1     -36.241  12.676  -4.116  1.00 20.00     0.209 HD
ENDBRANCH   5   6
ENDBRANCH   2   5
BRANCH   3   8
HETATM    8  C7  UNL     1     -34.655  16.416  -2.410  1.00 20.00     0.005 C 
HETATM    9  C5  UNL     1     -33.498  17.267  -1.975  1.00 20.00     0.006 C 
ENDBRANCH   3   8
TORSDOF 3
ENDMDL
MODEL 6
REMARK VINA RESULT:      -4.0      2.914      4.275
REMARK  3 active torsions:
REMARK  status: ('A' for Active; 'I' for Inactive)
REMARK    1  A    between atoms: C2_2  and  C6_6 
REMARK    2  A    between atoms: C3_3  and  C7_7 
REMARK    3  A    between atoms: C6_6  and  O8_8 
ROOT
HETATM    1  C1  UNL     1     -31.437   7.972   3.206  1.00 20.00     0.017 A 
HETATM    2  C2  UNL     1     -32.176   8.199   1.918  1.00 20.00     0.018 A 
HETATM    3  C3  UNL     1     -32.793   7.317   3.002  1.00 20.00    -0.038 A 
HETATM    4  C4  UNL     1     -33.954   7.824   3.815  1.00 20.00     0.015 C 
ENDROOT
BRANCH   2   5
HETATM    5  C6  UNL     1     -32.704   9.552   1.583  1.00 20.00     0.169 C 
BRANCH   5   6
HETATM    6  O8  UNL     1     -32.931   9.650   0.178  1.00 20.00    -0.400 OA
HETATM    7  H22 UNL     1     -32.968   8.742  -0.158  1.00 20.00     0.209 HD
ENDBRANCH   5   6
ENDBRANCH   2   5
BRANCH   3   8
HETATM    8  C7  UNL     1     -32.827   5.834   2.745  1.00 20.00     0.005 C 
HETATM    9  C5  UNL     1     -33.964   5.155   3.452  1.00 20.00     0.006 C 
ENDBRANCH   3   8
TORSDOF 3
ENDMDL
MODEL 7
REMARK VINA RESULT:      -4.0      2.196      3.472
REMARK  3 active torsions:
REMARK  status: ('A' for Active; 'I' for Inactive)
REMARK    1  A    between atoms: C2_2  and  C6_6 
REMARK    2  A    between atoms: C3_3  and  C7_7 
REMARK    3  A    between atoms: C6_6  and  O8_8 
ROOT
HETATM    1  C1  UNL     1     -31.579   8.443   3.306  1.00 20.00     0.017 A 
HETATM    2  C2  UNL     1     -32.847   7.765   2.872  1.00 20.00     0.018 A 
HETATM    3  C3  UNL     1     -32.087   8.654   1.890  1.00 20.00    -0.038 A 
HETATM    4  C4  UNL     1     -31.311   8.034   0.759  1.00 20.00     0.015 C 
ENDROOT
BRANCH   2   5
HETATM    5  C6  UNL     1     -32.900   6.281   2.742  1.00 20.00     0.169 C 
BRANCH   5   6
HETATM    6  O8  UNL     1     -34.219   5.816   3.022  1.00 20.00    -0.400 OA
HETATM    7  H22 UNL     1     -34.239   4.880   2.770  1.00 20.00     0.209 HD
ENDBRANCH   5   6
ENDBRANCH   2   5
BRANCH   3   8
HETATM    8  C7  UNL     1     -32.699   9.988   1.554  1.00 20.00     0.005 C 
HETATM    9  C5  UNL     1     -33.014  10.123   0.093  1.00 20.00     0.006 C 
ENDBRANCH   3   8
TORSDOF 3
ENDMDL
MODEL 8
REMARK VINA RESULT:      -3.7      1.881      2.996
REMARK  3 active torsions:
REMARK  status: ('A' for Active; 'I' for Inactive)
REMARK    1  A    between atoms: C2_2  and  C6_6 
REMARK    2  A    between atoms: C3_3  and  C7_7 
REMARK    3  A    between atoms: C6_6  and  O8_8 
ROOT
HETATM    1  C1  UNL     1     -35.408   5.899   3.939  1.00 20.00     0.017 A 
HETATM    2  C2  UNL     1     -34.367   6.078   5.007  1.00 20.00     0.018 A 
HETATM    3  C3  UNL     1     -33.941   5.718   3.585  1.00 20.00    -0.038 A 
HETATM    4  C4  UNL     1     -33.290   6.755   2.709  1.00 20.00     0.015 C 
ENDROOT
BRANCH   2   5
HETATM    5  C6  UNL     1     -34.127   7.422   5.605  1.00 20.00     0.169 C 
BRANCH   5   6
HETATM    6  O8  UNL     1     -32.812   7.480   6.156  1.00 20.00    -0.400 OA
HETATM    7  H22 UNL     1     -32.839   6.975   6.984  1.00 20.00     0.209 HD
ENDBRANCH   5   6
ENDBRANCH   2   5
BRANCH   3   8
HETATM    8  C7  UNL     1     -33.442   4.317   3.351  1.00 20.00     0.005 C 
HETATM    9  C5  UNL     1     -32.704   4.181   2.051  1.00 20.00     0.006 C 
ENDBRANCH   3   8
TORSDOF 3
ENDMDL
MODEL 9
REMARK VINA RESULT:      -3.7     11.670     12.371
REMARK  3 active torsions:
REMARK  status: ('A' for Active; 'I' for Inactive)
REMARK    1  A    between atoms: C2_2  and  C6_6 
REMARK    2  A    between atoms: C3_3  and  C7_7 
REMARK    3  A    between atoms: C6_6  and  O8_8 
ROOT
HETATM    1  C1  UNL     1     -33.700  16.756  -4.426  1.00 20.00     0.017 A 
HETATM    2  C2  UNL     1     -33.515  15.428  -3.749  1.00 20.00     0.018 A 
HETATM    3  C3  UNL     1     -34.256  16.552  -3.027  1.00 20.00    -0.038 A 
HETATM    4  C4  UNL     1     -35.751  16.484  -2.861  1.00 20.00     0.015 C 
ENDROOT
BRANCH   2   5
HETATM    5  C6  UNL     1     -34.205  14.215  -4.272  1.00 20.00     0.169 C 
BRANCH   5   6
HETATM    6  O8  UNL     1     -33.617  13.819  -5.511  1.00 20.00    -0.400 OA
HETATM    7  H22 UNL     1     -33.280  14.628  -5.925  1.00 20.00     0.209 HD
ENDBRANCH   5   6
ENDBRANCH   2   5
BRANCH   3   8
HETATM    8  C7  UNL     1     -33.543  17.222  -1.882  1.00 20.00     0.005 C 
HETATM    9  C5  UNL     1     -34.459  17.522  -0.732  1.00 20.00     0.006 C 
ENDBRANCH   3   8
TORSDOF 3
ENDMDL
