MODEL 1
REMARK VINA RESULT:      -4.5      0.000      0.000
REMARK  1 active torsions:
REMARK  status: ('A' for Active; 'I' for Inactive)
REMARK    1  A    between atoms: C5_5  and  C10_10 
ROOT
HETATM    1  C1  UNL     1     -35.228  17.266  -1.181  1.00 20.00     0.017 A 
HETATM    2  C2  UNL     1     -35.440  15.604  -3.143  1.00 20.00     0.020 C 
HETATM    3  C3  UNL     1     -35.384  18.103  -3.602  1.00 20.00     0.083 C 
HETATM    4  C4  UNL     1     -35.043  16.235  -5.588  1.00 20.00     0.082 C 
HETATM    5  C5  UNL     1     -33.835  17.085  -1.712  1.00 20.00     0.005 A 
HETATM    6  C6  UNL     1     -35.026  16.984  -2.659  1.00 20.00    -0.026 A 
HETATM    7  C7  UNL     1     -34.786  15.186  -4.483  1.00 20.00    -0.038 C 
HETATM    8  C8  UNL     1     -33.275  14.933  -4.304  1.00 20.00     0.015 C 
HETATM    9  C9  UNL     1     -35.428  13.855  -4.932  1.00 20.00     0.015 C 
HETATM   10  S11 UNL     1     -34.490  17.917  -5.162  1.00 20.00    -0.168 SA
ENDROOT
BRANCH   5  11
HETATM   11  C10 UNL     1     -32.883  18.231  -1.722  1.00 20.00     0.090 C 
HETATM   12 BR12 UNL     1     -32.515  18.827   0.100  1.00 20.00    -0.096 Br
ENDBRANCH   5  11
TORSDOF 1
ENDMDL
MODEL 2
REMARK VINA RESULT:      -4.5      2.741      4.494
REMARK  1 active torsions:
REMARK  status: ('A' for Active; 'I' for Inactive)
REMARK    1  A    between atoms: C5_5  and  C10_10 
ROOT
HETATM    1  C1  UNL     1     -33.415  14.850  -4.494  1.00 20.00     0.017 A 
HETATM    2  C2  UNL     1     -33.357  16.652  -2.649  1.00 20.00     0.020 C 
HETATM    3  C3  UNL     1     -34.321  17.210  -4.933  1.00 20.00     0.083 C 
HETATM    4  C4  UNL     1     -34.703  18.823  -2.742  1.00 20.00     0.082 C 
HETATM    5  C5  UNL     1     -34.778  14.831  -3.866  1.00 20.00     0.005 A 
HETATM    6  C6  UNL     1     -33.992  16.136  -3.930  1.00 20.00    -0.026 A 
HETATM    7  C7  UNL     1     -34.252  17.638  -1.859  1.00 20.00    -0.038 C 
HETATM    8  C8  UNL     1     -35.468  16.912  -1.248  1.00 20.00     0.015 C 
HETATM    9  C9  UNL     1     -33.417  18.208  -0.691  1.00 20.00     0.015 C 
HETATM   10  S11 UNL     1     -35.573  18.329  -4.264  1.00 20.00    -0.168 SA
ENDROOT
BRANCH   5  11
HETATM   11  C10 UNL     1     -35.983  14.566  -4.701  1.00 20.00     0.090 C 
HETATM   12 BR12 UNL     1     -35.499  13.548  -6.295  1.00 20.00    -0.096 Br
ENDBRANCH   5  11
TORSDOF 1
ENDMDL
MODEL 3
REMARK VINA RESULT:      -4.4      2.463      4.324
REMARK  1 active torsions:
REMARK  status: ('A' for Active; 'I' for Inactive)
REMARK    1  A    between atoms: C5_5  and  C10_10 
ROOT
HETATM    1  C1  UNL     1     -33.302  14.397  -4.535  1.00 20.00     0.017 A 
HETATM    2  C2  UNL     1     -33.396  16.313  -2.810  1.00 20.00     0.020 C 
HETATM    3  C3  UNL     1     -33.837  16.798  -5.265  1.00 20.00     0.083 C 
HETATM    4  C4  UNL     1     -34.447  18.595  -3.279  1.00 20.00     0.082 C 
HETATM    5  C5  UNL     1     -34.753  14.559  -4.188  1.00 20.00     0.005 A 
HETATM    6  C6  UNL     1     -33.828  15.771  -4.163  1.00 20.00    -0.026 A 
HETATM    7  C7  UNL     1     -34.309  17.438  -2.264  1.00 20.00    -0.038 C 
HETATM    8  C8  UNL     1     -35.692  16.884  -1.869  1.00 20.00     0.015 C 
HETATM    9  C9  UNL     1     -33.654  18.005  -0.985  1.00 20.00     0.015 C 
HETATM   10  S11 UNL     1     -35.060  18.081  -4.915  1.00 20.00    -0.168 SA
ENDROOT
BRANCH   5  11
HETATM   11  C10 UNL     1     -35.799  14.356  -5.230  1.00 20.00     0.090 C 
HETATM   12 BR12 UNL     1     -37.526  15.011  -4.600  1.00 20.00    -0.096 Br
ENDBRANCH   5  11
TORSDOF 1
ENDMDL
MODEL 4
REMARK VINA RESULT:      -4.2      2.577      4.466
REMARK  1 active torsions:
REMARK  status: ('A' for Active; 'I' for Inactive)
REMARK    1  A    between atoms: C5_5  and  C10_10 
ROOT
HETATM    1  C1  UNL     1     -34.312  14.039  -5.549  1.00 20.00     0.017 A 
HETATM    2  C2  UNL     1     -33.742  15.796  -3.748  1.00 20.00     0.020 C 
HETATM    3  C3  UNL     1     -34.640  16.542  -6.006  1.00 20.00     0.083 C 
HETATM    4  C4  UNL     1     -34.528  18.227  -3.839  1.00 20.00     0.082 C 
HETATM    5  C5  UNL     1     -35.611  14.358  -4.868  1.00 20.00     0.005 A 
HETATM    6  C6  UNL     1     -34.537  15.433  -4.992  1.00 20.00    -0.026 A 
HETATM    7  C7  UNL     1     -34.338  16.979  -2.947  1.00 20.00    -0.038 C 
HETATM    8  C8  UNL     1     -35.665  16.576  -2.272  1.00 20.00     0.015 C 
HETATM    9  C9  UNL     1     -33.341  17.345  -1.825  1.00 20.00     0.015 C 
HETATM   10  S11 UNL     1     -35.556  17.939  -5.313  1.00 20.00    -0.168 SA
ENDROOT
BRANCH   5  11
HETATM   11  C10 UNL     1     -36.880  14.381  -5.650  1.00 20.00     0.090 C 
HETATM   12 BR12 UNL     1     -38.322  15.150  -4.584  1.00 20.00    -0.096 Br
ENDBRANCH   5  11
TORSDOF 1
ENDMDL
MODEL 5
REMARK VINA RESULT:      -4.1      2.984      4.757
REMARK  1 active torsions:
REMARK  status: ('A' for Active; 'I' for Inactive)
REMARK    1  A    between atoms: C5_5  and  C10_10 
ROOT
HETATM    1  C1  UNL     1     -35.902  13.312  -5.248  1.00 20.00     0.017 A 
HETATM    2  C2  UNL     1     -34.690  15.075  -3.806  1.00 20.00     0.020 C 
HETATM    3  C3  UNL     1     -34.194  14.917  -6.293  1.00 20.00     0.083 C 
HETATM    4  C4  UNL     1     -33.418  17.070  -4.774  1.00 20.00     0.082 C 
HETATM    5  C5  UNL     1     -36.675  14.586  -5.430  1.00 20.00     0.005 A 
HETATM    6  C6  UNL     1     -35.172  14.642  -5.181  1.00 20.00    -0.026 A 
HETATM    7  C7  UNL     1     -34.411  16.594  -3.689  1.00 20.00    -0.038 C 
HETATM    8  C8  UNL     1     -35.723  17.402  -3.749  1.00 20.00     0.015 C 
HETATM    9  C9  UNL     1     -33.768  16.855  -2.310  1.00 20.00     0.015 C 
HETATM   10  S11 UNL     1     -33.941  16.697  -6.478  1.00 20.00    -0.168 SA
ENDROOT
BRANCH   5  11
HETATM   11  C10 UNL     1     -37.293  14.905  -6.748  1.00 20.00     0.090 C 
HETATM   12 BR12 UNL     1     -38.040  16.708  -6.733  1.00 20.00    -0.096 Br
ENDBRANCH   5  11
TORSDOF 1
ENDMDL
MODEL 6
REMARK VINA RESULT:      -4.0      3.158      4.689
REMARK  1 active torsions:
REMARK  status: ('A' for Active; 'I' for Inactive)
REMARK    1  A    between atoms: C5_5  and  C10_10 
ROOT
HETATM    1  C1  UNL     1     -34.042  17.897  -7.173  1.00 20.00     0.017 A 
HETATM    2  C2  UNL     1     -33.910  17.510  -4.626  1.00 20.00     0.020 C 
HETATM    3  C3  UNL     1     -36.137  17.272  -5.828  1.00 20.00     0.083 C 
HETATM    4  C4  UNL     1     -35.744  16.357  -3.269  1.00 20.00     0.082 C 
HETATM    5  C5  UNL     1     -33.921  16.412  -6.994  1.00 20.00     0.005 A 
HETATM    6  C6  UNL     1     -34.635  17.246  -5.936  1.00 20.00    -0.026 A 
HETATM    7  C7  UNL     1     -34.223  16.476  -3.517  1.00 20.00    -0.038 C 
HETATM    8  C8  UNL     1     -33.610  15.102  -3.856  1.00 20.00     0.015 C 
HETATM    9  C9  UNL     1     -33.565  16.967  -2.208  1.00 20.00     0.015 C 
HETATM   10  S11 UNL     1     -36.710  15.937  -4.754  1.00 20.00    -0.168 SA
ENDROOT
BRANCH   5  11
HETATM   11  C10 UNL     1     -34.636  15.486  -7.918  1.00 20.00     0.090 C 
HETATM   12 BR12 UNL     1     -34.572  13.659  -7.235  1.00 20.00    -0.096 Br
ENDBRANCH   5  11
TORSDOF 1
ENDMDL
MODEL 7
REMARK VINA RESULT:      -3.9      2.401      3.726
REMARK  1 active torsions:
REMARK  status: ('A' for Active; 'I' for Inactive)
REMARK    1  A    between atoms: C5_5  and  C10_10 
ROOT
HETATM    1  C1  UNL     1     -37.587  14.346  -5.111  1.00 20.00     0.017 A 
HETATM    2  C2  UNL     1     -35.032  14.245  -4.769  1.00 20.00     0.020 C 
HETATM    3  C3  UNL     1     -36.013  15.794  -6.529  1.00 20.00     0.083 C 
HETATM    4  C4  UNL     1     -33.407  15.995  -5.683  1.00 20.00     0.082 C 
HETATM    5  C5  UNL     1     -37.253  15.498  -4.209  1.00 20.00     0.005 A 
HETATM    6  C6  UNL     1     -36.240  15.033  -5.250  1.00 20.00    -0.026 A 
HETATM    7  C7  UNL     1     -33.792  15.122  -4.467  1.00 20.00    -0.038 C 
HETATM    8  C8  UNL     1     -34.023  15.991  -3.215  1.00 20.00     0.015 C 
HETATM    9  C9  UNL     1     -32.605  14.180  -4.165  1.00 20.00     0.015 C 
HETATM   10  S11 UNL     1     -34.751  17.065  -6.286  1.00 20.00    -0.168 SA
ENDROOT
BRANCH   5  11
HETATM   11  C10 UNL     1     -38.004  16.780  -4.322  1.00 20.00     0.090 C 
HETATM   12 BR12 UNL     1     -37.247  18.122  -3.124  1.00 20.00    -0.096 Br
ENDBRANCH   5  11
TORSDOF 1
ENDMDL
MODEL 8
REMARK VINA RESULT:      -3.9      2.942      4.578
REMARK  1 active torsions:
REMARK  status: ('A' for Active; 'I' for Inactive)
REMARK    1  A    between atoms: C5_5  and  C10_10 
ROOT
HETATM    1  C1  UNL     1     -34.956  14.380  -4.416  1.00 20.00     0.017 A 
HETATM    2  C2  UNL     1     -34.319  16.111  -2.612  1.00 20.00     0.020 C 
HETATM    3  C3  UNL     1     -33.540  16.436  -5.009  1.00 20.00     0.083 C 
HETATM    4  C4  UNL     1     -33.418  18.444  -3.138  1.00 20.00     0.082 C 
HETATM    5  C5  UNL     1     -35.965  15.485  -4.539  1.00 20.00     0.005 A 
HETATM    6  C6  UNL     1     -34.545  15.804  -4.083  1.00 20.00    -0.026 A 
HETATM    7  C7  UNL     1     -34.392  17.619  -2.268  1.00 20.00    -0.038 C 
HETATM    8  C8  UNL     1     -35.835  18.146  -2.402  1.00 20.00     0.015 C 
HETATM    9  C9  UNL     1     -33.971  17.791  -0.791  1.00 20.00     0.015 C 
HETATM   10  S11 UNL     1     -33.664  18.238  -4.931  1.00 20.00    -0.168 SA
ENDROOT
BRANCH   5  11
HETATM   11  C10 UNL     1     -36.495  15.870  -5.878  1.00 20.00     0.090 C 
HETATM   12 BR12 UNL     1     -36.465  14.339  -7.088  1.00 20.00    -0.096 Br
ENDBRANCH   5  11
TORSDOF 1
ENDMDL
MODEL 9
REMARK VINA RESULT:      -3.9      1.789      2.554
REMARK  1 active torsions:
REMARK  status: ('A' for Active; 'I' for Inactive)
REMARK    1  A    between atoms: C5_5  and  C10_10 
ROOT
HETATM    1  C1  UNL     1     -37.559  16.364  -4.223  1.00 20.00     0.017 A 
HETATM    2  C2  UNL     1     -35.975  15.064  -5.790  1.00 20.00     0.020 C 
HETATM    3  C3  UNL     1     -35.852  17.601  -5.686  1.00 20.00     0.083 C 
HETATM    4  C4  UNL     1     -33.887  16.081  -6.860  1.00 20.00     0.082 C 
HETATM    5  C5  UNL     1     -36.271  16.219  -3.467  1.00 20.00     0.005 A 
HETATM    6  C6  UNL     1     -36.248  16.326  -4.988  1.00 20.00    -0.026 A 
HETATM    7  C7  UNL     1     -34.480  14.852  -6.134  1.00 20.00    -0.038 C 
HETATM    8  C8  UNL     1     -33.666  14.512  -4.870  1.00 20.00     0.015 C 
HETATM    9  C9  UNL     1     -34.378  13.642  -7.089  1.00 20.00     0.015 C 
HETATM   10  S11 UNL     1     -34.063  17.644  -5.942  1.00 20.00    -0.168 SA
ENDROOT
BRANCH   5  11
HETATM   11  C10 UNL     1     -35.803  17.311  -2.568  1.00 20.00     0.090 C 
HETATM   12 BR12 UNL     1     -33.946  17.017  -2.046  1.00 20.00    -0.096 Br
ENDBRANCH   5  11
TORSDOF 1
ENDMDL
