MODEL 1
REMARK VINA RESULT:      -6.4      0.000      0.000
REMARK  2 active torsions:
REMARK  status: ('A' for Active; 'I' for Inactive)
REMARK    1  A    between atoms: C6_6  and  C10_10 
REMARK    2  A    between atoms: C7_7  and  C9_9 
ROOT
HETATM    1  C1  UNL     1     -33.494   6.917   5.858  1.00 20.00     0.001 C 
HETATM    2  C2  UNL     1     -34.794   6.138   5.677  1.00 20.00     0.013 C 
HETATM    3  C3  UNL     1     -33.287   7.934   4.737  1.00 20.00     0.010 C 
HETATM    4  C4  UNL     1     -34.649   6.475   3.172  1.00 20.00     0.023 C 
HETATM    5  C5  UNL     1     -32.100   6.804   2.712  1.00 20.00     0.016 A 
HETATM    6  C6  UNL     1     -34.896   5.461   4.301  1.00 20.00     0.094 C 
HETATM    7  C7  UNL     1     -32.829   7.996   2.154  1.00 20.00     0.009 A 
HETATM    8  C8  UNL     1     -33.378   7.275   3.378  1.00 20.00    -0.035 A 
ENDROOT
BRANCH   6   9
HETATM    9  C10 UNL     1     -33.964   4.251   4.193  1.00 20.00     0.391 C 
HETATM   10  F11 UNL     1     -34.674   3.146   3.924  1.00 20.00    -0.171 F 
HETATM   11  F12 UNL     1     -33.071   4.444   3.209  1.00 20.00    -0.171 F 
HETATM   12  F13 UNL     1     -33.305   4.073   5.348  1.00 20.00    -0.171 F 
ENDBRANCH   6   9
BRANCH   7  13
HETATM   13  C9  UNL     1     -32.216   9.352   2.223  1.00 20.00     0.120 C 
HETATM   14 CL14 UNL     1     -32.584  10.304   0.759  1.00 20.00    -0.130 Cl
ENDBRANCH   7  13
TORSDOF 2
ENDMDL
MODEL 2
REMARK VINA RESULT:      -5.6     11.672     12.811
REMARK  2 active torsions:
REMARK  status: ('A' for Active; 'I' for Inactive)
REMARK    1  A    between atoms: C6_6  and  C10_10 
REMARK    2  A    between atoms: C7_7  and  C9_9 
ROOT
HETATM    1  C1  UNL     1     -34.104  17.000  -6.134  1.00 20.00     0.001 C 
HETATM    2  C2  UNL     1     -33.422  15.688  -6.516  1.00 20.00     0.013 C 
HETATM    3  C3  UNL     1     -33.708  17.452  -4.731  1.00 20.00     0.010 C 
HETATM    4  C4  UNL     1     -33.308  15.035  -4.073  1.00 20.00     0.023 C 
HETATM    5  C5  UNL     1     -35.271  16.350  -2.961  1.00 20.00     0.016 A 
HETATM    6  C6  UNL     1     -33.670  14.569  -5.492  1.00 20.00     0.094 C 
HETATM    7  C7  UNL     1     -34.005  16.705  -2.233  1.00 20.00     0.009 A 
HETATM    8  C8  UNL     1     -33.956  16.358  -3.714  1.00 20.00    -0.035 A 
ENDROOT
BRANCH   6   9
HETATM    9  C10 UNL     1     -35.104  14.036  -5.570  1.00 20.00     0.391 C 
HETATM   10  F11 UNL     1     -35.201  13.117  -6.542  1.00 20.00    -0.171 F 
HETATM   11  F12 UNL     1     -35.447  13.471  -4.401  1.00 20.00    -0.171 F 
HETATM   12  F13 UNL     1     -35.954  15.039  -5.834  1.00 20.00    -0.171 F 
ENDBRANCH   6   9
BRANCH   7  13
HETATM   13  C9  UNL     1     -33.795  18.089  -1.720  1.00 20.00     0.120 C 
HETATM   14 CL14 UNL     1     -32.233  18.233  -0.867  1.00 20.00    -0.130 Cl
ENDBRANCH   7  13
TORSDOF 2
ENDMDL
MODEL 3
REMARK VINA RESULT:      -5.2     11.564     12.803
REMARK  2 active torsions:
REMARK  status: ('A' for Active; 'I' for Inactive)
REMARK    1  A    between atoms: C6_6  and  C10_10 
REMARK    2  A    between atoms: C7_7  and  C9_9 
ROOT
HETATM    1  C1  UNL     1     -37.492  14.753  -4.725  1.00 20.00     0.001 C 
HETATM    2  C2  UNL     1     -37.395  15.004  -6.228  1.00 20.00     0.013 C 
HETATM    3  C3  UNL     1     -36.638  15.740  -3.934  1.00 20.00     0.010 C 
HETATM    4  C4  UNL     1     -35.074  15.966  -5.918  1.00 20.00     0.023 C 
HETATM    5  C5  UNL     1     -34.198  14.847  -3.727  1.00 20.00     0.016 A 
HETATM    6  C6  UNL     1     -35.945  15.002  -6.739  1.00 20.00     0.094 C 
HETATM    7  C7  UNL     1     -34.111  16.338  -3.552  1.00 20.00     0.009 A 
HETATM    8  C8  UNL     1     -35.206  15.740  -4.424  1.00 20.00    -0.035 A 
ENDROOT
BRANCH   6   9
HETATM    9  C10 UNL     1     -35.357  13.589  -6.771  1.00 20.00     0.391 C 
HETATM   10  F11 UNL     1     -34.020  13.646  -6.681  1.00 20.00    -0.171 F 
HETATM   11  F12 UNL     1     -35.831  12.870  -5.742  1.00 20.00    -0.171 F 
HETATM   12  F13 UNL     1     -35.690  12.978  -7.918  1.00 20.00    -0.171 F 
ENDBRANCH   6   9
BRANCH   7  13
HETATM   13  C9  UNL     1     -34.384  16.956  -2.224  1.00 20.00     0.120 C 
HETATM   14 CL14 UNL     1     -32.902  17.661  -1.522  1.00 20.00    -0.130 Cl
ENDBRANCH   7  13
TORSDOF 2
ENDMDL
MODEL 4
REMARK VINA RESULT:      -5.1     12.006     13.157
REMARK  2 active torsions:
REMARK  status: ('A' for Active; 'I' for Inactive)
REMARK    1  A    between atoms: C6_6  and  C10_10 
REMARK    2  A    between atoms: C7_7  and  C9_9 
ROOT
HETATM    1  C1  UNL     1     -36.496  14.367  -5.099  1.00 20.00     0.001 C 
HETATM    2  C2  UNL     1     -36.336  15.039  -6.461  1.00 20.00     0.013 C 
HETATM    3  C3  UNL     1     -36.456  15.385  -3.963  1.00 20.00     0.010 C 
HETATM    4  C4  UNL     1     -35.011  16.908  -5.386  1.00 20.00     0.023 C 
HETATM    5  C5  UNL     1     -33.992  15.825  -3.240  1.00 20.00     0.016 A 
HETATM    6  C6  UNL     1     -35.073  15.908  -6.552  1.00 20.00     0.094 C 
HETATM    7  C7  UNL     1     -34.771  17.040  -2.820  1.00 20.00     0.009 A 
HETATM    8  C8  UNL     1     -35.211  16.242  -4.039  1.00 20.00    -0.035 A 
ENDROOT
BRANCH   6   9
HETATM    9  C10 UNL     1     -33.803  15.056  -6.640  1.00 20.00     0.391 C 
HETATM   10  F11 UNL     1     -33.942  13.946  -5.901  1.00 20.00    -0.171 F 
HETATM   11  F12 UNL     1     -33.574  14.704  -7.915  1.00 20.00    -0.171 F 
HETATM   12  F13 UNL     1     -32.750  15.752  -6.186  1.00 20.00    -0.171 F 
ENDBRANCH   6   9
BRANCH   7  13
HETATM   13  C9  UNL     1     -35.530  17.041  -1.538  1.00 20.00     0.120 C 
HETATM   14 CL14 UNL     1     -34.536  17.676  -0.197  1.00 20.00    -0.130 Cl
ENDBRANCH   7  13
TORSDOF 2
ENDMDL
MODEL 5
REMARK VINA RESULT:      -5.0     11.488     12.955
REMARK  2 active torsions:
REMARK  status: ('A' for Active; 'I' for Inactive)
REMARK    1  A    between atoms: C6_6  and  C10_10 
REMARK    2  A    between atoms: C7_7  and  C9_9 
ROOT
HETATM    1  C1  UNL     1     -34.463  16.663  -6.190  1.00 20.00     0.001 C 
HETATM    2  C2  UNL     1     -33.428  16.711  -5.068  1.00 20.00     0.013 C 
HETATM    3  C3  UNL     1     -35.880  16.855  -5.656  1.00 20.00     0.010 C 
HETATM    4  C4  UNL     1     -35.165  15.876  -3.428  1.00 20.00     0.023 C 
HETATM    5  C5  UNL     1     -36.872  14.565  -4.907  1.00 20.00     0.016 A 
HETATM    6  C6  UNL     1     -33.725  15.711  -3.941  1.00 20.00     0.094 C 
HETATM    7  C7  UNL     1     -37.631  15.615  -4.145  1.00 20.00     0.009 A 
HETATM    8  C8  UNL     1     -36.186  15.868  -4.549  1.00 20.00    -0.035 A 
ENDROOT
BRANCH   6   9
HETATM    9  C10 UNL     1     -33.435  14.270  -4.369  1.00 20.00     0.391 C 
HETATM   10  F11 UNL     1     -32.157  13.960  -4.104  1.00 20.00    -0.171 F 
HETATM   11  F12 UNL     1     -34.235  13.422  -3.703  1.00 20.00    -0.171 F 
HETATM   12  F13 UNL     1     -33.651  14.128  -5.686  1.00 20.00    -0.171 F 
ENDBRANCH   6   9
BRANCH   7  13
HETATM   13  C9  UNL     1     -38.782  16.319  -4.777  1.00 20.00     0.120 C 
HETATM   14 CL14 UNL     1     -39.880  15.166  -5.586  1.00 20.00    -0.130 Cl
ENDBRANCH   7  13
TORSDOF 2
ENDMDL
MODEL 6
REMARK VINA RESULT:      -5.0     11.582     13.008
REMARK  2 active torsions:
REMARK  status: ('A' for Active; 'I' for Inactive)
REMARK    1  A    between atoms: C6_6  and  C10_10 
REMARK    2  A    between atoms: C7_7  and  C9_9 
ROOT
HETATM    1  C1  UNL     1     -35.789  13.459  -6.162  1.00 20.00     0.001 C 
HETATM    2  C2  UNL     1     -34.364  13.871  -6.526  1.00 20.00     0.013 C 
HETATM    3  C3  UNL     1     -36.745  14.648  -6.198  1.00 20.00     0.010 C 
HETATM    4  C4  UNL     1     -34.817  16.205  -5.659  1.00 20.00     0.023 C 
HETATM    5  C5  UNL     1     -36.724  15.884  -3.904  1.00 20.00     0.016 A 
HETATM    6  C6  UNL     1     -33.837  15.021  -5.655  1.00 20.00     0.094 C 
HETATM    7  C7  UNL     1     -37.191  16.894  -4.916  1.00 20.00     0.009 A 
HETATM    8  C8  UNL     1     -36.237  15.784  -5.336  1.00 20.00    -0.035 A 
ENDROOT
BRANCH   6   9
HETATM    9  C10 UNL     1     -33.512  14.554  -4.233  1.00 20.00     0.391 C 
HETATM   10  F11 UNL     1     -32.297  13.989  -4.201  1.00 20.00    -0.171 F 
HETATM   11  F12 UNL     1     -33.528  15.600  -3.391  1.00 20.00    -0.171 F 
HETATM   12  F13 UNL     1     -34.421  13.655  -3.826  1.00 20.00    -0.171 F 
ENDBRANCH   6   9
BRANCH   7  13
HETATM   13  C9  UNL     1     -38.620  16.933  -5.335  1.00 20.00     0.120 C 
HETATM   14 CL14 UNL     1     -39.641  15.953  -4.246  1.00 20.00    -0.130 Cl
ENDBRANCH   7  13
TORSDOF 2
ENDMDL
MODEL 7
REMARK VINA RESULT:      -4.9     12.793     13.409
REMARK  2 active torsions:
REMARK  status: ('A' for Active; 'I' for Inactive)
REMARK    1  A    between atoms: C6_6  and  C10_10 
REMARK    2  A    between atoms: C7_7  and  C9_9 
ROOT
HETATM    1  C1  UNL     1     -36.253  16.284  -3.247  1.00 20.00     0.001 C 
HETATM    2  C2  UNL     1     -35.084  16.495  -2.288  1.00 20.00     0.013 C 
HETATM    3  C3  UNL     1     -36.009  15.099  -4.179  1.00 20.00     0.010 C 
HETATM    4  C4  UNL     1     -33.508  15.468  -3.981  1.00 20.00     0.023 C 
HETATM    5  C5  UNL     1     -34.677  15.873  -6.281  1.00 20.00     0.016 A 
HETATM    6  C6  UNL     1     -33.737  16.640  -3.014  1.00 20.00     0.094 C 
HETATM    7  C7  UNL     1     -34.419  14.397  -6.145  1.00 20.00     0.009 A 
HETATM    8  C8  UNL     1     -34.688  15.237  -4.905  1.00 20.00    -0.035 A 
ENDROOT
BRANCH   6   9
HETATM    9  C10 UNL     1     -33.616  17.994  -3.719  1.00 20.00     0.391 C 
HETATM   10  F11 UNL     1     -33.017  18.882  -2.911  1.00 20.00    -0.171 F 
HETATM   11  F12 UNL     1     -32.887  17.865  -4.839  1.00 20.00    -0.171 F 
HETATM   12  F13 UNL     1     -34.833  18.455  -4.044  1.00 20.00    -0.171 F 
ENDBRANCH   6   9
BRANCH   7  13
HETATM   13  C9  UNL     1     -35.400  13.411  -6.680  1.00 20.00     0.120 C 
HETATM   14 CL14 UNL     1     -36.550  14.185  -7.804  1.00 20.00    -0.130 Cl
ENDBRANCH   7  13
TORSDOF 2
ENDMDL
MODEL 8
REMARK VINA RESULT:      -4.8     12.110     13.239
REMARK  2 active torsions:
REMARK  status: ('A' for Active; 'I' for Inactive)
REMARK    1  A    between atoms: C6_6  and  C10_10 
REMARK    2  A    between atoms: C7_7  and  C9_9 
ROOT
HETATM    1  C1  UNL     1     -36.336  18.043  -3.941  1.00 20.00     0.001 C 
HETATM    2  C2  UNL     1     -36.544  17.250  -2.653  1.00 20.00     0.013 C 
HETATM    3  C3  UNL     1     -35.829  17.153  -5.074  1.00 20.00     0.010 C 
HETATM    4  C4  UNL     1     -34.753  15.613  -3.370  1.00 20.00     0.023 C 
HETATM    5  C5  UNL     1     -33.230  16.988  -4.986  1.00 20.00     0.016 A 
HETATM    6  C6  UNL     1     -35.288  16.479  -2.220  1.00 20.00     0.094 C 
HETATM    7  C7  UNL     1     -33.700  15.763  -5.722  1.00 20.00     0.009 A 
HETATM    8  C8  UNL     1     -34.587  16.395  -4.659  1.00 20.00    -0.035 A 
ENDROOT
BRANCH   6   9
HETATM    9  C10 UNL     1     -34.211  17.416  -1.663  1.00 20.00     0.391 C 
HETATM   10  F11 UNL     1     -34.296  18.617  -2.254  1.00 20.00    -0.171 F 
HETATM   11  F12 UNL     1     -34.376  17.570  -0.340  1.00 20.00    -0.171 F 
HETATM   12  F13 UNL     1     -32.993  16.904  -1.892  1.00 20.00    -0.171 F 
ENDBRANCH   6   9
BRANCH   7  13
HETATM   13  C9  UNL     1     -34.010  15.834  -7.178  1.00 20.00     0.120 C 
HETATM   14 CL14 UNL     1     -34.018  14.209  -7.918  1.00 20.00    -0.130 Cl
ENDBRANCH   7  13
TORSDOF 2
ENDMDL
MODEL 9
REMARK VINA RESULT:      -4.8     11.616     13.217
REMARK  2 active torsions:
REMARK  status: ('A' for Active; 'I' for Inactive)
REMARK    1  A    between atoms: C6_6  and  C10_10 
REMARK    2  A    between atoms: C7_7  and  C9_9 
ROOT
HETATM    1  C1  UNL     1     -34.526  14.178  -4.097  1.00 20.00     0.001 C 
HETATM    2  C2  UNL     1     -33.287  15.066  -4.179  1.00 20.00     0.013 C 
HETATM    3  C3  UNL     1     -35.568  14.569  -5.142  1.00 20.00     0.010 C 
HETATM    4  C4  UNL     1     -34.697  16.951  -5.108  1.00 20.00     0.023 C 
HETATM    5  C5  UNL     1     -37.101  16.461  -4.213  1.00 20.00     0.016 A 
HETATM    6  C6  UNL     1     -33.619  16.563  -4.083  1.00 20.00     0.094 C 
HETATM    7  C7  UNL     1     -37.176  16.564  -5.711  1.00 20.00     0.009 A 
HETATM    8  C8  UNL     1     -35.909  16.042  -5.050  1.00 20.00    -0.035 A 
ENDROOT
BRANCH   6   9
HETATM    9  C10 UNL     1     -34.015  16.966  -2.660  1.00 20.00     0.391 C 
HETATM   10  F11 UNL     1     -34.701  18.118  -2.682  1.00 20.00    -0.171 F 
HETATM   11  F12 UNL     1     -34.783  16.013  -2.109  1.00 20.00    -0.171 F 
HETATM   12  F13 UNL     1     -32.917  17.129  -1.906  1.00 20.00    -0.171 F 
ENDBRANCH   6   9
BRANCH   7  13
HETATM   13  C9  UNL     1     -38.107  15.688  -6.478  1.00 20.00     0.120 C 
HETATM   14 CL14 UNL     1     -39.268  14.872  -5.396  1.00 20.00    -0.130 Cl
ENDBRANCH   7  13
TORSDOF 2
ENDMDL
