MODEL 1
REMARK VINA RESULT:      -4.9      0.000      0.000
REMARK  2 active torsions:
REMARK  status: ('A' for Active; 'I' for Inactive)
REMARK    1  A    between atoms: C5_5  and  C8_8 
REMARK    2  A    between atoms: C9_9  and  C10_10 
ROOT
HETATM    1  C1  UNL     1     -33.249  17.837  -1.530  1.00 20.00     0.009 A 
HETATM    2  C2  UNL     1     -35.486  16.991  -1.190  1.00 20.00     0.009 A 
HETATM    3  C3  UNL     1     -33.224  18.299  -0.214  1.00 20.00     0.019 A 
HETATM    4  C4  UNL     1     -35.462  17.454   0.126  1.00 20.00     0.019 A 
HETATM    5  C5  UNL     1     -34.380  17.183  -2.018  1.00 20.00    -0.053 A 
HETATM    6  C6  UNL     1     -34.330  18.108   0.614  1.00 20.00     0.011 A 
HETATM    7 BR12 UNL     1     -34.296  18.735   2.396  1.00 20.00    -0.051 Br
ENDROOT
BRANCH   5   8
HETATM    8  C8  UNL     1     -34.407  16.682  -3.443  1.00 20.00     0.024 A 
HETATM    9  C7  UNL     1     -35.246  15.477  -3.812  1.00 20.00     0.016 A 
HETATM   10  C9  UNL     1     -33.750  15.363  -3.793  1.00 20.00     0.008 A 
BRANCH  10  11
HETATM   11  C10 UNL     1     -32.993  15.221  -5.068  1.00 20.00     0.119 C 
HETATM   12 CL11 UNL     1     -34.016  14.526  -6.356  1.00 20.00    -0.130 Cl
ENDBRANCH  10  11
ENDBRANCH   5   8
TORSDOF 2
ENDMDL
MODEL 2
REMARK VINA RESULT:      -4.9      0.089      1.398
REMARK  2 active torsions:
REMARK  status: ('A' for Active; 'I' for Inactive)
REMARK    1  A    between atoms: C5_5  and  C8_8 
REMARK    2  A    between atoms: C9_9  and  C10_10 
ROOT
HETATM    1  C1  UNL     1     -35.454  17.017  -1.164  1.00 20.00     0.009 A 
HETATM    2  C2  UNL     1     -33.235  17.901  -1.527  1.00 20.00     0.009 A 
HETATM    3  C3  UNL     1     -35.420  17.472   0.154  1.00 20.00     0.019 A 
HETATM    4  C4  UNL     1     -33.201  18.357  -0.209  1.00 20.00     0.019 A 
HETATM    5  C5  UNL     1     -34.361  17.230  -2.004  1.00 20.00    -0.053 A 
HETATM    6  C6  UNL     1     -34.293  18.142   0.632  1.00 20.00     0.011 A 
HETATM    7 BR12 UNL     1     -34.248  18.759   2.417  1.00 20.00    -0.051 Br
ENDROOT
BRANCH   5   8
HETATM    8  C8  UNL     1     -34.397  16.737  -3.432  1.00 20.00     0.024 A 
HETATM    9  C7  UNL     1     -35.168  15.483  -3.786  1.00 20.00     0.016 A 
HETATM   10  C9  UNL     1     -33.668  15.465  -3.811  1.00 20.00     0.008 A 
BRANCH  10  11
HETATM   11  C10 UNL     1     -32.941  15.380  -5.108  1.00 20.00     0.119 C 
HETATM   12 CL11 UNL     1     -33.959  14.640  -6.375  1.00 20.00    -0.130 Cl
ENDBRANCH  10  11
ENDBRANCH   5   8
TORSDOF 2
ENDMDL
MODEL 3
REMARK VINA RESULT:      -4.8      1.551      2.301
REMARK  2 active torsions:
REMARK  status: ('A' for Active; 'I' for Inactive)
REMARK    1  A    between atoms: C5_5  and  C8_8 
REMARK    2  A    between atoms: C9_9  and  C10_10 
ROOT
HETATM    1  C1  UNL     1     -32.473  18.690  -0.073  1.00 20.00     0.009 A 
HETATM    2  C2  UNL     1     -34.611  18.133   0.905  1.00 20.00     0.009 A 
HETATM    3  C3  UNL     1     -31.971  18.988   1.194  1.00 20.00     0.019 A 
HETATM    4  C4  UNL     1     -34.109  18.431   2.172  1.00 20.00     0.019 A 
HETATM    5  C5  UNL     1     -33.793  18.263  -0.218  1.00 20.00    -0.053 A 
HETATM    6  C6  UNL     1     -32.789  18.859   2.317  1.00 20.00     0.011 A 
HETATM    7 BR12 UNL     1     -32.109  19.263   4.033  1.00 20.00    -0.051 Br
ENDROOT
BRANCH   5   8
HETATM    8  C8  UNL     1     -34.337  17.940  -1.590  1.00 20.00     0.024 A 
HETATM    9  C7  UNL     1     -35.328  16.812  -1.770  1.00 20.00     0.016 A 
HETATM   10  C9  UNL     1     -33.927  16.658  -2.283  1.00 20.00     0.008 A 
BRANCH  10  11
HETATM   11  C10 UNL     1     -33.660  16.653  -3.748  1.00 20.00     0.119 C 
HETATM   12 CL11 UNL     1     -33.187  15.027  -4.315  1.00 20.00    -0.130 Cl
ENDBRANCH  10  11
ENDBRANCH   5   8
TORSDOF 2
ENDMDL
MODEL 4
REMARK VINA RESULT:      -4.7     10.306     10.741
REMARK  2 active torsions:
REMARK  status: ('A' for Active; 'I' for Inactive)
REMARK    1  A    between atoms: C5_5  and  C8_8 
REMARK    2  A    between atoms: C9_9  and  C10_10 
ROOT
HETATM    1  C1  UNL     1     -32.935   8.085   4.172  1.00 20.00     0.009 A 
HETATM    2  C2  UNL     1     -33.215   6.526   2.348  1.00 20.00     0.009 A 
HETATM    3  C3  UNL     1     -33.530   7.173   5.043  1.00 20.00     0.019 A 
HETATM    4  C4  UNL     1     -33.811   5.613   3.219  1.00 20.00     0.019 A 
HETATM    5  C5  UNL     1     -32.778   7.762   2.824  1.00 20.00    -0.053 A 
HETATM    6  C6  UNL     1     -33.969   5.937   4.567  1.00 20.00     0.011 A 
HETATM    7 BR12 UNL     1     -34.775   4.701   5.747  1.00 20.00    -0.051 Br
ENDROOT
BRANCH   5   8
HETATM    8  C8  UNL     1     -32.133   8.750   1.880  1.00 20.00     0.024 A 
HETATM    9  C7  UNL     1     -32.183  10.233   2.178  1.00 20.00     0.016 A 
HETATM   10  C9  UNL     1     -32.996   9.675   1.048  1.00 20.00     0.008 A 
BRANCH  10  11
HETATM   11  C10 UNL     1     -32.624   9.974  -0.363  1.00 20.00     0.119 C 
HETATM   12 CL11 UNL     1     -32.638   8.496  -1.364  1.00 20.00    -0.130 Cl
ENDBRANCH  10  11
ENDBRANCH   5   8
TORSDOF 2
ENDMDL
MODEL 5
REMARK VINA RESULT:      -4.5      1.483      1.735
REMARK  2 active torsions:
REMARK  status: ('A' for Active; 'I' for Inactive)
REMARK    1  A    between atoms: C5_5  and  C8_8 
REMARK    2  A    between atoms: C9_9  and  C10_10 
ROOT
HETATM    1  C1  UNL     1     -33.161  17.546  -1.802  1.00 20.00     0.009 A 
HETATM    2  C2  UNL     1     -35.409  16.886  -1.215  1.00 20.00     0.009 A 
HETATM    3  C3  UNL     1     -33.047  18.236  -0.596  1.00 20.00     0.019 A 
HETATM    4  C4  UNL     1     -35.297  17.577  -0.007  1.00 20.00     0.019 A 
HETATM    5  C5  UNL     1     -34.342  16.872  -2.113  1.00 20.00    -0.053 A 
HETATM    6  C6  UNL     1     -34.115  18.252   0.302  1.00 20.00     0.011 A 
HETATM    7 BR12 UNL     1     -33.962  19.186   1.937  1.00 20.00    -0.051 Br
ENDROOT
BRANCH   5   8
HETATM    8  C8  UNL     1     -34.465  16.124  -3.420  1.00 20.00     0.024 A 
HETATM    9  C7  UNL     1     -33.391  16.257  -4.478  1.00 20.00     0.016 A 
HETATM   10  C9  UNL     1     -34.735  16.883  -4.702  1.00 20.00     0.008 A 
BRANCH  10  11
HETATM   11  C10 UNL     1     -35.664  16.320  -5.721  1.00 20.00     0.119 C 
HETATM   12 CL11 UNL     1     -37.353  16.792  -5.389  1.00 20.00    -0.130 Cl
ENDBRANCH  10  11
ENDBRANCH   5   8
TORSDOF 2
ENDMDL
MODEL 6
REMARK VINA RESULT:      -4.5      4.028      5.674
REMARK  2 active torsions:
REMARK  status: ('A' for Active; 'I' for Inactive)
REMARK    1  A    between atoms: C5_5  and  C8_8 
REMARK    2  A    between atoms: C9_9  and  C10_10 
ROOT
HETATM    1  C1  UNL     1     -36.009  16.713  -2.937  1.00 20.00     0.009 A 
HETATM    2  C2  UNL     1     -33.687  16.137  -3.273  1.00 20.00     0.009 A 
HETATM    3  C3  UNL     1     -36.391  15.667  -3.776  1.00 20.00     0.019 A 
HETATM    4  C4  UNL     1     -34.068  15.090  -4.113  1.00 20.00     0.019 A 
HETATM    5  C5  UNL     1     -34.657  16.949  -2.686  1.00 20.00    -0.053 A 
HETATM    6  C6  UNL     1     -35.421  14.855  -4.365  1.00 20.00     0.011 A 
HETATM    7 BR12 UNL     1     -35.938  13.437  -5.502  1.00 20.00    -0.051 Br
ENDROOT
BRANCH   5   8
HETATM    8  C8  UNL     1     -34.244  18.083  -1.777  1.00 20.00     0.024 A 
HETATM    9  C7  UNL     1     -32.869  18.090  -1.145  1.00 20.00     0.016 A 
HETATM   10  C9  UNL     1     -34.076  17.838  -0.292  1.00 20.00     0.008 A 
BRANCH  10  11
HETATM   11  C10 UNL     1     -34.529  18.863   0.690  1.00 20.00     0.119 C 
HETATM   12 CL11 UNL     1     -34.406  18.255   2.364  1.00 20.00    -0.130 Cl
ENDBRANCH  10  11
ENDBRANCH   5   8
TORSDOF 2
ENDMDL
MODEL 7
REMARK VINA RESULT:      -4.5      4.031      5.532
REMARK  2 active torsions:
REMARK  status: ('A' for Active; 'I' for Inactive)
REMARK    1  A    between atoms: C5_5  and  C8_8 
REMARK    2  A    between atoms: C9_9  and  C10_10 
ROOT
HETATM    1  C1  UNL     1     -33.727  16.212  -3.164  1.00 20.00     0.009 A 
HETATM    2  C2  UNL     1     -36.045  16.822  -2.861  1.00 20.00     0.009 A 
HETATM    3  C3  UNL     1     -34.110  15.174  -4.012  1.00 20.00     0.019 A 
HETATM    4  C4  UNL     1     -36.429  15.784  -3.709  1.00 20.00     0.019 A 
HETATM    5  C5  UNL     1     -34.693  17.036  -2.587  1.00 20.00    -0.053 A 
HETATM    6  C6  UNL     1     -35.462  14.959  -4.285  1.00 20.00     0.011 A 
HETATM    7 BR12 UNL     1     -35.982  13.553  -5.435  1.00 20.00    -0.051 Br
ENDROOT
BRANCH   5   8
HETATM    8  C8  UNL     1     -34.277  18.160  -1.668  1.00 20.00     0.024 A 
HETATM    9  C7  UNL     1     -32.889  18.179  -1.066  1.00 20.00     0.016 A 
HETATM   10  C9  UNL     1     -34.073  17.894  -0.191  1.00 20.00     0.008 A 
BRANCH  10  11
HETATM   11  C10 UNL     1     -34.520  18.895   0.817  1.00 20.00     0.119 C 
HETATM   12 CL11 UNL     1     -34.090  18.383   2.473  1.00 20.00    -0.130 Cl
ENDBRANCH  10  11
ENDBRANCH   5   8
TORSDOF 2
ENDMDL
MODEL 8
REMARK VINA RESULT:      -4.4      3.852      5.455
REMARK  2 active torsions:
REMARK  status: ('A' for Active; 'I' for Inactive)
REMARK    1  A    between atoms: C5_5  and  C8_8 
REMARK    2  A    between atoms: C9_9  and  C10_10 
ROOT
HETATM    1  C1  UNL     1     -33.472  16.048  -3.416  1.00 20.00     0.009 A 
HETATM    2  C2  UNL     1     -35.874  15.820  -3.529  1.00 20.00     0.009 A 
HETATM    3  C3  UNL     1     -33.360  15.502  -4.694  1.00 20.00     0.019 A 
HETATM    4  C4  UNL     1     -35.763  15.273  -4.808  1.00 20.00     0.019 A 
HETATM    5  C5  UNL     1     -34.729  16.206  -2.833  1.00 20.00    -0.053 A 
HETATM    6  C6  UNL     1     -34.505  15.114  -5.391  1.00 20.00     0.011 A 
HETATM    7 BR12 UNL     1     -34.353  14.375  -7.123  1.00 20.00    -0.051 Br
ENDROOT
BRANCH   5   8
HETATM    8  C8  UNL     1     -34.850  16.798  -1.448  1.00 20.00     0.024 A 
HETATM    9  C7  UNL     1     -35.869  17.882  -1.169  1.00 20.00     0.016 A 
HETATM   10  C9  UNL     1     -34.409  18.224  -1.193  1.00 20.00     0.008 A 
BRANCH  10  11
HETATM   11  C10 UNL     1     -33.698  18.571   0.069  1.00 20.00     0.119 C 
HETATM   12 CL11 UNL     1     -31.927  18.550  -0.158  1.00 20.00    -0.130 Cl
ENDBRANCH  10  11
ENDBRANCH   5   8
TORSDOF 2
ENDMDL
MODEL 9
REMARK VINA RESULT:      -4.4      1.480      2.212
REMARK  2 active torsions:
REMARK  status: ('A' for Active; 'I' for Inactive)
REMARK    1  A    between atoms: C5_5  and  C8_8 
REMARK    2  A    between atoms: C9_9  and  C10_10 
ROOT
HETATM    1  C1  UNL     1     -35.431  16.652  -1.869  1.00 20.00     0.009 A 
HETATM    2  C2  UNL     1     -33.135  17.323  -2.204  1.00 20.00     0.009 A 
HETATM    3  C3  UNL     1     -35.493  17.436  -0.717  1.00 20.00     0.019 A 
HETATM    4  C4  UNL     1     -33.195  18.107  -1.051  1.00 20.00     0.019 A 
HETATM    5  C5  UNL     1     -34.252  16.594  -2.612  1.00 20.00    -0.053 A 
HETATM    6  C6  UNL     1     -34.375  18.164  -0.308  1.00 20.00     0.011 A 
HETATM    7 BR12 UNL     1     -34.458  19.226   1.252  1.00 20.00    -0.051 Br
ENDROOT
BRANCH   5   8
HETATM    8  C8  UNL     1     -34.186  15.745  -3.860  1.00 20.00     0.024 A 
HETATM    9  C7  UNL     1     -33.225  16.101  -4.973  1.00 20.00     0.016 A 
HETATM   10  C9  UNL     1     -34.699  16.292  -5.175  1.00 20.00     0.008 A 
BRANCH  10  11
HETATM   11  C10 UNL     1     -35.450  15.408  -6.109  1.00 20.00     0.119 C 
HETATM   12 CL11 UNL     1     -37.124  15.984  -6.342  1.00 20.00    -0.130 Cl
ENDBRANCH  10  11
ENDBRANCH   5   8
TORSDOF 2
ENDMDL
