MODEL 1
REMARK VINA RESULT:      -4.5      0.000      0.000
REMARK  2 active torsions:
REMARK  status: ('A' for Active; 'I' for Inactive)
REMARK    1  A    between atoms: C2_2  and  C6_6 
REMARK    2  A    between atoms: C7_7  and  C10_10 
ROOT
HETATM    1  C1  UNL     1     -32.327  18.678  -0.082  1.00 20.00     0.022 A 
HETATM    2  C2  UNL     1     -33.683  18.302  -0.306  1.00 20.00    -0.040 A 
HETATM    3  C3  UNL     1     -32.055  18.861   1.256  1.00 20.00    -0.020 A 
HETATM    4  C4  UNL     1     -34.396  18.212   0.870  1.00 20.00    -0.014 A 
HETATM    5  C8  UNL     1     -30.777  19.251   1.891  1.00 20.00     0.056 C 
HETATM    6  C9  UNL     1     -35.818  17.855   1.069  1.00 20.00     0.057 C 
HETATM    7  S11 UNL     1     -33.430  18.580   2.236  1.00 20.00    -0.100 SA
ENDROOT
BRANCH   2   8
HETATM    8  C6  UNL     1     -34.260  18.037  -1.677  1.00 20.00     0.025 A 
HETATM    9  C5  UNL     1     -33.347  17.889  -2.874  1.00 20.00     0.016 A 
HETATM   10  C7  UNL     1     -34.061  16.687  -2.332  1.00 20.00     0.004 A 
BRANCH  10  11
HETATM   11  C10 UNL     1     -35.168  16.061  -3.108  1.00 20.00     0.090 C 
HETATM   12 BR12 UNL     1     -34.496  14.573  -4.177  1.00 20.00    -0.096 Br
ENDBRANCH  10  11
ENDBRANCH   2   8
TORSDOF 2
ENDMDL
MODEL 2
REMARK VINA RESULT:      -4.3      1.375      3.051
REMARK  2 active torsions:
REMARK  status: ('A' for Active; 'I' for Inactive)
REMARK    1  A    between atoms: C2_2  and  C6_6 
REMARK    2  A    between atoms: C7_7  and  C10_10 
ROOT
HETATM    1  C1  UNL     1     -35.542  17.322  -0.530  1.00 20.00     0.022 A 
HETATM    2  C2  UNL     1     -34.223  17.417  -1.060  1.00 20.00    -0.040 A 
HETATM    3  C3  UNL     1     -35.675  18.009   0.656  1.00 20.00    -0.020 A 
HETATM    4  C4  UNL     1     -33.397  18.175  -0.258  1.00 20.00    -0.014 A 
HETATM    5  C8  UNL     1     -36.875  18.151   1.509  1.00 20.00     0.056 C 
HETATM    6  C9  UNL     1     -31.969  18.512  -0.450  1.00 20.00     0.057 C 
HETATM    7  S11 UNL     1     -34.213  18.766   1.127  1.00 20.00    -0.100 SA
ENDROOT
BRANCH   2   8
HETATM    8  C6  UNL     1     -33.791  16.760  -2.350  1.00 20.00     0.025 A 
HETATM    9  C5  UNL     1     -34.759  15.892  -3.124  1.00 20.00     0.016 A 
HETATM   10  C7  UNL     1     -34.366  17.233  -3.668  1.00 20.00     0.004 A 
BRANCH  10  11
HETATM   11  C10 UNL     1     -33.495  17.327  -4.873  1.00 20.00     0.090 C 
HETATM   12 BR12 UNL     1     -33.672  15.723  -5.970  1.00 20.00    -0.096 Br
ENDBRANCH  10  11
ENDBRANCH   2   8
TORSDOF 2
ENDMDL
MODEL 3
REMARK VINA RESULT:      -4.3      1.042      1.220
REMARK  2 active torsions:
REMARK  status: ('A' for Active; 'I' for Inactive)
REMARK    1  A    between atoms: C2_2  and  C6_6 
REMARK    2  A    between atoms: C7_7  and  C10_10 
ROOT
HETATM    1  C1  UNL     1     -32.618  18.156  -0.994  1.00 20.00     0.022 A 
HETATM    2  C2  UNL     1     -33.976  17.901  -1.339  1.00 20.00    -0.040 A 
HETATM    3  C3  UNL     1     -32.483  18.558   0.317  1.00 20.00    -0.020 A 
HETATM    4  C4  UNL     1     -34.830  18.119  -0.279  1.00 20.00    -0.014 A 
HETATM    5  C8  UNL     1     -31.249  18.914   1.049  1.00 20.00     0.056 C 
HETATM    6  C9  UNL     1     -36.301  17.970  -0.225  1.00 20.00     0.057 C 
HETATM    7  S11 UNL     1     -33.991  18.628   1.125  1.00 20.00    -0.100 SA
ENDROOT
BRANCH   2   8
HETATM    8  C6  UNL     1     -34.418  17.447  -2.711  1.00 20.00     0.025 A 
HETATM    9  C5  UNL     1     -33.522  16.557  -3.545  1.00 20.00     0.016 A 
HETATM   10  C7  UNL     1     -34.778  15.995  -2.946  1.00 20.00     0.004 A 
BRANCH  10  11
HETATM   11  C10 UNL     1     -35.932  15.642  -3.820  1.00 20.00     0.090 C 
HETATM   12 BR12 UNL     1     -35.535  14.038  -4.859  1.00 20.00    -0.096 Br
ENDBRANCH  10  11
ENDBRANCH   2   8
TORSDOF 2
ENDMDL
MODEL 4
REMARK VINA RESULT:      -4.2      3.500      6.096
REMARK  2 active torsions:
REMARK  status: ('A' for Active; 'I' for Inactive)
REMARK    1  A    between atoms: C2_2  and  C6_6 
REMARK    2  A    between atoms: C7_7  and  C10_10 
ROOT
HETATM    1  C1  UNL     1     -36.184  16.054  -3.297  1.00 20.00     0.022 A 
HETATM    2  C2  UNL     1     -34.770  15.887  -3.227  1.00 20.00    -0.040 A 
HETATM    3  C3  UNL     1     -36.754  15.246  -4.255  1.00 20.00    -0.020 A 
HETATM    4  C4  UNL     1     -34.314  14.956  -4.135  1.00 20.00    -0.014 A 
HETATM    5  C8  UNL     1     -38.179  15.128  -4.631  1.00 20.00     0.056 C 
HETATM    6  C9  UNL     1     -32.928  14.499  -4.380  1.00 20.00     0.057 C 
HETATM    7  S11 UNL     1     -35.588  14.290  -5.066  1.00 20.00    -0.100 SA
ENDROOT
BRANCH   2   8
HETATM    8  C6  UNL     1     -33.886  16.647  -2.266  1.00 20.00     0.025 A 
HETATM    9  C5  UNL     1     -33.346  18.009  -2.642  1.00 20.00     0.016 A 
HETATM   10  C7  UNL     1     -34.406  17.896  -1.588  1.00 20.00     0.004 A 
BRANCH  10  11
HETATM   11  C10 UNL     1     -34.075  18.166  -0.160  1.00 20.00     0.090 C 
HETATM   12 BR12 UNL     1     -35.611  17.781   0.981  1.00 20.00    -0.096 Br
ENDBRANCH  10  11
ENDBRANCH   2   8
TORSDOF 2
ENDMDL
MODEL 5
REMARK VINA RESULT:      -4.1      3.245      5.321
REMARK  2 active torsions:
REMARK  status: ('A' for Active; 'I' for Inactive)
REMARK    1  A    between atoms: C2_2  and  C6_6 
REMARK    2  A    between atoms: C7_7  and  C10_10 
ROOT
HETATM    1  C1  UNL     1     -35.821  16.979  -1.762  1.00 20.00     0.022 A 
HETATM    2  C2  UNL     1     -34.889  17.722  -0.981  1.00 20.00    -0.040 A 
HETATM    3  C3  UNL     1     -35.222  16.375  -2.845  1.00 20.00    -0.020 A 
HETATM    4  C4  UNL     1     -33.613  17.657  -1.497  1.00 20.00    -0.014 A 
HETATM    5  C8  UNL     1     -35.843  15.526  -3.885  1.00 20.00     0.056 C 
HETATM    6  C9  UNL     1     -32.372  18.284  -0.990  1.00 20.00     0.057 C 
HETATM    7  S11 UNL     1     -33.544  16.703  -2.918  1.00 20.00    -0.100 SA
ENDROOT
BRANCH   2   8
HETATM    8  C6  UNL     1     -35.267  18.488   0.265  1.00 20.00     0.025 A 
HETATM    9  C5  UNL     1     -36.412  18.014   1.134  1.00 20.00     0.016 A 
HETATM   10  C7  UNL     1     -35.003  17.888   1.630  1.00 20.00     0.004 A 
BRANCH  10  11
HETATM   11  C10 UNL     1     -34.522  18.751   2.746  1.00 20.00     0.090 C 
HETATM   12 BR12 UNL     1     -32.577  18.665   2.884  1.00 20.00    -0.096 Br
ENDBRANCH  10  11
ENDBRANCH   2   8
TORSDOF 2
ENDMDL
MODEL 6
REMARK VINA RESULT:      -4.1      3.409      5.747
REMARK  2 active torsions:
REMARK  status: ('A' for Active; 'I' for Inactive)
REMARK    1  A    between atoms: C2_2  and  C6_6 
REMARK    2  A    between atoms: C7_7  and  C10_10 
ROOT
HETATM    1  C1  UNL     1     -34.952  15.881  -3.039  1.00 20.00     0.022 A 
HETATM    2  C2  UNL     1     -34.432  17.208  -3.004  1.00 20.00    -0.040 A 
HETATM    3  C3  UNL     1     -34.752  15.279  -4.261  1.00 20.00    -0.020 A 
HETATM    4  C4  UNL     1     -33.855  17.569  -4.202  1.00 20.00    -0.014 A 
HETATM    5  C8  UNL     1     -35.143  13.919  -4.692  1.00 20.00     0.056 C 
HETATM    6  C9  UNL     1     -33.208  18.847  -4.574  1.00 20.00     0.057 C 
HETATM    7  S11 UNL     1     -33.941  16.310  -5.361  1.00 20.00    -0.100 SA
ENDROOT
BRANCH   2   8
HETATM    8  C6  UNL     1     -34.512  18.104  -1.790  1.00 20.00     0.025 A 
HETATM    9  C5  UNL     1     -34.828  17.521  -0.431  1.00 20.00     0.016 A 
HETATM   10  C7  UNL     1     -33.444  18.021  -0.720  1.00 20.00     0.004 A 
BRANCH  10  11
HETATM   11  C10 UNL     1     -32.945  19.263  -0.064  1.00 20.00     0.090 C 
HETATM   12 BR12 UNL     1     -31.458  18.852   1.132  1.00 20.00    -0.096 Br
ENDBRANCH  10  11
ENDBRANCH   2   8
TORSDOF 2
ENDMDL
MODEL 7
REMARK VINA RESULT:      -4.1      2.211      3.463
REMARK  2 active torsions:
REMARK  status: ('A' for Active; 'I' for Inactive)
REMARK    1  A    between atoms: C2_2  and  C6_6 
REMARK    2  A    between atoms: C7_7  and  C10_10 
ROOT
HETATM    1  C1  UNL     1     -33.505  17.075  -2.147  1.00 20.00     0.022 A 
HETATM    2  C2  UNL     1     -34.574  16.761  -3.035  1.00 20.00    -0.040 A 
HETATM    3  C3  UNL     1     -33.904  17.914  -1.131  1.00 20.00    -0.020 A 
HETATM    4  C4  UNL     1     -35.752  17.373  -2.663  1.00 20.00    -0.014 A 
HETATM    5  C8  UNL     1     -33.098  18.464  -0.020  1.00 20.00     0.056 C 
HETATM    6  C9  UNL     1     -37.080  17.305  -3.312  1.00 20.00     0.057 C 
HETATM    7  S11 UNL     1     -35.563  18.321  -1.248  1.00 20.00    -0.100 SA
ENDROOT
BRANCH   2   8
HETATM    8  C6  UNL     1     -34.423  15.863  -4.240  1.00 20.00     0.025 A 
HETATM    9  C5  UNL     1     -33.396  14.752  -4.239  1.00 20.00     0.016 A 
HETATM   10  C7  UNL     1     -34.855  14.414  -4.160  1.00 20.00     0.004 A 
BRANCH  10  11
HETATM   11  C10 UNL     1     -35.539  13.772  -5.319  1.00 20.00     0.090 C 
HETATM   12 BR12 UNL     1     -37.435  14.234  -5.333  1.00 20.00    -0.096 Br
ENDBRANCH  10  11
ENDBRANCH   2   8
TORSDOF 2
ENDMDL
MODEL 8
REMARK VINA RESULT:      -4.1      2.757      3.928
REMARK  2 active torsions:
REMARK  status: ('A' for Active; 'I' for Inactive)
REMARK    1  A    between atoms: C2_2  and  C6_6 
REMARK    2  A    between atoms: C7_7  and  C10_10 
ROOT
HETATM    1  C1  UNL     1     -34.861  16.631  -1.630  1.00 20.00     0.022 A 
HETATM    2  C2  UNL     1     -34.099  16.977  -2.783  1.00 20.00    -0.040 A 
HETATM    3  C3  UNL     1     -35.176  17.734  -0.867  1.00 20.00    -0.020 A 
HETATM    4  C4  UNL     1     -33.861  18.333  -2.858  1.00 20.00    -0.014 A 
HETATM    5  C8  UNL     1     -35.947  17.792   0.393  1.00 20.00     0.056 C 
HETATM    6  C9  UNL     1     -33.116  19.090  -3.889  1.00 20.00     0.057 C 
HETATM    7  S11 UNL     1     -34.555  19.180  -1.541  1.00 20.00    -0.100 SA
ENDROOT
BRANCH   2   8
HETATM    8  C6  UNL     1     -33.614  15.969  -3.797  1.00 20.00     0.025 A 
HETATM    9  C5  UNL     1     -34.401  14.701  -4.049  1.00 20.00     0.016 A 
HETATM   10  C7  UNL     1     -34.373  15.776  -5.094  1.00 20.00     0.004 A 
BRANCH  10  11
HETATM   11  C10 UNL     1     -33.632  15.562  -6.369  1.00 20.00     0.090 C 
HETATM   12 BR12 UNL     1     -34.377  14.043  -7.343  1.00 20.00    -0.096 Br
ENDBRANCH  10  11
ENDBRANCH   2   8
TORSDOF 2
ENDMDL
MODEL 9
REMARK VINA RESULT:      -4.0      1.774      2.054
REMARK  2 active torsions:
REMARK  status: ('A' for Active; 'I' for Inactive)
REMARK    1  A    between atoms: C2_2  and  C6_6 
REMARK    2  A    between atoms: C7_7  and  C10_10 
ROOT
HETATM    1  C1  UNL     1     -34.173  18.160   0.844  1.00 20.00     0.022 A 
HETATM    2  C2  UNL     1     -35.139  18.158  -0.203  1.00 20.00    -0.040 A 
HETATM    3  C3  UNL     1     -34.736  18.449   2.068  1.00 20.00    -0.020 A 
HETATM    4  C4  UNL     1     -36.405  18.444   0.260  1.00 20.00    -0.014 A 
HETATM    5  C8  UNL     1     -34.074  18.546   3.386  1.00 20.00     0.056 C 
HETATM    6  C9  UNL     1     -37.672  18.539  -0.498  1.00 20.00     0.057 C 
HETATM    7  S11 UNL     1     -36.423  18.715   1.951  1.00 20.00    -0.100 SA
ENDROOT
BRANCH   2   8
HETATM    8  C6  UNL     1     -34.803  17.873  -1.648  1.00 20.00     0.025 A 
HETATM    9  C5  UNL     1     -33.507  17.181  -2.008  1.00 20.00     0.016 A 
HETATM   10  C7  UNL     1     -34.807  16.447  -2.158  1.00 20.00     0.004 A 
BRANCH  10  11
HETATM   11  C10 UNL     1     -35.341  16.139  -3.514  1.00 20.00     0.090 C 
HETATM   12 BR12 UNL     1     -34.537  14.501  -4.208  1.00 20.00    -0.096 Br
ENDBRANCH  10  11
ENDBRANCH   2   8
TORSDOF 2
ENDMDL
