MODEL 1
REMARK VINA RESULT:      -4.6      0.000      0.000
REMARK  2 active torsions:
REMARK  status: ('A' for Active; 'I' for Inactive)
REMARK    1  A    between atoms: C6_6  and  C8_8 
REMARK    2  A    between atoms: C8_8  and  O9_9 
ROOT
HETATM    1  C1  UNL     1     -33.406  17.559  -2.176  1.00 20.00     0.011 C 
HETATM    2  C2  UNL     1     -34.372  16.401  -2.420  1.00 20.00     0.011 C 
HETATM    3  C3  UNL     1     -33.268  14.881  -4.225  1.00 20.00     0.018 A 
HETATM    4  C4  UNL     1     -33.700  18.766  -3.059  1.00 20.00     0.074 C 
HETATM    5  C5  UNL     1     -34.701  16.950  -4.879  1.00 20.00     0.083 C 
HETATM    6  C6  UNL     1     -34.702  14.456  -4.079  1.00 20.00     0.019 A 
HETATM    7  C7  UNL     1     -34.316  15.912  -3.855  1.00 20.00    -0.026 A 
HETATM    8  S10 UNL     1     -33.554  18.354  -4.823  1.00 20.00    -0.168 SA
ENDROOT
BRANCH   6   9
HETATM    9  C8  UNL     1     -35.472  13.992  -5.268  1.00 20.00     0.169 C 
BRANCH   9  10
HETATM   10  O9  UNL     1     -35.956  12.667  -5.048  1.00 20.00    -0.400 OA
HETATM   11  H24 UNL     1     -35.603  12.385  -4.191  1.00 20.00     0.209 HD
ENDBRANCH   9  10
ENDBRANCH   6   9
TORSDOF 2
ENDMDL
MODEL 2
REMARK VINA RESULT:      -4.5     10.928     11.922
REMARK  2 active torsions:
REMARK  status: ('A' for Active; 'I' for Inactive)
REMARK    1  A    between atoms: C6_6  and  C8_8 
REMARK    2  A    between atoms: C8_8  and  O9_9 
ROOT
HETATM    1  C1  UNL     1     -33.875   4.911   3.771  1.00 20.00     0.011 C 
HETATM    2  C2  UNL     1     -33.839   5.913   2.619  1.00 20.00     0.011 C 
HETATM    3  C3  UNL     1     -31.678   7.333   2.936  1.00 20.00     0.018 A 
HETATM    4  C4  UNL     1     -34.652   5.426   4.976  1.00 20.00     0.074 C 
HETATM    5  C5  UNL     1     -33.900   7.947   4.141  1.00 20.00     0.083 C 
HETATM    6  C6  UNL     1     -32.533   8.018   1.907  1.00 20.00     0.019 A 
HETATM    7  C7  UNL     1     -33.188   7.220   3.028  1.00 20.00    -0.026 A 
HETATM    8  S10 UNL     1     -33.909   6.942   5.651  1.00 20.00    -0.168 SA
ENDROOT
BRANCH   6   9
HETATM    9  C8  UNL     1     -32.575   9.507   1.837  1.00 20.00     0.169 C 
BRANCH   9  10
HETATM   10  O9  UNL     1     -32.940   9.922   0.521  1.00 20.00    -0.400 OA
HETATM   11  H24 UNL     1     -33.588  10.634   0.628  1.00 20.00     0.209 HD
ENDBRANCH   9  10
ENDBRANCH   6   9
TORSDOF 2
ENDMDL
MODEL 3
REMARK VINA RESULT:      -4.0      2.783      4.223
REMARK  2 active torsions:
REMARK  status: ('A' for Active; 'I' for Inactive)
REMARK    1  A    between atoms: C6_6  and  C8_8 
REMARK    2  A    between atoms: C8_8  and  O9_9 
ROOT
HETATM    1  C1  UNL     1     -35.056  14.196  -4.548  1.00 20.00     0.011 C 
HETATM    2  C2  UNL     1     -33.928  14.909  -3.807  1.00 20.00     0.011 C 
HETATM    3  C3  UNL     1     -35.061  16.590  -2.170  1.00 20.00     0.018 A 
HETATM    4  C4  UNL     1     -35.428  14.884  -5.857  1.00 20.00     0.074 C 
HETATM    5  C5  UNL     1     -34.583  17.216  -4.648  1.00 20.00     0.083 C 
HETATM    6  C6  UNL     1     -33.598  16.929  -2.238  1.00 20.00     0.019 A 
HETATM    7  C7  UNL     1     -34.298  16.338  -3.456  1.00 20.00    -0.026 A 
HETATM    8  S10 UNL     1     -36.007  16.584  -5.576  1.00 20.00    -0.168 SA
ENDROOT
BRANCH   6   9
HETATM    9  C8  UNL     1     -33.152  18.349  -2.165  1.00 20.00     0.169 C 
BRANCH   9  10
HETATM   10  O9  UNL     1     -32.046  18.467  -1.270  1.00 20.00    -0.400 OA
HETATM   11  H24 UNL     1     -31.320  17.960  -1.664  1.00 20.00     0.209 HD
ENDBRANCH   9  10
ENDBRANCH   6   9
TORSDOF 2
ENDMDL
MODEL 4
REMARK VINA RESULT:      -3.8      2.540      3.940
REMARK  2 active torsions:
REMARK  status: ('A' for Active; 'I' for Inactive)
REMARK    1  A    between atoms: C6_6  and  C8_8 
REMARK    2  A    between atoms: C8_8  and  O9_9 
ROOT
HETATM    1  C1  UNL     1     -38.079  14.664  -5.490  1.00 20.00     0.011 C 
HETATM    2  C2  UNL     1     -36.767  13.943  -5.190  1.00 20.00     0.011 C 
HETATM    3  C3  UNL     1     -35.379  15.530  -3.661  1.00 20.00     0.018 A 
HETATM    4  C4  UNL     1     -38.018  15.489  -6.771  1.00 20.00     0.074 C 
HETATM    5  C5  UNL     1     -35.319  15.741  -6.252  1.00 20.00     0.083 C 
HETATM    6  C6  UNL     1     -34.463  14.441  -4.145  1.00 20.00     0.019 A 
HETATM    7  C7  UNL     1     -35.613  14.913  -5.026  1.00 20.00    -0.026 A 
HETATM    8  S10 UNL     1     -36.744  16.782  -6.672  1.00 20.00    -0.168 SA
ENDROOT
BRANCH   6   9
HETATM    9  C8  UNL     1     -33.034  14.739  -4.444  1.00 20.00     0.169 C 
BRANCH   9  10
HETATM   10  O9  UNL     1     -32.248  13.556  -4.296  1.00 20.00    -0.400 OA
HETATM   11  H24 UNL     1     -31.332  13.849  -4.183  1.00 20.00     0.209 HD
ENDBRANCH   9  10
ENDBRANCH   6   9
TORSDOF 2
ENDMDL
MODEL 5
REMARK VINA RESULT:      -3.8      2.530      4.115
REMARK  2 active torsions:
REMARK  status: ('A' for Active; 'I' for Inactive)
REMARK    1  A    between atoms: C6_6  and  C8_8 
REMARK    2  A    between atoms: C8_8  and  O9_9 
ROOT
HETATM    1  C1  UNL     1     -35.341  13.832  -5.652  1.00 20.00     0.011 C 
HETATM    2  C2  UNL     1     -34.845  14.154  -4.244  1.00 20.00     0.011 C 
HETATM    3  C3  UNL     1     -35.515  16.627  -3.769  1.00 20.00     0.018 A 
HETATM    4  C4  UNL     1     -34.288  14.094  -6.722  1.00 20.00     0.074 C 
HETATM    5  C5  UNL     1     -33.312  16.029  -5.013  1.00 20.00     0.083 C 
HETATM    6  C6  UNL     1     -34.540  16.201  -2.707  1.00 20.00     0.019 A 
HETATM    7  C7  UNL     1     -34.442  15.610  -4.107  1.00 20.00    -0.026 A 
HETATM    8  S10 UNL     1     -33.790  15.842  -6.753  1.00 20.00    -0.168 SA
ENDROOT
BRANCH   6   9
HETATM    9  C8  UNL     1     -33.551  17.175  -2.163  1.00 20.00     0.169 C 
BRANCH   9  10
HETATM   10  O9  UNL     1     -33.890  17.514  -0.818  1.00 20.00    -0.400 OA
HETATM   11  H24 UNL     1     -33.617  18.434  -0.691  1.00 20.00     0.209 HD
ENDBRANCH   9  10
ENDBRANCH   6   9
TORSDOF 2
ENDMDL
MODEL 6
REMARK VINA RESULT:      -3.8     11.046     11.890
REMARK  2 active torsions:
REMARK  status: ('A' for Active; 'I' for Inactive)
REMARK    1  A    between atoms: C6_6  and  C8_8 
REMARK    2  A    between atoms: C8_8  and  O9_9 
ROOT
HETATM    1  C1  UNL     1     -33.936   7.245   5.796  1.00 20.00     0.011 C 
HETATM    2  C2  UNL     1     -32.709   7.671   4.992  1.00 20.00     0.011 C 
HETATM    3  C3  UNL     1     -33.601   8.774   2.806  1.00 20.00     0.018 A 
HETATM    4  C4  UNL     1     -34.361   5.810   5.505  1.00 20.00     0.074 C 
HETATM    5  C5  UNL     1     -33.275   6.201   2.998  1.00 20.00     0.083 C 
HETATM    6  C6  UNL     1     -32.129   8.527   2.630  1.00 20.00     0.019 A 
HETATM    7  C7  UNL     1     -32.957   7.588   3.498  1.00 20.00    -0.026 A 
HETATM    8  S10 UNL     1     -34.805   5.588   3.756  1.00 20.00    -0.168 SA
ENDROOT
BRANCH   6   9
HETATM    9  C8  UNL     1     -31.587   8.138   1.297  1.00 20.00     0.169 C 
BRANCH   9  10
HETATM   10  O9  UNL     1     -31.775   9.203   0.365  1.00 20.00    -0.400 OA
HETATM   11  H24 UNL     1     -30.895   9.438   0.036  1.00 20.00     0.209 HD
ENDBRANCH   9  10
ENDBRANCH   6   9
TORSDOF 2
ENDMDL
MODEL 7
REMARK VINA RESULT:      -3.8      2.226      2.526
REMARK  2 active torsions:
REMARK  status: ('A' for Active; 'I' for Inactive)
REMARK    1  A    between atoms: C6_6  and  C8_8 
REMARK    2  A    between atoms: C8_8  and  O9_9 
ROOT
HETATM    1  C1  UNL     1     -35.092  18.316  -1.184  1.00 20.00     0.011 C 
HETATM    2  C2  UNL     1     -34.355  17.015  -1.497  1.00 20.00     0.011 C 
HETATM    3  C3  UNL     1     -33.707  17.116  -4.018  1.00 20.00     0.018 A 
HETATM    4  C4  UNL     1     -36.602  18.192  -1.352  1.00 20.00     0.074 C 
HETATM    5  C5  UNL     1     -36.039  16.264  -3.245  1.00 20.00     0.083 C 
HETATM    6  C6  UNL     1     -33.498  15.705  -3.545  1.00 20.00     0.019 A 
HETATM    7  C7  UNL     1     -34.596  16.559  -2.923  1.00 20.00    -0.026 A 
HETATM    8  S10 UNL     1     -37.049  17.759  -3.060  1.00 20.00    -0.168 SA
ENDROOT
BRANCH   6   9
HETATM    9  C8  UNL     1     -33.777  14.559  -4.456  1.00 20.00     0.169 C 
BRANCH   9  10
HETATM   10  O9  UNL     1     -32.664  13.664  -4.467  1.00 20.00    -0.400 OA
HETATM   11  H24 UNL     1     -32.518  13.420  -5.393  1.00 20.00     0.209 HD
ENDBRANCH   9  10
ENDBRANCH   6   9
TORSDOF 2
ENDMDL
MODEL 8
REMARK VINA RESULT:      -3.8      1.897      2.264
REMARK  2 active torsions:
REMARK  status: ('A' for Active; 'I' for Inactive)
REMARK    1  A    between atoms: C6_6  and  C8_8 
REMARK    2  A    between atoms: C8_8  and  O9_9 
ROOT
HETATM    1  C1  UNL     1     -34.078  16.973  -2.219  1.00 20.00     0.011 C 
HETATM    2  C2  UNL     1     -33.561  15.934  -3.211  1.00 20.00     0.011 C 
HETATM    3  C3  UNL     1     -33.762  17.003  -5.578  1.00 20.00     0.018 A 
HETATM    4  C4  UNL     1     -35.565  16.817  -1.923  1.00 20.00     0.074 C 
HETATM    5  C5  UNL     1     -35.763  15.768  -4.468  1.00 20.00     0.083 C 
HETATM    6  C6  UNL     1     -33.495  15.535  -5.758  1.00 20.00     0.019 A 
HETATM    7  C7  UNL     1     -34.278  16.021  -4.545  1.00 20.00    -0.026 A 
HETATM    8  S10 UNL     1     -36.567  17.016  -3.427  1.00 20.00    -0.168 SA
ENDROOT
BRANCH   6   9
HETATM    9  C8  UNL     1     -34.122  14.790  -6.886  1.00 20.00     0.169 C 
BRANCH   9  10
HETATM   10  O9  UNL     1     -33.947  13.386  -6.700  1.00 20.00    -0.400 OA
HETATM   11  H24 UNL     1     -34.553  12.950  -7.318  1.00 20.00     0.209 HD
ENDBRANCH   9  10
ENDBRANCH   6   9
TORSDOF 2
ENDMDL
MODEL 9
REMARK VINA RESULT:      -3.7      1.435      1.583
REMARK  2 active torsions:
REMARK  status: ('A' for Active; 'I' for Inactive)
REMARK    1  A    between atoms: C6_6  and  C8_8 
REMARK    2  A    between atoms: C8_8  and  O9_9 
ROOT
HETATM    1  C1  UNL     1     -33.895  16.862  -2.360  1.00 20.00     0.011 C 
HETATM    2  C2  UNL     1     -35.314  16.364  -2.627  1.00 20.00     0.011 C 
HETATM    3  C3  UNL     1     -35.127  14.553  -4.490  1.00 20.00     0.018 A 
HETATM    4  C4  UNL     1     -33.530  18.078  -3.202  1.00 20.00     0.074 C 
HETATM    5  C5  UNL     1     -35.307  17.083  -5.064  1.00 20.00     0.083 C 
HETATM    6  C6  UNL     1     -36.579  14.911  -4.340  1.00 20.00     0.019 A 
HETATM    7  C7  UNL     1     -35.507  15.961  -4.076  1.00 20.00    -0.026 A 
HETATM    8  S10 UNL     1     -33.606  17.706  -4.980  1.00 20.00    -0.168 SA
ENDROOT
BRANCH   6   9
HETATM    9  C8  UNL     1     -37.472  14.941  -5.533  1.00 20.00     0.169 C 
BRANCH   9  10
HETATM   10  O9  UNL     1     -38.477  13.934  -5.415  1.00 20.00    -0.400 OA
HETATM   11  H24 UNL     1     -39.303  14.394  -5.205  1.00 20.00     0.209 HD
ENDBRANCH   9  10
ENDBRANCH   6   9
TORSDOF 2
ENDMDL
