MODEL 1
REMARK VINA RESULT:      -5.4      0.000      0.000
REMARK  2 active torsions:
REMARK  status: ('A' for Active; 'I' for Inactive)
REMARK    1  A    between atoms: C3_3  and  C6_6 
REMARK    2  A    between atoms: C7_7  and  C9_9 
ROOT
HETATM    1  C1  UNL     1     -33.554   6.153   2.810  1.00 20.00     0.016 A 
HETATM    2  C2  UNL     1     -34.143   5.122   3.598  1.00 20.00     0.015 A 
HETATM    3  C3  UNL     1     -33.279   7.279   3.554  1.00 20.00    -0.013 A 
HETATM    4  C4  UNL     1     -34.295   5.499   4.914  1.00 20.00    -0.021 A 
HETATM    5  C8  UNL     1     -34.857   4.717   6.036  1.00 20.00     0.056 C 
HETATM    6  S10 UNL     1     -33.729   7.091   5.196  1.00 20.00    -0.099 SA
ENDROOT
BRANCH   3   7
HETATM    7  C6  UNL     1     -32.652   8.534   2.995  1.00 20.00     0.031 A 
HETATM    8  C5  UNL     1     -31.159   8.596   2.749  1.00 20.00     0.016 A 
HETATM    9  C7  UNL     1     -32.101   8.541   1.584  1.00 20.00     0.009 A 
BRANCH   9  10
HETATM   10  C9  UNL     1     -32.289   9.735   0.714  1.00 20.00     0.120 C 
HETATM   11 CL11 UNL     1     -33.276   9.342  -0.721  1.00 20.00    -0.130 Cl
ENDBRANCH   9  10
ENDBRANCH   3   7
TORSDOF 2
ENDMDL
MODEL 2
REMARK VINA RESULT:      -5.3      1.059      1.427
REMARK  2 active torsions:
REMARK  status: ('A' for Active; 'I' for Inactive)
REMARK    1  A    between atoms: C3_3  and  C6_6 
REMARK    2  A    between atoms: C7_7  and  C9_9 
ROOT
HETATM    1  C1  UNL     1     -33.417   7.669   5.310  1.00 20.00     0.016 A 
HETATM    2  C2  UNL     1     -34.093   6.508   5.785  1.00 20.00     0.015 A 
HETATM    3  C3  UNL     1     -33.099   7.572   3.972  1.00 20.00    -0.013 A 
HETATM    4  C4  UNL     1     -34.267   5.568   4.793  1.00 20.00    -0.021 A 
HETATM    5  C8  UNL     1     -34.920   4.245   4.884  1.00 20.00     0.056 C 
HETATM    6  S10 UNL     1     -33.617   6.086   3.296  1.00 20.00    -0.099 SA
ENDROOT
BRANCH   3   7
HETATM    7  C6  UNL     1     -32.383   8.646   3.189  1.00 20.00     0.031 A 
HETATM    8  C5  UNL     1     -31.131   8.312   2.405  1.00 20.00     0.016 A 
HETATM    9  C7  UNL     1     -32.404   8.621   1.675  1.00 20.00     0.009 A 
BRANCH   9  10
HETATM   10  C9  UNL     1     -32.540   9.891   0.908  1.00 20.00     0.120 C 
HETATM   11 CL11 UNL     1     -33.326   9.613  -0.671  1.00 20.00    -0.130 Cl
ENDBRANCH   9  10
ENDBRANCH   3   7
TORSDOF 2
ENDMDL
MODEL 3
REMARK VINA RESULT:      -4.8      2.683      5.112
REMARK  2 active torsions:
REMARK  status: ('A' for Active; 'I' for Inactive)
REMARK    1  A    between atoms: C3_3  and  C6_6 
REMARK    2  A    between atoms: C7_7  and  C9_9 
ROOT
HETATM    1  C1  UNL     1     -31.492   8.399   3.375  1.00 20.00     0.016 A 
HETATM    2  C2  UNL     1     -31.439   9.080   2.124  1.00 20.00     0.015 A 
HETATM    3  C3  UNL     1     -32.633   7.636   3.500  1.00 20.00    -0.013 A 
HETATM    4  C4  UNL     1     -32.540   8.811   1.341  1.00 20.00    -0.021 A 
HETATM    5  C8  UNL     1     -32.852   9.317  -0.013  1.00 20.00     0.056 C 
HETATM    6  S10 UNL     1     -33.633   7.742   2.114  1.00 20.00    -0.099 SA
ENDROOT
BRANCH   3   7
HETATM    7  C6  UNL     1     -32.967   6.800   4.714  1.00 20.00     0.031 A 
HETATM    8  C5  UNL     1     -33.738   7.405   5.867  1.00 20.00     0.016 A 
HETATM    9  C7  UNL     1     -34.401   6.393   4.981  1.00 20.00     0.009 A 
BRANCH   9  10
HETATM   10  C9  UNL     1     -34.707   5.030   5.498  1.00 20.00     0.120 C 
HETATM   11 CL11 UNL     1     -34.204   3.770   4.337  1.00 20.00    -0.130 Cl
ENDBRANCH   9  10
ENDBRANCH   3   7
TORSDOF 2
ENDMDL
MODEL 4
REMARK VINA RESULT:      -4.6     10.749     11.367
REMARK  2 active torsions:
REMARK  status: ('A' for Active; 'I' for Inactive)
REMARK    1  A    between atoms: C3_3  and  C6_6 
REMARK    2  A    between atoms: C7_7  and  C9_9 
ROOT
HETATM    1  C1  UNL     1     -35.487  16.936  -1.266  1.00 20.00     0.016 A 
HETATM    2  C2  UNL     1     -35.065  17.615  -0.087  1.00 20.00     0.015 A 
HETATM    3  C3  UNL     1     -34.525  16.964  -2.252  1.00 20.00    -0.013 A 
HETATM    4  C4  UNL     1     -33.797  18.136  -0.215  1.00 20.00    -0.021 A 
HETATM    5  C8  UNL     1     -33.010  18.899   0.778  1.00 20.00     0.056 C 
HETATM    6  S10 UNL     1     -33.120  17.806  -1.754  1.00 20.00    -0.099 SA
ENDROOT
BRANCH   3   7
HETATM    7  C6  UNL     1     -34.683  16.327  -3.613  1.00 20.00     0.031 A 
HETATM    8  C5  UNL     1     -33.463  15.964  -4.431  1.00 20.00     0.016 A 
HETATM    9  C7  UNL     1     -34.296  14.878  -3.819  1.00 20.00     0.009 A 
BRANCH   9  10
HETATM   10  C9  UNL     1     -35.132  13.997  -4.682  1.00 20.00     0.120 C 
HETATM   11 CL11 UNL     1     -34.484  13.915  -6.343  1.00 20.00    -0.130 Cl
ENDBRANCH   9  10
ENDBRANCH   3   7
TORSDOF 2
ENDMDL
MODEL 5
REMARK VINA RESULT:      -4.6     11.063     11.942
REMARK  2 active torsions:
REMARK  status: ('A' for Active; 'I' for Inactive)
REMARK    1  A    between atoms: C3_3  and  C6_6 
REMARK    2  A    between atoms: C7_7  and  C9_9 
ROOT
HETATM    1  C1  UNL     1     -33.248  16.345  -5.223  1.00 20.00     0.016 A 
HETATM    2  C2  UNL     1     -33.474  15.615  -6.426  1.00 20.00     0.015 A 
HETATM    3  C3  UNL     1     -33.841  15.744  -4.134  1.00 20.00    -0.013 A 
HETATM    4  C4  UNL     1     -34.230  14.483  -6.210  1.00 20.00    -0.021 A 
HETATM    5  C8  UNL     1     -34.672  13.471  -7.193  1.00 20.00     0.056 C 
HETATM    6  S10 UNL     1     -34.664  14.305  -4.563  1.00 20.00    -0.099 SA
ENDROOT
BRANCH   3   7
HETATM    7  C6  UNL     1     -33.773  16.284  -2.725  1.00 20.00     0.031 A 
HETATM    8  C5  UNL     1     -33.431  17.738  -2.481  1.00 20.00     0.016 A 
HETATM    9  C7  UNL     1     -34.828  17.253  -2.234  1.00 20.00     0.009 A 
BRANCH   9  10
HETATM   10  C9  UNL     1     -35.351  17.147  -0.842  1.00 20.00     0.120 C 
HETATM   11 CL11 UNL     1     -34.366  18.111   0.293  1.00 20.00    -0.130 Cl
ENDBRANCH   9  10
ENDBRANCH   3   7
TORSDOF 2
ENDMDL
MODEL 6
REMARK VINA RESULT:      -4.5     10.663     11.311
REMARK  2 active torsions:
REMARK  status: ('A' for Active; 'I' for Inactive)
REMARK    1  A    between atoms: C3_3  and  C6_6 
REMARK    2  A    between atoms: C7_7  and  C9_9 
ROOT
HETATM    1  C1  UNL     1     -33.085  17.584  -2.034  1.00 20.00     0.016 A 
HETATM    2  C2  UNL     1     -33.144  18.130  -0.719  1.00 20.00     0.015 A 
HETATM    3  C3  UNL     1     -34.269  16.977  -2.395  1.00 20.00    -0.013 A 
HETATM    4  C4  UNL     1     -34.370  17.922  -0.126  1.00 20.00    -0.021 A 
HETATM    5  C8  UNL     1     -34.824  18.337   1.219  1.00 20.00     0.056 C 
HETATM    6  S10 UNL     1     -35.444  17.070  -1.153  1.00 20.00    -0.099 SA
ENDROOT
BRANCH   3   7
HETATM    7  C6  UNL     1     -34.509  16.311  -3.729  1.00 20.00     0.031 A 
HETATM    8  C5  UNL     1     -33.347  15.751  -4.521  1.00 20.00     0.016 A 
HETATM    9  C7  UNL     1     -34.321  14.814  -3.872  1.00 20.00     0.009 A 
BRANCH   9  10
HETATM   10  C9  UNL     1     -35.267  14.019  -4.705  1.00 20.00     0.120 C 
HETATM   11 CL11 UNL     1     -34.653  13.822  -6.370  1.00 20.00    -0.130 Cl
ENDBRANCH   9  10
ENDBRANCH   3   7
TORSDOF 2
ENDMDL
MODEL 7
REMARK VINA RESULT:      -4.5     11.196     12.032
REMARK  2 active torsions:
REMARK  status: ('A' for Active; 'I' for Inactive)
REMARK    1  A    between atoms: C3_3  and  C6_6 
REMARK    2  A    between atoms: C7_7  and  C9_9 
ROOT
HETATM    1  C1  UNL     1     -34.885  14.976  -3.830  1.00 20.00     0.016 A 
HETATM    2  C2  UNL     1     -34.745  14.221  -5.030  1.00 20.00     0.015 A 
HETATM    3  C3  UNL     1     -34.450  16.275  -3.983  1.00 20.00    -0.013 A 
HETATM    4  C4  UNL     1     -34.209  14.970  -6.054  1.00 20.00    -0.021 A 
HETATM    5  C8  UNL     1     -33.914  14.554  -7.442  1.00 20.00     0.056 C 
HETATM    6  S10 UNL     1     -33.877  16.578  -5.567  1.00 20.00    -0.099 SA
ENDROOT
BRANCH   3   7
HETATM    7  C6  UNL     1     -34.476  17.314  -2.886  1.00 20.00     0.031 A 
HETATM    8  C5  UNL     1     -34.718  16.901  -1.450  1.00 20.00     0.016 A 
HETATM    9  C7  UNL     1     -33.356  17.368  -1.868  1.00 20.00     0.009 A 
BRANCH   9  10
HETATM   10  C9  UNL     1     -32.837  18.683  -1.397  1.00 20.00     0.120 C 
HETATM   11 CL11 UNL     1     -31.682  18.478  -0.052  1.00 20.00    -0.130 Cl
ENDBRANCH   9  10
ENDBRANCH   3   7
TORSDOF 2
ENDMDL
MODEL 8
REMARK VINA RESULT:      -4.4     10.817     11.373
REMARK  2 active torsions:
REMARK  status: ('A' for Active; 'I' for Inactive)
REMARK    1  A    between atoms: C3_3  and  C6_6 
REMARK    2  A    between atoms: C7_7  and  C9_9 
ROOT
HETATM    1  C1  UNL     1     -33.683  16.596  -2.489  1.00 20.00     0.016 A 
HETATM    2  C2  UNL     1     -34.023  17.332  -1.316  1.00 20.00     0.015 A 
HETATM    3  C3  UNL     1     -34.791  16.298  -3.252  1.00 20.00    -0.013 A 
HETATM    4  C4  UNL     1     -35.377  17.568  -1.228  1.00 20.00    -0.021 A 
HETATM    5  C8  UNL     1     -36.118  18.294  -0.174  1.00 20.00     0.056 C 
HETATM    6  S10 UNL     1     -36.233  16.904  -2.555  1.00 20.00    -0.099 SA
ENDROOT
BRANCH   3   7
HETATM    7  C6  UNL     1     -34.745  15.530  -4.551  1.00 20.00     0.031 A 
HETATM    8  C5  UNL     1     -33.653  14.510  -4.796  1.00 20.00     0.016 A 
HETATM    9  C7  UNL     1     -35.061  14.048  -4.566  1.00 20.00     0.009 A 
BRANCH   9  10
HETATM   10  C9  UNL     1     -35.852  13.464  -5.686  1.00 20.00     0.120 C 
HETATM   11 CL11 UNL     1     -34.825  13.164  -7.115  1.00 20.00    -0.130 Cl
ENDBRANCH   9  10
ENDBRANCH   3   7
TORSDOF 2
ENDMDL
MODEL 9
REMARK VINA RESULT:      -4.0     11.246     12.483
REMARK  2 active torsions:
REMARK  status: ('A' for Active; 'I' for Inactive)
REMARK    1  A    between atoms: C3_3  and  C6_6 
REMARK    2  A    between atoms: C7_7  and  C9_9 
ROOT
HETATM    1  C1  UNL     1     -34.839  15.856  -3.635  1.00 20.00     0.016 A 
HETATM    2  C2  UNL     1     -34.388  16.399  -2.396  1.00 20.00     0.015 A 
HETATM    3  C3  UNL     1     -34.383  16.584  -4.714  1.00 20.00    -0.013 A 
HETATM    4  C4  UNL     1     -33.606  17.518  -2.575  1.00 20.00    -0.021 A 
HETATM    5  C8  UNL     1     -32.953  18.357  -1.548  1.00 20.00     0.056 C 
HETATM    6  S10 UNL     1     -33.417  17.913  -4.231  1.00 20.00    -0.099 SA
ENDROOT
BRANCH   3   7
HETATM    7  C6  UNL     1     -34.694  16.251  -6.154  1.00 20.00     0.031 A 
HETATM    8  C5  UNL     1     -33.890  16.880  -7.272  1.00 20.00     0.016 A 
HETATM    9  C7  UNL     1     -33.721  15.422  -6.966  1.00 20.00     0.009 A 
BRANCH   9  10
HETATM   10  C9  UNL     1     -34.229  14.392  -7.915  1.00 20.00     0.120 C 
HETATM   11 CL11 UNL     1     -34.946  13.007  -7.046  1.00 20.00    -0.130 Cl
ENDBRANCH   9  10
ENDBRANCH   3   7
TORSDOF 2
ENDMDL
