MODEL 1
REMARK VINA RESULT:      -5.1      0.000      0.000
REMARK  3 active torsions:
REMARK  status: ('A' for Active; 'I' for Inactive)
REMARK    1  A    between atoms: C2_2  and  C6_6 
REMARK    2  A    between atoms: C3_3  and  C7_7 
REMARK    3  A    between atoms: C7_7  and  C8_8 
ROOT
HETATM    1  C1  UNL     1     -32.256   6.507   2.749  1.00 20.00     0.016 A 
HETATM    2  C2  UNL     1     -32.928   7.775   2.305  1.00 20.00     0.008 A 
HETATM    3  C3  UNL     1     -33.364   7.100   3.604  1.00 20.00    -0.039 A 
HETATM    4  C4  UNL     1     -32.987   7.704   4.931  1.00 20.00     0.015 C 
ENDROOT
BRANCH   3   5
HETATM    5  C7  UNL     1     -34.701   6.406   3.605  1.00 20.00     0.009 C 
BRANCH   5   6
HETATM    6  C8  UNL     1     -34.853   5.455   4.797  1.00 20.00    -0.004 C 
HETATM    7  C5  UNL     1     -34.289   4.074   4.498  1.00 20.00     0.005 C 
ENDBRANCH   5   6
ENDBRANCH   3   5
BRANCH   2   8
HETATM    8  C6  UNL     1     -32.171   9.057   2.279  1.00 20.00     0.120 C 
HETATM    9 CL9  UNL     1     -32.858  10.189   1.080  1.00 20.00    -0.130 Cl
ENDBRANCH   2   8
TORSDOF 3
ENDMDL
MODEL 2
REMARK VINA RESULT:      -4.8      2.589      4.514
REMARK  3 active torsions:
REMARK  status: ('A' for Active; 'I' for Inactive)
REMARK    1  A    between atoms: C2_2  and  C6_6 
REMARK    2  A    between atoms: C3_3  and  C7_7 
REMARK    3  A    between atoms: C7_7  and  C8_8 
ROOT
HETATM    1  C1  UNL     1     -33.245   7.212   4.885  1.00 20.00     0.016 A 
HETATM    2  C2  UNL     1     -34.516   6.954   4.126  1.00 20.00     0.008 A 
HETATM    3  C3  UNL     1     -33.205   7.154   3.367  1.00 20.00    -0.039 A 
HETATM    4  C4  UNL     1     -32.521   5.979   2.721  1.00 20.00     0.015 C 
ENDROOT
BRANCH   3   5
HETATM    5  C7  UNL     1     -33.033   8.449   2.618  1.00 20.00     0.009 C 
BRANCH   5   6
HETATM    6  C8  UNL     1     -31.823   8.414   1.679  1.00 20.00    -0.004 C 
HETATM    7  C5  UNL     1     -32.023   9.299   0.458  1.00 20.00     0.005 C 
ENDBRANCH   5   6
ENDBRANCH   3   5
BRANCH   2   8
HETATM    8  C6  UNL     1     -35.195   5.633   4.223  1.00 20.00     0.120 C 
HETATM    9 CL9  UNL     1     -34.567   4.683   5.600  1.00 20.00    -0.130 Cl
ENDBRANCH   2   8
TORSDOF 3
ENDMDL
MODEL 3
REMARK VINA RESULT:      -4.6      2.620      4.415
REMARK  3 active torsions:
REMARK  status: ('A' for Active; 'I' for Inactive)
REMARK    1  A    between atoms: C2_2  and  C6_6 
REMARK    2  A    between atoms: C3_3  and  C7_7 
REMARK    3  A    between atoms: C7_7  and  C8_8 
ROOT
HETATM    1  C1  UNL     1     -35.059   6.163   3.388  1.00 20.00     0.016 A 
HETATM    2  C2  UNL     1     -33.995   5.110   3.514  1.00 20.00     0.008 A 
HETATM    3  C3  UNL     1     -33.604   6.587   3.497  1.00 20.00    -0.039 A 
HETATM    4  C4  UNL     1     -33.157   7.264   4.766  1.00 20.00     0.015 C 
ENDROOT
BRANCH   3   5
HETATM    5  C7  UNL     1     -32.927   7.106   2.256  1.00 20.00     0.009 C 
BRANCH   5   6
HETATM    6  C8  UNL     1     -32.069   8.342   2.544  1.00 20.00    -0.004 C 
HETATM    7  C5  UNL     1     -32.238   9.413   1.478  1.00 20.00     0.005 C 
ENDBRANCH   5   6
ENDBRANCH   3   5
BRANCH   2   8
HETATM    8  C6  UNL     1     -33.910   4.271   4.741  1.00 20.00     0.120 C 
HETATM    9 CL9  UNL     1     -34.892   4.960   6.065  1.00 20.00    -0.130 Cl
ENDBRANCH   2   8
TORSDOF 3
ENDMDL
MODEL 4
REMARK VINA RESULT:      -4.5      1.391      2.038
REMARK  3 active torsions:
REMARK  status: ('A' for Active; 'I' for Inactive)
REMARK    1  A    between atoms: C2_2  and  C6_6 
REMARK    2  A    between atoms: C3_3  and  C7_7 
REMARK    3  A    between atoms: C7_7  and  C8_8 
ROOT
HETATM    1  C1  UNL     1     -34.236   6.643   1.835  1.00 20.00     0.016 A 
HETATM    2  C2  UNL     1     -33.437   7.305   2.921  1.00 20.00     0.008 A 
HETATM    3  C3  UNL     1     -33.923   5.868   3.104  1.00 20.00    -0.039 A 
HETATM    4  C4  UNL     1     -32.947   4.725   3.013  1.00 20.00     0.015 C 
ENDROOT
BRANCH   3   5
HETATM    5  C7  UNL     1     -35.044   5.639   4.084  1.00 20.00     0.009 C 
BRANCH   5   6
HETATM    6  C8  UNL     1     -34.529   5.483   5.519  1.00 20.00    -0.004 C 
HETATM    7  C5  UNL     1     -34.055   6.805   6.100  1.00 20.00     0.005 C 
ENDBRANCH   5   6
ENDBRANCH   3   5
BRANCH   2   8
HETATM    8  C6  UNL     1     -32.005   7.647   2.699  1.00 20.00     0.120 C 
HETATM    9 CL9  UNL     1     -31.810   8.725   1.288  1.00 20.00    -0.130 Cl
ENDBRANCH   2   8
TORSDOF 3
ENDMDL
MODEL 5
REMARK VINA RESULT:      -4.4      2.715      4.474
REMARK  3 active torsions:
REMARK  status: ('A' for Active; 'I' for Inactive)
REMARK    1  A    between atoms: C2_2  and  C6_6 
REMARK    2  A    between atoms: C3_3  and  C7_7 
REMARK    3  A    between atoms: C7_7  and  C8_8 
ROOT
HETATM    1  C1  UNL     1     -33.852   7.340   4.019  1.00 20.00     0.016 A 
HETATM    2  C2  UNL     1     -33.739   6.444   2.818  1.00 20.00     0.008 A 
HETATM    3  C3  UNL     1     -32.908   7.724   2.892  1.00 20.00    -0.039 A 
HETATM    4  C4  UNL     1     -31.427   7.647   3.153  1.00 20.00     0.015 C 
ENDROOT
BRANCH   3   5
HETATM    5  C7  UNL     1     -33.312   8.861   1.991  1.00 20.00     0.009 C 
BRANCH   5   6
HETATM    6  C8  UNL     1     -32.273   9.124   0.896  1.00 20.00    -0.004 C 
HETATM    7  C5  UNL     1     -32.922   9.428  -0.444  1.00 20.00     0.005 C 
ENDBRANCH   5   6
ENDBRANCH   3   5
BRANCH   2   8
HETATM    8  C6  UNL     1     -33.138   5.087   2.947  1.00 20.00     0.120 C 
HETATM    9 CL9  UNL     1     -34.055   4.083   4.105  1.00 20.00    -0.130 Cl
ENDBRANCH   2   8
TORSDOF 3
ENDMDL
MODEL 6
REMARK VINA RESULT:      -3.7     10.949     11.746
REMARK  3 active torsions:
REMARK  status: ('A' for Active; 'I' for Inactive)
REMARK    1  A    between atoms: C2_2  and  C6_6 
REMARK    2  A    between atoms: C3_3  and  C7_7 
REMARK    3  A    between atoms: C7_7  and  C8_8 
ROOT
HETATM    1  C1  UNL     1     -33.533  14.638  -4.400  1.00 20.00     0.016 A 
HETATM    2  C2  UNL     1     -34.962  14.177  -4.394  1.00 20.00     0.008 A 
HETATM    3  C3  UNL     1     -34.638  15.649  -4.142  1.00 20.00    -0.039 A 
HETATM    4  C4  UNL     1     -34.920  16.676  -5.206  1.00 20.00     0.015 C 
ENDROOT
BRANCH   3   5
HETATM    5  C7  UNL     1     -34.809  16.161  -2.736  1.00 20.00     0.009 C 
BRANCH   5   6
HETATM    6  C8  UNL     1     -33.606  16.991  -2.276  1.00 20.00    -0.004 C 
HETATM    7  C5  UNL     1     -33.890  17.735  -0.981  1.00 20.00     0.005 C 
ENDBRANCH   5   6
ENDBRANCH   3   5
BRANCH   2   8
HETATM    8  C6  UNL     1     -35.603  13.699  -5.651  1.00 20.00     0.120 C 
HETATM    9 CL9  UNL     1     -34.403  13.525  -6.962  1.00 20.00    -0.130 Cl
ENDBRANCH   2   8
TORSDOF 3
ENDMDL
MODEL 7
REMARK VINA RESULT:      -3.6     10.813     11.710
REMARK  3 active torsions:
REMARK  status: ('A' for Active; 'I' for Inactive)
REMARK    1  A    between atoms: C2_2  and  C6_6 
REMARK    2  A    between atoms: C3_3  and  C7_7 
REMARK    3  A    between atoms: C7_7  and  C8_8 
ROOT
HETATM    1  C1  UNL     1     -33.929  16.876  -4.369  1.00 20.00     0.016 A 
HETATM    2  C2  UNL     1     -33.610  15.538  -3.767  1.00 20.00     0.008 A 
HETATM    3  C3  UNL     1     -34.263  16.621  -2.909  1.00 20.00    -0.039 A 
HETATM    4  C4  UNL     1     -35.714  16.504  -2.524  1.00 20.00     0.015 C 
ENDROOT
BRANCH   3   5
HETATM    5  C7  UNL     1     -33.405  17.283  -1.864  1.00 20.00     0.009 C 
BRANCH   5   6
HETATM    6  C8  UNL     1     -34.227  17.755  -0.660  1.00 20.00    -0.004 C 
HETATM    7  C5  UNL     1     -33.381  18.528   0.339  1.00 20.00     0.005 C 
ENDBRANCH   5   6
ENDBRANCH   3   5
BRANCH   2   8
HETATM    8  C6  UNL     1     -34.338  14.319  -4.215  1.00 20.00     0.120 C 
HETATM    9 CL9  UNL     1     -34.340  14.185  -5.996  1.00 20.00    -0.130 Cl
ENDBRANCH   2   8
TORSDOF 3
ENDMDL
MODEL 8
REMARK VINA RESULT:      -3.6     10.625     11.525
REMARK  3 active torsions:
REMARK  status: ('A' for Active; 'I' for Inactive)
REMARK    1  A    between atoms: C2_2  and  C6_6 
REMARK    2  A    between atoms: C3_3  and  C7_7 
REMARK    3  A    between atoms: C7_7  and  C8_8 
ROOT
HETATM    1  C1  UNL     1     -35.529  16.436  -3.736  1.00 20.00     0.016 A 
HETATM    2  C2  UNL     1     -34.501  16.177  -2.671  1.00 20.00     0.008 A 
HETATM    3  C3  UNL     1     -34.332  15.557  -4.058  1.00 20.00    -0.039 A 
HETATM    4  C4  UNL     1     -33.291  16.097  -5.002  1.00 20.00     0.015 C 
ENDROOT
BRANCH   3   5
HETATM    5  C7  UNL     1     -34.560  14.074  -4.182  1.00 20.00     0.009 C 
BRANCH   5   6
HETATM    6  C8  UNL     1     -35.811  13.753  -5.006  1.00 20.00    -0.004 C 
HETATM    7  C5  UNL     1     -35.475  13.448  -6.457  1.00 20.00     0.005 C 
ENDBRANCH   5   6
ENDBRANCH   3   5
BRANCH   2   8
HETATM    8  C6  UNL     1     -33.638  17.284  -2.174  1.00 20.00     0.120 C 
HETATM    9 CL9  UNL     1     -34.106  17.775  -0.522  1.00 20.00    -0.130 Cl
ENDBRANCH   2   8
TORSDOF 3
ENDMDL
MODEL 9
REMARK VINA RESULT:      -3.5     10.979     11.730
REMARK  3 active torsions:
REMARK  status: ('A' for Active; 'I' for Inactive)
REMARK    1  A    between atoms: C2_2  and  C6_6 
REMARK    2  A    between atoms: C3_3  and  C7_7 
REMARK    3  A    between atoms: C7_7  and  C8_8 
ROOT
HETATM    1  C1  UNL     1     -35.054  16.581  -2.263  1.00 20.00     0.016 A 
HETATM    2  C2  UNL     1     -33.603  16.936  -2.113  1.00 20.00     0.008 A 
HETATM    3  C3  UNL     1     -34.127  16.436  -3.458  1.00 20.00    -0.039 A 
HETATM    4  C4  UNL     1     -34.295  17.395  -4.606  1.00 20.00     0.015 C 
ENDROOT
BRANCH   3   5
HETATM    5  C7  UNL     1     -33.731  15.044  -3.877  1.00 20.00     0.009 C 
BRANCH   5   6
HETATM    6  C8  UNL     1     -34.419  14.618  -5.178  1.00 20.00    -0.004 C 
HETATM    7  C5  UNL     1     -35.633  13.740  -4.918  1.00 20.00     0.005 C 
ENDBRANCH   5   6
ENDBRANCH   3   5
BRANCH   2   8
HETATM    8  C6  UNL     1     -33.195  18.350  -1.885  1.00 20.00     0.120 C 
HETATM    9 CL9  UNL     1     -32.081  18.485  -0.495  1.00 20.00    -0.130 Cl
ENDBRANCH   2   8
TORSDOF 3
ENDMDL
