MODEL 1
REMARK VINA RESULT:      -3.9      0.000      0.000
REMARK  3 active torsions:
REMARK  status: ('A' for Active; 'I' for Inactive)
REMARK    1  A    between atoms: C3_3  and  O10_10 
REMARK    2  A    between atoms: C4_4  and  C8_8 
REMARK    3  A    between atoms: C4_4  and  C9_9 
ROOT
HETATM    1  C1  UNL     1     -35.189  16.830  -1.446  1.00 20.00     0.037 C 
HETATM    2  C2  UNL     1     -33.782  16.871  -2.092  1.00 20.00    -0.005 C 
HETATM    3  C3  UNL     1     -35.804  17.070  -2.841  1.00 20.00     0.127 C 
HETATM    4  C4  UNL     1     -34.469  16.551  -3.470  1.00 20.00    -0.012 C 
HETATM    5  C5  UNL     1     -33.043  18.190  -1.909  1.00 20.00     0.011 C 
ENDROOT
BRANCH   4   6
HETATM    6  C8  UNL     1     -34.013  17.366  -4.678  1.00 20.00     0.008 C 
HETATM    7  C6  UNL     1     -34.927  17.182  -5.845  1.00 20.00     0.006 C 
ENDBRANCH   4   6
BRANCH   4   8
HETATM    8  C9  UNL     1     -34.447  15.053  -3.798  1.00 20.00     0.008 C 
HETATM    9  C7  UNL     1     -33.131  14.639  -4.365  1.00 20.00     0.006 C 
ENDBRANCH   4   8
BRANCH   3  10
HETATM   10  O10 UNL     1     -36.997  16.324  -3.142  1.00 20.00    -0.395 OA
HETATM   11  H28 UNL     1     -36.696  15.450  -3.422  1.00 20.00     0.210 HD
ENDBRANCH   3  10
TORSDOF 3
ENDMDL
MODEL 2
REMARK VINA RESULT:      -3.8      2.383      3.330
REMARK  3 active torsions:
REMARK  status: ('A' for Active; 'I' for Inactive)
REMARK    1  A    between atoms: C3_3  and  O10_10 
REMARK    2  A    between atoms: C4_4  and  C8_8 
REMARK    3  A    between atoms: C4_4  and  C9_9 
ROOT
HETATM    1  C1  UNL     1     -33.945  14.021  -4.014  1.00 20.00     0.037 C 
HETATM    2  C2  UNL     1     -33.671  15.306  -4.834  1.00 20.00    -0.005 C 
HETATM    3  C3  UNL     1     -35.386  14.011  -4.566  1.00 20.00     0.127 C 
HETATM    4  C4  UNL     1     -34.894  14.918  -5.742  1.00 20.00    -0.012 C 
HETATM    5  C5  UNL     1     -33.718  16.593  -4.021  1.00 20.00     0.011 C 
ENDROOT
BRANCH   4   6
HETATM    6  C8  UNL     1     -35.876  16.031  -6.098  1.00 20.00     0.008 C 
HETATM    7  C6  UNL     1     -36.979  15.535  -6.973  1.00 20.00     0.006 C 
ENDBRANCH   4   6
BRANCH   4   8
HETATM    8  C9  UNL     1     -34.464  14.162  -7.005  1.00 20.00     0.008 C 
HETATM    9  C7  UNL     1     -33.670  15.033  -7.918  1.00 20.00     0.006 C 
ENDBRANCH   4   8
BRANCH   3  10
HETATM   10  O10 UNL     1     -35.919  12.722  -4.918  1.00 20.00    -0.395 OA
HETATM   11  H28 UNL     1     -36.874  12.842  -4.986  1.00 20.00     0.210 HD
ENDBRANCH   3  10
TORSDOF 3
ENDMDL
MODEL 3
REMARK VINA RESULT:      -3.8      2.562      3.705
REMARK  3 active torsions:
REMARK  status: ('A' for Active; 'I' for Inactive)
REMARK    1  A    between atoms: C3_3  and  O10_10 
REMARK    2  A    between atoms: C4_4  and  C8_8 
REMARK    3  A    between atoms: C4_4  and  C9_9 
ROOT
HETATM    1  C1  UNL     1     -33.989  15.593  -3.443  1.00 20.00     0.037 C 
HETATM    2  C2  UNL     1     -35.023  16.125  -4.466  1.00 20.00    -0.005 C 
HETATM    3  C3  UNL     1     -33.841  14.318  -4.299  1.00 20.00     0.127 C 
HETATM    4  C4  UNL     1     -34.418  15.119  -5.512  1.00 20.00    -0.012 C 
HETATM    5  C5  UNL     1     -36.474  15.973  -4.032  1.00 20.00     0.011 C 
ENDROOT
BRANCH   4   6
HETATM    6  C8  UNL     1     -35.406  14.314  -6.354  1.00 20.00     0.008 C 
HETATM    7  C6  UNL     1     -34.706  13.367  -7.272  1.00 20.00     0.006 C 
ENDBRANCH   4   6
BRANCH   4   8
HETATM    8  C9  UNL     1     -33.365  15.779  -6.412  1.00 20.00     0.008 C 
HETATM    9  C7  UNL     1     -33.989  16.735  -7.371  1.00 20.00     0.006 C 
ENDBRANCH   4   8
BRANCH   3  10
HETATM   10  O10 UNL     1     -32.506  13.801  -4.437  1.00 20.00    -0.395 OA
HETATM   11  H28 UNL     1     -32.266  13.458  -3.567  1.00 20.00     0.210 HD
ENDBRANCH   3  10
TORSDOF 3
ENDMDL
MODEL 4
REMARK VINA RESULT:      -3.8      2.064      4.009
REMARK  3 active torsions:
REMARK  status: ('A' for Active; 'I' for Inactive)
REMARK    1  A    between atoms: C3_3  and  O10_10 
REMARK    2  A    between atoms: C4_4  and  C8_8 
REMARK    3  A    between atoms: C4_4  and  C9_9 
ROOT
HETATM    1  C1  UNL     1     -36.542  14.737  -6.442  1.00 20.00     0.037 C 
HETATM    2  C2  UNL     1     -35.658  15.974  -6.146  1.00 20.00    -0.005 C 
HETATM    3  C3  UNL     1     -35.437  13.840  -5.845  1.00 20.00     0.127 C 
HETATM    4  C4  UNL     1     -34.886  15.097  -5.094  1.00 20.00    -0.012 C 
HETATM    5  C5  UNL     1     -34.915  16.521  -7.357  1.00 20.00     0.011 C 
ENDROOT
BRANCH   4   6
HETATM    6  C8  UNL     1     -33.362  15.185  -5.101  1.00 20.00     0.008 C 
HETATM    7  C6  UNL     1     -32.744  14.130  -4.245  1.00 20.00     0.006 C 
ENDBRANCH   4   6
BRANCH   4   8
HETATM    8  C9  UNL     1     -35.425  15.288  -3.670  1.00 20.00     0.008 C 
HETATM    9  C7  UNL     1     -34.726  16.403  -2.969  1.00 20.00     0.006 C 
ENDBRANCH   4   8
BRANCH   3  10
HETATM   10  O10 UNL     1     -35.886  12.742  -5.032  1.00 20.00    -0.395 OA
HETATM   11  H28 UNL     1     -36.014  13.105  -4.146  1.00 20.00     0.210 HD
ENDBRANCH   3  10
TORSDOF 3
ENDMDL
MODEL 5
REMARK VINA RESULT:      -3.8      2.809      3.787
REMARK  3 active torsions:
REMARK  status: ('A' for Active; 'I' for Inactive)
REMARK    1  A    between atoms: C3_3  and  O10_10 
REMARK    2  A    between atoms: C4_4  and  C8_8 
REMARK    3  A    between atoms: C4_4  and  C9_9 
ROOT
HETATM    1  C1  UNL     1     -37.273  14.725  -4.973  1.00 20.00     0.037 C 
HETATM    2  C2  UNL     1     -36.369  15.941  -5.298  1.00 20.00    -0.005 C 
HETATM    3  C3  UNL     1     -36.223  13.806  -5.633  1.00 20.00     0.127 C 
HETATM    4  C4  UNL     1     -35.164  14.938  -5.422  1.00 20.00    -0.012 C 
HETATM    5  C5  UNL     1     -36.806  16.742  -6.517  1.00 20.00     0.011 C 
ENDROOT
BRANCH   4   6
HETATM    6  C8  UNL     1     -34.229  15.120  -6.615  1.00 20.00     0.008 C 
HETATM    7  C6  UNL     1     -34.314  13.970  -7.564  1.00 20.00     0.006 C 
ENDBRANCH   4   6
BRANCH   4   8
HETATM    8  C9  UNL     1     -34.357  14.835  -4.122  1.00 20.00     0.008 C 
HETATM    9  C7  UNL     1     -32.894  14.745  -4.395  1.00 20.00     0.006 C 
ENDBRANCH   4   8
BRANCH   3  10
HETATM   10  O10 UNL     1     -35.976  12.553  -4.970  1.00 20.00    -0.395 OA
HETATM   11  H28 UNL     1     -36.090  11.872  -5.645  1.00 20.00     0.210 HD
ENDBRANCH   3  10
TORSDOF 3
ENDMDL
MODEL 6
REMARK VINA RESULT:      -3.7      2.483      3.908
REMARK  3 active torsions:
REMARK  status: ('A' for Active; 'I' for Inactive)
REMARK    1  A    between atoms: C3_3  and  O10_10 
REMARK    2  A    between atoms: C4_4  and  C8_8 
REMARK    3  A    between atoms: C4_4  and  C9_9 
ROOT
HETATM    1  C1  UNL     1     -36.025  13.397  -5.273  1.00 20.00     0.037 C 
HETATM    2  C2  UNL     1     -36.665  14.681  -4.688  1.00 20.00    -0.005 C 
HETATM    3  C3  UNL     1     -34.923  14.270  -5.908  1.00 20.00     0.127 C 
HETATM    4  C4  UNL     1     -35.271  15.387  -4.869  1.00 20.00    -0.012 C 
HETATM    5  C5  UNL     1     -37.871  15.193  -5.463  1.00 20.00     0.011 C 
ENDROOT
BRANCH   4   6
HETATM    6  C8  UNL     1     -35.276  16.790  -5.471  1.00 20.00     0.008 C 
HETATM    7  C6  UNL     1     -33.894  17.268  -5.771  1.00 20.00     0.006 C 
ENDBRANCH   4   6
BRANCH   4   8
HETATM    8  C9  UNL     1     -34.434  15.360  -3.584  1.00 20.00     0.008 C 
HETATM    9  C7  UNL     1     -34.925  16.360  -2.593  1.00 20.00     0.006 C 
ENDBRANCH   4   8
BRANCH   3  10
HETATM   10  O10 UNL     1     -33.588  13.734  -5.862  1.00 20.00    -0.395 OA
HETATM   11  H28 UNL     1     -33.111  14.273  -5.218  1.00 20.00     0.210 HD
ENDBRANCH   3  10
TORSDOF 3
ENDMDL
MODEL 7
REMARK VINA RESULT:      -3.7      1.733      3.492
REMARK  3 active torsions:
REMARK  status: ('A' for Active; 'I' for Inactive)
REMARK    1  A    between atoms: C3_3  and  O10_10 
REMARK    2  A    between atoms: C4_4  and  C8_8 
REMARK    3  A    between atoms: C4_4  and  C9_9 
ROOT
HETATM    1  C1  UNL     1     -33.070  15.403  -4.974  1.00 20.00     0.037 C 
HETATM    2  C2  UNL     1     -34.125  14.872  -3.972  1.00 20.00    -0.005 C 
HETATM    3  C3  UNL     1     -33.868  16.720  -5.072  1.00 20.00     0.127 C 
HETATM    4  C4  UNL     1     -34.534  16.366  -3.702  1.00 20.00    -0.012 C 
HETATM    5  C5  UNL     1     -35.141  13.913  -4.577  1.00 20.00     0.011 C 
ENDROOT
BRANCH   4   6
HETATM    6  C8  UNL     1     -36.028  16.679  -3.658  1.00 20.00     0.008 C 
HETATM    7  C6  UNL     1     -36.308  18.090  -4.061  1.00 20.00     0.006 C 
ENDBRANCH   4   6
BRANCH   4   8
HETATM    8  C9  UNL     1     -33.830  16.949  -2.470  1.00 20.00     0.008 C 
HETATM    9  C7  UNL     1     -34.744  16.997  -1.293  1.00 20.00     0.006 C 
ENDBRANCH   4   8
BRANCH   3  10
HETATM   10  O10 UNL     1     -33.089  17.928  -5.123  1.00 20.00    -0.395 OA
HETATM   11  H28 UNL     1     -33.728  18.652  -5.138  1.00 20.00     0.210 HD
ENDBRANCH   3  10
TORSDOF 3
ENDMDL
MODEL 8
REMARK VINA RESULT:      -3.7      2.165      3.451
REMARK  3 active torsions:
REMARK  status: ('A' for Active; 'I' for Inactive)
REMARK    1  A    between atoms: C3_3  and  O10_10 
REMARK    2  A    between atoms: C4_4  and  C8_8 
REMARK    3  A    between atoms: C4_4  and  C9_9 
ROOT
HETATM    1  C1  UNL     1     -33.681  14.414  -4.420  1.00 20.00     0.037 C 
HETATM    2  C2  UNL     1     -34.223  15.851  -4.217  1.00 20.00    -0.005 C 
HETATM    3  C3  UNL     1     -35.135  13.896  -4.411  1.00 20.00     0.127 C 
HETATM    4  C4  UNL     1     -35.606  15.345  -4.767  1.00 20.00    -0.012 C 
HETATM    5  C5  UNL     1     -34.128  16.363  -2.786  1.00 20.00     0.011 C 
ENDROOT
BRANCH   4   6
HETATM    6  C8  UNL     1     -36.857  15.777  -4.006  1.00 20.00     0.008 C 
HETATM    7  C6  UNL     1     -38.083  15.105  -4.532  1.00 20.00     0.006 C 
ENDBRANCH   4   6
BRANCH   4   8
HETATM    8  C9  UNL     1     -35.772  15.621  -6.267  1.00 20.00     0.008 C 
HETATM    9  C7  UNL     1     -36.064  17.060  -6.527  1.00 20.00     0.006 C 
ENDBRANCH   4   8
BRANCH   3  10
HETATM   10  O10 UNL     1     -35.442  12.861  -5.362  1.00 20.00    -0.395 OA
HETATM   11  H28 UNL     1     -36.382  12.958  -5.562  1.00 20.00     0.210 HD
ENDBRANCH   3  10
TORSDOF 3
ENDMDL
MODEL 9
REMARK VINA RESULT:      -3.6      2.004      3.791
REMARK  3 active torsions:
REMARK  status: ('A' for Active; 'I' for Inactive)
REMARK    1  A    between atoms: C3_3  and  O10_10 
REMARK    2  A    between atoms: C4_4  and  C8_8 
REMARK    3  A    between atoms: C4_4  and  C9_9 
ROOT
HETATM    1  C1  UNL     1     -33.737  15.179  -6.432  1.00 20.00     0.037 C 
HETATM    2  C2  UNL     1     -34.539  16.426  -5.983  1.00 20.00    -0.005 C 
HETATM    3  C3  UNL     1     -32.934  15.258  -5.116  1.00 20.00     0.127 C 
HETATM    4  C4  UNL     1     -34.100  16.105  -4.508  1.00 20.00    -0.012 C 
HETATM    5  C5  UNL     1     -34.093  17.729  -6.632  1.00 20.00     0.011 C 
ENDROOT
BRANCH   4   6
HETATM    6  C8  UNL     1     -33.615  17.276  -3.657  1.00 20.00     0.008 C 
HETATM    7  C6  UNL     1     -33.619  16.941  -2.201  1.00 20.00     0.006 C 
ENDBRANCH   4   6
BRANCH   4   8
HETATM    8  C9  UNL     1     -35.159  15.296  -3.748  1.00 20.00     0.008 C 
HETATM    9  C7  UNL     1     -36.482  15.982  -3.763  1.00 20.00     0.006 C 
ENDBRANCH   4   8
BRANCH   3  10
HETATM   10  O10 UNL     1     -32.641  14.002  -4.479  1.00 20.00    -0.395 OA
HETATM   11  H28 UNL     1     -32.907  14.107  -3.557  1.00 20.00     0.210 HD
ENDBRANCH   3  10
TORSDOF 3
ENDMDL
