MODEL 1
REMARK VINA RESULT:      -4.0      0.000      0.000
REMARK  1 active torsions:
REMARK  status: ('A' for Active; 'I' for Inactive)
REMARK    1  A    between atoms: C3_3  and  O10_10 
ROOT
HETATM    1  C1  UNL     1     -35.545  13.805  -5.558  1.00 20.00     0.143 C 
HETATM    2  C2  UNL     1     -35.364  14.473  -6.933  1.00 20.00     0.082 C 
HETATM    3  C3  UNL     1     -35.056  15.805  -6.180  1.00 20.00     0.146 C 
HETATM    4  C4  UNL     1     -35.093  15.076  -4.790  1.00 20.00     0.040 C 
HETATM    5  C5  UNL     1     -34.274  13.869  -7.798  1.00 20.00     0.020 C 
HETATM    6  C6  UNL     1     -33.748  14.900  -4.086  1.00 20.00     0.026 C 
HETATM    7  C7  UNL     1     -36.155  15.625  -3.840  1.00 20.00     0.026 C 
HETATM    8  O9  UNL     1     -35.898  12.697  -5.213  1.00 20.00    -0.297 OA
ENDROOT
BRANCH   3   9
HETATM    9  O10 UNL     1     -33.822  16.464  -6.530  1.00 20.00    -0.389 OA
HETATM   10  C8  UNL     1     -34.061  17.803  -6.914  1.00 20.00     0.202 C 
ENDBRANCH   3   9
TORSDOF 1
ENDMDL
MODEL 2
REMARK VINA RESULT:      -3.8      1.866      3.134
REMARK  1 active torsions:
REMARK  status: ('A' for Active; 'I' for Inactive)
REMARK    1  A    between atoms: C3_3  and  O10_10 
ROOT
HETATM    1  C1  UNL     1     -33.490  14.438  -4.635  1.00 20.00     0.143 C 
HETATM    2  C2  UNL     1     -33.682  15.942  -4.373  1.00 20.00     0.082 C 
HETATM    3  C3  UNL     1     -34.786  15.933  -5.477  1.00 20.00     0.146 C 
HETATM    4  C4  UNL     1     -34.685  14.373  -5.623  1.00 20.00     0.040 C 
HETATM    5  C5  UNL     1     -34.089  16.297  -2.955  1.00 20.00     0.020 C 
HETATM    6  C6  UNL     1     -35.864  13.568  -5.080  1.00 20.00     0.026 C 
HETATM    7  C7  UNL     1     -34.293  13.915  -7.026  1.00 20.00     0.026 C 
HETATM    8  O9  UNL     1     -32.703  13.615  -4.214  1.00 20.00    -0.297 OA
ENDROOT
BRANCH   3   9
HETATM    9  O10 UNL     1     -36.072  16.462  -5.096  1.00 20.00    -0.389 OA
HETATM   10  C8  UNL     1     -36.519  17.417  -6.038  1.00 20.00     0.202 C 
ENDBRANCH   3   9
TORSDOF 1
ENDMDL
MODEL 3
REMARK VINA RESULT:      -3.8      1.901      2.649
REMARK  1 active torsions:
REMARK  status: ('A' for Active; 'I' for Inactive)
REMARK    1  A    between atoms: C3_3  and  O10_10 
ROOT
HETATM    1  C1  UNL     1     -33.848  14.375  -4.324  1.00 20.00     0.143 C 
HETATM    2  C2  UNL     1     -35.324  14.041  -4.605  1.00 20.00     0.082 C 
HETATM    3  C3  UNL     1     -35.657  15.538  -4.316  1.00 20.00     0.146 C 
HETATM    4  C4  UNL     1     -34.134  15.893  -4.183  1.00 20.00     0.040 C 
HETATM    5  C5  UNL     1     -35.602  13.499  -5.995  1.00 20.00     0.020 C 
HETATM    6  C6  UNL     1     -33.534  16.721  -5.319  1.00 20.00     0.026 C 
HETATM    7  C7  UNL     1     -33.756  16.462  -2.817  1.00 20.00     0.026 C 
HETATM    8  O9  UNL     1     -32.842  13.700  -4.252  1.00 20.00    -0.297 OA
ENDROOT
BRANCH   3   9
HETATM    9  O10 UNL     1     -36.395  16.235  -5.339  1.00 20.00    -0.389 OA
HETATM   10  C8  UNL     1     -37.493  16.928  -4.781  1.00 20.00     0.202 C 
ENDBRANCH   3   9
TORSDOF 1
ENDMDL
MODEL 4
REMARK VINA RESULT:      -3.8      1.554      2.422
REMARK  1 active torsions:
REMARK  status: ('A' for Active; 'I' for Inactive)
REMARK    1  A    between atoms: C3_3  and  O10_10 
ROOT
HETATM    1  C1  UNL     1     -35.744  13.767  -5.094  1.00 20.00     0.143 C 
HETATM    2  C2  UNL     1     -36.743  14.853  -4.654  1.00 20.00     0.082 C 
HETATM    3  C3  UNL     1     -35.557  15.866  -4.665  1.00 20.00     0.146 C 
HETATM    4  C4  UNL     1     -34.585  14.785  -5.260  1.00 20.00     0.040 C 
HETATM    5  C5  UNL     1     -37.895  15.086  -5.613  1.00 20.00     0.020 C 
HETATM    6  C6  UNL     1     -34.169  14.983  -6.717  1.00 20.00     0.026 C 
HETATM    7  C7  UNL     1     -33.380  14.490  -4.369  1.00 20.00     0.026 C 
HETATM    8  O9  UNL     1     -35.838  12.568  -5.258  1.00 20.00    -0.297 OA
ENDROOT
BRANCH   3   9
HETATM    9  O10 UNL     1     -35.747  17.061  -5.448  1.00 20.00    -0.389 OA
HETATM   10  C8  UNL     1     -35.445  18.213  -4.686  1.00 20.00     0.202 C 
ENDBRANCH   3   9
TORSDOF 1
ENDMDL
MODEL 5
REMARK VINA RESULT:      -3.7      0.719      2.795
REMARK  1 active torsions:
REMARK  status: ('A' for Active; 'I' for Inactive)
REMARK    1  A    between atoms: C3_3  and  O10_10 
ROOT
HETATM    1  C1  UNL     1     -35.537  13.785  -5.505  1.00 20.00     0.143 C 
HETATM    2  C2  UNL     1     -35.110  15.010  -4.676  1.00 20.00     0.082 C 
HETATM    3  C3  UNL     1     -34.721  15.708  -6.016  1.00 20.00     0.146 C 
HETATM    4  C4  UNL     1     -35.302  14.514  -6.854  1.00 20.00     0.040 C 
HETATM    5  C5  UNL     1     -36.212  15.629  -3.838  1.00 20.00     0.020 C 
HETATM    6  C6  UNL     1     -36.597  14.794  -7.615  1.00 20.00     0.026 C 
HETATM    7  C7  UNL     1     -34.266  13.832  -7.745  1.00 20.00     0.026 C 
HETATM    8  O9  UNL     1     -35.923  12.674  -5.208  1.00 20.00    -0.297 OA
ENDROOT
BRANCH   3   9
HETATM    9  O10 UNL     1     -35.304  17.005  -6.252  1.00 20.00    -0.389 OA
HETATM   10  C8  UNL     1     -34.305  17.954  -6.566  1.00 20.00     0.202 C 
ENDBRANCH   3   9
TORSDOF 1
ENDMDL
MODEL 6
REMARK VINA RESULT:      -3.7      1.247      2.068
REMARK  1 active torsions:
REMARK  status: ('A' for Active; 'I' for Inactive)
REMARK    1  A    between atoms: C3_3  and  O10_10 
ROOT
HETATM    1  C1  UNL     1     -35.562  13.788  -5.390  1.00 20.00     0.143 C 
HETATM    2  C2  UNL     1     -34.213  14.499  -5.605  1.00 20.00     0.082 C 
HETATM    3  C3  UNL     1     -35.013  15.815  -5.856  1.00 20.00     0.146 C 
HETATM    4  C4  UNL     1     -36.367  15.112  -5.484  1.00 20.00     0.040 C 
HETATM    5  C5  UNL     1     -33.269  14.448  -4.419  1.00 20.00     0.020 C 
HETATM    6  C6  UNL     1     -36.995  15.523  -4.153  1.00 20.00     0.026 C 
HETATM    7  C7  UNL     1     -37.393  15.124  -6.615  1.00 20.00     0.026 C 
HETATM    8  O9  UNL     1     -35.871  12.629  -5.205  1.00 20.00    -0.297 OA
ENDROOT
BRANCH   3   9
HETATM    9  O10 UNL     1     -34.636  16.952  -5.054  1.00 20.00    -0.389 OA
HETATM   10  C8  UNL     1     -34.277  18.046  -5.874  1.00 20.00     0.202 C 
ENDBRANCH   3   9
TORSDOF 1
ENDMDL
MODEL 7
REMARK VINA RESULT:      -3.6      1.903      3.200
REMARK  1 active torsions:
REMARK  status: ('A' for Active; 'I' for Inactive)
REMARK    1  A    between atoms: C3_3  and  O10_10 
ROOT
HETATM    1  C1  UNL     1     -34.820  14.349  -4.377  1.00 20.00     0.143 C 
HETATM    2  C2  UNL     1     -35.296  15.428  -3.388  1.00 20.00     0.082 C 
HETATM    3  C3  UNL     1     -33.870  16.055  -3.475  1.00 20.00     0.146 C 
HETATM    4  C4  UNL     1     -33.448  15.041  -4.597  1.00 20.00     0.040 C 
HETATM    5  C5  UNL     1     -36.475  16.256  -3.865  1.00 20.00     0.020 C 
HETATM    6  C6  UNL     1     -33.290  15.619  -6.002  1.00 20.00     0.026 C 
HETATM    7  C7  UNL     1     -32.255  14.168  -4.214  1.00 20.00     0.026 C 
HETATM    8  O9  UNL     1     -35.334  13.344  -4.822  1.00 20.00    -0.297 OA
ENDROOT
BRANCH   3   9
HETATM    9  O10 UNL     1     -33.809  17.455  -3.816  1.00 20.00    -0.389 OA
HETATM   10  C8  UNL     1     -33.223  18.200  -2.768  1.00 20.00     0.202 C 
ENDBRANCH   3   9
TORSDOF 1
ENDMDL
MODEL 8
REMARK VINA RESULT:      -3.5      1.818      3.150
REMARK  1 active torsions:
REMARK  status: ('A' for Active; 'I' for Inactive)
REMARK    1  A    between atoms: C3_3  and  O10_10 
ROOT
HETATM    1  C1  UNL     1     -35.256  15.519  -3.580  1.00 20.00     0.143 C 
HETATM    2  C2  UNL     1     -34.361  14.374  -4.087  1.00 20.00     0.082 C 
HETATM    3  C3  UNL     1     -35.377  14.175  -5.254  1.00 20.00     0.146 C 
HETATM    4  C4  UNL     1     -36.196  15.439  -4.812  1.00 20.00     0.040 C 
HETATM    5  C5  UNL     1     -32.941  14.780  -4.434  1.00 20.00     0.020 C 
HETATM    6  C6  UNL     1     -36.089  16.662  -5.723  1.00 20.00     0.026 C 
HETATM    7  C7  UNL     1     -37.648  15.133  -4.454  1.00 20.00     0.026 C 
HETATM    8  O9  UNL     1     -35.226  16.222  -2.592  1.00 20.00    -0.297 OA
ENDROOT
BRANCH   3   9
HETATM    9  O10 UNL     1     -34.829  14.195  -6.587  1.00 20.00    -0.389 OA
HETATM   10  C8  UNL     1     -35.189  13.025  -7.295  1.00 20.00     0.202 C 
ENDBRANCH   3   9
TORSDOF 1
ENDMDL
MODEL 9
REMARK VINA RESULT:      -3.5     11.721     13.291
REMARK  1 active torsions:
REMARK  status: ('A' for Active; 'I' for Inactive)
REMARK    1  A    between atoms: C3_3  and  O10_10 
ROOT
HETATM    1  C1  UNL     1     -34.093   5.538   4.873  1.00 20.00     0.143 C 
HETATM    2  C2  UNL     1     -33.206   6.734   5.263  1.00 20.00     0.082 C 
HETATM    3  C3  UNL     1     -32.861   6.896   3.749  1.00 20.00     0.146 C 
HETATM    4  C4  UNL     1     -33.886   5.775   3.354  1.00 20.00     0.040 C 
HETATM    5  C5  UNL     1     -33.933   7.870   5.958  1.00 20.00     0.020 C 
HETATM    6  C6  UNL     1     -35.156   6.243   2.645  1.00 20.00     0.026 C 
HETATM    7  C7  UNL     1     -33.248   4.589   2.633  1.00 20.00     0.026 C 
HETATM    8  O9  UNL     1     -34.724   4.727   5.519  1.00 20.00    -0.297 OA
ENDROOT
BRANCH   3   9
HETATM    9  O10 UNL     1     -33.083   8.202   3.181  1.00 20.00    -0.389 OA
HETATM   10  C8  UNL     1     -32.080   8.514   2.236  1.00 20.00     0.202 C 
ENDBRANCH   3   9
TORSDOF 1
ENDMDL
