MODEL 1
REMARK VINA RESULT:      -5.2      0.000      0.000
REMARK  0 active torsions:
REMARK  status: ('A' for Active; 'I' for Inactive)
ROOT
HETATM    1  C1  UNL     1     -33.163  14.831  -4.232  1.00 20.00     0.068 C 
HETATM    2  C2  UNL     1     -33.010  17.383  -2.156  1.00 20.00     0.010 A 
HETATM    3  C3  UNL     1     -33.367  17.864  -0.893  1.00 20.00     0.019 A 
HETATM    4  C4  UNL     1     -35.643  17.053  -1.177  1.00 20.00     0.026 A 
HETATM    5  C5  UNL     1     -33.980  16.749  -2.917  1.00 20.00    -0.034 A 
HETATM    6  C6  UNL     1     -35.285  16.591  -2.433  1.00 20.00    -0.049 A 
HETATM    7  C7  UNL     1     -34.673  17.698  -0.407  1.00 20.00     0.011 A 
HETATM    8  C8  UNL     1     -36.134  15.849  -3.415  1.00 20.00     0.041 C 
HETATM    9  C9  UNL     1     -35.308  16.009  -4.704  1.00 20.00     0.028 C 
HETATM   10  C10 UNL     1     -33.829  16.139  -4.281  1.00 20.00     0.126 C 
HETATM   11  N11 UNL     1     -32.636  13.797  -4.193  1.00 20.00    -0.197 NA
HETATM   12 BR12 UNL     1     -35.121  18.349   1.312  1.00 20.00    -0.051 Br
ENDROOT
TORSDOF 0
ENDMDL
MODEL 2
REMARK VINA RESULT:      -5.2      3.334      4.534
REMARK  0 active torsions:
REMARK  status: ('A' for Active; 'I' for Inactive)
ROOT
HETATM    1  C1  UNL     1     -33.285  18.224  -2.642  1.00 20.00     0.068 C 
HETATM    2  C2  UNL     1     -33.137  15.277  -4.105  1.00 20.00     0.010 A 
HETATM    3  C3  UNL     1     -33.623  14.483  -5.147  1.00 20.00     0.019 A 
HETATM    4  C4  UNL     1     -35.911  15.135  -4.639  1.00 20.00     0.026 A 
HETATM    5  C5  UNL     1     -34.049  15.985  -3.338  1.00 20.00    -0.034 A 
HETATM    6  C6  UNL     1     -35.422  15.910  -3.600  1.00 20.00    -0.049 A 
HETATM    7  C7  UNL     1     -34.999  14.414  -5.413  1.00 20.00     0.011 A 
HETATM    8  C8  UNL     1     -36.195  16.786  -2.666  1.00 20.00     0.041 C 
HETATM    9  C9  UNL     1     -35.165  17.008  -1.545  1.00 20.00     0.028 C 
HETATM   10  C10 UNL     1     -33.765  16.912  -2.189  1.00 20.00     0.126 C 
HETATM   11  N11 UNL     1     -32.906  19.261  -2.999  1.00 20.00    -0.197 NA
HETATM   12 BR12 UNL     1     -35.624  13.339  -6.838  1.00 20.00    -0.051 Br
ENDROOT
TORSDOF 0
ENDMDL
MODEL 3
REMARK VINA RESULT:      -5.2      2.051      2.882
REMARK  0 active torsions:
REMARK  status: ('A' for Active; 'I' for Inactive)
ROOT
HETATM    1  C1  UNL     1     -36.633  16.696  -3.880  1.00 20.00     0.068 C 
HETATM    2  C2  UNL     1     -35.569  17.132  -0.794  1.00 20.00     0.010 A 
HETATM    3  C3  UNL     1     -34.754  17.896   0.046  1.00 20.00     0.019 A 
HETATM    4  C4  UNL     1     -32.916  17.765  -1.543  1.00 20.00     0.026 A 
HETATM    5  C5  UNL     1     -35.042  16.689  -1.997  1.00 20.00    -0.034 A 
HETATM    6  C6  UNL     1     -33.727  16.999  -2.364  1.00 20.00    -0.049 A 
HETATM    7  C7  UNL     1     -33.439  18.211  -0.327  1.00 20.00     0.011 A 
HETATM    8  C8  UNL     1     -33.402  16.442  -3.714  1.00 20.00     0.041 C 
HETATM    9  C9  UNL     1     -34.511  15.388  -3.876  1.00 20.00     0.028 C 
HETATM   10  C10 UNL     1     -35.727  15.880  -3.062  1.00 20.00     0.126 C 
HETATM   11  N11 UNL     1     -37.349  17.341  -4.527  1.00 20.00    -0.197 NA
HETATM   12 BR12 UNL     1     -32.364  19.256   0.827  1.00 20.00    -0.051 Br
ENDROOT
TORSDOF 0
ENDMDL
MODEL 4
REMARK VINA RESULT:      -4.9      1.596      2.065
REMARK  0 active torsions:
REMARK  status: ('A' for Active; 'I' for Inactive)
ROOT
HETATM    1  C1  UNL     1     -35.757  13.940  -5.287  1.00 20.00     0.068 C 
HETATM    2  C2  UNL     1     -33.890  16.082  -3.622  1.00 20.00     0.010 A 
HETATM    3  C3  UNL     1     -33.666  16.698  -2.388  1.00 20.00     0.019 A 
HETATM    4  C4  UNL     1     -36.039  17.175  -2.145  1.00 20.00     0.026 A 
HETATM    5  C5  UNL     1     -35.188  16.027  -4.104  1.00 20.00    -0.034 A 
HETATM    6  C6  UNL     1     -36.251  16.574  -3.374  1.00 20.00    -0.049 A 
HETATM    7  C7  UNL     1     -34.733  17.239  -1.654  1.00 20.00     0.011 A 
HETATM    8  C8  UNL     1     -37.552  16.361  -4.081  1.00 20.00     0.041 C 
HETATM    9  C9  UNL     1     -37.068  16.049  -5.508  1.00 20.00     0.028 C 
HETATM   10  C10 UNL     1     -35.672  15.403  -5.382  1.00 20.00     0.126 C 
HETATM   11  N11 UNL     1     -35.825  12.784  -5.212  1.00 20.00    -0.197 NA
HETATM   12 BR12 UNL     1     -34.399  18.057   0.018  1.00 20.00    -0.051 Br
ENDROOT
TORSDOF 0
ENDMDL
MODEL 5
REMARK VINA RESULT:      -4.7      2.250      3.195
REMARK  0 active torsions:
REMARK  status: ('A' for Active; 'I' for Inactive)
ROOT
HETATM    1  C1  UNL     1     -35.427  13.354  -6.780  1.00 20.00     0.068 C 
HETATM    2  C2  UNL     1     -33.898  16.005  -5.563  1.00 20.00     0.010 A 
HETATM    3  C3  UNL     1     -33.410  16.625  -4.410  1.00 20.00     0.019 A 
HETATM    4  C4  UNL     1     -35.474  16.135  -3.219  1.00 20.00     0.026 A 
HETATM    5  C5  UNL     1     -35.173  15.463  -5.530  1.00 20.00    -0.034 A 
HETATM    6  C6  UNL     1     -35.955  15.533  -4.370  1.00 20.00    -0.049 A 
HETATM    7  C7  UNL     1     -34.192  16.688  -3.246  1.00 20.00     0.011 A 
HETATM    8  C8  UNL     1     -37.271  14.851  -4.569  1.00 20.00     0.041 C 
HETATM    9  C9  UNL     1     -37.347  14.792  -6.104  1.00 20.00     0.028 C 
HETATM   10  C10 UNL     1     -35.896  14.737  -6.628  1.00 20.00     0.126 C 
HETATM   11  N11 UNL     1     -35.056  12.261  -6.900  1.00 20.00    -0.197 NA
HETATM   12 BR12 UNL     1     -33.499  17.524  -1.698  1.00 20.00    -0.051 Br
ENDROOT
TORSDOF 0
ENDMDL
MODEL 6
REMARK VINA RESULT:      -4.6     11.563     12.214
REMARK  0 active torsions:
REMARK  status: ('A' for Active; 'I' for Inactive)
ROOT
HETATM    1  C1  UNL     1     -34.297   4.257   4.667  1.00 20.00     0.068 C 
HETATM    2  C2  UNL     1     -34.329   6.411   2.175  1.00 20.00     0.010 A 
HETATM    3  C3  UNL     1     -33.560   7.273   1.388  1.00 20.00     0.019 A 
HETATM    4  C4  UNL     1     -32.472   8.181   3.365  1.00 20.00     0.026 A 
HETATM    5  C5  UNL     1     -34.162   6.451   3.550  1.00 20.00    -0.034 A 
HETATM    6  C6  UNL     1     -33.247   7.333   4.139  1.00 20.00    -0.049 A 
HETATM    7  C7  UNL     1     -32.638   8.150   1.979  1.00 20.00     0.011 A 
HETATM    8  C8  UNL     1     -33.223   7.166   5.625  1.00 20.00     0.041 C 
HETATM    9  C9  UNL     1     -34.552   6.429   5.864  1.00 20.00     0.028 C 
HETATM   10  C10 UNL     1     -34.854   5.614   4.588  1.00 20.00     0.126 C 
HETATM   11  N11 UNL     1     -33.857   3.185   4.729  1.00 20.00    -0.197 NA
HETATM   12 BR12 UNL     1     -31.604   9.297   0.886  1.00 20.00    -0.051 Br
ENDROOT
TORSDOF 0
ENDMDL
MODEL 7
REMARK VINA RESULT:      -4.5      3.363      5.212
REMARK  0 active torsions:
REMARK  status: ('A' for Active; 'I' for Inactive)
ROOT
HETATM    1  C1  UNL     1     -33.461  18.363   2.391  1.00 20.00     0.068 C 
HETATM    2  C2  UNL     1     -35.533  18.216  -0.165  1.00 20.00     0.010 A 
HETATM    3  C3  UNL     1     -35.964  17.456  -1.256  1.00 20.00     0.019 A 
HETATM    4  C4  UNL     1     -33.664  17.020  -1.919  1.00 20.00     0.026 A 
HETATM    5  C5  UNL     1     -34.170  18.373   0.030  1.00 20.00    -0.034 A 
HETATM    6  C6  UNL     1     -33.246  17.785  -0.843  1.00 20.00    -0.049 A 
HETATM    7  C7  UNL     1     -35.036  16.862  -2.125  1.00 20.00     0.011 A 
HETATM    8  C8  UNL     1     -31.843  18.067  -0.407  1.00 20.00     0.041 C 
HETATM    9  C9  UNL     1     -32.059  19.263   0.536  1.00 20.00     0.028 C 
HETATM   10  C10 UNL     1     -33.476  19.120   1.132  1.00 20.00     0.126 C 
HETATM   11  N11 UNL     1     -33.449  17.765   3.385  1.00 20.00    -0.197 NA
HETATM   12 BR12 UNL     1     -35.651  15.829  -3.586  1.00 20.00    -0.051 Br
ENDROOT
TORSDOF 0
ENDMDL
MODEL 8
REMARK VINA RESULT:      -4.5      3.362      4.565
REMARK  0 active torsions:
REMARK  status: ('A' for Active; 'I' for Inactive)
ROOT
HETATM    1  C1  UNL     1     -33.162  17.801  -1.658  1.00 20.00     0.068 C 
HETATM    2  C2  UNL     1     -33.229  15.532  -4.045  1.00 20.00     0.010 A 
HETATM    3  C3  UNL     1     -33.435  15.299  -5.407  1.00 20.00     0.019 A 
HETATM    4  C4  UNL     1     -35.456  16.653  -5.379  1.00 20.00     0.026 A 
HETATM    5  C5  UNL     1     -34.145  16.319  -3.365  1.00 20.00    -0.034 A 
HETATM    6  C6  UNL     1     -35.251  16.869  -4.026  1.00 20.00    -0.049 A 
HETATM    7  C7  UNL     1     -34.539  15.857  -6.069  1.00 20.00     0.011 A 
HETATM    8  C8  UNL     1     -36.070  17.704  -3.095  1.00 20.00     0.041 C 
HETATM    9  C9  UNL     1     -35.579  17.196  -1.728  1.00 20.00     0.028 C 
HETATM   10  C10 UNL     1     -34.123  16.721  -1.918  1.00 20.00     0.126 C 
HETATM   11  N11 UNL     1     -32.403  18.655  -1.454  1.00 20.00    -0.197 NA
HETATM   12 BR12 UNL     1     -34.784  15.533  -7.916  1.00 20.00    -0.051 Br
ENDROOT
TORSDOF 0
ENDMDL
MODEL 9
REMARK VINA RESULT:      -4.4      2.947      3.996
REMARK  0 active torsions:
REMARK  status: ('A' for Active; 'I' for Inactive)
ROOT
HETATM    1  C1  UNL     1     -37.003  13.944  -5.272  1.00 20.00     0.068 C 
HETATM    2  C2  UNL     1     -34.785  15.587  -3.475  1.00 20.00     0.010 A 
HETATM    3  C3  UNL     1     -34.172  16.822  -3.251  1.00 20.00     0.019 A 
HETATM    4  C4  UNL     1     -33.822  17.133  -5.638  1.00 20.00     0.026 A 
HETATM    5  C5  UNL     1     -34.903  15.138  -4.781  1.00 20.00    -0.034 A 
HETATM    6  C6  UNL     1     -34.420  15.902  -5.851  1.00 20.00    -0.049 A 
HETATM    7  C7  UNL     1     -33.695  17.590  -4.325  1.00 20.00     0.011 A 
HETATM    8  C8  UNL     1     -34.693  15.226  -7.157  1.00 20.00     0.041 C 
HETATM    9  C9  UNL     1     -34.963  13.784  -6.696  1.00 20.00     0.028 C 
HETATM   10  C10 UNL     1     -35.536  13.865  -5.265  1.00 20.00     0.126 C 
HETATM   11  N11 UNL     1     -38.162  14.007  -5.278  1.00 20.00    -0.197 NA
HETATM   12 BR12 UNL     1     -32.880  19.263  -3.989  1.00 20.00    -0.051 Br
ENDROOT
TORSDOF 0
ENDMDL
