MODEL 1
REMARK VINA RESULT:      -4.9      0.000      0.000
REMARK  1 active torsions:
REMARK  status: ('A' for Active; 'I' for Inactive)
REMARK    1  A    between atoms: C1_1  and  C5_5 
ROOT
HETATM    1  C1  UNL     1     -33.942   6.553   3.546  1.00 20.00    -0.089 C 
HETATM    2  C2  UNL     1     -33.169   7.288   2.998  1.00 20.00    -0.023 C 
HETATM    3 BR6  UNL     1     -31.943   8.453   2.129  1.00 20.00     0.010 Br
ENDROOT
BRANCH   1   4
HETATM    4  C5  UNL     1     -34.867   5.675   4.201  1.00 20.00     0.066 A 
HETATM    5  C3  UNL     1     -34.609   5.290   5.634  1.00 20.00     0.018 A 
HETATM    6  C4  UNL     1     -34.423   4.277   4.542  1.00 20.00     0.018 A 
ENDBRANCH   1   4
TORSDOF 1
ENDMDL
MODEL 2
REMARK VINA RESULT:      -4.4      2.874      4.947
REMARK  1 active torsions:
REMARK  status: ('A' for Active; 'I' for Inactive)
REMARK    1  A    between atoms: C1_1  and  C5_5 
ROOT
HETATM    1  C1  UNL     1     -32.711   8.108   2.209  1.00 20.00    -0.089 C 
HETATM    2  C2  UNL     1     -33.260   7.348   2.959  1.00 20.00    -0.023 C 
HETATM    3 BR6  UNL     1     -34.129   6.145   4.148  1.00 20.00     0.010 Br
ENDROOT
BRANCH   1   4
HETATM    4  C5  UNL     1     -32.057   9.015   1.313  1.00 20.00     0.066 A 
HETATM    5  C3  UNL     1     -32.634  10.393   1.127  1.00 20.00     0.018 A 
HETATM    6  C4  UNL     1     -32.742   9.381   0.024  1.00 20.00     0.018 A 
ENDBRANCH   1   4
TORSDOF 1
ENDMDL
MODEL 3
REMARK VINA RESULT:      -4.3      1.050      1.429
REMARK  1 active torsions:
REMARK  status: ('A' for Active; 'I' for Inactive)
REMARK    1  A    between atoms: C1_1  and  C5_5 
ROOT
HETATM    1  C1  UNL     1     -33.204   6.930   3.001  1.00 20.00    -0.089 C 
HETATM    2  C2  UNL     1     -32.783   7.808   2.299  1.00 20.00    -0.023 C 
HETATM    3 BR6  UNL     1     -32.118   9.198   1.186  1.00 20.00     0.010 Br
ENDROOT
BRANCH   1   4
HETATM    4  C5  UNL     1     -33.706   5.882   3.839  1.00 20.00     0.066 A 
HETATM    5  C3  UNL     1     -35.192   5.768   4.046  1.00 20.00     0.018 A 
HETATM    6  C4  UNL     1     -34.315   6.244   5.167  1.00 20.00     0.018 A 
ENDBRANCH   1   4
TORSDOF 1
ENDMDL
MODEL 4
REMARK VINA RESULT:      -2.9     12.326     12.885
REMARK  1 active torsions:
REMARK  status: ('A' for Active; 'I' for Inactive)
REMARK    1  A    between atoms: C1_1  and  C5_5 
ROOT
HETATM    1  C1  UNL     1     -32.911  18.444  -0.568  1.00 20.00    -0.089 C 
HETATM    2  C2  UNL     1     -32.141  18.705   0.316  1.00 20.00    -0.023 C 
HETATM    3 BR6  UNL     1     -30.923  19.120   1.715  1.00 20.00     0.010 Br
ENDROOT
BRANCH   1   4
HETATM    4  C5  UNL     1     -33.828  18.131  -1.623  1.00 20.00     0.066 A 
HETATM    5  C3  UNL     1     -34.814  17.011  -1.419  1.00 20.00     0.018 A 
HETATM    6  C4  UNL     1     -33.663  16.832  -2.366  1.00 20.00     0.018 A 
ENDBRANCH   1   4
TORSDOF 1
ENDMDL
MODEL 5
REMARK VINA RESULT:      -2.9     11.671     12.217
REMARK  1 active torsions:
REMARK  status: ('A' for Active; 'I' for Inactive)
REMARK    1  A    between atoms: C1_1  and  C5_5 
ROOT
HETATM    1  C1  UNL     1     -33.942  16.416  -3.006  1.00 20.00    -0.089 C 
HETATM    2  C2  UNL     1     -33.932  17.070  -2.000  1.00 20.00    -0.023 C 
HETATM    3 BR6  UNL     1     -33.917  18.106  -0.406  1.00 20.00     0.010 Br
ENDROOT
BRANCH   1   4
HETATM    4  C5  UNL     1     -33.952  15.635  -4.208  1.00 20.00     0.066 A 
HETATM    5  C3  UNL     1     -34.499  14.233  -4.157  1.00 20.00     0.018 A 
HETATM    6  C4  UNL     1     -33.023  14.456  -4.315  1.00 20.00     0.018 A 
ENDBRANCH   1   4
TORSDOF 1
ENDMDL
MODEL 6
REMARK VINA RESULT:      -2.9     12.065     12.657
REMARK  1 active torsions:
REMARK  status: ('A' for Active; 'I' for Inactive)
REMARK    1  A    between atoms: C1_1  and  C5_5 
ROOT
HETATM    1  C1  UNL     1     -33.674  16.584  -2.872  1.00 20.00    -0.089 C 
HETATM    2  C2  UNL     1     -33.388  17.336  -1.981  1.00 20.00    -0.023 C 
HETATM    3 BR6  UNL     1     -32.935  18.527  -0.570  1.00 20.00     0.010 Br
ENDROOT
BRANCH   1   4
HETATM    4  C5  UNL     1     -34.015  15.687  -3.936  1.00 20.00     0.066 A 
HETATM    5  C3  UNL     1     -33.043  14.597  -4.304  1.00 20.00     0.018 A 
HETATM    6  C4  UNL     1     -33.242  15.764  -5.226  1.00 20.00     0.018 A 
ENDBRANCH   1   4
TORSDOF 1
ENDMDL
MODEL 7
REMARK VINA RESULT:      -2.8     12.096     12.388
REMARK  1 active torsions:
REMARK  status: ('A' for Active; 'I' for Inactive)
REMARK    1  A    between atoms: C1_1  and  C5_5 
ROOT
HETATM    1  C1  UNL     1     -35.290  16.005  -3.467  1.00 20.00    -0.089 C 
HETATM    2  C2  UNL     1     -35.502  15.056  -4.171  1.00 20.00    -0.023 C 
HETATM    3 BR6  UNL     1     -35.838  13.553  -5.285  1.00 20.00     0.010 Br
ENDROOT
BRANCH   1   4
HETATM    4  C5  UNL     1     -35.037  17.139  -2.628  1.00 20.00     0.066 A 
HETATM    5  C3  UNL     1     -33.841  17.112  -1.713  1.00 20.00     0.018 A 
HETATM    6  C4  UNL     1     -35.224  16.997  -1.141  1.00 20.00     0.018 A 
ENDBRANCH   1   4
TORSDOF 1
ENDMDL
MODEL 8
REMARK VINA RESULT:      -2.8      9.830     10.409
REMARK  1 active torsions:
REMARK  status: ('A' for Active; 'I' for Inactive)
REMARK    1  A    between atoms: C1_1  and  C5_5 
ROOT
HETATM    1  C1  UNL     1     -42.753   5.601  -0.897  1.00 20.00    -0.089 C 
HETATM    2  C2  UNL     1     -43.011   4.613  -1.529  1.00 20.00    -0.023 C 
HETATM    3 BR6  UNL     1     -43.417   3.050  -2.531  1.00 20.00     0.010 Br
ENDROOT
BRANCH   1   4
HETATM    4  C5  UNL     1     -42.447   6.779  -0.142  1.00 20.00     0.066 A 
HETATM    5  C3  UNL     1     -41.656   7.878  -0.800  1.00 20.00     0.018 A 
HETATM    6  C4  UNL     1     -41.019   7.031   0.263  1.00 20.00     0.018 A 
ENDBRANCH   1   4
TORSDOF 1
ENDMDL
MODEL 9
REMARK VINA RESULT:      -2.7     12.271     12.768
REMARK  1 active torsions:
REMARK  status: ('A' for Active; 'I' for Inactive)
REMARK    1  A    between atoms: C1_1  and  C5_5 
ROOT
HETATM    1  C1  UNL     1     -33.740  16.689  -2.938  1.00 20.00    -0.089 C 
HETATM    2  C2  UNL     1     -33.577  16.329  -4.071  1.00 20.00    -0.023 C 
HETATM    3 BR6  UNL     1     -33.318  15.757  -5.865  1.00 20.00     0.010 Br
ENDROOT
BRANCH   1   4
HETATM    4  C5  UNL     1     -33.935  17.121  -1.585  1.00 20.00     0.066 A 
HETATM    5  C3  UNL     1     -35.321  17.064  -0.998  1.00 20.00     0.018 A 
HETATM    6  C4  UNL     1     -34.704  18.391  -1.332  1.00 20.00     0.018 A 
ENDBRANCH   1   4
TORSDOF 1
ENDMDL
