MODEL 1
REMARK VINA RESULT:      -4.4      0.000      0.000
REMARK  1 active torsions:
REMARK  status: ('A' for Active; 'I' for Inactive)
REMARK       I    between atoms: C1_1  and  N5_5 
REMARK    1  A    between atoms: C4_4  and  N5_5 
ROOT
HETATM    1  C1  UNL     1     -32.873   7.246   3.284  1.00 20.00     0.314 C 
HETATM    2  N5  UNL     1     -33.428   6.875   4.507  1.00 20.00    -0.343 N 
HETATM    3  O6  UNL     1     -33.313   6.859   2.203  1.00 20.00    -0.254 OA
HETATM    4 CL7  UNL     1     -31.502   8.310   3.469  1.00 20.00    -0.020 Cl
HETATM    5  H13 UNL     1     -33.003   7.242   5.362  1.00 20.00     0.164 HD
ENDROOT
BRANCH   2   6
HETATM    6  C4  UNL     1     -34.551   6.016   4.631  1.00 20.00     0.085 A 
HETATM    7  C2  UNL     1     -34.427   4.534   4.411  1.00 20.00     0.027 A 
HETATM    8  C3  UNL     1     -34.681   5.067   5.791  1.00 20.00     0.027 A 
ENDBRANCH   2   6
TORSDOF 1
ENDMDL
MODEL 2
REMARK VINA RESULT:      -4.3      2.686      3.844
REMARK  1 active torsions:
REMARK  status: ('A' for Active; 'I' for Inactive)
REMARK       I    between atoms: C1_1  and  N5_5 
REMARK    1  A    between atoms: C4_4  and  N5_5 
ROOT
HETATM    1  C1  UNL     1     -34.040   6.445   5.212  1.00 20.00     0.314 C 
HETATM    2  N5  UNL     1     -33.666   6.633   3.883  1.00 20.00    -0.343 N 
HETATM    3  O6  UNL     1     -33.948   7.325   6.066  1.00 20.00    -0.254 OA
HETATM    4 CL7  UNL     1     -34.646   4.837   5.513  1.00 20.00    -0.020 Cl
HETATM    5  H13 UNL     1     -33.775   5.850   3.234  1.00 20.00     0.164 HD
ENDROOT
BRANCH   2   6
HETATM    6  C4  UNL     1     -33.142   7.852   3.380  1.00 20.00     0.085 A 
HETATM    7  C2  UNL     1     -31.665   8.132   3.398  1.00 20.00     0.027 A 
HETATM    8  C3  UNL     1     -32.366   7.895   2.092  1.00 20.00     0.027 A 
ENDBRANCH   2   6
TORSDOF 1
ENDMDL
MODEL 3
REMARK VINA RESULT:      -4.3      1.951      2.159
REMARK  1 active torsions:
REMARK  status: ('A' for Active; 'I' for Inactive)
REMARK       I    between atoms: C1_1  and  N5_5 
REMARK    1  A    between atoms: C4_4  and  N5_5 
ROOT
HETATM    1  C1  UNL     1     -32.108   8.185   2.535  1.00 20.00     0.314 C 
HETATM    2  N5  UNL     1     -33.175   7.289   2.531  1.00 20.00    -0.343 N 
HETATM    3  O6  UNL     1     -31.285   8.245   3.447  1.00 20.00    -0.254 OA
HETATM    4 CL7  UNL     1     -32.081   9.195   1.112  1.00 20.00    -0.020 Cl
HETATM    5  H13 UNL     1     -33.815   7.303   1.734  1.00 20.00     0.164 HD
ENDROOT
BRANCH   2   6
HETATM    6  C4  UNL     1     -33.422   6.359   3.574  1.00 20.00     0.085 A 
HETATM    7  C2  UNL     1     -34.079   6.783   4.858  1.00 20.00     0.027 A 
HETATM    8  C3  UNL     1     -34.818   5.900   3.895  1.00 20.00     0.027 A 
ENDBRANCH   2   6
TORSDOF 1
ENDMDL
MODEL 4
REMARK VINA RESULT:      -4.2      3.082      4.675
REMARK  1 active torsions:
REMARK  status: ('A' for Active; 'I' for Inactive)
REMARK       I    between atoms: C1_1  and  N5_5 
REMARK    1  A    between atoms: C4_4  and  N5_5 
ROOT
HETATM    1  C1  UNL     1     -32.475   7.761   3.302  1.00 20.00     0.314 C 
HETATM    2  N5  UNL     1     -32.912   8.097   2.023  1.00 20.00    -0.343 N 
HETATM    3  O6  UNL     1     -31.439   8.205   3.796  1.00 20.00    -0.254 OA
HETATM    4 CL7  UNL     1     -33.557   6.654   4.108  1.00 20.00    -0.020 Cl
HETATM    5  H13 UNL     1     -33.786   7.685   1.687  1.00 20.00     0.164 HD
ENDROOT
BRANCH   2   6
HETATM    6  C4  UNL     1     -32.212   8.980   1.160  1.00 20.00     0.085 A 
HETATM    7  C2  UNL     1     -32.821   9.456  -0.129  1.00 20.00     0.027 A 
HETATM    8  C3  UNL     1     -32.630  10.417   1.009  1.00 20.00     0.027 A 
ENDBRANCH   2   6
TORSDOF 1
ENDMDL
MODEL 5
REMARK VINA RESULT:      -4.1      2.454      3.843
REMARK  1 active torsions:
REMARK  status: ('A' for Active; 'I' for Inactive)
REMARK       I    between atoms: C1_1  and  N5_5 
REMARK    1  A    between atoms: C4_4  and  N5_5 
ROOT
HETATM    1  C1  UNL     1     -33.816   5.623   3.382  1.00 20.00     0.314 C 
HETATM    2  N5  UNL     1     -33.459   6.966   3.281  1.00 20.00    -0.343 N 
HETATM    3  O6  UNL     1     -33.224   4.724   2.786  1.00 20.00    -0.254 OA
HETATM    4 CL7  UNL     1     -35.181   5.374   4.440  1.00 20.00    -0.020 Cl
HETATM    5  H13 UNL     1     -34.002   7.652   3.811  1.00 20.00     0.164 HD
ENDROOT
BRANCH   2   6
HETATM    6  C4  UNL     1     -32.382   7.434   2.484  1.00 20.00     0.085 A 
HETATM    7  C2  UNL     1     -32.427   8.788   1.831  1.00 20.00     0.027 A 
HETATM    8  C3  UNL     1     -31.477   8.535   2.965  1.00 20.00     0.027 A 
ENDBRANCH   2   6
TORSDOF 1
ENDMDL
MODEL 6
REMARK VINA RESULT:      -3.6      2.511      2.844
REMARK  1 active torsions:
REMARK  status: ('A' for Active; 'I' for Inactive)
REMARK       I    between atoms: C1_1  and  N5_5 
REMARK    1  A    between atoms: C4_4  and  N5_5 
ROOT
HETATM    1  C1  UNL     1     -33.735   4.661   3.430  1.00 20.00     0.314 C 
HETATM    2  N5  UNL     1     -33.690   6.042   3.607  1.00 20.00    -0.343 N 
HETATM    3  O6  UNL     1     -34.375   3.910   4.164  1.00 20.00    -0.254 OA
HETATM    4 CL7  UNL     1     -32.789   4.133   2.061  1.00 20.00    -0.020 Cl
HETATM    5  H13 UNL     1     -33.133   6.596   2.951  1.00 20.00     0.164 HD
ENDROOT
BRANCH   2   6
HETATM    6  C4  UNL     1     -34.373   6.722   4.648  1.00 20.00     0.085 A 
HETATM    7  C2  UNL     1     -34.370   6.196   6.057  1.00 20.00     0.027 A 
HETATM    8  C3  UNL     1     -33.621   7.455   5.726  1.00 20.00     0.027 A 
ENDBRANCH   2   6
TORSDOF 1
ENDMDL
MODEL 7
REMARK VINA RESULT:      -3.4     12.166     12.499
REMARK  1 active torsions:
REMARK  status: ('A' for Active; 'I' for Inactive)
REMARK       I    between atoms: C1_1  and  N5_5 
REMARK    1  A    between atoms: C4_4  and  N5_5 
ROOT
HETATM    1  C1  UNL     1     -36.402  13.866  -5.058  1.00 20.00     0.314 C 
HETATM    2  N5  UNL     1     -35.710  14.909  -4.447  1.00 20.00    -0.343 N 
HETATM    3  O6  UNL     1     -35.912  12.755  -5.250  1.00 20.00    -0.254 OA
HETATM    4 CL7  UNL     1     -38.026  14.319  -5.511  1.00 20.00    -0.020 Cl
HETATM    5  H13 UNL     1     -36.192  15.803  -4.325  1.00 20.00     0.164 HD
ENDROOT
BRANCH   2   6
HETATM    6  C4  UNL     1     -34.373  14.799  -3.986  1.00 20.00     0.085 A 
HETATM    7  C2  UNL     1     -33.223  15.340  -4.790  1.00 20.00     0.027 A 
HETATM    8  C3  UNL     1     -33.613  16.004  -3.502  1.00 20.00     0.027 A 
ENDBRANCH   2   6
TORSDOF 1
ENDMDL
MODEL 8
REMARK VINA RESULT:      -3.3     12.355     12.601
REMARK  1 active torsions:
REMARK  status: ('A' for Active; 'I' for Inactive)
REMARK       I    between atoms: C1_1  and  N5_5 
REMARK    1  A    between atoms: C4_4  and  N5_5 
ROOT
HETATM    1  C1  UNL     1     -35.527  13.566  -5.977  1.00 20.00     0.314 C 
HETATM    2  N5  UNL     1     -34.799  14.645  -5.482  1.00 20.00    -0.343 N 
HETATM    3  O6  UNL     1     -35.929  12.645  -5.268  1.00 20.00    -0.254 OA
HETATM    4 CL7  UNL     1     -35.797  13.676  -7.698  1.00 20.00    -0.020 Cl
HETATM    5  H13 UNL     1     -34.502  15.371  -6.139  1.00 20.00     0.164 HD
ENDROOT
BRANCH   2   6
HETATM    6  C4  UNL     1     -34.446  14.793  -4.116  1.00 20.00     0.085 A 
HETATM    7  C2  UNL     1     -33.589  15.938  -3.651  1.00 20.00     0.027 A 
HETATM    8  C3  UNL     1     -35.040  15.887  -3.271  1.00 20.00     0.027 A 
ENDBRANCH   2   6
TORSDOF 1
ENDMDL
MODEL 9
REMARK VINA RESULT:      -3.1     11.779     12.307
REMARK  1 active torsions:
REMARK  status: ('A' for Active; 'I' for Inactive)
REMARK       I    between atoms: C1_1  and  N5_5 
REMARK    1  A    between atoms: C4_4  and  N5_5 
ROOT
HETATM    1  C1  UNL     1     -34.779  14.273  -4.275  1.00 20.00     0.314 C 
HETATM    2  N5  UNL     1     -34.896  15.554  -3.741  1.00 20.00    -0.343 N 
HETATM    3  O6  UNL     1     -33.757  13.595  -4.176  1.00 20.00    -0.254 OA
HETATM    4 CL7  UNL     1     -36.233  13.753  -5.087  1.00 20.00    -0.020 Cl
HETATM    5  H13 UNL     1     -35.782  16.051  -3.867  1.00 20.00     0.164 HD
ENDROOT
BRANCH   2   6
HETATM    6  C4  UNL     1     -33.855  16.208  -3.033  1.00 20.00     0.085 A 
HETATM    7  C2  UNL     1     -33.721  17.705  -3.050  1.00 20.00     0.027 A 
HETATM    8  C3  UNL     1     -34.139  17.005  -1.789  1.00 20.00     0.027 A 
ENDBRANCH   2   6
TORSDOF 1
ENDMDL
