MODEL 1
REMARK VINA RESULT:      -3.9      0.000      0.000
REMARK  0 active torsions:
REMARK  status: ('A' for Active; 'I' for Inactive)
ROOT
HETATM    1  C1  UNL     1     -35.708   5.788   3.646  1.00 20.00     0.007 C 
HETATM    2  C2  UNL     1     -34.806   6.995   3.354  1.00 20.00     0.027 C 
HETATM    3  C3  UNL     1     -34.340   5.203   5.654  1.00 20.00     0.027 C 
HETATM    4  C4  UNL     1     -33.451   5.048   3.433  1.00 20.00     0.032 C 
HETATM    5  C5  UNL     1     -34.727   4.756   4.229  1.00 20.00    -0.011 C 
HETATM    6  C6  UNL     1     -33.378   6.376   5.393  1.00 20.00     0.106 C 
HETATM    7  C7  UNL     1     -33.430   6.520   3.856  1.00 20.00     0.054 C 
HETATM    8 CL8  UNL     1     -33.823   7.839   6.290  1.00 20.00    -0.123 Cl
HETATM    9 CL9  UNL     1     -32.093   7.445   3.189  1.00 20.00    -0.118 Cl
ENDROOT
TORSDOF 0
ENDMDL
MODEL 2
REMARK VINA RESULT:      -3.7     11.752     13.074
REMARK  0 active torsions:
REMARK  status: ('A' for Active; 'I' for Inactive)
ROOT
HETATM    1  C1  UNL     1     -32.991  14.590  -4.497  1.00 20.00     0.007 C 
HETATM    2  C2  UNL     1     -34.388  14.177  -4.014  1.00 20.00     0.027 C 
HETATM    3  C3  UNL     1     -33.553  17.005  -4.183  1.00 20.00     0.027 C 
HETATM    4  C4  UNL     1     -34.637  15.664  -5.848  1.00 20.00     0.032 C 
HETATM    5  C5  UNL     1     -33.256  15.915  -5.233  1.00 20.00    -0.011 C 
HETATM    6  C6  UNL     1     -34.981  16.657  -3.725  1.00 20.00     0.106 C 
HETATM    7  C7  UNL     1     -35.271  15.346  -4.490  1.00 20.00     0.054 C 
HETATM    8 CL8  UNL     1     -35.124  16.533  -1.963  1.00 20.00    -0.123 Cl
HETATM    9 CL9  UNL     1     -36.978  14.937  -4.567  1.00 20.00    -0.118 Cl
ENDROOT
TORSDOF 0
ENDMDL
MODEL 3
REMARK VINA RESULT:      -3.7     12.014     13.296
REMARK  0 active torsions:
REMARK  status: ('A' for Active; 'I' for Inactive)
ROOT
HETATM    1  C1  UNL     1     -34.498  16.265  -3.190  1.00 20.00     0.007 C 
HETATM    2  C2  UNL     1     -35.684  15.500  -3.793  1.00 20.00     0.027 C 
HETATM    3  C3  UNL     1     -33.323  16.262  -5.396  1.00 20.00     0.027 C 
HETATM    4  C4  UNL     1     -33.707  14.239  -4.168  1.00 20.00     0.032 C 
HETATM    5  C5  UNL     1     -33.292  15.699  -3.960  1.00 20.00    -0.011 C 
HETATM    6  C6  UNL     1     -34.464  15.462  -6.050  1.00 20.00     0.106 C 
HETATM    7  C7  UNL     1     -35.012  14.628  -4.871  1.00 20.00     0.054 C 
HETATM    8 CL8  UNL     1     -35.662  16.501  -6.842  1.00 20.00    -0.123 Cl
HETATM    9 CL9  UNL     1     -35.999  13.263  -5.371  1.00 20.00    -0.118 Cl
ENDROOT
TORSDOF 0
ENDMDL
MODEL 4
REMARK VINA RESULT:      -3.7      1.476      2.070
REMARK  0 active torsions:
REMARK  status: ('A' for Active; 'I' for Inactive)
ROOT
HETATM    1  C1  UNL     1     -35.759   6.253   3.745  1.00 20.00     0.007 C 
HETATM    2  C2  UNL     1     -34.886   5.869   2.542  1.00 20.00     0.027 C 
HETATM    3  C3  UNL     1     -33.743   6.995   5.023  1.00 20.00     0.027 C 
HETATM    4  C4  UNL     1     -34.098   4.694   4.449  1.00 20.00     0.032 C 
HETATM    5  C5  UNL     1     -34.855   5.929   4.947  1.00 20.00    -0.011 C 
HETATM    6  C6  UNL     1     -32.811   6.595   3.865  1.00 20.00     0.106 C 
HETATM    7  C7  UNL     1     -33.571   5.422   3.207  1.00 20.00     0.054 C 
HETATM    8 CL8  UNL     1     -32.451   7.947   2.777  1.00 20.00    -0.123 Cl
HETATM    9 CL9  UNL     1     -32.567   4.430   2.160  1.00 20.00    -0.118 Cl
ENDROOT
TORSDOF 0
ENDMDL
MODEL 5
REMARK VINA RESULT:      -3.6     12.238     13.145
REMARK  0 active torsions:
REMARK  status: ('A' for Active; 'I' for Inactive)
ROOT
HETATM    1  C1  UNL     1     -33.651  16.716  -5.044  1.00 20.00     0.007 C 
HETATM    2  C2  UNL     1     -35.145  16.575  -5.368  1.00 20.00     0.027 C 
HETATM    3  C3  UNL     1     -33.543  14.327  -4.319  1.00 20.00     0.027 C 
HETATM    4  C4  UNL     1     -34.807  15.959  -3.100  1.00 20.00     0.032 C 
HETATM    5  C5  UNL     1     -33.471  15.788  -3.830  1.00 20.00    -0.011 C 
HETATM    6  C6  UNL     1     -35.045  14.132  -4.589  1.00 20.00     0.106 C 
HETATM    7  C7  UNL     1     -35.621  15.542  -4.329  1.00 20.00     0.054 C 
HETATM    8 CL8  UNL     1     -35.372  13.485  -6.207  1.00 20.00    -0.123 Cl
HETATM    9 CL9  UNL     1     -37.361  15.559  -4.083  1.00 20.00    -0.118 Cl
ENDROOT
TORSDOF 0
ENDMDL
MODEL 6
REMARK VINA RESULT:      -3.6     11.956     13.295
REMARK  0 active torsions:
REMARK  status: ('A' for Active; 'I' for Inactive)
ROOT
HETATM    1  C1  UNL     1     -35.903  15.498  -4.087  1.00 20.00     0.007 C 
HETATM    2  C2  UNL     1     -34.932  14.340  -4.357  1.00 20.00     0.027 C 
HETATM    3  C3  UNL     1     -34.426  17.080  -5.338  1.00 20.00     0.027 C 
HETATM    4  C4  UNL     1     -33.740  16.081  -3.269  1.00 20.00     0.032 C 
HETATM    5  C5  UNL     1     -34.965  16.710  -3.941  1.00 20.00    -0.011 C 
HETATM    6  C6  UNL     1     -33.396  15.969  -5.610  1.00 20.00     0.106 C 
HETATM    7  C7  UNL     1     -33.563  15.044  -4.383  1.00 20.00     0.054 C 
HETATM    8 CL8  UNL     1     -33.643  15.174  -7.175  1.00 20.00    -0.123 Cl
HETATM    9 CL9  UNL     1     -32.214  13.945  -4.140  1.00 20.00    -0.118 Cl
ENDROOT
TORSDOF 0
ENDMDL
MODEL 7
REMARK VINA RESULT:      -3.6     11.830     13.238
REMARK  0 active torsions:
REMARK  status: ('A' for Active; 'I' for Inactive)
ROOT
HETATM    1  C1  UNL     1     -35.844  13.429  -5.238  1.00 20.00     0.007 C 
HETATM    2  C2  UNL     1     -34.812  14.001  -4.256  1.00 20.00     0.027 C 
HETATM    3  C3  UNL     1     -36.029  15.638  -6.392  1.00 20.00     0.027 C 
HETATM    4  C4  UNL     1     -36.778  15.327  -4.136  1.00 20.00     0.032 C 
HETATM    5  C5  UNL     1     -36.775  14.626  -5.499  1.00 20.00    -0.011 C 
HETATM    6  C6  UNL     1     -35.027  16.280  -5.416  1.00 20.00     0.106 C 
HETATM    7  C7  UNL     1     -35.252  15.471  -4.119  1.00 20.00     0.054 C 
HETATM    8 CL8  UNL     1     -33.363  16.253  -6.026  1.00 20.00    -0.123 Cl
HETATM    9 CL9  UNL     1     -34.616  16.253  -2.680  1.00 20.00    -0.118 Cl
ENDROOT
TORSDOF 0
ENDMDL
MODEL 8
REMARK VINA RESULT:      -3.5     12.705     13.719
REMARK  0 active torsions:
REMARK  status: ('A' for Active; 'I' for Inactive)
ROOT
HETATM    1  C1  UNL     1     -33.342  14.535  -4.183  1.00 20.00     0.007 C 
HETATM    2  C2  UNL     1     -32.955  15.512  -5.302  1.00 20.00     0.027 C 
HETATM    3  C3  UNL     1     -35.346  13.788  -5.475  1.00 20.00     0.027 C 
HETATM    4  C4  UNL     1     -35.167  16.013  -4.600  1.00 20.00     0.032 C 
HETATM    5  C5  UNL     1     -34.880  14.556  -4.222  1.00 20.00    -0.011 C 
HETATM    6  C6  UNL     1     -35.032  14.774  -6.615  1.00 20.00     0.106 C 
HETATM    7  C7  UNL     1     -34.322  15.930  -5.876  1.00 20.00     0.054 C 
HETATM    8 CL8  UNL     1     -34.084  14.035  -7.918  1.00 20.00    -0.123 Cl
HETATM    9 CL9  UNL     1     -34.258  17.424  -6.799  1.00 20.00    -0.118 Cl
ENDROOT
TORSDOF 0
ENDMDL
MODEL 9
REMARK VINA RESULT:      -3.5     12.237     13.144
REMARK  0 active torsions:
REMARK  status: ('A' for Active; 'I' for Inactive)
ROOT
HETATM    1  C1  UNL     1     -33.591  15.731  -6.289  1.00 20.00     0.007 C 
HETATM    2  C2  UNL     1     -33.586  16.800  -5.187  1.00 20.00     0.027 C 
HETATM    3  C3  UNL     1     -35.363  14.442  -5.084  1.00 20.00     0.027 C 
HETATM    4  C4  UNL     1     -33.153  14.690  -4.188  1.00 20.00     0.032 C 
HETATM    5  C5  UNL     1     -33.881  14.434  -5.512  1.00 20.00    -0.011 C 
HETATM    6  C6  UNL     1     -35.378  15.461  -3.930  1.00 20.00     0.106 C 
HETATM    7  C7  UNL     1     -33.925  15.987  -3.923  1.00 20.00     0.054 C 
HETATM    8 CL8  UNL     1     -36.617  16.711  -4.136  1.00 20.00    -0.123 Cl
HETATM    9 CL9  UNL     1     -33.478  16.803  -2.434  1.00 20.00    -0.118 Cl
ENDROOT
TORSDOF 0
ENDMDL
