MODEL 1
REMARK VINA RESULT:      -4.9      0.000      0.000
REMARK  1 active torsions:
REMARK  status: ('A' for Active; 'I' for Inactive)
REMARK    1  A    between atoms: C2_2  and  C3_3 
ROOT
HETATM    1  C1  UNL     1     -35.678   6.069   3.674  1.00 20.00     0.060 C 
HETATM    2  C2  UNL     1     -34.248   5.754   4.105  1.00 20.00     0.206 C 
HETATM    3 CL7  UNL     1     -33.771   6.882   5.414  1.00 20.00    -0.092 Cl
HETATM    4 CL8  UNL     1     -34.186   4.083   4.748  1.00 20.00    -0.092 Cl
ENDROOT
BRANCH   2   5
HETATM    5  C3  UNL     1     -33.275   5.886   2.943  1.00 20.00     0.422 C 
HETATM    6  F4  UNL     1     -33.904   6.293   1.817  1.00 20.00    -0.168 F 
HETATM    7  F5  UNL     1     -32.309   6.795   3.211  1.00 20.00    -0.168 F 
HETATM    8  F6  UNL     1     -32.662   4.715   2.664  1.00 20.00    -0.168 F 
ENDBRANCH   2   5
TORSDOF 1
ENDMDL
MODEL 2
REMARK VINA RESULT:      -4.9      1.182      2.175
REMARK  1 active torsions:
REMARK  status: ('A' for Active; 'I' for Inactive)
REMARK    1  A    between atoms: C2_2  and  C3_3 
ROOT
HETATM    1  C1  UNL     1     -34.304   4.304   4.751  1.00 20.00     0.060 C 
HETATM    2  C2  UNL     1     -34.304   5.702   4.138  1.00 20.00     0.206 C 
HETATM    3 CL7  UNL     1     -35.964   6.101   3.593  1.00 20.00    -0.092 Cl
HETATM    4 CL8  UNL     1     -33.820   6.889   5.391  1.00 20.00    -0.092 Cl
ENDROOT
BRANCH   2   5
HETATM    5  C3  UNL     1     -33.348   5.792   2.958  1.00 20.00     0.422 C 
HETATM    6  F4  UNL     1     -32.744   4.605   2.721  1.00 20.00    -0.168 F 
HETATM    7  F5  UNL     1     -33.998   6.143   1.825  1.00 20.00    -0.168 F 
HETATM    8  F6  UNL     1     -32.375   6.707   3.167  1.00 20.00    -0.168 F 
ENDBRANCH   2   5
TORSDOF 1
ENDMDL
MODEL 3
REMARK VINA RESULT:      -4.9      0.007      1.335
REMARK  1 active torsions:
REMARK  status: ('A' for Active; 'I' for Inactive)
REMARK    1  A    between atoms: C2_2  and  C3_3 
ROOT
HETATM    1  C1  UNL     1     -35.677   6.070   3.675  1.00 20.00     0.060 C 
HETATM    2  C2  UNL     1     -34.247   5.754   4.104  1.00 20.00     0.206 C 
HETATM    3 CL7  UNL     1     -33.770   6.875   5.418  1.00 20.00    -0.092 Cl
HETATM    4 CL8  UNL     1     -34.185   4.079   4.739  1.00 20.00    -0.092 Cl
ENDROOT
BRANCH   2   5
HETATM    5  C3  UNL     1     -33.274   5.891   2.943  1.00 20.00     0.422 C 
HETATM    6  F4  UNL     1     -32.667   4.714   2.666  1.00 20.00    -0.168 F 
HETATM    7  F5  UNL     1     -33.907   6.288   1.815  1.00 20.00    -0.168 F 
HETATM    8  F6  UNL     1     -32.304   6.796   3.202  1.00 20.00    -0.168 F 
ENDBRANCH   2   5
TORSDOF 1
ENDMDL
MODEL 4
REMARK VINA RESULT:      -4.9      1.178      2.158
REMARK  1 active torsions:
REMARK  status: ('A' for Active; 'I' for Inactive)
REMARK    1  A    between atoms: C2_2  and  C3_3 
ROOT
HETATM    1  C1  UNL     1     -33.875   6.813   5.179  1.00 20.00     0.060 C 
HETATM    2  C2  UNL     1     -34.273   5.780   4.127  1.00 20.00     0.206 C 
HETATM    3 CL7  UNL     1     -34.233   4.148   4.865  1.00 20.00    -0.092 Cl
HETATM    4 CL8  UNL     1     -35.947   6.115   3.584  1.00 20.00    -0.092 Cl
ENDROOT
BRANCH   2   5
HETATM    5  C3  UNL     1     -33.335   5.817   2.929  1.00 20.00     0.422 C 
HETATM    6  F4  UNL     1     -32.751   4.614   2.723  1.00 20.00    -0.168 F 
HETATM    7  F5  UNL     1     -33.999   6.139   1.795  1.00 20.00    -0.168 F 
HETATM    8  F6  UNL     1     -32.346   6.724   3.091  1.00 20.00    -0.168 F 
ENDBRANCH   2   5
TORSDOF 1
ENDMDL
MODEL 5
REMARK VINA RESULT:      -4.7      1.632      2.223
REMARK  1 active torsions:
REMARK  status: ('A' for Active; 'I' for Inactive)
REMARK    1  A    between atoms: C2_2  and  C3_3 
ROOT
HETATM    1  C1  UNL     1     -35.598   6.018   3.539  1.00 20.00     0.060 C 
HETATM    2  C2  UNL     1     -34.192   5.793   4.090  1.00 20.00     0.206 C 
HETATM    3 CL7  UNL     1     -34.312   4.962   5.673  1.00 20.00    -0.092 Cl
HETATM    4 CL8  UNL     1     -33.285   4.735   2.963  1.00 20.00    -0.092 Cl
ENDROOT
BRANCH   2   5
HETATM    5  C3  UNL     1     -33.446   7.107   4.263  1.00 20.00     0.422 C 
HETATM    6  F4  UNL     1     -32.270   7.099   3.592  1.00 20.00    -0.168 F 
HETATM    7  F5  UNL     1     -34.167   8.149   3.790  1.00 20.00    -0.168 F 
HETATM    8  F6  UNL     1     -33.169   7.362   5.561  1.00 20.00    -0.168 F 
ENDBRANCH   2   5
TORSDOF 1
ENDMDL
MODEL 6
REMARK VINA RESULT:      -4.6      1.631      2.007
REMARK  1 active torsions:
REMARK  status: ('A' for Active; 'I' for Inactive)
REMARK    1  A    between atoms: C2_2  and  C3_3 
ROOT
HETATM    1  C1  UNL     1     -35.596   5.999   3.532  1.00 20.00     0.060 C 
HETATM    2  C2  UNL     1     -34.192   5.784   4.092  1.00 20.00     0.206 C 
HETATM    3 CL7  UNL     1     -34.317   4.972   5.685  1.00 20.00    -0.092 Cl
HETATM    4 CL8  UNL     1     -33.278   4.715   2.982  1.00 20.00    -0.092 Cl
ENDROOT
BRANCH   2   5
HETATM    5  C3  UNL     1     -33.449   7.102   4.252  1.00 20.00     0.422 C 
HETATM    6  F4  UNL     1     -34.180   8.140   3.785  1.00 20.00    -0.168 F 
HETATM    7  F5  UNL     1     -33.178   7.359   5.553  1.00 20.00    -0.168 F 
HETATM    8  F6  UNL     1     -32.274   7.102   3.585  1.00 20.00    -0.168 F 
ENDBRANCH   2   5
TORSDOF 1
ENDMDL
MODEL 7
REMARK VINA RESULT:      -4.6      1.968      2.484
REMARK  1 active torsions:
REMARK  status: ('A' for Active; 'I' for Inactive)
REMARK    1  A    between atoms: C2_2  and  C3_3 
ROOT
HETATM    1  C1  UNL     1     -34.403   5.052   5.505  1.00 20.00     0.060 C 
HETATM    2  C2  UNL     1     -34.252   5.760   4.161  1.00 20.00     0.206 C 
HETATM    3 CL7  UNL     1     -33.359   4.691   3.034  1.00 20.00    -0.092 Cl
HETATM    4 CL8  UNL     1     -35.880   6.069   3.478  1.00 20.00    -0.092 Cl
ENDROOT
BRANCH   2   5
HETATM    5  C3  UNL     1     -33.506   7.078   4.307  1.00 20.00     0.422 C 
HETATM    6  F4  UNL     1     -34.229   8.111   3.818  1.00 20.00    -0.168 F 
HETATM    7  F5  UNL     1     -33.244   7.353   5.606  1.00 20.00    -0.168 F 
HETATM    8  F6  UNL     1     -32.325   7.063   3.651  1.00 20.00    -0.168 F 
ENDBRANCH   2   5
TORSDOF 1
ENDMDL
MODEL 8
REMARK VINA RESULT:      -4.5      1.805      2.459
REMARK  1 active torsions:
REMARK  status: ('A' for Active; 'I' for Inactive)
REMARK    1  A    between atoms: C2_2  and  C3_3 
ROOT
HETATM    1  C1  UNL     1     -33.436   4.875   3.086  1.00 20.00     0.060 C 
HETATM    2  C2  UNL     1     -34.180   5.770   4.074  1.00 20.00     0.206 C 
HETATM    3 CL7  UNL     1     -35.835   6.072   3.456  1.00 20.00    -0.092 Cl
HETATM    4 CL8  UNL     1     -34.310   4.922   5.647  1.00 20.00    -0.092 Cl
ENDROOT
BRANCH   2   5
HETATM    5  C3  UNL     1     -33.463   7.097   4.271  1.00 20.00     0.422 C 
HETATM    6  F4  UNL     1     -32.271   7.114   3.632  1.00 20.00    -0.168 F 
HETATM    7  F5  UNL     1     -34.192   8.128   3.783  1.00 20.00    -0.168 F 
HETATM    8  F6  UNL     1     -33.226   7.352   5.577  1.00 20.00    -0.168 F 
ENDBRANCH   2   5
TORSDOF 1
ENDMDL
MODEL 9
REMARK VINA RESULT:      -4.3      2.457      2.983
REMARK  1 active torsions:
REMARK  status: ('A' for Active; 'I' for Inactive)
REMARK    1  A    between atoms: C2_2  and  C3_3 
ROOT
HETATM    1  C1  UNL     1     -32.886   4.674   2.846  1.00 20.00     0.060 C 
HETATM    2  C2  UNL     1     -33.760   5.896   3.120  1.00 20.00     0.206 C 
HETATM    3 CL7  UNL     1     -32.709   7.283   3.545  1.00 20.00    -0.092 Cl
HETATM    4 CL8  UNL     1     -34.669   6.310   1.631  1.00 20.00    -0.092 Cl
ENDROOT
BRANCH   2   5
HETATM    5  C3  UNL     1     -34.739   5.636   4.255  1.00 20.00     0.422 C 
HETATM    6  F4  UNL     1     -36.016   5.855   3.865  1.00 20.00    -0.168 F 
HETATM    7  F5  UNL     1     -34.667   4.354   4.683  1.00 20.00    -0.168 F 
HETATM    8  F6  UNL     1     -34.498   6.433   5.320  1.00 20.00    -0.168 F 
ENDBRANCH   2   5
TORSDOF 1
ENDMDL
