MODEL 1
REMARK VINA RESULT:      -5.5      0.000      0.000
REMARK  2 active torsions:
REMARK  status: ('A' for Active; 'I' for Inactive)
REMARK    1  A    between atoms: C1_1  and  C3_3 
REMARK    2  A    between atoms: C2_2  and  C5_5 
ROOT
HETATM    1  C1  UNL     1     -33.656   6.536   3.366  1.00 20.00     0.005 C 
HETATM    2  C2  UNL     1     -32.858   7.014   2.402  1.00 20.00     0.068 C 
ENDROOT
BRANCH   1   3
HETATM    3  C3  UNL     1     -33.780   7.167   4.662  1.00 20.00    -0.004 C 
HETATM    4  C4  UNL     1     -34.201   6.518   5.757  1.00 20.00    -0.031 C 
HETATM    5  C6  UNL     1     -34.590   5.075   5.768  1.00 20.00     0.036 C 
ENDBRANCH   1   3
BRANCH   2   6
HETATM    6  C5  UNL     1     -32.042   8.246   2.623  1.00 20.00     0.241 C 
HETATM    7  O7  UNL     1     -31.194   8.284   3.512  1.00 20.00    -0.275 OA
HETATM    8 CL8  UNL     1     -32.386   9.584   1.546  1.00 20.00    -0.039 Cl
ENDBRANCH   2   6
TORSDOF 2
ENDMDL
MODEL 2
REMARK VINA RESULT:      -5.5      2.784      4.132
REMARK  2 active torsions:
REMARK  status: ('A' for Active; 'I' for Inactive)
REMARK    1  A    between atoms: C1_1  and  C3_3 
REMARK    2  A    between atoms: C2_2  and  C5_5 
ROOT
HETATM    1  C1  UNL     1     -33.928   6.495   2.830  1.00 20.00     0.005 C 
HETATM    2  C2  UNL     1     -34.811   5.993   3.703  1.00 20.00     0.068 C 
ENDROOT
BRANCH   1   3
HETATM    3  C3  UNL     1     -32.582   6.867   3.208  1.00 20.00    -0.004 C 
HETATM    4  C4  UNL     1     -31.941   7.926   2.692  1.00 20.00    -0.031 C 
HETATM    5  C6  UNL     1     -32.539   8.841   1.673  1.00 20.00     0.036 C 
ENDBRANCH   1   3
BRANCH   2   6
HETATM    6  C5  UNL     1     -34.442   5.790   5.136  1.00 20.00     0.241 C 
HETATM    7  O7  UNL     1     -34.472   4.669   5.638  1.00 20.00    -0.275 OA
HETATM    8 CL8  UNL     1     -33.978   7.237   6.009  1.00 20.00    -0.039 Cl
ENDBRANCH   2   6
TORSDOF 2
ENDMDL
MODEL 3
REMARK VINA RESULT:      -5.3      1.424      1.944
REMARK  2 active torsions:
REMARK  status: ('A' for Active; 'I' for Inactive)
REMARK    1  A    between atoms: C1_1  and  C3_3 
REMARK    2  A    between atoms: C2_2  and  C5_5 
ROOT
HETATM    1  C1  UNL     1     -32.397   7.500   3.456  1.00 20.00     0.005 C 
HETATM    2  C2  UNL     1     -31.717   8.533   2.940  1.00 20.00     0.068 C 
ENDROOT
BRANCH   1   3
HETATM    3  C3  UNL     1     -33.344   6.726   2.685  1.00 20.00    -0.004 C 
HETATM    4  C4  UNL     1     -34.325   6.000   3.242  1.00 20.00    -0.031 C 
HETATM    5  C6  UNL     1     -34.552   5.906   4.716  1.00 20.00     0.036 C 
ENDBRANCH   1   3
BRANCH   2   6
HETATM    6  C5  UNL     1     -31.909   8.942   1.516  1.00 20.00     0.241 C 
HETATM    7  O7  UNL     1     -31.250   8.419   0.620  1.00 20.00    -0.275 OA
HETATM    8 CL8  UNL     1     -33.111  10.187   1.243  1.00 20.00    -0.039 Cl
ENDBRANCH   2   6
TORSDOF 2
ENDMDL
MODEL 4
REMARK VINA RESULT:      -5.2      2.849      4.222
REMARK  2 active torsions:
REMARK  status: ('A' for Active; 'I' for Inactive)
REMARK    1  A    between atoms: C1_1  and  C3_3 
REMARK    2  A    between atoms: C2_2  and  C5_5 
ROOT
HETATM    1  C1  UNL     1     -33.568   6.671   2.696  1.00 20.00     0.005 C 
HETATM    2  C2  UNL     1     -34.506   6.203   3.529  1.00 20.00     0.068 C 
ENDROOT
BRANCH   1   3
HETATM    3  C3  UNL     1     -32.332   7.261   3.163  1.00 20.00    -0.004 C 
HETATM    4  C4  UNL     1     -31.788   8.356   2.613  1.00 20.00    -0.031 C 
HETATM    5  C6  UNL     1     -32.390   9.092   1.461  1.00 20.00     0.036 C 
ENDBRANCH   1   3
BRANCH   2   6
HETATM    6  C5  UNL     1     -34.318   6.270   5.010  1.00 20.00     0.241 C 
HETATM    7  O7  UNL     1     -34.051   7.336   5.560  1.00 20.00    -0.275 OA
HETATM    8 CL8  UNL     1     -34.504   4.751   5.864  1.00 20.00    -0.039 Cl
ENDBRANCH   2   6
TORSDOF 2
ENDMDL
MODEL 5
REMARK VINA RESULT:      -5.2      3.153      4.320
REMARK  2 active torsions:
REMARK  status: ('A' for Active; 'I' for Inactive)
REMARK    1  A    between atoms: C1_1  and  C3_3 
REMARK    2  A    between atoms: C2_2  and  C5_5 
ROOT
HETATM    1  C1  UNL     1     -32.747   6.133   2.774  1.00 20.00     0.005 C 
HETATM    2  C2  UNL     1     -33.702   5.247   3.081  1.00 20.00     0.068 C 
ENDROOT
BRANCH   1   3
HETATM    3  C3  UNL     1     -32.697   7.459   3.351  1.00 20.00    -0.004 C 
HETATM    4  C4  UNL     1     -32.233   8.530   2.691  1.00 20.00    -0.031 C 
HETATM    5  C6  UNL     1     -31.717   8.480   1.289  1.00 20.00     0.036 C 
ENDBRANCH   1   3
BRANCH   2   6
HETATM    6  C5  UNL     1     -34.784   5.591   4.053  1.00 20.00     0.241 C 
HETATM    7  O7  UNL     1     -35.851   6.058   3.663  1.00 20.00    -0.275 OA
HETATM    8 CL8  UNL     1     -34.412   5.282   5.737  1.00 20.00    -0.039 Cl
ENDBRANCH   2   6
TORSDOF 2
ENDMDL
MODEL 6
REMARK VINA RESULT:      -5.2      2.123      2.481
REMARK  2 active torsions:
REMARK  status: ('A' for Active; 'I' for Inactive)
REMARK    1  A    between atoms: C1_1  and  C3_3 
REMARK    2  A    between atoms: C2_2  and  C5_5 
ROOT
HETATM    1  C1  UNL     1     -35.343   5.845   3.881  1.00 20.00     0.005 C 
HETATM    2  C2  UNL     1     -34.625   6.167   2.797  1.00 20.00     0.068 C 
ENDROOT
BRANCH   1   3
HETATM    3  C3  UNL     1     -34.762   5.199   5.038  1.00 20.00    -0.004 C 
HETATM    4  C4  UNL     1     -34.117   5.866   6.006  1.00 20.00    -0.031 C 
HETATM    5  C6  UNL     1     -33.922   7.348   6.002  1.00 20.00     0.036 C 
ENDBRANCH   1   3
BRANCH   2   6
HETATM    6  C5  UNL     1     -33.162   5.869   2.730  1.00 20.00     0.241 C 
HETATM    7  O7  UNL     1     -32.766   4.723   2.534  1.00 20.00    -0.275 OA
HETATM    8 CL8  UNL     1     -32.100   7.245   2.945  1.00 20.00    -0.039 Cl
ENDBRANCH   2   6
TORSDOF 2
ENDMDL
MODEL 7
REMARK VINA RESULT:      -5.1      1.338      1.338
REMARK  2 active torsions:
REMARK  status: ('A' for Active; 'I' for Inactive)
REMARK    1  A    between atoms: C1_1  and  C3_3 
REMARK    2  A    between atoms: C2_2  and  C5_5 
ROOT
HETATM    1  C1  UNL     1     -33.756   6.324   3.318  1.00 20.00     0.005 C 
HETATM    2  C2  UNL     1     -33.047   6.828   2.299  1.00 20.00     0.068 C 
ENDROOT
BRANCH   1   3
HETATM    3  C3  UNL     1     -33.931   7.026   4.570  1.00 20.00    -0.004 C 
HETATM    4  C4  UNL     1     -34.301   6.418   5.707  1.00 20.00    -0.031 C 
HETATM    5  C6  UNL     1     -34.573   4.952   5.812  1.00 20.00     0.036 C 
ENDBRANCH   1   3
BRANCH   2   6
HETATM    6  C5  UNL     1     -32.391   8.166   2.410  1.00 20.00     0.241 C 
HETATM    7  O7  UNL     1     -32.746   9.099   1.693  1.00 20.00    -0.275 OA
HETATM    8 CL8  UNL     1     -31.118   8.287   3.608  1.00 20.00    -0.039 Cl
ENDBRANCH   2   6
TORSDOF 2
ENDMDL
MODEL 8
REMARK VINA RESULT:      -5.1      3.085      4.447
REMARK  2 active torsions:
REMARK  status: ('A' for Active; 'I' for Inactive)
REMARK    1  A    between atoms: C1_1  and  C3_3 
REMARK    2  A    between atoms: C2_2  and  C5_5 
ROOT
HETATM    1  C1  UNL     1     -33.016   7.445   4.228  1.00 20.00     0.005 C 
HETATM    2  C2  UNL     1     -34.011   6.887   4.929  1.00 20.00     0.068 C 
ENDROOT
BRANCH   1   3
HETATM    3  C3  UNL     1     -32.644   6.994   2.905  1.00 20.00    -0.004 C 
HETATM    4  C4  UNL     1     -32.314   7.830   1.909  1.00 20.00    -0.031 C 
HETATM    5  C6  UNL     1     -32.292   9.318   2.050  1.00 20.00     0.036 C 
ENDBRANCH   1   3
BRANCH   2   6
HETATM    6  C5  UNL     1     -34.800   5.749   4.367  1.00 20.00     0.241 C 
HETATM    7  O7  UNL     1     -35.773   5.958   3.646  1.00 20.00    -0.275 OA
HETATM    8 CL8  UNL     1     -34.239   4.149   4.809  1.00 20.00    -0.039 Cl
ENDBRANCH   2   6
TORSDOF 2
ENDMDL
MODEL 9
REMARK VINA RESULT:      -5.0      2.273      2.685
REMARK  2 active torsions:
REMARK  status: ('A' for Active; 'I' for Inactive)
REMARK    1  A    between atoms: C1_1  and  C3_3 
REMARK    2  A    between atoms: C2_2  and  C5_5 
ROOT
HETATM    1  C1  UNL     1     -31.918   7.817   2.479  1.00 20.00     0.005 C 
HETATM    2  C2  UNL     1     -31.546   8.762   1.606  1.00 20.00     0.068 C 
ENDROOT
BRANCH   1   3
HETATM    3  C3  UNL     1     -33.300   7.585   2.838  1.00 20.00    -0.004 C 
HETATM    4  C4  UNL     1     -33.834   6.360   2.948  1.00 20.00    -0.031 C 
HETATM    5  C6  UNL     1     -33.069   5.098   2.715  1.00 20.00     0.036 C 
ENDBRANCH   1   3
BRANCH   2   6
HETATM    6  C5  UNL     1     -32.562   9.638   0.947  1.00 20.00     0.241 C 
HETATM    7  O7  UNL     1     -32.917  10.690   1.474  1.00 20.00    -0.275 OA
HETATM    8 CL8  UNL     1     -33.179   9.058  -0.587  1.00 20.00    -0.039 Cl
ENDBRANCH   2   6
TORSDOF 2
ENDMDL
