MODEL 1
REMARK VINA RESULT:      -4.9      0.000      0.000
REMARK  1 active torsions:
REMARK  status: ('A' for Active; 'I' for Inactive)
REMARK    1  A    between atoms: C8_8  and  C11_11 
ROOT
HETATM    1  C1  UNL     1     -34.193   6.933   5.048  1.00 20.00    -0.076 C 
HETATM    2  C2  UNL     1     -32.340   7.801   3.209  1.00 20.00     0.136 C 
HETATM    3  C3  UNL     1     -33.872   7.010   6.338  1.00 20.00     0.015 C 
HETATM    4  C4  UNL     1     -35.261   6.149   4.231  1.00 20.00     0.045 C 
HETATM    5  C5  UNL     1     -32.419   7.251   1.780  1.00 20.00     0.080 C 
HETATM    6  C6  UNL     1     -33.833   6.567   1.742  1.00 20.00     0.018 C 
HETATM    7  C7  UNL     1     -33.725   7.566   3.787  1.00 20.00     0.092 C 
HETATM    8  C8  UNL     1     -34.077   6.115   3.193  1.00 20.00    -0.019 C 
HETATM    9  O12 UNL     1     -31.352   8.317   3.707  1.00 20.00    -0.297 OA
ENDROOT
BRANCH   8  10
HETATM   10  C11 UNL     1     -33.242   4.831   3.459  1.00 20.00    -0.013 C 
HETATM   11  C9  UNL     1     -34.061   3.852   4.281  1.00 20.00     0.010 C 
HETATM   12  C10 UNL     1     -32.805   4.224   2.139  1.00 20.00     0.010 C 
ENDBRANCH   8  10
TORSDOF 1
ENDMDL
MODEL 2
REMARK VINA RESULT:      -4.9     11.633     12.995
REMARK  1 active torsions:
REMARK  status: ('A' for Active; 'I' for Inactive)
REMARK    1  A    between atoms: C8_8  and  C11_11 
ROOT
HETATM    1  C1  UNL     1     -34.602  15.342  -3.761  1.00 20.00    -0.076 C 
HETATM    2  C2  UNL     1     -36.305  13.800  -5.275  1.00 20.00     0.136 C 
HETATM    3  C3  UNL     1     -35.128  16.066  -2.776  1.00 20.00     0.015 C 
HETATM    4  C4  UNL     1     -33.255  15.372  -4.542  1.00 20.00     0.045 C 
HETATM    5  C5  UNL     1     -35.866  13.405  -6.690  1.00 20.00     0.080 C 
HETATM    6  C6  UNL     1     -34.337  13.764  -6.700  1.00 20.00     0.018 C 
HETATM    7  C7  UNL     1     -35.012  14.158  -4.560  1.00 20.00     0.092 C 
HETATM    8  C8  UNL     1     -34.215  14.940  -5.714  1.00 20.00    -0.019 C 
HETATM    9  O12 UNL     1     -37.457  13.792  -4.871  1.00 20.00    -0.297 OA
ENDROOT
BRANCH   8  10
HETATM   10  C11 UNL     1     -34.726  16.230  -6.415  1.00 20.00    -0.013 C 
HETATM   11  C9  UNL     1     -33.829  17.399  -6.048  1.00 20.00     0.010 C 
HETATM   12  C10 UNL     1     -34.773  16.010  -7.916  1.00 20.00     0.010 C 
ENDBRANCH   8  10
TORSDOF 1
ENDMDL
MODEL 3
REMARK VINA RESULT:      -4.8     11.151     12.613
REMARK  1 active torsions:
REMARK  status: ('A' for Active; 'I' for Inactive)
REMARK    1  A    between atoms: C8_8  and  C11_11 
ROOT
HETATM    1  C1  UNL     1     -33.197  14.784  -4.715  1.00 20.00    -0.076 C 
HETATM    2  C2  UNL     1     -35.733  13.891  -5.302  1.00 20.00     0.136 C 
HETATM    3  C3  UNL     1     -32.346  13.921  -4.165  1.00 20.00     0.015 C 
HETATM    4  C4  UNL     1     -33.259  16.335  -4.835  1.00 20.00     0.045 C 
HETATM    5  C5  UNL     1     -36.861  14.922  -5.410  1.00 20.00     0.080 C 
HETATM    6  C6  UNL     1     -36.088  16.288  -5.475  1.00 20.00     0.018 C 
HETATM    7  C7  UNL     1     -34.459  14.696  -5.497  1.00 20.00     0.092 C 
HETATM    8  C8  UNL     1     -34.798  16.034  -4.675  1.00 20.00    -0.019 C 
HETATM    9  O12 UNL     1     -35.892  12.695  -5.114  1.00 20.00    -0.297 OA
ENDROOT
BRANCH   8  10
HETATM   10  C11 UNL     1     -35.139  16.071  -3.159  1.00 20.00    -0.013 C 
HETATM   11  C9  UNL     1     -34.024  16.771  -2.403  1.00 20.00     0.010 C 
HETATM   12  C10 UNL     1     -36.474  16.762  -2.953  1.00 20.00     0.010 C 
ENDBRANCH   8  10
TORSDOF 1
ENDMDL
MODEL 4
REMARK VINA RESULT:      -4.5     11.946     13.171
REMARK  1 active torsions:
REMARK  status: ('A' for Active; 'I' for Inactive)
REMARK    1  A    between atoms: C8_8  and  C11_11 
ROOT
HETATM    1  C1  UNL     1     -35.264  14.302  -6.737  1.00 20.00    -0.076 C 
HETATM    2  C2  UNL     1     -37.447  14.814  -5.142  1.00 20.00     0.136 C 
HETATM    3  C3  UNL     1     -35.061  13.047  -7.130  1.00 20.00     0.015 C 
HETATM    4  C4  UNL     1     -34.380  15.583  -6.665  1.00 20.00     0.045 C 
HETATM    5  C5  UNL     1     -37.421  16.061  -4.251  1.00 20.00     0.080 C 
HETATM    6  C6  UNL     1     -36.204  16.877  -4.818  1.00 20.00     0.018 C 
HETATM    7  C7  UNL     1     -36.412  15.093  -6.219  1.00 20.00     0.092 C 
HETATM    8  C8  UNL     1     -35.249  15.803  -5.369  1.00 20.00    -0.019 C 
HETATM    9  O12 UNL     1     -38.175  13.849  -4.975  1.00 20.00    -0.297 OA
ENDROOT
BRANCH   8  10
HETATM   10  C11 UNL     1     -34.505  15.142  -4.175  1.00 20.00    -0.013 C 
HETATM   11  C9  UNL     1     -33.051  14.910  -4.546  1.00 20.00     0.010 C 
HETATM   12  C10 UNL     1     -34.635  16.020  -2.944  1.00 20.00     0.010 C 
ENDBRANCH   8  10
TORSDOF 1
ENDMDL
MODEL 5
REMARK VINA RESULT:      -4.5     11.780     13.047
REMARK  1 active torsions:
REMARK  status: ('A' for Active; 'I' for Inactive)
REMARK    1  A    between atoms: C8_8  and  C11_11 
ROOT
HETATM    1  C1  UNL     1     -33.846  16.281  -3.953  1.00 20.00    -0.076 C 
HETATM    2  C2  UNL     1     -33.330  18.093  -1.948  1.00 20.00     0.136 C 
HETATM    3  C3  UNL     1     -33.281  16.490  -5.141  1.00 20.00     0.015 C 
HETATM    4  C4  UNL     1     -35.040  15.420  -3.446  1.00 20.00     0.045 C 
HETATM    5  C5  UNL     1     -34.335  18.211  -0.797  1.00 20.00     0.080 C 
HETATM    6  C6  UNL     1     -35.236  16.937  -0.981  1.00 20.00     0.018 C 
HETATM    7  C7  UNL     1     -33.603  16.728  -2.556  1.00 20.00     0.092 C 
HETATM    8  C8  UNL     1     -35.207  16.667  -2.496  1.00 20.00    -0.019 C 
HETATM    9  O12 UNL     1     -32.507  18.943  -2.249  1.00 20.00    -0.297 OA
ENDROOT
BRANCH   8  10
HETATM   10  C11 UNL     1     -36.152  17.681  -3.199  1.00 20.00    -0.013 C 
HETATM   11  C9  UNL     1     -37.014  16.955  -4.216  1.00 20.00     0.010 C 
HETATM   12  C10 UNL     1     -36.996  18.396  -2.160  1.00 20.00     0.010 C 
ENDBRANCH   8  10
TORSDOF 1
ENDMDL
MODEL 6
REMARK VINA RESULT:      -4.4      1.542      3.344
REMARK  1 active torsions:
REMARK  status: ('A' for Active; 'I' for Inactive)
REMARK    1  A    between atoms: C8_8  and  C11_11 
ROOT
HETATM    1  C1  UNL     1     -32.688   7.592   3.056  1.00 20.00    -0.076 C 
HETATM    2  C2  UNL     1     -33.257   4.910   2.830  1.00 20.00     0.136 C 
HETATM    3  C3  UNL     1     -31.418   7.971   2.934  1.00 20.00     0.015 C 
HETATM    4  C4  UNL     1     -33.974   8.248   3.641  1.00 20.00     0.045 C 
HETATM    5  C5  UNL     1     -34.540   4.381   3.480  1.00 20.00     0.080 C 
HETATM    6  C6  UNL     1     -35.337   5.693   3.812  1.00 20.00     0.018 C 
HETATM    7  C7  UNL     1     -33.494   6.403   2.676  1.00 20.00     0.092 C 
HETATM    8  C8  UNL     1     -34.245   6.751   4.053  1.00 20.00    -0.019 C 
HETATM    9  O12 UNL     1     -32.296   4.225   2.517  1.00 20.00    -0.297 OA
ENDROOT
BRANCH   8  10
HETATM   10  C11 UNL     1     -33.638   6.525   5.465  1.00 20.00    -0.013 C 
HETATM   11  C9  UNL     1     -33.638   7.833   6.236  1.00 20.00     0.010 C 
HETATM   12  C10 UNL     1     -34.424   5.449   6.192  1.00 20.00     0.010 C 
ENDBRANCH   8  10
TORSDOF 1
ENDMDL
MODEL 7
REMARK VINA RESULT:      -4.3     11.613     13.314
REMARK  1 active torsions:
REMARK  status: ('A' for Active; 'I' for Inactive)
REMARK    1  A    between atoms: C8_8  and  C11_11 
ROOT
HETATM    1  C1  UNL     1     -33.966  16.703  -3.181  1.00 20.00    -0.076 C 
HETATM    2  C2  UNL     1     -34.151  14.419  -4.704  1.00 20.00     0.136 C 
HETATM    3  C3  UNL     1     -34.528  16.692  -1.974  1.00 20.00     0.015 C 
HETATM    4  C4  UNL     1     -33.481  17.819  -4.152  1.00 20.00     0.045 C 
HETATM    5  C5  UNL     1     -34.023  14.547  -6.226  1.00 20.00     0.080 C 
HETATM    6  C6  UNL     1     -33.464  16.003  -6.414  1.00 20.00     0.018 C 
HETATM    7  C7  UNL     1     -33.506  15.682  -4.159  1.00 20.00     0.092 C 
HETATM    8  C8  UNL     1     -34.021  16.783  -5.209  1.00 20.00    -0.019 C 
HETATM    9  O12 UNL     1     -34.659  13.475  -4.121  1.00 20.00    -0.297 OA
ENDROOT
BRANCH   8  10
HETATM   10  C11 UNL     1     -35.517  17.109  -5.478  1.00 20.00    -0.013 C 
HETATM   11  C9  UNL     1     -35.779  18.576  -5.189  1.00 20.00     0.010 C 
HETATM   12  C10 UNL     1     -35.868  16.749  -6.910  1.00 20.00     0.010 C 
ENDBRANCH   8  10
TORSDOF 1
ENDMDL
MODEL 8
REMARK VINA RESULT:      -4.3     11.568     13.326
REMARK  1 active torsions:
REMARK  status: ('A' for Active; 'I' for Inactive)
REMARK    1  A    between atoms: C8_8  and  C11_11 
ROOT
HETATM    1  C1  UNL     1     -37.351  15.782  -5.501  1.00 20.00    -0.076 C 
HETATM    2  C2  UNL     1     -35.658  13.740  -4.769  1.00 20.00     0.136 C 
HETATM    3  C3  UNL     1     -38.236  15.541  -6.466  1.00 20.00     0.015 C 
HETATM    4  C4  UNL     1     -36.762  17.070  -4.853  1.00 20.00     0.045 C 
HETATM    5  C5  UNL     1     -34.328  14.101  -4.100  1.00 20.00     0.080 C 
HETATM    6  C6  UNL     1     -34.518  15.616  -3.728  1.00 20.00     0.018 C 
HETATM    7  C7  UNL     1     -36.534  14.965  -4.566  1.00 20.00     0.092 C 
HETATM    8  C8  UNL     1     -35.480  16.154  -4.802  1.00 20.00    -0.019 C 
HETATM    9  O12 UNL     1     -35.901  12.676  -5.317  1.00 20.00    -0.297 OA
ENDROOT
BRANCH   8  10
HETATM   10  C11 UNL     1     -34.683  16.372  -6.118  1.00 20.00    -0.013 C 
HETATM   11  C9  UNL     1     -34.850  17.807  -6.584  1.00 20.00     0.010 C 
HETATM   12  C10 UNL     1     -33.223  16.022  -5.894  1.00 20.00     0.010 C 
ENDBRANCH   8  10
TORSDOF 1
ENDMDL
MODEL 9
REMARK VINA RESULT:      -4.3     11.781     12.975
REMARK  1 active torsions:
REMARK  status: ('A' for Active; 'I' for Inactive)
REMARK    1  A    between atoms: C8_8  and  C11_11 
ROOT
HETATM    1  C1  UNL     1     -35.889  14.082  -6.710  1.00 20.00    -0.076 C 
HETATM    2  C2  UNL     1     -33.621  15.603  -6.375  1.00 20.00     0.136 C 
HETATM    3  C3  UNL     1     -36.666  14.346  -7.758  1.00 20.00     0.015 C 
HETATM    4  C4  UNL     1     -36.084  13.316  -5.368  1.00 20.00     0.045 C 
HETATM    5  C5  UNL     1     -33.021  15.716  -4.969  1.00 20.00     0.080 C 
HETATM    6  C6  UNL     1     -33.762  14.581  -4.175  1.00 20.00     0.018 C 
HETATM    7  C7  UNL     1     -34.478  14.350  -6.326  1.00 20.00     0.092 C 
HETATM    8  C8  UNL     1     -35.134  14.468  -4.864  1.00 20.00    -0.019 C 
HETATM    9  O12 UNL     1     -33.406  16.379  -7.293  1.00 20.00    -0.297 OA
ENDROOT
BRANCH   8  10
HETATM   10  C11 UNL     1     -36.024  15.652  -4.394  1.00 20.00    -0.013 C 
HETATM   11  C9  UNL     1     -37.459  15.182  -4.241  1.00 20.00     0.010 C 
HETATM   12  C10 UNL     1     -35.478  16.217  -3.096  1.00 20.00     0.010 C 
ENDBRANCH   8  10
TORSDOF 1
ENDMDL
