MODEL 1
REMARK VINA RESULT:      -4.4      0.000      0.000
REMARK  0 active torsions:
REMARK  status: ('A' for Active; 'I' for Inactive)
ROOT
HETATM    1  C1  UNL     1     -33.055  15.625  -5.553  1.00 20.00     0.005 C 
HETATM    2  C2  UNL     1     -34.243  14.091  -7.206  1.00 20.00     0.005 C 
HETATM    3  C3  UNL     1     -35.275  16.336  -6.580  1.00 20.00     0.005 C 
HETATM    4  C4  UNL     1     -33.261  14.548  -4.495  1.00 20.00     0.006 C 
HETATM    5  C5  UNL     1     -35.449  13.421  -6.561  1.00 20.00     0.006 C 
HETATM    6  C6  UNL     1     -35.872  16.292  -5.180  1.00 20.00     0.006 C 
HETATM    7  C7  UNL     1     -33.979  15.540  -6.775  1.00 20.00    -0.014 C 
HETATM    8  C8  UNL     1     -34.661  14.204  -4.114  1.00 20.00    -0.006 A 
HETATM    9  C9  UNL     1     -35.654  13.615  -5.097  1.00 20.00    -0.006 A 
HETATM   10  C10 UNL     1     -35.914  14.976  -4.481  1.00 20.00    -0.006 A 
ENDROOT
TORSDOF 0
ENDMDL
MODEL 2
REMARK VINA RESULT:      -4.4      0.081      2.375
REMARK  0 active torsions:
REMARK  status: ('A' for Active; 'I' for Inactive)
ROOT
HETATM    1  C1  UNL     1     -35.269  16.381  -6.495  1.00 20.00     0.005 C 
HETATM    2  C2  UNL     1     -33.026  15.629  -5.548  1.00 20.00     0.005 C 
HETATM    3  C3  UNL     1     -34.288  14.131  -7.178  1.00 20.00     0.005 C 
HETATM    4  C4  UNL     1     -35.820  16.330  -5.076  1.00 20.00     0.006 C 
HETATM    5  C5  UNL     1     -33.211  14.544  -4.496  1.00 20.00     0.006 C 
HETATM    6  C6  UNL     1     -35.481  13.470  -6.502  1.00 20.00     0.006 C 
HETATM    7  C7  UNL     1     -33.990  15.570  -6.740  1.00 20.00    -0.014 C 
HETATM    8  C8  UNL     1     -35.857  15.007  -4.390  1.00 20.00    -0.006 A 
HETATM    9  C9  UNL     1     -34.604  14.214  -4.073  1.00 20.00    -0.006 A 
HETATM   10  C10 UNL     1     -35.636  13.649  -5.029  1.00 20.00    -0.006 A 
ENDROOT
TORSDOF 0
ENDMDL
MODEL 3
REMARK VINA RESULT:      -4.4      0.049      2.409
REMARK  0 active torsions:
REMARK  status: ('A' for Active; 'I' for Inactive)
ROOT
HETATM    1  C1  UNL     1     -34.262  14.143  -7.211  1.00 20.00     0.005 C 
HETATM    2  C2  UNL     1     -35.277  16.377  -6.523  1.00 20.00     0.005 C 
HETATM    3  C3  UNL     1     -33.040  15.640  -5.551  1.00 20.00     0.005 C 
HETATM    4  C4  UNL     1     -35.458  13.463  -6.557  1.00 20.00     0.006 C 
HETATM    5  C5  UNL     1     -35.848  16.308  -5.112  1.00 20.00     0.006 C 
HETATM    6  C6  UNL     1     -33.229  14.545  -4.511  1.00 20.00     0.006 C 
HETATM    7  C7  UNL     1     -33.986  15.582  -6.756  1.00 20.00    -0.014 C 
HETATM    8  C8  UNL     1     -35.636  13.629  -5.086  1.00 20.00    -0.006 A 
HETATM    9  C9  UNL     1     -35.880  14.977  -4.438  1.00 20.00    -0.006 A 
HETATM   10  C10 UNL     1     -34.623  14.196  -4.111  1.00 20.00    -0.006 A 
ENDROOT
TORSDOF 0
ENDMDL
MODEL 4
REMARK VINA RESULT:      -4.2      0.667      2.940
REMARK  0 active torsions:
REMARK  status: ('A' for Active; 'I' for Inactive)
ROOT
HETATM    1  C1  UNL     1     -34.185  14.173  -4.139  1.00 20.00     0.005 C 
HETATM    2  C2  UNL     1     -36.152  15.657  -4.790  1.00 20.00     0.005 C 
HETATM    3  C3  UNL     1     -35.701  13.502  -6.074  1.00 20.00     0.005 C 
HETATM    4  C4  UNL     1     -33.264  15.319  -4.538  1.00 20.00     0.006 C 
HETATM    5  C5  UNL     1     -35.862  16.417  -6.077  1.00 20.00     0.006 C 
HETATM    6  C6  UNL     1     -34.499  13.655  -6.995  1.00 20.00     0.006 C 
HETATM    7  C7  UNL     1     -35.602  14.226  -4.726  1.00 20.00    -0.014 C 
HETATM    8  C8  UNL     1     -33.262  15.747  -5.966  1.00 20.00    -0.006 A 
HETATM    9  C9  UNL     1     -34.488  16.320  -6.649  1.00 20.00    -0.006 A 
HETATM   10  C10 UNL     1     -33.894  15.012  -7.132  1.00 20.00    -0.006 A 
ENDROOT
TORSDOF 0
ENDMDL
MODEL 5
REMARK VINA RESULT:      -4.2      0.711      2.946
REMARK  0 active torsions:
REMARK  status: ('A' for Active; 'I' for Inactive)
ROOT
HETATM    1  C1  UNL     1     -36.101  15.622  -4.836  1.00 20.00     0.005 C 
HETATM    2  C2  UNL     1     -35.661  13.437  -6.072  1.00 20.00     0.005 C 
HETATM    3  C3  UNL     1     -34.060  14.215  -4.248  1.00 20.00     0.005 C 
HETATM    4  C4  UNL     1     -35.905  16.345  -6.163  1.00 20.00     0.006 C 
HETATM    5  C5  UNL     1     -34.516  13.590  -7.064  1.00 20.00     0.006 C 
HETATM    6  C6  UNL     1     -33.195  15.369  -4.736  1.00 20.00     0.006 C 
HETATM    7  C7  UNL     1     -35.507  14.210  -4.755  1.00 20.00    -0.014 C 
HETATM    8  C8  UNL     1     -34.563  16.265  -6.808  1.00 20.00    -0.006 A 
HETATM    9  C9  UNL     1     -33.959  14.957  -7.279  1.00 20.00    -0.006 A 
HETATM   10  C10 UNL     1     -33.285  15.748  -6.176  1.00 20.00    -0.006 A 
ENDROOT
TORSDOF 0
ENDMDL
MODEL 6
REMARK VINA RESULT:      -4.2      0.658      2.932
REMARK  0 active torsions:
REMARK  status: ('A' for Active; 'I' for Inactive)
ROOT
HETATM    1  C1  UNL     1     -35.687  13.515  -6.099  1.00 20.00     0.005 C 
HETATM    2  C2  UNL     1     -34.181  14.166  -4.148  1.00 20.00     0.005 C 
HETATM    3  C3  UNL     1     -36.145  15.655  -4.795  1.00 20.00     0.005 C 
HETATM    4  C4  UNL     1     -34.478  13.678  -7.011  1.00 20.00     0.006 C 
HETATM    5  C5  UNL     1     -33.257  15.315  -4.529  1.00 20.00     0.006 C 
HETATM    6  C6  UNL     1     -35.847  16.430  -6.072  1.00 20.00     0.006 C 
HETATM    7  C7  UNL     1     -35.595  14.225  -4.742  1.00 20.00    -0.014 C 
HETATM    8  C8  UNL     1     -33.873  15.036  -7.130  1.00 20.00    -0.006 A 
HETATM    9  C9  UNL     1     -33.248  15.759  -5.953  1.00 20.00    -0.006 A 
HETATM   10  C10 UNL     1     -34.470  16.339  -6.637  1.00 20.00    -0.006 A 
ENDROOT
TORSDOF 0
ENDMDL
MODEL 7
REMARK VINA RESULT:      -4.2      1.370      3.203
REMARK  0 active torsions:
REMARK  status: ('A' for Active; 'I' for Inactive)
ROOT
HETATM    1  C1  UNL     1     -33.636  16.101  -5.547  1.00 20.00     0.005 C 
HETATM    2  C2  UNL     1     -33.764  16.420  -3.022  1.00 20.00     0.005 C 
HETATM    3  C3  UNL     1     -34.077  14.101  -4.031  1.00 20.00     0.005 C 
HETATM    4  C4  UNL     1     -34.872  16.983  -5.664  1.00 20.00     0.006 C 
HETATM    5  C5  UNL     1     -35.204  16.340  -2.532  1.00 20.00     0.006 C 
HETATM    6  C6  UNL     1     -35.442  13.972  -4.693  1.00 20.00     0.006 C 
HETATM    7  C7  UNL     1     -33.398  15.469  -4.169  1.00 20.00    -0.014 C 
HETATM    8  C8  UNL     1     -36.138  16.493  -5.047  1.00 20.00    -0.006 A 
HETATM    9  C9  UNL     1     -36.285  16.257  -3.557  1.00 20.00    -0.006 A 
HETATM   10  C10 UNL     1     -36.408  15.096  -4.523  1.00 20.00    -0.006 A 
ENDROOT
TORSDOF 0
ENDMDL
MODEL 8
REMARK VINA RESULT:      -4.2      1.431      2.821
REMARK  0 active torsions:
REMARK  status: ('A' for Active; 'I' for Inactive)
ROOT
HETATM    1  C1  UNL     1     -34.100  14.159  -4.071  1.00 20.00     0.005 C 
HETATM    2  C2  UNL     1     -33.691  16.190  -5.554  1.00 20.00     0.005 C 
HETATM    3  C3  UNL     1     -33.694  16.443  -3.019  1.00 20.00     0.005 C 
HETATM    4  C4  UNL     1     -35.498  14.074  -4.672  1.00 20.00     0.006 C 
HETATM    5  C5  UNL     1     -34.913  17.098  -5.589  1.00 20.00     0.006 C 
HETATM    6  C6  UNL     1     -35.110  16.376  -2.464  1.00 20.00     0.006 C 
HETATM    7  C7  UNL     1     -33.401  15.518  -4.206  1.00 20.00    -0.014 C 
HETATM    8  C8  UNL     1     -36.432  15.209  -4.428  1.00 20.00    -0.006 A 
HETATM    9  C9  UNL     1     -36.159  16.615  -4.926  1.00 20.00    -0.006 A 
HETATM   10  C10 UNL     1     -36.240  16.342  -3.437  1.00 20.00    -0.006 A 
ENDROOT
TORSDOF 0
ENDMDL
MODEL 9
REMARK VINA RESULT:      -4.2      1.407      2.416
REMARK  0 active torsions:
REMARK  status: ('A' for Active; 'I' for Inactive)
ROOT
HETATM    1  C1  UNL     1     -33.692  16.390  -3.035  1.00 20.00     0.005 C 
HETATM    2  C2  UNL     1     -34.169  14.123  -4.097  1.00 20.00     0.005 C 
HETATM    3  C3  UNL     1     -33.674  16.142  -5.571  1.00 20.00     0.005 C 
HETATM    4  C4  UNL     1     -35.115  16.371  -2.493  1.00 20.00     0.006 C 
HETATM    5  C5  UNL     1     -35.563  14.088  -4.711  1.00 20.00     0.006 C 
HETATM    6  C6  UNL     1     -34.863  17.092  -5.615  1.00 20.00     0.006 C 
HETATM    7  C7  UNL     1     -33.421  15.457  -4.223  1.00 20.00    -0.014 C 
HETATM    8  C8  UNL     1     -36.236  16.379  -3.477  1.00 20.00    -0.006 A 
HETATM    9  C9  UNL     1     -36.458  15.257  -4.471  1.00 20.00    -0.006 A 
HETATM   10  C10 UNL     1     -36.132  16.652  -4.965  1.00 20.00    -0.006 A 
ENDROOT
TORSDOF 0
ENDMDL
