MODEL 1
REMARK VINA RESULT:      -5.8      0.000      0.000
REMARK  4 active torsions:
REMARK  status: ('A' for Active; 'I' for Inactive)
REMARK    1  A    between atoms: C2_2  and  C4_4 
REMARK    2  A    between atoms: C3_3  and  C7_7 
REMARK    3  A    between atoms: C6_6  and  O10_10 
REMARK    4  A    between atoms: C7_7  and  O10_10 
ROOT
HETATM    1  C2  UNL     1     -33.691   6.868   3.602  1.00 20.00     0.006 C 
HETATM    2  C3  UNL     1     -32.890   7.121   2.558  1.00 20.00     0.082 C 
ENDROOT
BRANCH   2   3
HETATM    3  C7  UNL     1     -31.788   8.102   2.695  1.00 20.00     0.287 C 
HETATM    4  O9  UNL     1     -31.319   8.486   3.757  1.00 20.00    -0.260 OA
BRANCH   3   5
HETATM    5  O10 UNL     1     -31.428   8.481   1.431  1.00 20.00    -0.289 OA
BRANCH   5   6
HETATM    6  C6  UNL     1     -32.393   9.219   0.772  1.00 20.00     0.135 C 
HETATM    7  C1  UNL     1     -32.725  10.478   1.067  1.00 20.00     0.038 C 
ENDBRANCH   5   6
ENDBRANCH   3   5
ENDBRANCH   2   3
BRANCH   1   8
HETATM    8  C4  UNL     1     -34.785   5.925   3.536  1.00 20.00    -0.004 C 
HETATM    9  C5  UNL     1     -35.143   5.142   4.565  1.00 20.00    -0.031 C 
HETATM   10  C8  UNL     1     -34.457   5.153   5.891  1.00 20.00     0.036 C 
ENDBRANCH   1   8
TORSDOF 4
ENDMDL
MODEL 2
REMARK VINA RESULT:      -5.7      2.056      5.189
REMARK  4 active torsions:
REMARK  status: ('A' for Active; 'I' for Inactive)
REMARK    1  A    between atoms: C2_2  and  C4_4 
REMARK    2  A    between atoms: C3_3  and  C7_7 
REMARK    3  A    between atoms: C6_6  and  O10_10 
REMARK    4  A    between atoms: C7_7  and  O10_10 
ROOT
HETATM    1  C2  UNL     1     -32.497   7.779   1.960  1.00 20.00     0.006 C 
HETATM    2  C3  UNL     1     -33.128   7.243   3.013  1.00 20.00     0.082 C 
ENDROOT
BRANCH   2   3
HETATM    3  C7  UNL     1     -33.497   5.807   3.000  1.00 20.00     0.287 C 
HETATM    4  O9  UNL     1     -32.772   4.902   2.616  1.00 20.00    -0.260 OA
BRANCH   3   5
HETATM    5  O10 UNL     1     -34.775   5.717   3.478  1.00 20.00    -0.289 OA
BRANCH   5   6
HETATM    6  C6  UNL     1     -34.891   4.955   4.625  1.00 20.00     0.135 C 
HETATM    7  C1  UNL     1     -34.567   5.367   5.853  1.00 20.00     0.038 C 
ENDBRANCH   5   6
ENDBRANCH   3   5
ENDBRANCH   2   3
BRANCH   1   8
HETATM    8  C4  UNL     1     -32.111   9.172   1.907  1.00 20.00    -0.004 C 
HETATM    9  C5  UNL     1     -32.387   9.971   0.866  1.00 20.00    -0.031 C 
HETATM   10  C8  UNL     1     -33.120   9.519  -0.354  1.00 20.00     0.036 C 
ENDBRANCH   1   8
TORSDOF 4
ENDMDL
MODEL 3
REMARK VINA RESULT:      -5.7      1.932      4.946
REMARK  4 active torsions:
REMARK  status: ('A' for Active; 'I' for Inactive)
REMARK    1  A    between atoms: C2_2  and  C4_4 
REMARK    2  A    between atoms: C3_3  and  C7_7 
REMARK    3  A    between atoms: C6_6  and  O10_10 
REMARK    4  A    between atoms: C7_7  and  O10_10 
ROOT
HETATM    1  C2  UNL     1     -32.749   7.795   2.488  1.00 20.00     0.006 C 
HETATM    2  C3  UNL     1     -32.489   7.672   3.797  1.00 20.00     0.082 C 
ENDROOT
BRANCH   2   3
HETATM    3  C7  UNL     1     -33.552   7.208   4.720  1.00 20.00     0.287 C 
HETATM    4  O9  UNL     1     -33.529   7.335   5.935  1.00 20.00    -0.260 OA
BRANCH   3   5
HETATM    5  O10 UNL     1     -34.520   6.621   3.953  1.00 20.00    -0.289 OA
BRANCH   5   6
HETATM    6  C6  UNL     1     -34.995   5.429   4.466  1.00 20.00     0.135 C 
HETATM    7  C1  UNL     1     -34.344   4.265   4.424  1.00 20.00     0.038 C 
ENDBRANCH   5   6
ENDBRANCH   3   5
ENDBRANCH   2   3
BRANCH   1   8
HETATM    8  C4  UNL     1     -31.759   8.244   1.535  1.00 20.00    -0.004 C 
HETATM    9  C5  UNL     1     -31.854   9.404   0.869  1.00 20.00    -0.031 C 
HETATM   10  C8  UNL     1     -32.987  10.363   1.034  1.00 20.00     0.036 C 
ENDBRANCH   1   8
TORSDOF 4
ENDMDL
MODEL 4
REMARK VINA RESULT:      -4.9      2.605      4.754
REMARK  4 active torsions:
REMARK  status: ('A' for Active; 'I' for Inactive)
REMARK    1  A    between atoms: C2_2  and  C4_4 
REMARK    2  A    between atoms: C3_3  and  C7_7 
REMARK    3  A    between atoms: C6_6  and  O10_10 
REMARK    4  A    between atoms: C7_7  and  O10_10 
ROOT
HETATM    1  C2  UNL     1     -33.626   6.777   2.748  1.00 20.00     0.006 C 
HETATM    2  C3  UNL     1     -33.436   5.472   2.988  1.00 20.00     0.082 C 
ENDROOT
BRANCH   2   3
HETATM    3  C7  UNL     1     -34.270   4.778   3.998  1.00 20.00     0.287 C 
HETATM    4  O9  UNL     1     -34.297   3.569   4.173  1.00 20.00    -0.260 OA
BRANCH   3   5
HETATM    5  O10 UNL     1     -34.984   5.740   4.658  1.00 20.00    -0.289 OA
BRANCH   5   6
HETATM    6  C6  UNL     1     -34.431   6.118   5.867  1.00 20.00     0.135 C 
HETATM    7  C1  UNL     1     -33.832   7.286   6.102  1.00 20.00     0.038 C 
ENDBRANCH   5   6
ENDBRANCH   3   5
ENDBRANCH   2   3
BRANCH   1   8
HETATM    8  C4  UNL     1     -32.847   7.514   1.779  1.00 20.00    -0.004 C 
HETATM    9  C5  UNL     1     -31.801   8.284   2.112  1.00 20.00    -0.031 C 
HETATM   10  C8  UNL     1     -31.321   8.469   3.514  1.00 20.00     0.036 C 
ENDBRANCH   1   8
TORSDOF 4
ENDMDL
MODEL 5
REMARK VINA RESULT:      -4.7     10.486     11.281
REMARK  4 active torsions:
REMARK  status: ('A' for Active; 'I' for Inactive)
REMARK    1  A    between atoms: C2_2  and  C4_4 
REMARK    2  A    between atoms: C3_3  and  C7_7 
REMARK    3  A    between atoms: C6_6  and  O10_10 
REMARK    4  A    between atoms: C7_7  and  O10_10 
ROOT
HETATM    1  C2  UNL     1     -34.837  15.461  -4.094  1.00 20.00     0.006 C 
HETATM    2  C3  UNL     1     -34.849  14.132  -4.271  1.00 20.00     0.082 C 
ENDROOT
BRANCH   2   3
HETATM    3  C7  UNL     1     -35.931  13.504  -5.065  1.00 20.00     0.287 C 
HETATM    4  O9  UNL     1     -37.126  13.701  -4.900  1.00 20.00    -0.260 OA
BRANCH   3   5
HETATM    5  O10 UNL     1     -35.332  12.681  -5.979  1.00 20.00    -0.289 OA
BRANCH   5   6
HETATM    6  C6  UNL     1     -35.290  13.201  -7.258  1.00 20.00     0.135 C 
HETATM    7  C1  UNL     1     -34.258  13.870  -7.777  1.00 20.00     0.038 C 
ENDBRANCH   5   6
ENDBRANCH   3   5
ENDBRANCH   2   3
BRANCH   1   8
HETATM    8  C4  UNL     1     -33.812  16.136  -3.330  1.00 20.00    -0.004 C 
HETATM    9  C5  UNL     1     -34.058  16.775  -2.176  1.00 20.00    -0.031 C 
HETATM   10  C8  UNL     1     -35.411  16.861  -1.549  1.00 20.00     0.036 C 
ENDBRANCH   1   8
TORSDOF 4
ENDMDL
MODEL 6
REMARK VINA RESULT:      -4.3     10.463     11.377
REMARK  4 active torsions:
REMARK  status: ('A' for Active; 'I' for Inactive)
REMARK    1  A    between atoms: C2_2  and  C4_4 
REMARK    2  A    between atoms: C3_3  and  C7_7 
REMARK    3  A    between atoms: C6_6  and  O10_10 
REMARK    4  A    between atoms: C7_7  and  O10_10 
ROOT
HETATM    1  C2  UNL     1     -34.744  15.680  -3.754  1.00 20.00     0.006 C 
HETATM    2  C3  UNL     1     -34.599  14.398  -4.115  1.00 20.00     0.082 C 
ENDROOT
BRANCH   2   3
HETATM    3  C7  UNL     1     -35.687  13.712  -4.851  1.00 20.00     0.287 C 
HETATM    4  O9  UNL     1     -35.550  12.699  -5.520  1.00 20.00    -0.260 OA
BRANCH   3   5
HETATM    5  O10 UNL     1     -36.831  14.433  -4.640  1.00 20.00    -0.289 OA
BRANCH   5   6
HETATM    6  C6  UNL     1     -37.698  14.435  -5.716  1.00 20.00     0.135 C 
HETATM    7  C1  UNL     1     -37.666  15.312  -6.722  1.00 20.00     0.038 C 
ENDBRANCH   5   6
ENDBRANCH   3   5
ENDBRANCH   2   3
BRANCH   1   8
HETATM    8  C4  UNL     1     -33.724  16.408  -3.033  1.00 20.00    -0.004 C 
HETATM    9  C5  UNL     1     -33.946  17.012  -1.856  1.00 20.00    -0.031 C 
HETATM   10  C8  UNL     1     -35.266  17.004  -1.157  1.00 20.00     0.036 C 
ENDBRANCH   1   8
TORSDOF 4
ENDMDL
MODEL 7
REMARK VINA RESULT:      -4.0     10.664     11.312
REMARK  4 active torsions:
REMARK  status: ('A' for Active; 'I' for Inactive)
REMARK    1  A    between atoms: C2_2  and  C4_4 
REMARK    2  A    between atoms: C3_3  and  C7_7 
REMARK    3  A    between atoms: C6_6  and  O10_10 
REMARK    4  A    between atoms: C7_7  and  O10_10 
ROOT
HETATM    1  C2  UNL     1     -34.155  16.306  -3.121  1.00 20.00     0.006 C 
HETATM    2  C3  UNL     1     -34.475  15.156  -3.728  1.00 20.00     0.082 C 
ENDROOT
BRANCH   2   3
HETATM    3  C7  UNL     1     -33.828  14.794  -5.011  1.00 20.00     0.287 C 
HETATM    4  O9  UNL     1     -32.977  15.462  -5.579  1.00 20.00    -0.260 OA
BRANCH   3   5
HETATM    5  O10 UNL     1     -34.373  13.606  -5.414  1.00 20.00    -0.289 OA
BRANCH   5   6
HETATM    6  C6  UNL     1     -35.745  13.645  -5.575  1.00 20.00     0.135 C 
HETATM    7  C1  UNL     1     -36.374  14.029  -6.688  1.00 20.00     0.038 C 
ENDBRANCH   5   6
ENDBRANCH   3   5
ENDBRANCH   2   3
BRANCH   1   8
HETATM    8  C4  UNL     1     -34.749  16.720  -1.869  1.00 20.00    -0.004 C 
HETATM    9  C5  UNL     1     -34.135  17.536  -0.999  1.00 20.00    -0.031 C 
HETATM   10  C8  UNL     1     -32.774  18.109  -1.221  1.00 20.00     0.036 C 
ENDBRANCH   1   8
TORSDOF 4
ENDMDL
MODEL 8
REMARK VINA RESULT:      -4.0      1.345      4.812
REMARK  4 active torsions:
REMARK  status: ('A' for Active; 'I' for Inactive)
REMARK    1  A    between atoms: C2_2  and  C4_4 
REMARK    2  A    between atoms: C3_3  and  C7_7 
REMARK    3  A    between atoms: C6_6  and  O10_10 
REMARK    4  A    between atoms: C7_7  and  O10_10 
ROOT
HETATM    1  C2  UNL     1     -32.233   9.403   1.613  1.00 20.00     0.006 C 
HETATM    2  C3  UNL     1     -32.897   8.502   2.351  1.00 20.00     0.082 C 
ENDROOT
BRANCH   2   3
HETATM    3  C7  UNL     1     -32.165   7.673   3.337  1.00 20.00     0.287 C 
HETATM    4  O9  UNL     1     -31.162   8.024   3.940  1.00 20.00    -0.260 OA
BRANCH   3   5
HETATM    5  O10 UNL     1     -32.819   6.474   3.417  1.00 20.00    -0.289 OA
BRANCH   5   6
HETATM    6  C6  UNL     1     -33.945   6.503   4.218  1.00 20.00     0.135 C 
HETATM    7  C1  UNL     1     -35.059   5.804   3.994  1.00 20.00     0.038 C 
ENDBRANCH   5   6
ENDBRANCH   3   5
ENDBRANCH   2   3
BRANCH   1   8
HETATM    8  C4  UNL     1     -32.885  10.242   0.632  1.00 20.00    -0.004 C 
HETATM    9  C5  UNL     1     -33.097   9.860  -0.636  1.00 20.00    -0.031 C 
HETATM   10  C8  UNL     1     -32.686   8.531  -1.180  1.00 20.00     0.036 C 
ENDBRANCH   1   8
TORSDOF 4
ENDMDL
MODEL 9
REMARK VINA RESULT:      -3.7      1.663      2.840
REMARK  4 active torsions:
REMARK  status: ('A' for Active; 'I' for Inactive)
REMARK    1  A    between atoms: C2_2  and  C4_4 
REMARK    2  A    between atoms: C3_3  and  C7_7 
REMARK    3  A    between atoms: C6_6  and  O10_10 
REMARK    4  A    between atoms: C7_7  and  O10_10 
ROOT
HETATM    1  C2  UNL     1     -33.117   7.383   4.852  1.00 20.00     0.006 C 
HETATM    2  C3  UNL     1     -33.562   7.840   3.674  1.00 20.00     0.082 C 
ENDROOT
BRANCH   2   3
HETATM    3  C7  UNL     1     -32.629   7.954   2.527  1.00 20.00     0.287 C 
HETATM    4  O9  UNL     1     -32.368   8.992   1.938  1.00 20.00    -0.260 OA
BRANCH   3   5
HETATM    5  O10 UNL     1     -32.151   6.698   2.273  1.00 20.00    -0.289 OA
BRANCH   5   6
HETATM    6  C6  UNL     1     -33.131   5.725   2.225  1.00 20.00     0.135 C 
HETATM    7  C1  UNL     1     -32.931   4.427   2.461  1.00 20.00     0.038 C 
ENDBRANCH   5   6
ENDBRANCH   3   5
ENDBRANCH   2   3
BRANCH   1   8
HETATM    8  C4  UNL     1     -33.972   7.248   6.010  1.00 20.00    -0.004 C 
HETATM    9  C5  UNL     1     -34.672   6.137   6.280  1.00 20.00    -0.031 C 
HETATM   10  C8  UNL     1     -34.650   4.915   5.422  1.00 20.00     0.036 C 
ENDBRANCH   1   8
TORSDOF 4
ENDMDL
