MODEL 1
REMARK VINA RESULT:      -4.3      0.000      0.000
REMARK  3 active torsions:
REMARK  status: ('A' for Active; 'I' for Inactive)
REMARK    1  A    between atoms: C3_3  and  C5_5 
REMARK    2  A    between atoms: C4_4  and  C5_5 
REMARK    3  A    between atoms: C5_5  and  O6_6 
ROOT
HETATM    1  C5  UNL     1     -33.287   7.442   4.150  1.00 20.00     0.132 C 
ENDROOT
BRANCH   1   2
HETATM    2  C3  UNL     1     -33.850   6.077   3.955  1.00 20.00     0.015 A 
HETATM    3  C1  UNL     1     -34.634   5.417   5.055  1.00 20.00     0.007 A 
HETATM    4  C2  UNL     1     -35.334   5.884   3.809  1.00 20.00     0.007 A 
ENDBRANCH   1   2
BRANCH   1   5
HETATM    5  C4  UNL     1     -32.024   7.649   3.320  1.00 20.00     0.117 C 
HETATM    6 BR7  UNL     1     -32.405   8.748   1.751  1.00 20.00    -0.094 Br
ENDBRANCH   1   5
BRANCH   1   7
HETATM    7  O6  UNL     1     -32.951   7.623   5.530  1.00 20.00    -0.394 OA
HETATM    8  H16 UNL     1     -33.755   7.431   6.032  1.00 20.00     0.210 HD
ENDBRANCH   1   7
TORSDOF 3
ENDMDL
MODEL 2
REMARK VINA RESULT:      -4.2      1.894      2.036
REMARK  3 active torsions:
REMARK  status: ('A' for Active; 'I' for Inactive)
REMARK    1  A    between atoms: C3_3  and  C5_5 
REMARK    2  A    between atoms: C4_4  and  C5_5 
REMARK    3  A    between atoms: C5_5  and  O6_6 
ROOT
HETATM    1  C5  UNL     1     -33.182   5.975   3.486  1.00 20.00     0.132 C 
ENDROOT
BRANCH   1   2
HETATM    2  C3  UNL     1     -34.438   5.923   4.284  1.00 20.00     0.015 A 
HETATM    3  C1  UNL     1     -34.682   4.786   5.238  1.00 20.00     0.007 A 
HETATM    4  C2  UNL     1     -34.402   6.165   5.768  1.00 20.00     0.007 A 
ENDBRANCH   1   2
BRANCH   1   5
HETATM    5  C4  UNL     1     -33.131   7.221   2.607  1.00 20.00     0.117 C 
HETATM    6 BR7  UNL     1     -31.600   8.336   3.082  1.00 20.00    -0.094 Br
ENDBRANCH   1   5
BRANCH   1   7
HETATM    7  O6  UNL     1     -33.112   4.826   2.637  1.00 20.00    -0.394 OA
HETATM    8  H16 UNL     1     -32.172   4.678   2.457  1.00 20.00     0.210 HD
ENDBRANCH   1   7
TORSDOF 3
ENDMDL
MODEL 3
REMARK VINA RESULT:      -4.1      1.620      1.899
REMARK  3 active torsions:
REMARK  status: ('A' for Active; 'I' for Inactive)
REMARK    1  A    between atoms: C3_3  and  C5_5 
REMARK    2  A    between atoms: C4_4  and  C5_5 
REMARK    3  A    between atoms: C5_5  and  O6_6 
ROOT
HETATM    1  C5  UNL     1     -32.701   6.942   3.455  1.00 20.00     0.132 C 
ENDROOT
BRANCH   1   2
HETATM    2  C3  UNL     1     -33.824   7.249   4.383  1.00 20.00     0.015 A 
HETATM    3  C1  UNL     1     -34.427   6.161   5.228  1.00 20.00     0.007 A 
HETATM    4  C2  UNL     1     -33.600   7.240   5.871  1.00 20.00     0.007 A 
ENDBRANCH   1   2
BRANCH   1   5
HETATM    5  C4  UNL     1     -31.840   8.174   3.195  1.00 20.00     0.117 C 
HETATM    6 BR7  UNL     1     -32.288   8.975   1.471  1.00 20.00    -0.094 Br
ENDBRANCH   1   5
BRANCH   1   7
HETATM    7  O6  UNL     1     -33.230   6.494   2.203  1.00 20.00    -0.394 OA
HETATM    8  H16 UNL     1     -34.193   6.486   2.303  1.00 20.00     0.210 HD
ENDBRANCH   1   7
TORSDOF 3
ENDMDL
MODEL 4
REMARK VINA RESULT:      -4.1      2.657      3.297
REMARK  3 active torsions:
REMARK  status: ('A' for Active; 'I' for Inactive)
REMARK    1  A    between atoms: C3_3  and  C5_5 
REMARK    2  A    between atoms: C4_4  and  C5_5 
REMARK    3  A    between atoms: C5_5  and  O6_6 
ROOT
HETATM    1  C5  UNL     1     -34.808   5.338   4.446  1.00 20.00     0.132 C 
ENDROOT
BRANCH   1   2
HETATM    2  C3  UNL     1     -33.670   5.796   3.601  1.00 20.00     0.015 A 
HETATM    3  C1  UNL     1     -33.088   4.885   2.556  1.00 20.00     0.007 A 
HETATM    4  C2  UNL     1     -33.883   6.092   2.142  1.00 20.00     0.007 A 
ENDBRANCH   1   2
BRANCH   1   5
HETATM    5  C4  UNL     1     -34.710   5.894   5.863  1.00 20.00     0.117 C 
HETATM    6 BR7  UNL     1     -33.567   7.477   5.902  1.00 20.00    -0.094 Br
ENDBRANCH   1   5
BRANCH   1   7
HETATM    7  O6  UNL     1     -34.795   3.909   4.524  1.00 20.00    -0.394 OA
HETATM    8  H16 UNL     1     -35.579   3.604   4.046  1.00 20.00     0.210 HD
ENDBRANCH   1   7
TORSDOF 3
ENDMDL
MODEL 5
REMARK VINA RESULT:      -4.0      2.594      3.672
REMARK  3 active torsions:
REMARK  status: ('A' for Active; 'I' for Inactive)
REMARK    1  A    between atoms: C3_3  and  C5_5 
REMARK    2  A    between atoms: C4_4  and  C5_5 
REMARK    3  A    between atoms: C5_5  and  O6_6 
ROOT
HETATM    1  C5  UNL     1     -33.905   6.149   2.826  1.00 20.00     0.132 C 
ENDROOT
BRANCH   1   2
HETATM    2  C3  UNL     1     -33.283   7.445   3.216  1.00 20.00     0.015 A 
HETATM    3  C1  UNL     1     -31.791   7.619   3.149  1.00 20.00     0.007 A 
HETATM    4  C2  UNL     1     -32.676   8.339   2.169  1.00 20.00     0.007 A 
ENDBRANCH   1   2
BRANCH   1   5
HETATM    5  C4  UNL     1     -35.087   5.805   3.727  1.00 20.00     0.117 C 
HETATM    6 BR7  UNL     1     -34.484   5.470   5.554  1.00 20.00    -0.094 Br
ENDBRANCH   1   5
BRANCH   1   7
HETATM    7  O6  UNL     1     -32.934   5.104   2.942  1.00 20.00    -0.394 OA
HETATM    8  H16 UNL     1     -32.943   4.828   3.870  1.00 20.00     0.210 HD
ENDBRANCH   1   7
TORSDOF 3
ENDMDL
MODEL 6
REMARK VINA RESULT:      -3.9      2.735      4.077
REMARK  3 active torsions:
REMARK  status: ('A' for Active; 'I' for Inactive)
REMARK    1  A    between atoms: C3_3  and  C5_5 
REMARK    2  A    between atoms: C4_4  and  C5_5 
REMARK    3  A    between atoms: C5_5  and  O6_6 
ROOT
HETATM    1  C5  UNL     1     -32.084   7.945   2.312  1.00 20.00     0.132 C 
ENDROOT
BRANCH   1   2
HETATM    2  C3  UNL     1     -32.941   8.921   1.584  1.00 20.00     0.015 A 
HETATM    3  C1  UNL     1     -32.424  10.299   1.274  1.00 20.00     0.007 A 
HETATM    4  C2  UNL     1     -32.618   9.301   0.165  1.00 20.00     0.007 A 
ENDBRANCH   1   2
BRANCH   1   5
HETATM    5  C4  UNL     1     -32.899   6.760   2.823  1.00 20.00     0.117 C 
HETATM    6 BR7  UNL     1     -33.655   7.152   4.580  1.00 20.00    -0.094 Br
ENDBRANCH   1   5
BRANCH   1   7
HETATM    7  O6  UNL     1     -31.481   8.591   3.438  1.00 20.00    -0.394 OA
HETATM    8  H16 UNL     1     -30.555   8.743   3.199  1.00 20.00     0.210 HD
ENDBRANCH   1   7
TORSDOF 3
ENDMDL
MODEL 7
REMARK VINA RESULT:      -3.8      1.438      1.655
REMARK  3 active torsions:
REMARK  status: ('A' for Active; 'I' for Inactive)
REMARK    1  A    between atoms: C3_3  and  C5_5 
REMARK    2  A    between atoms: C4_4  and  C5_5 
REMARK    3  A    between atoms: C5_5  and  O6_6 
ROOT
HETATM    1  C5  UNL     1     -32.498   7.996   3.018  1.00 20.00     0.132 C 
ENDROOT
BRANCH   1   2
HETATM    2  C3  UNL     1     -32.868   6.554   2.997  1.00 20.00     0.015 A 
HETATM    3  C1  UNL     1     -33.877   6.017   3.975  1.00 20.00     0.007 A 
HETATM    4  C2  UNL     1     -34.229   6.129   2.517  1.00 20.00     0.007 A 
ENDBRANCH   1   2
BRANCH   1   5
HETATM    5  C4  UNL     1     -31.826   8.418   1.715  1.00 20.00     0.117 C 
HETATM    6 BR7  UNL     1     -32.652  10.040   1.009  1.00 20.00    -0.094 Br
ENDBRANCH   1   5
BRANCH   1   7
HETATM    7  O6  UNL     1     -31.583   8.235   4.091  1.00 20.00    -0.394 OA
HETATM    8  H16 UNL     1     -32.103   8.190   4.906  1.00 20.00     0.210 HD
ENDBRANCH   1   7
TORSDOF 3
ENDMDL
MODEL 8
REMARK VINA RESULT:      -3.7      2.331      3.298
REMARK  3 active torsions:
REMARK  status: ('A' for Active; 'I' for Inactive)
REMARK    1  A    between atoms: C3_3  and  C5_5 
REMARK    2  A    between atoms: C4_4  and  C5_5 
REMARK    3  A    between atoms: C5_5  and  O6_6 
ROOT
HETATM    1  C5  UNL     1     -33.266   6.820   5.015  1.00 20.00     0.132 C 
ENDROOT
BRANCH   1   2
HETATM    2  C3  UNL     1     -33.290   7.579   3.734  1.00 20.00     0.015 A 
HETATM    3  C1  UNL     1     -32.008   8.073   3.123  1.00 20.00     0.007 A 
HETATM    4  C2  UNL     1     -32.767   6.949   2.472  1.00 20.00     0.007 A 
ENDBRANCH   1   2
BRANCH   1   5
HETATM    5  C4  UNL     1     -34.567   6.053   5.233  1.00 20.00     0.117 C 
HETATM    6 BR7  UNL     1     -34.418   4.235   4.536  1.00 20.00    -0.094 Br
ENDBRANCH   1   5
BRANCH   1   7
HETATM    7  O6  UNL     1     -33.098   7.734   6.104  1.00 20.00    -0.394 OA
HETATM    8  H16 UNL     1     -32.155   7.727   6.320  1.00 20.00     0.210 HD
ENDBRANCH   1   7
TORSDOF 3
ENDMDL
MODEL 9
REMARK VINA RESULT:      -3.3     11.782     12.515
REMARK  3 active torsions:
REMARK  status: ('A' for Active; 'I' for Inactive)
REMARK    1  A    between atoms: C3_3  and  C5_5 
REMARK    2  A    between atoms: C4_4  and  C5_5 
REMARK    3  A    between atoms: C5_5  and  O6_6 
ROOT
HETATM    1  C5  UNL     1     -35.578  13.975  -5.217  1.00 20.00     0.132 C 
ENDROOT
BRANCH   1   2
HETATM    2  C3  UNL     1     -35.009  14.166  -6.580  1.00 20.00     0.015 A 
HETATM    3  C1  UNL     1     -35.588  13.425  -7.753  1.00 20.00     0.007 A 
HETATM    4  C2  UNL     1     -35.791  14.910  -7.628  1.00 20.00     0.007 A 
ENDBRANCH   1   2
BRANCH   1   5
HETATM    5  C4  UNL     1     -34.573  14.357  -4.134  1.00 20.00     0.117 C 
HETATM    6 BR7  UNL     1     -33.111  15.405  -4.894  1.00 20.00    -0.094 Br
ENDBRANCH   1   5
BRANCH   1   7
HETATM    7  O6  UNL     1     -35.926  12.599  -5.038  1.00 20.00    -0.394 OA
HETATM    8  H16 UNL     1     -36.432  12.343  -5.822  1.00 20.00     0.210 HD
ENDBRANCH   1   7
TORSDOF 3
ENDMDL
