MODEL 1
REMARK VINA RESULT:      -5.4      0.000      0.000
REMARK  0 active torsions:
REMARK  status: ('A' for Active; 'I' for Inactive)
ROOT
HETATM    1  C1  UNL     1     -32.971   7.410   4.079  1.00 20.00     0.198 C 
HETATM    2  C2  UNL     1     -33.810   7.456   5.337  1.00 20.00     0.085 C 
HETATM    3  C3  UNL     1     -33.999   6.098   6.007  1.00 20.00     0.008 C 
HETATM    4  C4  UNL     1     -34.923   5.149   5.241  1.00 20.00     0.000 C 
HETATM    5  C5  UNL     1     -34.240   4.100   4.358  1.00 20.00     0.000 C 
HETATM    6  C6  UNL     1     -32.975   4.487   3.595  1.00 20.00     0.006 C 
HETATM    7  C7  UNL     1     -33.129   5.489   2.451  1.00 20.00     0.087 C 
HETATM    8  C8  UNL     1     -33.614   6.885   2.816  1.00 20.00     0.302 C 
HETATM    9  O9  UNL     1     -31.794   7.774   4.086  1.00 20.00    -0.291 OA
HETATM   10  F10 UNL     1     -33.324   7.710   1.768  1.00 20.00    -0.198 F 
HETATM   11  F11 UNL     1     -34.971   6.882   2.895  1.00 20.00    -0.198 F 
ENDROOT
TORSDOF 0
ENDMDL
MODEL 2
REMARK VINA RESULT:      -5.0     11.997     13.161
REMARK  0 active torsions:
REMARK  status: ('A' for Active; 'I' for Inactive)
ROOT
HETATM    1  C1  UNL     1     -35.870  13.739  -5.643  1.00 20.00     0.198 C 
HETATM    2  C2  UNL     1     -35.554  13.944  -7.108  1.00 20.00     0.085 C 
HETATM    3  C3  UNL     1     -34.090  14.273  -7.387  1.00 20.00     0.008 C 
HETATM    4  C4  UNL     1     -33.670  15.675  -6.941  1.00 20.00     0.000 C 
HETATM    5  C5  UNL     1     -32.954  15.774  -5.591  1.00 20.00     0.000 C 
HETATM    6  C6  UNL     1     -33.405  14.868  -4.448  1.00 20.00     0.006 C 
HETATM    7  C7  UNL     1     -34.783  15.136  -3.845  1.00 20.00     0.087 C 
HETATM    8  C8  UNL     1     -35.984  14.963  -4.763  1.00 20.00     0.302 C 
HETATM    9  O9  UNL     1     -36.013  12.608  -5.176  1.00 20.00    -0.291 OA
HETATM   10  F10 UNL     1     -37.096  14.868  -3.976  1.00 20.00    -0.198 F 
HETATM   11  F11 UNL     1     -36.163  16.099  -5.487  1.00 20.00    -0.198 F 
ENDROOT
TORSDOF 0
ENDMDL
MODEL 3
REMARK VINA RESULT:      -4.9     11.757     13.344
REMARK  0 active torsions:
REMARK  status: ('A' for Active; 'I' for Inactive)
ROOT
HETATM    1  C1  UNL     1     -35.317  13.435  -6.669  1.00 20.00     0.198 C 
HETATM    2  C2  UNL     1     -34.998  14.293  -7.873  1.00 20.00     0.085 C 
HETATM    3  C3  UNL     1     -33.683  15.058  -7.759  1.00 20.00     0.008 C 
HETATM    4  C4  UNL     1     -33.717  16.210  -6.753  1.00 20.00     0.000 C 
HETATM    5  C5  UNL     1     -33.134  15.921  -5.367  1.00 20.00     0.000 C 
HETATM    6  C6  UNL     1     -33.358  14.545  -4.744  1.00 20.00     0.006 C 
HETATM    7  C7  UNL     1     -34.785  14.194  -4.323  1.00 20.00     0.087 C 
HETATM    8  C8  UNL     1     -35.832  14.121  -5.425  1.00 20.00     0.302 C 
HETATM    9  O9  UNL     1     -35.147  12.215  -6.696  1.00 20.00    -0.291 OA
HETATM   10  F10 UNL     1     -36.907  13.440  -4.929  1.00 20.00    -0.198 F 
HETATM   11  F11 UNL     1     -36.298  15.371  -5.684  1.00 20.00    -0.198 F 
ENDROOT
TORSDOF 0
ENDMDL
MODEL 4
REMARK VINA RESULT:      -4.5     11.712     13.155
REMARK  0 active torsions:
REMARK  status: ('A' for Active; 'I' for Inactive)
ROOT
HETATM    1  C1  UNL     1     -35.968  13.697  -5.043  1.00 20.00     0.198 C 
HETATM    2  C2  UNL     1     -37.303  14.407  -5.075  1.00 20.00     0.085 C 
HETATM    3  C3  UNL     1     -37.427  15.447  -6.186  1.00 20.00     0.008 C 
HETATM    4  C4  UNL     1     -36.588  16.706  -5.958  1.00 20.00     0.000 C 
HETATM    5  C5  UNL     1     -35.241  16.767  -6.684  1.00 20.00     0.000 C 
HETATM    6  C6  UNL     1     -34.418  15.489  -6.823  1.00 20.00     0.006 C 
HETATM    7  C7  UNL     1     -33.812  14.906  -5.546  1.00 20.00     0.087 C 
HETATM    8  C8  UNL     1     -34.782  14.439  -4.471  1.00 20.00     0.302 C 
HETATM    9  O9  UNL     1     -35.846  12.554  -5.486  1.00 20.00    -0.291 OA
HETATM   10  F10 UNL     1     -34.093  13.628  -3.616  1.00 20.00    -0.198 F 
HETATM   11  F11 UNL     1     -35.161  15.504  -3.715  1.00 20.00    -0.198 F 
ENDROOT
TORSDOF 0
ENDMDL
MODEL 5
REMARK VINA RESULT:      -4.5     11.859     13.323
REMARK  0 active torsions:
REMARK  status: ('A' for Active; 'I' for Inactive)
ROOT
HETATM    1  C1  UNL     1     -35.121  13.666  -5.325  1.00 20.00     0.198 C 
HETATM    2  C2  UNL     1     -34.487  14.290  -4.103  1.00 20.00     0.085 C 
HETATM    3  C3  UNL     1     -35.071  15.650  -3.728  1.00 20.00     0.008 C 
HETATM    4  C4  UNL     1     -34.693  16.778  -4.690  1.00 20.00     0.000 C 
HETATM    5  C5  UNL     1     -35.733  17.142  -5.754  1.00 20.00     0.000 C 
HETATM    6  C6  UNL     1     -36.556  16.027  -6.395  1.00 20.00     0.006 C 
HETATM    7  C7  UNL     1     -35.817  15.054  -7.313  1.00 20.00     0.087 C 
HETATM    8  C8  UNL     1     -34.726  14.201  -6.682  1.00 20.00     0.302 C 
HETATM    9  O9  UNL     1     -35.947  12.758  -5.219  1.00 20.00    -0.291 OA
HETATM   10  F10 UNL     1     -34.465  13.166  -7.534  1.00 20.00    -0.198 F 
HETATM   11  F11 UNL     1     -33.570  14.915  -6.635  1.00 20.00    -0.198 F 
ENDROOT
TORSDOF 0
ENDMDL
MODEL 6
REMARK VINA RESULT:      -4.5     11.821     12.685
REMARK  0 active torsions:
REMARK  status: ('A' for Active; 'I' for Inactive)
ROOT
HETATM    1  C1  UNL     1     -34.025  14.702  -5.828  1.00 20.00     0.198 C 
HETATM    2  C2  UNL     1     -35.071  13.914  -6.583  1.00 20.00     0.085 C 
HETATM    3  C3  UNL     1     -36.486  14.471  -6.449  1.00 20.00     0.008 C 
HETATM    4  C4  UNL     1     -37.108  14.267  -5.066  1.00 20.00     0.000 C 
HETATM    5  C5  UNL     1     -37.044  15.460  -4.108  1.00 20.00     0.000 C 
HETATM    6  C6  UNL     1     -35.795  16.338  -4.104  1.00 20.00     0.006 C 
HETATM    7  C7  UNL     1     -34.506  15.716  -3.568  1.00 20.00     0.087 C 
HETATM    8  C8  UNL     1     -33.946  14.523  -4.329  1.00 20.00     0.302 C 
HETATM    9  O9  UNL     1     -33.270  15.480  -6.413  1.00 20.00    -0.291 OA
HETATM   10  F10 UNL     1     -32.644  14.363  -3.948  1.00 20.00    -0.198 F 
HETATM   11  F11 UNL     1     -34.574  13.391  -3.914  1.00 20.00    -0.198 F 
ENDROOT
TORSDOF 0
ENDMDL
MODEL 7
REMARK VINA RESULT:      -4.4     11.780     13.281
REMARK  0 active torsions:
REMARK  status: ('A' for Active; 'I' for Inactive)
ROOT
HETATM    1  C1  UNL     1     -35.654  13.721  -5.372  1.00 20.00     0.198 C 
HETATM    2  C2  UNL     1     -34.700  13.903  -4.213  1.00 20.00     0.085 C 
HETATM    3  C3  UNL     1     -34.259  15.348  -3.993  1.00 20.00     0.008 C 
HETATM    4  C4  UNL     1     -33.303  15.877  -5.064  1.00 20.00     0.000 C 
HETATM    5  C5  UNL     1     -33.928  16.724  -6.176  1.00 20.00     0.000 C 
HETATM    6  C6  UNL     1     -35.307  16.342  -6.709  1.00 20.00     0.006 C 
HETATM    7  C7  UNL     1     -35.412  15.043  -7.507  1.00 20.00     0.087 C 
HETATM    8  C8  UNL     1     -35.084  13.752  -6.772  1.00 20.00     0.302 C 
HETATM    9  O9  UNL     1     -36.862  13.568  -5.184  1.00 20.00    -0.291 OA
HETATM   10  F10 UNL     1     -35.593  12.718  -7.505  1.00 20.00    -0.198 F 
HETATM   11  F11 UNL     1     -33.739  13.560  -6.782  1.00 20.00    -0.198 F 
ENDROOT
TORSDOF 0
ENDMDL
MODEL 8
REMARK VINA RESULT:      -4.4      1.867      3.615
REMARK  0 active torsions:
REMARK  status: ('A' for Active; 'I' for Inactive)
ROOT
HETATM    1  C1  UNL     1     -33.793   4.613   3.836  1.00 20.00     0.198 C 
HETATM    2  C2  UNL     1     -33.236   5.239   2.577  1.00 20.00     0.085 C 
HETATM    3  C3  UNL     1     -32.423   6.507   2.821  1.00 20.00     0.008 C 
HETATM    4  C4  UNL     1     -33.264   7.717   3.235  1.00 20.00     0.000 C 
HETATM    5  C5  UNL     1     -33.325   8.021   4.735  1.00 20.00     0.000 C 
HETATM    6  C6  UNL     1     -33.379   6.859   5.724  1.00 20.00     0.006 C 
HETATM    7  C7  UNL     1     -34.656   6.019   5.744  1.00 20.00     0.087 C 
HETATM    8  C8  UNL     1     -35.003   5.257   4.474  1.00 20.00     0.302 C 
HETATM    9  O9  UNL     1     -33.267   3.618   4.337  1.00 20.00    -0.291 OA
HETATM   10  F10 UNL     1     -35.920   4.301   4.802  1.00 20.00    -0.198 F 
HETATM   11  F11 UNL     1     -35.653   6.087   3.616  1.00 20.00    -0.198 F 
ENDROOT
TORSDOF 0
ENDMDL
MODEL 9
REMARK VINA RESULT:      -4.4     12.046     13.351
REMARK  0 active torsions:
REMARK  status: ('A' for Active; 'I' for Inactive)
ROOT
HETATM    1  C1  UNL     1     -34.555  16.118  -5.419  1.00 20.00     0.198 C 
HETATM    2  C2  UNL     1     -33.702  16.284  -6.657  1.00 20.00     0.085 C 
HETATM    3  C3  UNL     1     -34.204  15.498  -7.866  1.00 20.00     0.008 C 
HETATM    4  C4  UNL     1     -34.014  13.985  -7.749  1.00 20.00     0.000 C 
HETATM    5  C5  UNL     1     -35.236  13.178  -7.300  1.00 20.00     0.000 C 
HETATM    6  C6  UNL     1     -36.165  13.771  -6.243  1.00 20.00     0.006 C 
HETATM    7  C7  UNL     1     -35.613  13.906  -4.825  1.00 20.00     0.087 C 
HETATM    8  C8  UNL     1     -34.422  14.835  -4.632  1.00 20.00     0.302 C 
HETATM    9  O9  UNL     1     -35.347  16.996  -5.071  1.00 20.00    -0.291 OA
HETATM   10  F10 UNL     1     -34.327  15.114  -3.299  1.00 20.00    -0.198 F 
HETATM   11  F11 UNL     1     -33.278  14.165  -4.932  1.00 20.00    -0.198 F 
ENDROOT
TORSDOF 0
ENDMDL
