MODEL 1
REMARK VINA RESULT:      -5.8      0.000      0.000
REMARK  1 active torsions:
REMARK  status: ('A' for Active; 'I' for Inactive)
REMARK    1  A    between atoms: C6_6  and  C11_11 
ROOT
HETATM    1  C1  UNL     1     -32.287  10.031   0.421  1.00 20.00    -0.004 C 
HETATM    2  C2  UNL     1     -31.704   8.717   0.334  1.00 20.00    -0.003 C 
HETATM    3  C3  UNL     1     -33.079  10.368   1.447  1.00 20.00    -0.025 C 
HETATM    4  C4  UNL     1     -31.740   7.866   1.369  1.00 20.00    -0.013 C 
HETATM    5  C7  UNL     1     -33.399   9.404   2.557  1.00 20.00     0.044 C 
HETATM    6  C11 UNL     1     -32.399   8.212   2.696  1.00 20.00    -0.000 C 
HETATM    7  C12 UNL     1     -31.284   8.578   3.692  1.00 20.00     0.025 C 
ENDROOT
BRANCH   6   8
HETATM    8  C6  UNL     1     -33.143   7.017   3.241  1.00 20.00    -0.071 C 
HETATM    9  C5  UNL     1     -33.222   5.799   2.693  1.00 20.00    -0.023 C 
HETATM   10  C8  UNL     1     -34.013   4.860   3.539  1.00 20.00     0.027 C 
HETATM   11  C10 UNL     1     -34.692   5.793   4.540  1.00 20.00     0.008 C 
HETATM   12  C9  UNL     1     -33.876   7.085   4.543  1.00 20.00     0.035 C 
ENDBRANCH   6   8
TORSDOF 1
ENDMDL
MODEL 2
REMARK VINA RESULT:      -5.7      1.262      4.739
REMARK  1 active torsions:
REMARK  status: ('A' for Active; 'I' for Inactive)
REMARK    1  A    between atoms: C6_6  and  C11_11 
ROOT
HETATM    1  C1  UNL     1     -34.444   4.239   5.531  1.00 20.00    -0.004 C 
HETATM    2  C2  UNL     1     -33.874   3.968   4.236  1.00 20.00    -0.003 C 
HETATM    3  C3  UNL     1     -34.628   5.496   5.955  1.00 20.00    -0.025 C 
HETATM    4  C4  UNL     1     -33.719   4.938   3.324  1.00 20.00    -0.013 C 
HETATM    5  C7  UNL     1     -34.257   6.684   5.110  1.00 20.00     0.044 C 
HETATM    6  C11 UNL     1     -34.117   6.384   3.584  1.00 20.00    -0.000 C 
HETATM    7  C12 UNL     1     -35.461   6.634   2.876  1.00 20.00     0.025 C 
ENDROOT
BRANCH   6   8
HETATM    8  C6  UNL     1     -33.094   7.324   2.996  1.00 20.00    -0.071 C 
HETATM    9  C5  UNL     1     -32.994   7.711   1.719  1.00 20.00    -0.023 C 
HETATM   10  C8  UNL     1     -31.880   8.682   1.518  1.00 20.00     0.027 C 
HETATM   11  C10 UNL     1     -31.096   8.575   2.824  1.00 20.00     0.008 C 
HETATM   12  C9  UNL     1     -32.054   7.976   3.852  1.00 20.00     0.035 C 
ENDBRANCH   6   8
TORSDOF 1
ENDMDL
MODEL 3
REMARK VINA RESULT:      -5.7      0.159      1.150
REMARK  1 active torsions:
REMARK  status: ('A' for Active; 'I' for Inactive)
REMARK    1  A    between atoms: C6_6  and  C11_11 
ROOT
HETATM    1  C1  UNL     1     -32.164   9.931   0.409  1.00 20.00    -0.004 C 
HETATM    2  C2  UNL     1     -31.612   8.601   0.387  1.00 20.00    -0.003 C 
HETATM    3  C3  UNL     1     -33.004  10.313   1.380  1.00 20.00    -0.025 C 
HETATM    4  C4  UNL     1     -31.729   7.778   1.438  1.00 20.00    -0.013 C 
HETATM    5  C7  UNL     1     -33.412   9.385   2.493  1.00 20.00     0.044 C 
HETATM    6  C11 UNL     1     -32.453   8.173   2.717  1.00 20.00    -0.000 C 
HETATM    7  C12 UNL     1     -31.387   8.536   3.767  1.00 20.00     0.025 C 
ENDROOT
BRANCH   6   8
HETATM    8  C6  UNL     1     -33.257   7.011   3.246  1.00 20.00    -0.071 C 
HETATM    9  C5  UNL     1     -34.099   7.020   4.286  1.00 20.00    -0.023 C 
HETATM   10  C8  UNL     1     -34.746   5.692   4.489  1.00 20.00     0.027 C 
HETATM   11  C10 UNL     1     -33.910   4.768   3.605  1.00 20.00     0.008 C 
HETATM   12  C9  UNL     1     -33.205   5.666   2.591  1.00 20.00     0.035 C 
ENDBRANCH   6   8
TORSDOF 1
ENDMDL
MODEL 4
REMARK VINA RESULT:      -5.4      1.013      4.566
REMARK  1 active torsions:
REMARK  status: ('A' for Active; 'I' for Inactive)
REMARK    1  A    between atoms: C6_6  and  C11_11 
ROOT
HETATM    1  C1  UNL     1     -34.795   6.113   5.332  1.00 20.00    -0.004 C 
HETATM    2  C2  UNL     1     -33.694   7.003   5.595  1.00 20.00    -0.003 C 
HETATM    3  C3  UNL     1     -35.204   5.872   4.079  1.00 20.00    -0.025 C 
HETATM    4  C4  UNL     1     -32.898   7.440   4.608  1.00 20.00    -0.013 C 
HETATM    5  C7  UNL     1     -34.540   6.507   2.888  1.00 20.00     0.044 C 
HETATM    6  C11 UNL     1     -33.098   7.045   3.152  1.00 20.00    -0.000 C 
HETATM    7  C12 UNL     1     -32.063   5.956   2.815  1.00 20.00     0.025 C 
ENDROOT
BRANCH   6   8
HETATM    8  C6  UNL     1     -32.848   8.227   2.248  1.00 20.00    -0.071 C 
HETATM    9  C5  UNL     1     -33.597   9.331   2.139  1.00 20.00    -0.023 C 
HETATM   10  C8  UNL     1     -33.014  10.303   1.170  1.00 20.00     0.027 C 
HETATM   11  C10 UNL     1     -31.955   9.471   0.448  1.00 20.00     0.008 C 
HETATM   12  C9  UNL     1     -31.645   8.287   1.361  1.00 20.00     0.035 C 
ENDBRANCH   6   8
TORSDOF 1
ENDMDL
MODEL 5
REMARK VINA RESULT:      -5.3      9.741     10.820
REMARK  1 active torsions:
REMARK  status: ('A' for Active; 'I' for Inactive)
REMARK    1  A    between atoms: C6_6  and  C11_11 
ROOT
HETATM    1  C1  UNL     1     -35.733  13.902  -4.884  1.00 20.00    -0.004 C 
HETATM    2  C2  UNL     1     -34.393  14.021  -4.370  1.00 20.00    -0.003 C 
HETATM    3  C3  UNL     1     -36.677  14.797  -4.566  1.00 20.00    -0.025 C 
HETATM    4  C4  UNL     1     -33.979  15.134  -3.749  1.00 20.00    -0.013 C 
HETATM    5  C7  UNL     1     -36.393  15.968  -3.665  1.00 20.00     0.044 C 
HETATM    6  C11 UNL     1     -34.882  16.340  -3.533  1.00 20.00    -0.000 C 
HETATM    7  C12 UNL     1     -34.509  17.399  -4.587  1.00 20.00     0.025 C 
ENDROOT
BRANCH   6   8
HETATM    8  C6  UNL     1     -34.647  16.934  -2.166  1.00 20.00    -0.071 C 
HETATM    9  C5  UNL     1     -35.535  17.044  -1.171  1.00 20.00    -0.023 C 
HETATM   10  C8  UNL     1     -34.929  17.650   0.050  1.00 20.00     0.027 C 
HETATM   11  C10 UNL     1     -33.603  18.204  -0.467  1.00 20.00     0.008 C 
HETATM   12  C9  UNL     1     -33.303  17.456  -1.766  1.00 20.00     0.035 C 
ENDBRANCH   6   8
TORSDOF 1
ENDMDL
MODEL 6
REMARK VINA RESULT:      -5.2      9.651     10.829
REMARK  1 active torsions:
REMARK  status: ('A' for Active; 'I' for Inactive)
REMARK    1  A    between atoms: C6_6  and  C11_11 
ROOT
HETATM    1  C1  UNL     1     -35.177  14.099  -7.022  1.00 20.00    -0.004 C 
HETATM    2  C2  UNL     1     -35.688  13.585  -5.777  1.00 20.00    -0.003 C 
HETATM    3  C3  UNL     1     -34.354  15.154  -7.047  1.00 20.00    -0.025 C 
HETATM    4  C4  UNL     1     -35.190  13.988  -4.599  1.00 20.00    -0.013 C 
HETATM    5  C7  UNL     1     -33.917  15.855  -5.789  1.00 20.00     0.044 C 
HETATM    6  C11 UNL     1     -34.071  15.012  -4.484  1.00 20.00    -0.000 C 
HETATM    7  C12 UNL     1     -32.765  14.248  -4.197  1.00 20.00     0.025 C 
ENDROOT
BRANCH   6   8
HETATM    8  C6  UNL     1     -34.331  15.948  -3.330  1.00 20.00    -0.071 C 
HETATM    9  C5  UNL     1     -33.432  16.696  -2.680  1.00 20.00    -0.023 C 
HETATM   10  C8  UNL     1     -34.066  17.529  -1.617  1.00 20.00     0.027 C 
HETATM   11  C10 UNL     1     -35.462  16.921  -1.496  1.00 20.00     0.008 C 
HETATM   12  C9  UNL     1     -35.713  16.161  -2.797  1.00 20.00     0.035 C 
ENDBRANCH   6   8
TORSDOF 1
ENDMDL
MODEL 7
REMARK VINA RESULT:      -5.2      9.849     10.872
REMARK  1 active torsions:
REMARK  status: ('A' for Active; 'I' for Inactive)
REMARK    1  A    between atoms: C6_6  and  C11_11 
ROOT
HETATM    1  C1  UNL     1     -34.071  18.232   0.231  1.00 20.00    -0.004 C 
HETATM    2  C2  UNL     1     -35.291  17.516  -0.042  1.00 20.00    -0.003 C 
HETATM    3  C3  UNL     1     -33.089  18.293  -0.677  1.00 20.00    -0.025 C 
HETATM    4  C4  UNL     1     -35.586  17.084  -1.276  1.00 20.00    -0.013 C 
HETATM    5  C7  UNL     1     -33.204  17.627  -2.022  1.00 20.00     0.044 C 
HETATM    6  C11 UNL     1     -34.665  17.301  -2.467  1.00 20.00    -0.000 C 
HETATM    7  C12 UNL     1     -35.233  18.469  -3.293  1.00 20.00     0.025 C 
ENDROOT
BRANCH   6   8
HETATM    8  C6  UNL     1     -34.642  16.073  -3.344  1.00 20.00    -0.071 C 
HETATM    9  C5  UNL     1     -35.690  15.334  -3.724  1.00 20.00    -0.023 C 
HETATM   10  C8  UNL     1     -35.286  14.218  -4.627  1.00 20.00     0.027 C 
HETATM   11  C10 UNL     1     -33.766  14.190  -4.473  1.00 20.00     0.008 C 
HETATM   12  C9  UNL     1     -33.364  15.561  -3.932  1.00 20.00     0.035 C 
ENDBRANCH   6   8
TORSDOF 1
ENDMDL
MODEL 8
REMARK VINA RESULT:      -5.1     10.003     11.131
REMARK  1 active torsions:
REMARK  status: ('A' for Active; 'I' for Inactive)
REMARK    1  A    between atoms: C6_6  and  C11_11 
ROOT
HETATM    1  C1  UNL     1     -33.321  15.820  -6.105  1.00 20.00    -0.004 C 
HETATM    2  C2  UNL     1     -33.857  17.126  -5.818  1.00 20.00    -0.003 C 
HETATM    3  C3  UNL     1     -33.258  14.877  -5.157  1.00 20.00    -0.025 C 
HETATM    4  C4  UNL     1     -34.515  17.376  -4.677  1.00 20.00    -0.013 C 
HETATM    5  C7  UNL     1     -33.742  15.123  -3.753  1.00 20.00     0.044 C 
HETATM    6  C11 UNL     1     -34.735  16.320  -3.605  1.00 20.00    -0.000 C 
HETATM    7  C12 UNL     1     -36.184  15.816  -3.733  1.00 20.00     0.025 C 
ENDROOT
BRANCH   6   8
HETATM    8  C6  UNL     1     -34.566  16.921  -2.231  1.00 20.00    -0.071 C 
HETATM    9  C5  UNL     1     -35.489  16.996  -1.265  1.00 20.00    -0.023 C 
HETATM   10  C8  UNL     1     -34.947  17.624  -0.026  1.00 20.00     0.027 C 
HETATM   11  C10 UNL     1     -33.627  18.229  -0.501  1.00 20.00     0.008 C 
HETATM   12  C9  UNL     1     -33.257  17.495  -1.788  1.00 20.00     0.035 C 
ENDBRANCH   6   8
TORSDOF 1
ENDMDL
MODEL 9
REMARK VINA RESULT:      -4.9      9.953     11.117
REMARK  1 active torsions:
REMARK  status: ('A' for Active; 'I' for Inactive)
REMARK    1  A    between atoms: C6_6  and  C11_11 
ROOT
HETATM    1  C1  UNL     1     -36.273  14.314  -6.307  1.00 20.00    -0.004 C 
HETATM    2  C2  UNL     1     -35.771  13.675  -5.118  1.00 20.00    -0.003 C 
HETATM    3  C3  UNL     1     -36.093  15.625  -6.515  1.00 20.00    -0.025 C 
HETATM    4  C4  UNL     1     -34.920  14.302  -4.294  1.00 20.00    -0.013 C 
HETATM    5  C7  UNL     1     -35.361  16.495  -5.530  1.00 20.00     0.044 C 
HETATM    6  C11 UNL     1     -34.432  15.722  -4.540  1.00 20.00    -0.000 C 
HETATM    7  C12 UNL     1     -33.008  15.635  -5.119  1.00 20.00     0.025 C 
ENDROOT
BRANCH   6   8
HETATM    8  C6  UNL     1     -34.365  16.487  -3.241  1.00 20.00    -0.071 C 
HETATM    9  C5  UNL     1     -33.384  17.301  -2.834  1.00 20.00    -0.023 C 
HETATM   10  C8  UNL     1     -33.684  17.914  -1.508  1.00 20.00     0.027 C 
HETATM   11  C10 UNL     1     -34.864  17.083  -1.008  1.00 20.00     0.008 C 
HETATM   12  C9  UNL     1     -35.478  16.424  -2.243  1.00 20.00     0.035 C 
ENDBRANCH   6   8
TORSDOF 1
ENDMDL
