MODEL 1
REMARK VINA RESULT:      -5.7      0.000      0.000
REMARK  0 active torsions:
REMARK  status: ('A' for Active; 'I' for Inactive)
ROOT
HETATM    1  C1  UNL     1     -33.307   7.215   5.113  1.00 20.00     0.008 C 
HETATM    2  C2  UNL     1     -34.341   6.636   6.080  1.00 20.00     0.030 C 
HETATM    3  C3  UNL     1     -33.812   7.241   3.674  1.00 20.00     0.081 C 
HETATM    4  C4  UNL     1     -34.591   5.134   5.948  1.00 20.00     0.270 C 
HETATM    5  C5  UNL     1     -33.906   4.633   3.677  1.00 20.00     0.348 C 
HETATM    6  C6  UNL     1     -33.646   5.930   2.921  1.00 20.00     0.269 C 
HETATM    7  N7  UNL     1     -35.014   4.691   4.622  1.00 20.00     0.089 N 
HETATM    8  F8  UNL     1     -32.368   5.874   2.444  1.00 20.00    -0.204 F 
HETATM    9  F9  UNL     1     -34.447   5.969   1.820  1.00 20.00    -0.204 F 
HETATM   10  H20 UNL     1     -35.487   3.785   4.679  1.00 20.00     0.316 HD
ENDROOT
TORSDOF 0
ENDMDL
MODEL 2
REMARK VINA RESULT:      -5.5      1.985      2.790
REMARK  0 active torsions:
REMARK  status: ('A' for Active; 'I' for Inactive)
ROOT
HETATM    1  C1  UNL     1     -34.015   7.435   5.470  1.00 20.00     0.008 C 
HETATM    2  C2  UNL     1     -32.641   7.836   4.929  1.00 20.00     0.030 C 
HETATM    3  C3  UNL     1     -34.224   5.924   5.451  1.00 20.00     0.081 C 
HETATM    4  C4  UNL     1     -32.450   7.645   3.425  1.00 20.00     0.270 C 
HETATM    5  C5  UNL     1     -34.088   5.955   2.845  1.00 20.00     0.348 C 
HETATM    6  C6  UNL     1     -34.691   5.367   4.114  1.00 20.00     0.269 C 
HETATM    7  N7  UNL     1     -32.671   6.285   2.940  1.00 20.00     0.089 N 
HETATM    8  F8  UNL     1     -36.044   5.530   4.036  1.00 20.00    -0.204 F 
HETATM    9  F9  UNL     1     -34.484   4.021   4.121  1.00 20.00    -0.204 F 
HETATM   10  H20 UNL     1     -32.207   6.145   2.038  1.00 20.00     0.316 HD
ENDROOT
TORSDOF 0
ENDMDL
MODEL 3
REMARK VINA RESULT:      -5.4      1.191      2.288
REMARK  0 active torsions:
REMARK  status: ('A' for Active; 'I' for Inactive)
ROOT
HETATM    1  C1  UNL     1     -34.932   4.822   4.660  1.00 20.00     0.008 C 
HETATM    2  C2  UNL     1     -34.475   5.427   5.988  1.00 20.00     0.030 C 
HETATM    3  C3  UNL     1     -33.795   4.724   3.648  1.00 20.00     0.081 C 
HETATM    4  C4  UNL     1     -34.143   6.919   5.945  1.00 20.00     0.270 C 
HETATM    5  C5  UNL     1     -33.627   7.328   3.612  1.00 20.00     0.348 C 
HETATM    6  C6  UNL     1     -33.533   6.003   2.867  1.00 20.00     0.269 C 
HETATM    7  N7  UNL     1     -33.116   7.297   4.977  1.00 20.00     0.089 N 
HETATM    8  F8  UNL     1     -34.417   6.056   1.829  1.00 20.00    -0.204 F 
HETATM    9  F9  UNL     1     -32.301   5.904   2.293  1.00 20.00    -0.204 F 
HETATM   10  H20 UNL     1     -32.701   8.198   5.227  1.00 20.00     0.316 HD
ENDROOT
TORSDOF 0
ENDMDL
MODEL 4
REMARK VINA RESULT:      -5.3      1.496      1.819
REMARK  0 active torsions:
REMARK  status: ('A' for Active; 'I' for Inactive)
ROOT
HETATM    1  C1  UNL     1     -33.707   6.669   5.802  1.00 20.00     0.008 C 
HETATM    2  C2  UNL     1     -34.725   5.563   5.519  1.00 20.00     0.030 C 
HETATM    3  C3  UNL     1     -33.714   7.750   4.725  1.00 20.00     0.081 C 
HETATM    4  C4  UNL     1     -34.386   4.649   4.342  1.00 20.00     0.270 C 
HETATM    5  C5  UNL     1     -32.898   5.992   2.978  1.00 20.00     0.348 C 
HETATM    6  C6  UNL     1     -32.880   7.424   3.496  1.00 20.00     0.269 C 
HETATM    7  N7  UNL     1     -34.194   5.330   3.064  1.00 20.00     0.089 N 
HETATM    8  F8  UNL     1     -31.580   7.742   3.769  1.00 20.00    -0.204 F 
HETATM    9  F9  UNL     1     -33.258   8.263   2.492  1.00 20.00    -0.204 F 
HETATM   10  H20 UNL     1     -34.318   4.676   2.286  1.00 20.00     0.316 HD
ENDROOT
TORSDOF 0
ENDMDL
MODEL 5
REMARK VINA RESULT:      -5.2      1.776      2.643
REMARK  0 active torsions:
REMARK  status: ('A' for Active; 'I' for Inactive)
ROOT
HETATM    1  C1  UNL     1     -34.501   5.691   3.303  1.00 20.00     0.008 C 
HETATM    2  C2  UNL     1     -34.610   5.179   4.740  1.00 20.00     0.030 C 
HETATM    3  C3  UNL     1     -33.079   6.113   2.946  1.00 20.00     0.081 C 
HETATM    4  C4  UNL     1     -34.460   6.244   5.825  1.00 20.00     0.270 C 
HETATM    5  C5  UNL     1     -33.215   8.012   4.731  1.00 20.00     0.348 C 
HETATM    6  C6  UNL     1     -32.712   7.525   3.378  1.00 20.00     0.269 C 
HETATM    7  N7  UNL     1     -33.212   7.002   5.782  1.00 20.00     0.089 N 
HETATM    8  F8  UNL     1     -33.179   8.393   2.434  1.00 20.00    -0.204 F 
HETATM    9  F9  UNL     1     -31.355   7.640   3.342  1.00 20.00    -0.204 F 
HETATM   10  H20 UNL     1     -33.018   7.428   6.692  1.00 20.00     0.316 HD
ENDROOT
TORSDOF 0
ENDMDL
MODEL 6
REMARK VINA RESULT:      -5.2      1.956      2.751
REMARK  0 active torsions:
REMARK  status: ('A' for Active; 'I' for Inactive)
ROOT
HETATM    1  C1  UNL     1     -32.653   6.307   2.834  1.00 20.00     0.008 C 
HETATM    2  C2  UNL     1     -32.375   7.690   3.427  1.00 20.00     0.030 C 
HETATM    3  C3  UNL     1     -34.144   5.994   2.772  1.00 20.00     0.081 C 
HETATM    4  C4  UNL     1     -32.652   7.826   4.924  1.00 20.00     0.270 C 
HETATM    5  C5  UNL     1     -34.251   6.061   5.378  1.00 20.00     0.348 C 
HETATM    6  C6  UNL     1     -34.732   5.455   4.067  1.00 20.00     0.269 C 
HETATM    7  N7  UNL     1     -34.016   7.499   5.334  1.00 20.00     0.089 N 
HETATM    8  F8  UNL     1     -34.480   4.114   4.121  1.00 20.00    -0.204 F 
HETATM    9  F9  UNL     1     -36.088   5.569   3.997  1.00 20.00    -0.204 F 
HETATM   10  H20 UNL     1     -34.232   7.928   6.238  1.00 20.00     0.316 HD
ENDROOT
TORSDOF 0
ENDMDL
MODEL 7
REMARK VINA RESULT:      -4.6      2.227      3.116
REMARK  0 active torsions:
REMARK  status: ('A' for Active; 'I' for Inactive)
ROOT
HETATM    1  C1  UNL     1     -34.092   4.658   5.496  1.00 20.00     0.008 C 
HETATM    2  C2  UNL     1     -34.279   4.111   4.080  1.00 20.00     0.030 C 
HETATM    3  C3  UNL     1     -34.677   6.058   5.656  1.00 20.00     0.081 C 
HETATM    4  C4  UNL     1     -33.432   4.786   3.002  1.00 20.00     0.270 C 
HETATM    5  C5  UNL     1     -32.933   6.965   3.940  1.00 20.00     0.348 C 
HETATM    6  C6  UNL     1     -33.759   7.182   5.200  1.00 20.00     0.269 C 
HETATM    7  N7  UNL     1     -33.616   6.230   2.883  1.00 20.00     0.089 N 
HETATM    8  F8  UNL     1     -32.889   7.458   6.216  1.00 20.00    -0.204 F 
HETATM    9  F9  UNL     1     -34.512   8.308   5.048  1.00 20.00    -0.204 F 
HETATM   10  H20 UNL     1     -33.313   6.557   1.961  1.00 20.00     0.316 HD
ENDROOT
TORSDOF 0
ENDMDL
MODEL 8
REMARK VINA RESULT:      -4.5      2.032      3.000
REMARK  0 active torsions:
REMARK  status: ('A' for Active; 'I' for Inactive)
ROOT
HETATM    1  C1  UNL     1     -33.544   6.174   2.811  1.00 20.00     0.008 C 
HETATM    2  C2  UNL     1     -33.437   4.660   2.997  1.00 20.00     0.030 C 
HETATM    3  C3  UNL     1     -32.881   6.944   3.948  1.00 20.00     0.081 C 
HETATM    4  C4  UNL     1     -34.286   4.079   4.128  1.00 20.00     0.270 C 
HETATM    5  C5  UNL     1     -34.635   5.963   5.613  1.00 20.00     0.348 C 
HETATM    6  C6  UNL     1     -33.754   7.128   5.181  1.00 20.00     0.269 C 
HETATM    7  N7  UNL     1     -34.030   4.648   5.449  1.00 20.00     0.089 N 
HETATM    8  F8  UNL     1     -34.571   8.200   4.966  1.00 20.00    -0.204 F 
HETATM    9  F9  UNL     1     -32.949   7.484   6.221  1.00 20.00    -0.204 F 
HETATM   10  H20 UNL     1     -34.349   4.010   6.183  1.00 20.00     0.316 HD
ENDROOT
TORSDOF 0
ENDMDL
MODEL 9
REMARK VINA RESULT:      -4.1     12.149     13.271
REMARK  0 active torsions:
REMARK  status: ('A' for Active; 'I' for Inactive)
ROOT
HETATM    1  C1  UNL     1     -33.952  15.643  -6.687  1.00 20.00     0.008 C 
HETATM    2  C2  UNL     1     -33.941  14.624  -7.827  1.00 20.00     0.030 C 
HETATM    3  C3  UNL     1     -33.598  15.013  -5.344  1.00 20.00     0.081 C 
HETATM    4  C4  UNL     1     -35.078  13.602  -7.801  1.00 20.00     0.270 C 
HETATM    5  C5  UNL     1     -35.762  13.559  -5.476  1.00 20.00     0.348 C 
HETATM    6  C6  UNL     1     -34.765  14.344  -4.633  1.00 20.00     0.269 C 
HETATM    7  N7  UNL     1     -35.171  12.810  -6.578  1.00 20.00     0.089 N 
HETATM    8  F8  UNL     1     -35.465  15.308  -3.966  1.00 20.00    -0.204 F 
HETATM    9  F9  UNL     1     -34.260  13.525  -3.668  1.00 20.00    -0.204 F 
HETATM   10  H20 UNL     1     -35.693  11.946  -6.748  1.00 20.00     0.316 HD
ENDROOT
TORSDOF 0
ENDMDL
