MODEL 1
REMARK VINA RESULT:      -5.7      0.000      0.000
REMARK  0 active torsions:
REMARK  status: ('A' for Active; 'I' for Inactive)
ROOT
HETATM    1  C1  UNL     1     -34.394   6.208   4.838  1.00 20.00     0.047 C 
HETATM    2  C2  UNL     1     -33.842   7.307   4.306  1.00 20.00    -0.014 C 
HETATM    3  C3  UNL     1     -34.189   4.901   4.162  1.00 20.00     0.149 C 
HETATM    4  C4  UNL     1     -33.293   4.843   2.935  1.00 20.00     0.084 C 
HETATM    5  C5  UNL     1     -33.312   6.149   2.147  1.00 20.00     0.021 C 
HETATM    6  C6  UNL     1     -32.687   8.648   2.447  1.00 20.00     0.014 A 
HETATM    7  C7  UNL     1     -31.629   7.855   3.158  1.00 20.00     0.014 A 
HETATM    8  C8  UNL     1     -33.040   7.316   3.068  1.00 20.00    -0.022 A 
HETATM    9  O9  UNL     1     -34.696   3.885   4.637  1.00 20.00    -0.293 OA
ENDROOT
TORSDOF 0
ENDMDL
MODEL 2
REMARK VINA RESULT:      -5.7      0.497      1.884
REMARK  0 active torsions:
REMARK  status: ('A' for Active; 'I' for Inactive)
ROOT
HETATM    1  C1  UNL     1     -33.416   4.892   3.048  1.00 20.00     0.047 C 
HETATM    2  C2  UNL     1     -32.687   5.926   2.607  1.00 20.00    -0.014 C 
HETATM    3  C3  UNL     1     -34.322   5.095   4.208  1.00 20.00     0.149 C 
HETATM    4  C4  UNL     1     -34.452   6.488   4.801  1.00 20.00     0.084 C 
HETATM    5  C5  UNL     1     -33.171   7.303   4.644  1.00 20.00     0.021 C 
HETATM    6  C6  UNL     1     -31.665   8.274   2.771  1.00 20.00     0.014 A 
HETATM    7  C7  UNL     1     -33.082   8.430   2.302  1.00 20.00     0.014 A 
HETATM    8  C8  UNL     1     -32.711   7.274   3.206  1.00 20.00    -0.022 A 
HETATM    9  O9  UNL     1     -34.992   4.152   4.628  1.00 20.00    -0.293 OA
ENDROOT
TORSDOF 0
ENDMDL
MODEL 3
REMARK VINA RESULT:      -5.5      2.259      3.561
REMARK  0 active torsions:
REMARK  status: ('A' for Active; 'I' for Inactive)
ROOT
HETATM    1  C1  UNL     1     -32.733   7.905   4.680  1.00 20.00     0.047 C 
HETATM    2  C2  UNL     1     -33.582   6.934   5.043  1.00 20.00    -0.014 C 
HETATM    3  C3  UNL     1     -32.234   7.937   3.281  1.00 20.00     0.149 C 
HETATM    4  C4  UNL     1     -32.767   6.917   2.289  1.00 20.00     0.084 C 
HETATM    5  C5  UNL     1     -33.149   5.603   2.964  1.00 20.00     0.021 C 
HETATM    6  C6  UNL     1     -34.813   4.703   4.737  1.00 20.00     0.014 A 
HETATM    7  C7  UNL     1     -35.553   5.740   3.944  1.00 20.00     0.014 A 
HETATM    8  C8  UNL     1     -34.058   5.868   4.140  1.00 20.00    -0.022 A 
HETATM    9  O9  UNL     1     -31.448   8.820   2.937  1.00 20.00    -0.293 OA
ENDROOT
TORSDOF 0
ENDMDL
MODEL 4
REMARK VINA RESULT:      -5.3      2.176      3.863
REMARK  0 active torsions:
REMARK  status: ('A' for Active; 'I' for Inactive)
ROOT
HETATM    1  C1  UNL     1     -32.716   6.745   2.565  1.00 20.00     0.047 C 
HETATM    2  C2  UNL     1     -33.624   5.837   2.945  1.00 20.00    -0.014 C 
HETATM    3  C3  UNL     1     -32.272   7.772   3.543  1.00 20.00     0.149 C 
HETATM    4  C4  UNL     1     -32.804   7.706   4.965  1.00 20.00     0.084 C 
HETATM    5  C5  UNL     1     -34.203   7.102   5.030  1.00 20.00     0.021 C 
HETATM    6  C6  UNL     1     -35.420   4.874   4.505  1.00 20.00     0.014 A 
HETATM    7  C7  UNL     1     -34.081   4.505   5.074  1.00 20.00     0.014 A 
HETATM    8  C8  UNL     1     -34.236   5.788   4.287  1.00 20.00    -0.022 A 
HETATM    9  O9  UNL     1     -31.443   8.616   3.204  1.00 20.00    -0.293 OA
ENDROOT
TORSDOF 0
ENDMDL
MODEL 5
REMARK VINA RESULT:      -4.7      1.852      2.945
REMARK  0 active torsions:
REMARK  status: ('A' for Active; 'I' for Inactive)
ROOT
HETATM    1  C1  UNL     1     -32.925   7.758   4.539  1.00 20.00     0.047 C 
HETATM    2  C2  UNL     1     -32.982   7.127   3.359  1.00 20.00    -0.014 C 
HETATM    3  C3  UNL     1     -33.708   7.220   5.682  1.00 20.00     0.149 C 
HETATM    4  C4  UNL     1     -34.480   5.925   5.495  1.00 20.00     0.084 C 
HETATM    5  C5  UNL     1     -34.948   5.736   4.055  1.00 20.00     0.021 C 
HETATM    6  C6  UNL     1     -33.956   5.452   1.676  1.00 20.00     0.014 A 
HETATM    7  C7  UNL     1     -33.060   4.689   2.606  1.00 20.00     0.014 A 
HETATM    8  C8  UNL     1     -33.788   5.918   3.104  1.00 20.00    -0.022 A 
HETATM    9  O9  UNL     1     -33.670   7.795   6.769  1.00 20.00    -0.293 OA
ENDROOT
TORSDOF 0
ENDMDL
MODEL 6
REMARK VINA RESULT:      -4.4     11.034     11.889
REMARK  0 active torsions:
REMARK  status: ('A' for Active; 'I' for Inactive)
ROOT
HETATM    1  C1  UNL     1     -36.673  14.830  -4.560  1.00 20.00     0.047 C 
HETATM    2  C2  UNL     1     -36.387  15.970  -3.917  1.00 20.00    -0.014 C 
HETATM    3  C3  UNL     1     -35.606  13.809  -4.722  1.00 20.00     0.149 C 
HETATM    4  C4  UNL     1     -34.250  14.058  -4.082  1.00 20.00     0.084 C 
HETATM    5  C5  UNL     1     -33.918  15.545  -3.997  1.00 20.00     0.021 C 
HETATM    6  C6  UNL     1     -34.809  17.707  -2.878  1.00 20.00     0.014 A 
HETATM    7  C7  UNL     1     -34.989  16.604  -1.877  1.00 20.00     0.014 A 
HETATM    8  C8  UNL     1     -35.061  16.296  -3.356  1.00 20.00    -0.022 A 
HETATM    9  O9  UNL     1     -35.854  12.761  -5.317  1.00 20.00    -0.293 OA
ENDROOT
TORSDOF 0
ENDMDL
MODEL 7
REMARK VINA RESULT:      -4.2     11.263     11.994
REMARK  0 active torsions:
REMARK  status: ('A' for Active; 'I' for Inactive)
ROOT
HETATM    1  C1  UNL     1     -33.813  14.104  -4.450  1.00 20.00     0.047 C 
HETATM    2  C2  UNL     1     -33.327  15.210  -3.872  1.00 20.00    -0.014 C 
HETATM    3  C3  UNL     1     -35.280  13.982  -4.650  1.00 20.00     0.149 C 
HETATM    4  C4  UNL     1     -36.172  15.151  -4.267  1.00 20.00     0.084 C 
HETATM    5  C5  UNL     1     -35.594  15.960  -3.109  1.00 20.00     0.021 C 
HETATM    6  C6  UNL     1     -33.513  17.402  -2.550  1.00 20.00     0.014 A 
HETATM    7  C7  UNL     1     -33.870  17.702  -3.977  1.00 20.00     0.014 A 
HETATM    8  C8  UNL     1     -34.160  16.334  -3.401  1.00 20.00    -0.022 A 
HETATM    9  O9  UNL     1     -35.740  12.967  -5.173  1.00 20.00    -0.293 OA
ENDROOT
TORSDOF 0
ENDMDL
MODEL 8
REMARK VINA RESULT:      -4.1     11.510     12.166
REMARK  0 active torsions:
REMARK  status: ('A' for Active; 'I' for Inactive)
ROOT
HETATM    1  C1  UNL     1     -36.590  15.404  -4.236  1.00 20.00     0.047 C 
HETATM    2  C2  UNL     1     -35.294  15.740  -4.287  1.00 20.00    -0.014 C 
HETATM    3  C3  UNL     1     -37.055  14.216  -4.998  1.00 20.00     0.149 C 
HETATM    4  C4  UNL     1     -36.031  13.377  -5.743  1.00 20.00     0.084 C 
HETATM    5  C5  UNL     1     -34.841  14.206  -6.217  1.00 20.00     0.021 C 
HETATM    6  C6  UNL     1     -32.912  15.634  -5.236  1.00 20.00     0.014 A 
HETATM    7  C7  UNL     1     -33.085  14.461  -4.316  1.00 20.00     0.014 A 
HETATM    8  C8  UNL     1     -34.278  15.009  -5.068  1.00 20.00    -0.022 A 
HETATM    9  O9  UNL     1     -38.245  13.901  -4.965  1.00 20.00    -0.293 OA
ENDROOT
TORSDOF 0
ENDMDL
MODEL 9
REMARK VINA RESULT:      -4.0     11.969     12.485
REMARK  0 active torsions:
REMARK  status: ('A' for Active; 'I' for Inactive)
ROOT
HETATM    1  C1  UNL     1     -36.115  13.646  -5.945  1.00 20.00     0.047 C 
HETATM    2  C2  UNL     1     -34.847  14.078  -5.975  1.00 20.00    -0.014 C 
HETATM    3  C3  UNL     1     -37.074  14.295  -5.014  1.00 20.00     0.149 C 
HETATM    4  C4  UNL     1     -36.605  15.481  -4.188  1.00 20.00     0.084 C 
HETATM    5  C5  UNL     1     -35.116  15.404  -3.865  1.00 20.00     0.021 C 
HETATM    6  C6  UNL     1     -32.828  15.387  -5.083  1.00 20.00     0.014 A 
HETATM    7  C7  UNL     1     -33.700  16.354  -5.828  1.00 20.00     0.014 A 
HETATM    8  C8  UNL     1     -34.322  15.166  -5.127  1.00 20.00    -0.022 A 
HETATM    9  O9  UNL     1     -38.240  13.902  -4.972  1.00 20.00    -0.293 OA
ENDROOT
TORSDOF 0
ENDMDL
