MODEL 1
REMARK VINA RESULT:      -5.5      0.000      0.000
REMARK  3 active torsions:
REMARK  status: ('A' for Active; 'I' for Inactive)
REMARK    1  A    between atoms: C3_3  and  C8_8 
REMARK    2  A    between atoms: C6_6  and  C7_7 
REMARK    3  A    between atoms: C7_7  and  C8_8 
ROOT
HETATM    1  C5  UNL     1     -33.291   5.190   2.839  1.00 20.00     0.010 C 
HETATM    2  C8  UNL     1     -33.105   6.604   3.390  1.00 20.00    -0.014 C 
ENDROOT
BRANCH   2   3
HETATM    3  C3  UNL     1     -34.162   6.884   4.461  1.00 20.00    -0.011 A 
HETATM    4  C1  UNL     1     -34.396   5.897   5.570  1.00 20.00     0.005 A 
HETATM    5  C2  UNL     1     -33.746   7.220   5.866  1.00 20.00     0.005 A 
ENDBRANCH   2   3
BRANCH   2   6
HETATM    6  C7  UNL     1     -33.180   7.678   2.288  1.00 20.00     0.004 C 
BRANCH   6   7
HETATM    7  C6  UNL     1     -31.858   8.417   2.067  1.00 20.00    -0.004 C 
HETATM    8  C4  UNL     1     -31.869   9.192   0.758  1.00 20.00     0.005 C 
ENDBRANCH   6   7
ENDBRANCH   2   6
TORSDOF 3
ENDMDL
MODEL 2
REMARK VINA RESULT:      -5.4      1.013      1.982
REMARK  3 active torsions:
REMARK  status: ('A' for Active; 'I' for Inactive)
REMARK    1  A    between atoms: C3_3  and  C8_8 
REMARK    2  A    between atoms: C6_6  and  C7_7 
REMARK    3  A    between atoms: C7_7  and  C8_8 
ROOT
HETATM    1  C5  UNL     1     -33.508   7.443   5.570  1.00 20.00     0.010 C 
HETATM    2  C8  UNL     1     -34.090   6.987   4.231  1.00 20.00    -0.014 C 
ENDROOT
BRANCH   2   3
HETATM    3  C3  UNL     1     -34.897   5.702   4.430  1.00 20.00    -0.011 A 
HETATM    4  C1  UNL     1     -34.248   4.361   4.230  1.00 20.00     0.005 A 
HETATM    5  C2  UNL     1     -34.628   4.814   5.613  1.00 20.00     0.005 A 
ENDBRANCH   2   3
BRANCH   2   6
HETATM    6  C7  UNL     1     -33.002   6.762   3.164  1.00 20.00     0.004 C 
BRANCH   6   7
HETATM    7  C6  UNL     1     -31.985   7.901   3.080  1.00 20.00    -0.004 C 
HETATM    8  C4  UNL     1     -32.084   8.635   1.751  1.00 20.00     0.005 C 
ENDBRANCH   6   7
ENDBRANCH   2   6
TORSDOF 3
ENDMDL
MODEL 3
REMARK VINA RESULT:      -5.2      1.136      2.028
REMARK  3 active torsions:
REMARK  status: ('A' for Active; 'I' for Inactive)
REMARK    1  A    between atoms: C3_3  and  C8_8 
REMARK    2  A    between atoms: C6_6  and  C7_7 
REMARK    3  A    between atoms: C7_7  and  C8_8 
ROOT
HETATM    1  C5  UNL     1     -33.455   7.441   5.950  1.00 20.00     0.010 C 
HETATM    2  C8  UNL     1     -33.579   7.431   4.426  1.00 20.00    -0.014 C 
ENDROOT
BRANCH   2   3
HETATM    3  C3  UNL     1     -34.009   6.040   3.952  1.00 20.00    -0.011 A 
HETATM    4  C1  UNL     1     -34.677   5.089   4.905  1.00 20.00     0.005 A 
HETATM    5  C2  UNL     1     -35.467   5.713   3.788  1.00 20.00     0.005 A 
ENDBRANCH   2   3
BRANCH   2   6
HETATM    6  C7  UNL     1     -32.268   7.839   3.727  1.00 20.00     0.004 C 
BRANCH   6   7
HETATM    7  C6  UNL     1     -32.360   7.821   2.200  1.00 20.00    -0.004 C 
HETATM    8  C4  UNL     1     -32.240   9.222   1.621  1.00 20.00     0.005 C 
ENDBRANCH   6   7
ENDBRANCH   2   6
TORSDOF 3
ENDMDL
MODEL 4
REMARK VINA RESULT:      -5.1      1.121      3.872
REMARK  3 active torsions:
REMARK  status: ('A' for Active; 'I' for Inactive)
REMARK    1  A    between atoms: C3_3  and  C8_8 
REMARK    2  A    between atoms: C6_6  and  C7_7 
REMARK    3  A    between atoms: C7_7  and  C8_8 
ROOT
HETATM    1  C5  UNL     1     -32.909   5.049   2.693  1.00 20.00     0.010 C 
HETATM    2  C8  UNL     1     -33.913   6.203   2.684  1.00 20.00    -0.014 C 
ENDROOT
BRANCH   2   3
HETATM    3  C3  UNL     1     -33.209   7.502   3.086  1.00 20.00    -0.011 A 
HETATM    4  C1  UNL     1     -31.718   7.629   2.947  1.00 20.00     0.005 A 
HETATM    5  C2  UNL     1     -32.626   8.404   2.033  1.00 20.00     0.005 A 
ENDBRANCH   2   3
BRANCH   2   6
HETATM    6  C7  UNL     1     -35.111   5.947   3.617  1.00 20.00     0.004 C 
BRANCH   6   7
HETATM    7  C6  UNL     1     -34.765   5.081   4.830  1.00 20.00    -0.004 C 
HETATM    8  C4  UNL     1     -34.436   5.936   6.045  1.00 20.00     0.005 C 
ENDBRANCH   6   7
ENDBRANCH   2   6
TORSDOF 3
ENDMDL
MODEL 5
REMARK VINA RESULT:      -5.1      1.183      4.422
REMARK  3 active torsions:
REMARK  status: ('A' for Active; 'I' for Inactive)
REMARK    1  A    between atoms: C3_3  and  C8_8 
REMARK    2  A    between atoms: C6_6  and  C7_7 
REMARK    3  A    between atoms: C7_7  and  C8_8 
ROOT
HETATM    1  C5  UNL     1     -31.515   8.439   3.447  1.00 20.00     0.010 C 
HETATM    2  C8  UNL     1     -32.234   7.827   2.244  1.00 20.00    -0.014 C 
ENDROOT
BRANCH   2   3
HETATM    3  C3  UNL     1     -33.028   8.912   1.511  1.00 20.00    -0.011 A 
HETATM    4  C1  UNL     1     -32.404  10.250   1.235  1.00 20.00     0.005 A 
HETATM    5  C2  UNL     1     -32.665   9.295   0.104  1.00 20.00     0.005 A 
ENDBRANCH   2   3
BRANCH   2   6
HETATM    6  C7  UNL     1     -33.173   6.673   2.645  1.00 20.00     0.004 C 
BRANCH   6   7
HETATM    7  C6  UNL     1     -33.900   6.912   3.970  1.00 20.00    -0.004 C 
HETATM    8  C4  UNL     1     -34.846   5.766   4.297  1.00 20.00     0.005 C 
ENDBRANCH   6   7
ENDBRANCH   2   6
TORSDOF 3
ENDMDL
MODEL 6
REMARK VINA RESULT:      -4.8      1.440      4.143
REMARK  3 active torsions:
REMARK  status: ('A' for Active; 'I' for Inactive)
REMARK    1  A    between atoms: C3_3  and  C8_8 
REMARK    2  A    between atoms: C6_6  and  C7_7 
REMARK    3  A    between atoms: C7_7  and  C8_8 
ROOT
HETATM    1  C5  UNL     1     -33.591   7.565   6.031  1.00 20.00     0.010 C 
HETATM    2  C8  UNL     1     -33.573   6.757   4.733  1.00 20.00    -0.014 C 
ENDROOT
BRANCH   2   3
HETATM    3  C3  UNL     1     -33.251   7.681   3.555  1.00 20.00    -0.011 A 
HETATM    4  C1  UNL     1     -31.839   8.135   3.313  1.00 20.00     0.005 A 
HETATM    5  C2  UNL     1     -32.487   7.159   2.370  1.00 20.00     0.005 A 
ENDBRANCH   2   3
BRANCH   2   6
HETATM    6  C7  UNL     1     -34.904   6.027   4.476  1.00 20.00     0.004 C 
BRANCH   6   7
HETATM    7  C6  UNL     1     -34.875   4.550   4.873  1.00 20.00    -0.004 C 
HETATM    8  C4  UNL     1     -33.867   3.772   4.042  1.00 20.00     0.005 C 
ENDBRANCH   6   7
ENDBRANCH   2   6
TORSDOF 3
ENDMDL
MODEL 7
REMARK VINA RESULT:      -4.7      1.314      2.449
REMARK  3 active torsions:
REMARK  status: ('A' for Active; 'I' for Inactive)
REMARK    1  A    between atoms: C3_3  and  C8_8 
REMARK    2  A    between atoms: C6_6  and  C7_7 
REMARK    3  A    between atoms: C7_7  and  C8_8 
ROOT
HETATM    1  C5  UNL     1     -31.498   8.361   3.922  1.00 20.00     0.010 C 
HETATM    2  C8  UNL     1     -32.451   8.065   2.764  1.00 20.00    -0.014 C 
ENDROOT
BRANCH   2   3
HETATM    3  C3  UNL     1     -32.880   6.596   2.812  1.00 20.00    -0.011 A 
HETATM    4  C1  UNL     1     -33.826   6.118   3.878  1.00 20.00     0.005 A 
HETATM    5  C2  UNL     1     -34.286   6.205   2.450  1.00 20.00     0.005 A 
ENDBRANCH   2   3
BRANCH   2   6
HETATM    6  C7  UNL     1     -31.827   8.383   1.393  1.00 20.00     0.004 C 
BRANCH   6   7
HETATM    7  C6  UNL     1     -32.353   9.677   0.769  1.00 20.00    -0.004 C 
HETATM    8  C4  UNL     1     -33.171   9.398  -0.483  1.00 20.00     0.005 C 
ENDBRANCH   6   7
ENDBRANCH   2   6
TORSDOF 3
ENDMDL
MODEL 8
REMARK VINA RESULT:      -4.3      0.980      3.719
REMARK  3 active torsions:
REMARK  status: ('A' for Active; 'I' for Inactive)
REMARK    1  A    between atoms: C3_3  and  C8_8 
REMARK    2  A    between atoms: C6_6  and  C7_7 
REMARK    3  A    between atoms: C7_7  and  C8_8 
ROOT
HETATM    1  C5  UNL     1     -32.280   7.880   2.327  1.00 20.00     0.010 C 
HETATM    2  C8  UNL     1     -32.882   6.963   3.393  1.00 20.00    -0.014 C 
ENDROOT
BRANCH   2   3
HETATM    3  C3  UNL     1     -33.626   5.808   2.719  1.00 20.00    -0.011 A 
HETATM    4  C1  UNL     1     -32.875   4.593   2.251  1.00 20.00     0.005 A 
HETATM    5  C2  UNL     1     -33.797   4.497   3.435  1.00 20.00     0.005 A 
ENDBRANCH   2   3
BRANCH   2   6
HETATM    6  C7  UNL     1     -33.832   7.713   4.345  1.00 20.00     0.004 C 
BRANCH   6   7
HETATM    7  C6  UNL     1     -33.674   7.303   5.811  1.00 20.00    -0.004 C 
HETATM    8  C4  UNL     1     -34.583   6.135   6.160  1.00 20.00     0.005 C 
ENDBRANCH   6   7
ENDBRANCH   2   6
TORSDOF 3
ENDMDL
MODEL 9
REMARK VINA RESULT:      -4.2      1.188      3.124
REMARK  3 active torsions:
REMARK  status: ('A' for Active; 'I' for Inactive)
REMARK    1  A    between atoms: C3_3  and  C8_8 
REMARK    2  A    between atoms: C6_6  and  C7_7 
REMARK    3  A    between atoms: C7_7  and  C8_8 
ROOT
HETATM    1  C5  UNL     1     -32.393   7.962   2.863  1.00 20.00     0.010 C 
HETATM    2  C8  UNL     1     -33.595   7.252   3.487  1.00 20.00    -0.014 C 
ENDROOT
BRANCH   2   3
HETATM    3  C3  UNL     1     -33.257   6.827   4.918  1.00 20.00    -0.011 A 
HETATM    4  C1  UNL     1     -33.465   7.782   6.060  1.00 20.00     0.005 A 
HETATM    5  C2  UNL     1     -34.356   6.580   5.914  1.00 20.00     0.005 A 
ENDBRANCH   2   3
BRANCH   2   6
HETATM    6  C7  UNL     1     -34.042   6.026   2.669  1.00 20.00     0.004 C 
BRANCH   6   7
HETATM    7  C6  UNL     1     -33.205   4.774   2.941  1.00 20.00    -0.004 C 
HETATM    8  C4  UNL     1     -33.949   3.793   3.834  1.00 20.00     0.005 C 
ENDBRANCH   6   7
ENDBRANCH   2   6
TORSDOF 3
ENDMDL
