MODEL 1
REMARK VINA RESULT:      -5.1      0.000      0.000
REMARK  0 active torsions:
REMARK  status: ('A' for Active; 'I' for Inactive)
ROOT
HETATM    1  C1  UNL     1     -34.414   6.537   5.162  1.00 20.00     0.078 C 
HETATM    2  C2  UNL     1     -32.505   7.303   3.923  1.00 20.00     0.152 C 
HETATM    3  C3  UNL     1     -33.359   7.349   5.116  1.00 20.00     0.134 C 
HETATM    4  C4  UNL     1     -34.186   6.248   2.679  1.00 20.00     0.213 C 
HETATM    5  C5  UNL     1     -34.749   5.674   3.985  1.00 20.00     0.217 C 
HETATM    6  N6  UNL     1     -32.815   6.771   2.792  1.00 20.00    -0.294 NA
HETATM    7  F7  UNL     1     -32.961   8.121   6.139  1.00 20.00    -0.205 F 
HETATM    8  F8  UNL     1     -36.102   5.580   3.847  1.00 20.00    -0.219 F 
HETATM    9 CL9  UNL     1     -34.108   4.031   4.275  1.00 20.00    -0.076 Cl
ENDROOT
TORSDOF 0
ENDMDL
MODEL 2
REMARK VINA RESULT:      -5.0      1.568      1.809
REMARK  0 active torsions:
REMARK  status: ('A' for Active; 'I' for Inactive)
ROOT
HETATM    1  C1  UNL     1     -34.682   5.793   4.181  1.00 20.00     0.078 C 
HETATM    2  C2  UNL     1     -33.100   7.297   5.183  1.00 20.00     0.152 C 
HETATM    3  C3  UNL     1     -34.297   6.452   5.273  1.00 20.00     0.134 C 
HETATM    4  C4  UNL     1     -33.226   7.340   2.844  1.00 20.00     0.213 C 
HETATM    5  C5  UNL     1     -33.951   5.990   2.889  1.00 20.00     0.217 C 
HETATM    6  N6  UNL     1     -32.539   7.698   4.096  1.00 20.00    -0.294 NA
HETATM    7  F7  UNL     1     -34.867   6.302   6.480  1.00 20.00    -0.205 F 
HETATM    8  F8  UNL     1     -34.829   5.956   1.848  1.00 20.00    -0.219 F 
HETATM    9 CL9  UNL     1     -32.789   4.648   2.676  1.00 20.00    -0.076 Cl
ENDROOT
TORSDOF 0
ENDMDL
MODEL 3
REMARK VINA RESULT:      -4.9      2.040      2.426
REMARK  0 active torsions:
REMARK  status: ('A' for Active; 'I' for Inactive)
ROOT
HETATM    1  C1  UNL     1     -33.368   6.128   3.328  1.00 20.00     0.078 C 
HETATM    2  C2  UNL     1     -33.211   7.725   5.114  1.00 20.00     0.152 C 
HETATM    3  C3  UNL     1     -32.752   7.201   3.823  1.00 20.00     0.134 C 
HETATM    4  C4  UNL     1     -34.289   5.709   5.625  1.00 20.00     0.213 C 
HETATM    5  C5  UNL     1     -34.437   5.443   4.122  1.00 20.00     0.217 C 
HETATM    6  N6  UNL     1     -33.955   7.103   5.961  1.00 20.00    -0.294 NA
HETATM    7  F7  UNL     1     -31.816   7.901   3.161  1.00 20.00    -0.205 F 
HETATM    8  F8  UNL     1     -34.367   4.096   3.931  1.00 20.00    -0.219 F 
HETATM    9 CL9  UNL     1     -36.032   6.003   3.541  1.00 20.00    -0.076 Cl
ENDROOT
TORSDOF 0
ENDMDL
MODEL 4
REMARK VINA RESULT:      -4.8      2.337      2.662
REMARK  0 active torsions:
REMARK  status: ('A' for Active; 'I' for Inactive)
ROOT
HETATM    1  C1  UNL     1     -33.632   6.917   4.336  1.00 20.00     0.078 C 
HETATM    2  C2  UNL     1     -34.700   5.135   5.540  1.00 20.00     0.152 C 
HETATM    3  C3  UNL     1     -34.141   6.491   5.491  1.00 20.00     0.134 C 
HETATM    4  C4  UNL     1     -33.556   4.521   3.590  1.00 20.00     0.213 C 
HETATM    5  C5  UNL     1     -33.564   5.993   3.159  1.00 20.00     0.217 C 
HETATM    6  N6  UNL     1     -34.503   4.204   4.672  1.00 20.00    -0.294 NA
HETATM    7  F7  UNL     1     -34.281   7.264   6.580  1.00 20.00    -0.205 F 
HETATM    8  F8  UNL     1     -32.423   6.224   2.452  1.00 20.00    -0.219 F 
HETATM    9 CL9  UNL     1     -34.956   6.325   2.087  1.00 20.00    -0.076 Cl
ENDROOT
TORSDOF 0
ENDMDL
MODEL 5
REMARK VINA RESULT:      -4.7      2.339      3.048
REMARK  0 active torsions:
REMARK  status: ('A' for Active; 'I' for Inactive)
ROOT
HETATM    1  C1  UNL     1     -32.903   7.731   4.713  1.00 20.00     0.078 C 
HETATM    2  C2  UNL     1     -34.569   6.032   4.391  1.00 20.00     0.152 C 
HETATM    3  C3  UNL     1     -33.876   6.998   5.252  1.00 20.00     0.134 C 
HETATM    4  C4  UNL     1     -32.828   6.080   2.824  1.00 20.00     0.213 C 
HETATM    5  C5  UNL     1     -32.486   7.499   3.294  1.00 20.00     0.217 C 
HETATM    6  N6  UNL     1     -34.157   5.608   3.247  1.00 20.00    -0.294 NA
HETATM    7  F7  UNL     1     -34.342   7.169   6.500  1.00 20.00    -0.205 F 
HETATM    8  F8  UNL     1     -31.139   7.662   3.172  1.00 20.00    -0.219 F 
HETATM    9 CL9  UNL     1     -33.287   8.713   2.254  1.00 20.00    -0.076 Cl
ENDROOT
TORSDOF 0
ENDMDL
MODEL 6
REMARK VINA RESULT:      -4.3      2.635      3.377
REMARK  0 active torsions:
REMARK  status: ('A' for Active; 'I' for Inactive)
ROOT
HETATM    1  C1  UNL     1     -33.188   6.158   2.973  1.00 20.00     0.078 C 
HETATM    2  C2  UNL     1     -33.920   4.054   3.868  1.00 20.00     0.152 C 
HETATM    3  C3  UNL     1     -33.144   4.829   2.893  1.00 20.00     0.134 C 
HETATM    4  C4  UNL     1     -35.240   5.915   4.397  1.00 20.00     0.213 C 
HETATM    5  C5  UNL     1     -34.075   6.821   3.980  1.00 20.00     0.217 C 
HETATM    6  N6  UNL     1     -34.862   4.510   4.618  1.00 20.00    -0.294 NA
HETATM    7  F7  UNL     1     -32.345   4.154   2.051  1.00 20.00    -0.205 F 
HETATM    8  F8  UNL     1     -34.605   7.961   3.455  1.00 20.00    -0.219 F 
HETATM    9 CL9  UNL     1     -33.092   7.272   5.404  1.00 20.00    -0.076 Cl
ENDROOT
TORSDOF 0
ENDMDL
MODEL 7
REMARK VINA RESULT:      -4.3      2.156      2.818
REMARK  0 active torsions:
REMARK  status: ('A' for Active; 'I' for Inactive)
ROOT
HETATM    1  C1  UNL     1     -34.000   4.709   3.682  1.00 20.00     0.078 C 
HETATM    2  C2  UNL     1     -32.687   6.475   2.720  1.00 20.00     0.152 C 
HETATM    3  C3  UNL     1     -33.012   5.050   2.855  1.00 20.00     0.134 C 
HETATM    4  C4  UNL     1     -33.796   6.986   4.719  1.00 20.00     0.213 C 
HETATM    5  C5  UNL     1     -34.686   5.756   4.503  1.00 20.00     0.217 C 
HETATM    6  N6  UNL     1     -33.057   7.414   3.519  1.00 20.00    -0.294 NA
HETATM    7  F7  UNL     1     -32.374   4.185   2.051  1.00 20.00    -0.205 F 
HETATM    8  F8  UNL     1     -35.001   5.253   5.729  1.00 20.00    -0.219 F 
HETATM    9 CL9  UNL     1     -36.208   6.220   3.688  1.00 20.00    -0.076 Cl
ENDROOT
TORSDOF 0
ENDMDL
MODEL 8
REMARK VINA RESULT:      -3.8     12.466     13.086
REMARK  0 active torsions:
REMARK  status: ('A' for Active; 'I' for Inactive)
ROOT
HETATM    1  C1  UNL     1     -33.250  15.670  -5.593  1.00 20.00     0.078 C 
HETATM    2  C2  UNL     1     -34.614  14.013  -6.669  1.00 20.00     0.152 C 
HETATM    3  C3  UNL     1     -33.826  15.251  -6.718  1.00 20.00     0.134 C 
HETATM    4  C4  UNL     1     -34.796  14.143  -4.337  1.00 20.00     0.213 C 
HETATM    5  C5  UNL     1     -33.483  14.934  -4.310  1.00 20.00     0.217 C 
HETATM    6  N6  UNL     1     -35.048  13.435  -5.603  1.00 20.00    -0.294 NA
HETATM    7  F7  UNL     1     -33.637  15.824  -7.918  1.00 20.00    -0.205 F 
HETATM    8  F8  UNL     1     -33.552  15.815  -3.273  1.00 20.00    -0.219 F 
HETATM    9 CL9  UNL     1     -32.099  13.841  -4.015  1.00 20.00    -0.076 Cl
ENDROOT
TORSDOF 0
ENDMDL
MODEL 9
REMARK VINA RESULT:      -3.8     12.203     12.858
REMARK  0 active torsions:
REMARK  status: ('A' for Active; 'I' for Inactive)
ROOT
HETATM    1  C1  UNL     1     -34.551  14.051  -4.254  1.00 20.00     0.078 C 
HETATM    2  C2  UNL     1     -35.557  15.323  -6.026  1.00 20.00     0.152 C 
HETATM    3  C3  UNL     1     -35.579  14.192  -5.090  1.00 20.00     0.134 C 
HETATM    4  C4  UNL     1     -33.249  15.603  -5.736  1.00 20.00     0.213 C 
HETATM    5  C5  UNL     1     -33.380  14.980  -4.341  1.00 20.00     0.217 C 
HETATM    6  N6  UNL     1     -34.527  16.035  -6.326  1.00 20.00    -0.294 NA
HETATM    7  F7  UNL     1     -36.687  13.434  -5.053  1.00 20.00    -0.205 F 
HETATM    8  F8  UNL     1     -32.228  14.300  -4.081  1.00 20.00    -0.219 F 
HETATM    9 CL9  UNL     1     -33.562  16.254  -3.100  1.00 20.00    -0.076 Cl
ENDROOT
TORSDOF 0
ENDMDL
