MODEL 1
REMARK VINA RESULT:      -5.0      0.000      0.000
REMARK  0 active torsions:
REMARK  status: ('A' for Active; 'I' for Inactive)
ROOT
HETATM    1  C1  UNL     1     -33.267   7.120   3.631  1.00 20.00     0.078 C 
HETATM    2  C2  UNL     1     -34.007   6.391   5.795  1.00 20.00     0.152 C 
HETATM    3  C3  UNL     1     -33.291   7.348   4.944  1.00 20.00     0.134 C 
HETATM    4  C4  UNL     1     -35.187   5.538   3.959  1.00 20.00     0.213 C 
HETATM    5  C5  UNL     1     -34.026   5.967   3.055  1.00 20.00     0.217 C 
HETATM    6  N6  UNL     1     -34.854   5.510   5.394  1.00 20.00    -0.294 NA
HETATM    7  F7  UNL     1     -32.605   8.331   5.549  1.00 20.00    -0.205 F 
HETATM    8  F8  UNL     1     -34.549   6.312   1.845  1.00 20.00    -0.219 F 
HETATM    9 CL9  UNL     1     -32.895   4.605   2.800  1.00 20.00    -0.076 Cl
ENDROOT
TORSDOF 0
ENDMDL
MODEL 2
REMARK VINA RESULT:      -4.9      2.086      2.437
REMARK  0 active torsions:
REMARK  status: ('A' for Active; 'I' for Inactive)
ROOT
HETATM    1  C1  UNL     1     -34.321   6.117   5.389  1.00 20.00     0.078 C 
HETATM    2  C2  UNL     1     -32.873   7.562   4.134  1.00 20.00     0.152 C 
HETATM    3  C3  UNL     1     -33.463   7.136   5.408  1.00 20.00     0.134 C 
HETATM    4  C4  UNL     1     -33.435   5.528   3.116  1.00 20.00     0.213 C 
HETATM    5  C5  UNL     1     -34.592   5.387   4.112  1.00 20.00     0.217 C 
HETATM    6  N6  UNL     1     -32.869   6.885   3.039  1.00 20.00    -0.294 NA
HETATM    7  F7  UNL     1     -33.195   7.873   6.498  1.00 20.00    -0.205 F 
HETATM    8  F8  UNL     1     -34.764   4.058   4.362  1.00 20.00    -0.219 F 
HETATM    9 CL9  UNL     1     -36.109   6.016   3.403  1.00 20.00    -0.076 Cl
ENDROOT
TORSDOF 0
ENDMDL
MODEL 3
REMARK VINA RESULT:      -4.9      1.938      2.300
REMARK  0 active torsions:
REMARK  status: ('A' for Active; 'I' for Inactive)
ROOT
HETATM    1  C1  UNL     1     -33.942   6.349   2.775  1.00 20.00     0.078 C 
HETATM    2  C2  UNL     1     -32.473   7.542   4.251  1.00 20.00     0.152 C 
HETATM    3  C3  UNL     1     -32.918   7.192   2.898  1.00 20.00     0.134 C 
HETATM    4  C4  UNL     1     -34.499   6.813   5.177  1.00 20.00     0.213 C 
HETATM    5  C5  UNL     1     -34.658   5.855   3.991  1.00 20.00     0.217 C 
HETATM    6  N6  UNL     1     -33.137   7.351   5.337  1.00 20.00    -0.294 NA
HETATM    7  F7  UNL     1     -32.193   7.649   1.864  1.00 20.00    -0.205 F 
HETATM    8  F8  UNL     1     -35.991   5.736   3.732  1.00 20.00    -0.219 F 
HETATM    9 CL9  UNL     1     -34.030   4.232   4.408  1.00 20.00    -0.076 Cl
ENDROOT
TORSDOF 0
ENDMDL
MODEL 4
REMARK VINA RESULT:      -4.6      2.172      2.542
REMARK  0 active torsions:
REMARK  status: ('A' for Active; 'I' for Inactive)
ROOT
HETATM    1  C1  UNL     1     -34.269   4.867   4.091  1.00 20.00     0.078 C 
HETATM    2  C2  UNL     1     -33.997   6.951   5.251  1.00 20.00     0.152 C 
HETATM    3  C3  UNL     1     -34.436   5.551   5.222  1.00 20.00     0.134 C 
HETATM    4  C4  UNL     1     -32.642   6.634   3.365  1.00 20.00     0.213 C 
HETATM    5  C5  UNL     1     -33.573   5.498   2.927  1.00 20.00     0.217 C 
HETATM    6  N6  UNL     1     -33.211   7.513   4.402  1.00 20.00    -0.294 NA
HETATM    7  F7  UNL     1     -35.086   5.078   6.298  1.00 20.00    -0.205 F 
HETATM    8  F8  UNL     1     -32.816   4.570   2.277  1.00 20.00    -0.219 F 
HETATM    9 CL9  UNL     1     -34.806   6.105   1.782  1.00 20.00    -0.076 Cl
ENDROOT
TORSDOF 0
ENDMDL
MODEL 5
REMARK VINA RESULT:      -4.4      2.316      2.675
REMARK  0 active torsions:
REMARK  status: ('A' for Active; 'I' for Inactive)
ROOT
HETATM    1  C1  UNL     1     -33.799   7.046   4.578  1.00 20.00     0.078 C 
HETATM    2  C2  UNL     1     -32.586   6.210   2.683  1.00 20.00     0.152 C 
HETATM    3  C3  UNL     1     -32.796   7.227   3.720  1.00 20.00     0.134 C 
HETATM    4  C4  UNL     1     -33.850   4.638   3.875  1.00 20.00     0.213 C 
HETATM    5  C5  UNL     1     -34.617   5.795   4.525  1.00 20.00     0.217 C 
HETATM    6  N6  UNL     1     -33.079   5.021   2.680  1.00 20.00    -0.294 NA
HETATM    7  F7  UNL     1     -32.041   8.336   3.669  1.00 20.00    -0.205 F 
HETATM    8  F8  UNL     1     -34.960   5.408   5.786  1.00 20.00    -0.219 F 
HETATM    9 CL9  UNL     1     -36.124   6.133   3.621  1.00 20.00    -0.076 Cl
ENDROOT
TORSDOF 0
ENDMDL
MODEL 6
REMARK VINA RESULT:      -4.1      2.243      2.557
REMARK  0 active torsions:
REMARK  status: ('A' for Active; 'I' for Inactive)
ROOT
HETATM    1  C1  UNL     1     -34.172   6.960   4.795  1.00 20.00     0.078 C 
HETATM    2  C2  UNL     1     -33.898   4.645   4.226  1.00 20.00     0.152 C 
HETATM    3  C3  UNL     1     -34.388   5.690   5.132  1.00 20.00     0.134 C 
HETATM    4  C4  UNL     1     -33.714   6.171   2.458  1.00 20.00     0.213 C 
HETATM    5  C5  UNL     1     -33.527   7.291   3.487  1.00 20.00     0.217 C 
HETATM    6  N6  UNL     1     -33.533   4.815   3.004  1.00 20.00    -0.294 NA
HETATM    7  F7  UNL     1     -34.920   5.303   6.303  1.00 20.00    -0.205 F 
HETATM    8  F8  UNL     1     -34.077   8.425   2.969  1.00 20.00    -0.219 F 
HETATM    9 CL9  UNL     1     -31.787   7.600   3.767  1.00 20.00    -0.076 Cl
ENDROOT
TORSDOF 0
ENDMDL
MODEL 7
REMARK VINA RESULT:      -4.1      2.613      3.249
REMARK  0 active torsions:
REMARK  status: ('A' for Active; 'I' for Inactive)
ROOT
HETATM    1  C1  UNL     1     -34.143   4.865   3.342  1.00 20.00     0.078 C 
HETATM    2  C2  UNL     1     -32.341   6.391   2.909  1.00 20.00     0.152 C 
HETATM    3  C3  UNL     1     -32.994   5.092   2.707  1.00 20.00     0.134 C 
HETATM    4  C4  UNL     1     -34.328   7.340   3.710  1.00 20.00     0.213 C 
HETATM    5  C5  UNL     1     -34.775   5.945   4.161  1.00 20.00     0.217 C 
HETATM    6  N6  UNL     1     -32.891   7.443   3.405  1.00 20.00    -0.294 NA
HETATM    7  F7  UNL     1     -32.337   4.168   1.988  1.00 20.00    -0.205 F 
HETATM    8  F8  UNL     1     -36.132   5.887   4.043  1.00 20.00    -0.219 F 
HETATM    9 CL9  UNL     1     -34.358   5.680   5.881  1.00 20.00    -0.076 Cl
ENDROOT
TORSDOF 0
ENDMDL
MODEL 8
REMARK VINA RESULT:      -4.1      2.094      3.285
REMARK  0 active torsions:
REMARK  status: ('A' for Active; 'I' for Inactive)
ROOT
HETATM    1  C1  UNL     1     -32.312   6.318   2.624  1.00 20.00     0.078 C 
HETATM    2  C2  UNL     1     -34.374   5.778   3.728  1.00 20.00     0.152 C 
HETATM    3  C3  UNL     1     -33.252   5.404   2.860  1.00 20.00     0.134 C 
HETATM    4  C4  UNL     1     -33.175   7.590   4.608  1.00 20.00     0.213 C 
HETATM    5  C5  UNL     1     -32.372   7.649   3.304  1.00 20.00     0.217 C 
HETATM    6  N6  UNL     1     -34.412   6.794   4.517  1.00 20.00    -0.294 NA
HETATM    7  F7  UNL     1     -33.300   4.203   2.260  1.00 20.00    -0.205 F 
HETATM    8  F8  UNL     1     -31.113   8.072   3.612  1.00 20.00    -0.219 F 
HETATM    9 CL9  UNL     1     -33.093   8.837   2.177  1.00 20.00    -0.076 Cl
ENDROOT
TORSDOF 0
ENDMDL
MODEL 9
REMARK VINA RESULT:      -4.0      2.946      3.713
REMARK  0 active torsions:
REMARK  status: ('A' for Active; 'I' for Inactive)
ROOT
HETATM    1  C1  UNL     1     -32.994   7.224   1.829  1.00 20.00     0.078 C 
HETATM    2  C2  UNL     1     -33.189   7.305   4.220  1.00 20.00     0.152 C 
HETATM    3  C3  UNL     1     -33.516   6.686   2.930  1.00 20.00     0.134 C 
HETATM    4  C4  UNL     1     -31.339   8.409   3.297  1.00 20.00     0.213 C 
HETATM    5  C5  UNL     1     -32.037   8.369   1.933  1.00 20.00     0.217 C 
HETATM    6  N6  UNL     1     -32.231   8.136   4.437  1.00 20.00    -0.294 NA
HETATM    7  F7  UNL     1     -34.414   5.688   2.927  1.00 20.00    -0.205 F 
HETATM    8  F8  UNL     1     -31.072   8.258   0.977  1.00 20.00    -0.219 F 
HETATM    9 CL9  UNL     1     -32.930   9.891   1.641  1.00 20.00    -0.076 Cl
ENDROOT
TORSDOF 0
ENDMDL
