MODEL 1
REMARK VINA RESULT:      -5.2      0.000      0.000
REMARK  1 active torsions:
REMARK  status: ('A' for Active; 'I' for Inactive)
REMARK    1  A    between atoms: C2_2  and  C4_4 
ROOT
HETATM    1  C1  UNL     1     -32.966   7.199   3.266  1.00 20.00    -0.102 C 
HETATM    2  C2  UNL     1     -33.768   6.448   3.752  1.00 20.00     0.008 C 
HETATM    3  C3  UNL     1     -31.990   8.113   2.676  1.00 20.00     0.112 C 
ENDROOT
BRANCH   2   4
HETATM    4  C4  UNL     1     -34.738   5.541   4.338  1.00 20.00     0.459 C 
HETATM    5  F5  UNL     1     -34.418   4.256   4.068  1.00 20.00    -0.159 F 
HETATM    6  F6  UNL     1     -35.974   5.776   3.847  1.00 20.00    -0.159 F 
HETATM    7  F7  UNL     1     -34.785   5.688   5.680  1.00 20.00    -0.159 F 
ENDBRANCH   2   4
TORSDOF 1
ENDMDL
MODEL 2
REMARK VINA RESULT:      -5.2      0.030      1.435
REMARK  1 active torsions:
REMARK  status: ('A' for Active; 'I' for Inactive)
REMARK    1  A    between atoms: C2_2  and  C4_4 
ROOT
HETATM    1  C1  UNL     1     -32.976   7.208   3.235  1.00 20.00    -0.102 C 
HETATM    2  C2  UNL     1     -33.776   6.459   3.726  1.00 20.00     0.008 C 
HETATM    3  C3  UNL     1     -32.002   8.120   2.638  1.00 20.00     0.112 C 
ENDROOT
BRANCH   2   4
HETATM    4  C4  UNL     1     -34.745   5.554   4.319  1.00 20.00     0.459 C 
HETATM    5  F5  UNL     1     -35.984   5.794   3.838  1.00 20.00    -0.159 F 
HETATM    6  F6  UNL     1     -34.781   5.700   5.662  1.00 20.00    -0.159 F 
HETATM    7  F7  UNL     1     -34.431   4.268   4.046  1.00 20.00    -0.159 F 
ENDBRANCH   2   4
TORSDOF 1
ENDMDL
MODEL 3
REMARK VINA RESULT:      -5.2      0.040      1.428
REMARK  1 active torsions:
REMARK  status: ('A' for Active; 'I' for Inactive)
REMARK    1  A    between atoms: C2_2  and  C4_4 
ROOT
HETATM    1  C1  UNL     1     -32.966   7.214   3.223  1.00 20.00    -0.102 C 
HETATM    2  C2  UNL     1     -33.763   6.465   3.720  1.00 20.00     0.008 C 
HETATM    3  C3  UNL     1     -31.996   8.126   2.618  1.00 20.00     0.112 C 
ENDROOT
BRANCH   2   4
HETATM    4  C4  UNL     1     -34.726   5.560   4.320  1.00 20.00     0.459 C 
HETATM    5  F5  UNL     1     -34.753   5.708   5.663  1.00 20.00    -0.159 F 
HETATM    6  F6  UNL     1     -34.414   4.274   4.046  1.00 20.00    -0.159 F 
HETATM    7  F7  UNL     1     -35.969   5.799   3.847  1.00 20.00    -0.159 F 
ENDBRANCH   2   4
TORSDOF 1
ENDMDL
MODEL 4
REMARK VINA RESULT:      -4.5      4.405      5.202
REMARK  1 active torsions:
REMARK  status: ('A' for Active; 'I' for Inactive)
REMARK    1  A    between atoms: C2_2  and  C4_4 
ROOT
HETATM    1  C1  UNL     1     -32.933   7.834   2.849  1.00 20.00    -0.102 C 
HETATM    2  C2  UNL     1     -32.639   8.483   1.881  1.00 20.00     0.008 C 
HETATM    3  C3  UNL     1     -33.292   7.045   4.026  1.00 20.00     0.112 C 
ENDROOT
BRANCH   2   4
HETATM    4  C4  UNL     1     -32.282   9.267   0.713  1.00 20.00     0.459 C 
HETATM    5  F5  UNL     1     -31.034   8.963   0.294  1.00 20.00    -0.159 F 
HETATM    6  F6  UNL     1     -32.321  10.589   0.990  1.00 20.00    -0.159 F 
HETATM    7  F7  UNL     1     -33.136   9.027  -0.307  1.00 20.00    -0.159 F 
ENDBRANCH   2   4
TORSDOF 1
ENDMDL
MODEL 5
REMARK VINA RESULT:      -4.4      2.301      3.128
REMARK  1 active torsions:
REMARK  status: ('A' for Active; 'I' for Inactive)
REMARK    1  A    between atoms: C2_2  and  C4_4 
ROOT
HETATM    1  C1  UNL     1     -32.563   9.109   1.442  1.00 20.00    -0.102 C 
HETATM    2  C2  UNL     1     -32.739   8.262   2.276  1.00 20.00     0.008 C 
HETATM    3  C3  UNL     1     -32.347  10.139   0.427  1.00 20.00     0.112 C 
ENDROOT
BRANCH   2   4
HETATM    4  C4  UNL     1     -32.953   7.239   3.284  1.00 20.00     0.459 C 
HETATM    5  F5  UNL     1     -34.272   7.070   3.524  1.00 20.00    -0.159 F 
HETATM    6  F6  UNL     1     -32.356   7.578   4.447  1.00 20.00    -0.159 F 
HETATM    7  F7  UNL     1     -32.445   6.053   2.881  1.00 20.00    -0.159 F 
ENDBRANCH   2   4
TORSDOF 1
ENDMDL
MODEL 6
REMARK VINA RESULT:      -4.4      3.538      4.357
REMARK  1 active torsions:
REMARK  status: ('A' for Active; 'I' for Inactive)
REMARK    1  A    between atoms: C2_2  and  C4_4 
ROOT
HETATM    1  C1  UNL     1     -33.641   6.486   3.275  1.00 20.00    -0.102 C 
HETATM    2  C2  UNL     1     -32.984   7.379   2.813  1.00 20.00     0.008 C 
HETATM    3  C3  UNL     1     -34.442   5.400   3.837  1.00 20.00     0.112 C 
ENDROOT
BRANCH   2   4
HETATM    4  C4  UNL     1     -32.188   8.458   2.255  1.00 20.00     0.459 C 
HETATM    5  F5  UNL     1     -32.981   9.430   1.754  1.00 20.00    -0.159 F 
HETATM    6  F6  UNL     1     -31.397   8.007   1.257  1.00 20.00    -0.159 F 
HETATM    7  F7  UNL     1     -31.396   9.010   3.201  1.00 20.00    -0.159 F 
ENDBRANCH   2   4
TORSDOF 1
ENDMDL
MODEL 7
REMARK VINA RESULT:      -4.4      3.547      4.365
REMARK  1 active torsions:
REMARK  status: ('A' for Active; 'I' for Inactive)
REMARK    1  A    between atoms: C2_2  and  C4_4 
ROOT
HETATM    1  C1  UNL     1     -33.632   6.487   3.262  1.00 20.00    -0.102 C 
HETATM    2  C2  UNL     1     -32.975   7.381   2.803  1.00 20.00     0.008 C 
HETATM    3  C3  UNL     1     -34.432   5.398   3.820  1.00 20.00     0.112 C 
ENDROOT
BRANCH   2   4
HETATM    4  C4  UNL     1     -32.181   8.463   2.249  1.00 20.00     0.459 C 
HETATM    5  F5  UNL     1     -31.384   9.008   3.195  1.00 20.00    -0.159 F 
HETATM    6  F6  UNL     1     -32.975   9.440   1.758  1.00 20.00    -0.159 F 
HETATM    7  F7  UNL     1     -31.395   8.018   1.244  1.00 20.00    -0.159 F 
ENDBRANCH   2   4
TORSDOF 1
ENDMDL
MODEL 8
REMARK VINA RESULT:      -4.1      3.247      4.044
REMARK  1 active torsions:
REMARK  status: ('A' for Active; 'I' for Inactive)
REMARK    1  A    between atoms: C2_2  and  C4_4 
ROOT
HETATM    1  C1  UNL     1     -33.623   6.996   4.861  1.00 20.00    -0.102 C 
HETATM    2  C2  UNL     1     -32.985   7.419   3.935  1.00 20.00     0.008 C 
HETATM    3  C3  UNL     1     -34.397   6.481   5.989  1.00 20.00     0.112 C 
ENDROOT
BRANCH   2   4
HETATM    4  C4  UNL     1     -32.217   7.930   2.815  1.00 20.00     0.459 C 
HETATM    5  F5  UNL     1     -32.031   6.971   1.882  1.00 20.00    -0.159 F 
HETATM    6  F6  UNL     1     -31.001   8.360   3.221  1.00 20.00    -0.159 F 
HETATM    7  F7  UNL     1     -32.853   8.968   2.229  1.00 20.00    -0.159 F 
ENDBRANCH   2   4
TORSDOF 1
ENDMDL
MODEL 9
REMARK VINA RESULT:      -4.0      2.419      3.065
REMARK  1 active torsions:
REMARK  status: ('A' for Active; 'I' for Inactive)
REMARK    1  A    between atoms: C2_2  and  C4_4 
ROOT
HETATM    1  C1  UNL     1     -33.727   7.038   5.049  1.00 20.00    -0.102 C 
HETATM    2  C2  UNL     1     -33.520   6.670   3.924  1.00 20.00     0.008 C 
HETATM    3  C3  UNL     1     -33.978   7.487   6.417  1.00 20.00     0.112 C 
ENDROOT
BRANCH   2   4
HETATM    4  C4  UNL     1     -33.270   6.223   2.566  1.00 20.00     0.459 C 
HETATM    5  F5  UNL     1     -32.523   7.126   1.893  1.00 20.00    -0.159 F 
HETATM    6  F6  UNL     1     -34.429   6.055   1.893  1.00 20.00    -0.159 F 
HETATM    7  F7  UNL     1     -32.608   5.045   2.561  1.00 20.00    -0.159 F 
ENDBRANCH   2   4
TORSDOF 1
ENDMDL
