MODEL 1
REMARK VINA RESULT:      -4.0      0.000      0.000
REMARK  1 active torsions:
REMARK  status: ('A' for Active; 'I' for Inactive)
REMARK    1  A    between atoms: C5_5  and  C7_7 
ROOT
HETATM    1  C1  UNL     1     -32.198   7.713   3.708  1.00 20.00     0.019 C 
HETATM    2  C2  UNL     1     -33.733   4.696   4.142  1.00 20.00     0.292 C 
HETATM    3  C3  UNL     1     -35.525   5.740   3.896  1.00 20.00     0.292 C 
HETATM    4  C4  UNL     1     -32.516   7.769   2.222  1.00 20.00     0.075 C 
HETATM    5  C5  UNL     1     -33.510   7.384   4.422  1.00 20.00     0.037 C 
HETATM    6  C6  UNL     1     -34.047   6.153   3.694  1.00 20.00     0.066 C 
HETATM    7  N8  UNL     1     -35.056   4.669   4.803  1.00 20.00     0.086 N 
HETATM    8  S10 UNL     1     -33.625   6.365   1.894  1.00 20.00    -0.155 SA
HETATM    9  H22 UNL     1     -35.559   3.787   4.721  1.00 20.00     0.316 HD
ENDROOT
BRANCH   5  10
HETATM   10  C7  UNL     1     -33.309   7.197   5.919  1.00 20.00     0.228 C 
HETATM   11  F9  UNL     1     -34.522   7.255   6.522  1.00 20.00    -0.255 F 
ENDBRANCH   5  10
TORSDOF 1
ENDMDL
MODEL 2
REMARK VINA RESULT:      -4.0     12.375     13.015
REMARK  1 active torsions:
REMARK  status: ('A' for Active; 'I' for Inactive)
REMARK    1  A    between atoms: C5_5  and  C7_7 
ROOT
HETATM    1  C1  UNL     1     -35.351  15.508  -3.929  1.00 20.00     0.019 C 
HETATM    2  C2  UNL     1     -34.313  15.513  -7.180  1.00 20.00     0.292 C 
HETATM    3  C3  UNL     1     -34.553  13.441  -7.104  1.00 20.00     0.292 C 
HETATM    4  C4  UNL     1     -36.791  15.183  -4.289  1.00 20.00     0.075 C 
HETATM    5  C5  UNL     1     -34.477  14.497  -4.671  1.00 20.00     0.037 C 
HETATM    6  C6  UNL     1     -34.951  14.568  -6.121  1.00 20.00     0.066 C 
HETATM    7  N8  UNL     1     -33.537  14.355  -7.672  1.00 20.00     0.086 N 
HETATM    8  S10 UNL     1     -36.794  14.827  -6.073  1.00 20.00    -0.155 SA
HETATM    9  H22 UNL     1     -33.434  14.306  -8.684  1.00 20.00     0.316 HD
ENDROOT
BRANCH   5  10
HETATM   10  C7  UNL     1     -32.994  14.778  -4.476  1.00 20.00     0.228 C 
HETATM   11  F9  UNL     1     -32.388  13.626  -4.096  1.00 20.00    -0.255 F 
ENDBRANCH   5  10
TORSDOF 1
ENDMDL
MODEL 3
REMARK VINA RESULT:      -3.9     11.891     12.360
REMARK  1 active torsions:
REMARK  status: ('A' for Active; 'I' for Inactive)
REMARK    1  A    between atoms: C5_5  and  C7_7 
ROOT
HETATM    1  C1  UNL     1     -34.311  16.358  -3.396  1.00 20.00     0.019 C 
HETATM    2  C2  UNL     1     -35.287  14.941  -6.343  1.00 20.00     0.292 C 
HETATM    3  C3  UNL     1     -35.778  13.263  -5.202  1.00 20.00     0.292 C 
HETATM    4  C4  UNL     1     -35.736  16.525  -2.894  1.00 20.00     0.075 C 
HETATM    5  C5  UNL     1     -34.182  14.909  -3.867  1.00 20.00     0.037 C 
HETATM    6  C6  UNL     1     -35.367  14.702  -4.808  1.00 20.00     0.066 C 
HETATM    7  N8  UNL     1     -35.122  13.481  -6.510  1.00 20.00     0.086 N 
HETATM    8  S10 UNL     1     -36.795  15.660  -4.093  1.00 20.00    -0.155 SA
HETATM    9  H22 UNL     1     -35.613  13.081  -7.308  1.00 20.00     0.316 HD
ENDROOT
BRANCH   5  10
HETATM   10  C7  UNL     1     -32.822  14.635  -4.494  1.00 20.00     0.228 C 
HETATM   11  F9  UNL     1     -32.318  13.505  -3.941  1.00 20.00    -0.255 F 
ENDBRANCH   5  10
TORSDOF 1
ENDMDL
MODEL 4
REMARK VINA RESULT:      -3.8     12.276     13.191
REMARK  1 active torsions:
REMARK  status: ('A' for Active; 'I' for Inactive)
REMARK    1  A    between atoms: C5_5  and  C7_7 
ROOT
HETATM    1  C1  UNL     1     -36.592  13.795  -5.652  1.00 20.00     0.019 C 
HETATM    2  C2  UNL     1     -33.433  14.394  -4.508  1.00 20.00     0.292 C 
HETATM    3  C3  UNL     1     -33.555  16.195  -5.557  1.00 20.00     0.292 C 
HETATM    4  C4  UNL     1     -37.223  14.835  -4.740  1.00 20.00     0.075 C 
HETATM    5  C5  UNL     1     -35.420  14.483  -6.352  1.00 20.00     0.037 C 
HETATM    6  C6  UNL     1     -34.613  15.117  -5.221  1.00 20.00     0.066 C 
HETATM    7  N8  UNL     1     -32.509  15.165  -5.367  1.00 20.00     0.086 N 
HETATM    8  S10 UNL     1     -35.840  15.720  -3.957  1.00 20.00    -0.155 SA
HETATM    9  H22 UNL     1     -31.664  15.493  -4.903  1.00 20.00     0.316 HD
ENDROOT
BRANCH   5  10
HETATM   10  C7  UNL     1     -34.634  13.515  -7.224  1.00 20.00     0.228 C 
HETATM   11  F9  UNL     1     -35.220  12.296  -7.142  1.00 20.00    -0.255 F 
ENDBRANCH   5  10
TORSDOF 1
ENDMDL
MODEL 5
REMARK VINA RESULT:      -3.8     12.463     13.096
REMARK  1 active torsions:
REMARK  status: ('A' for Active; 'I' for Inactive)
REMARK    1  A    between atoms: C5_5  and  C7_7 
ROOT
HETATM    1  C1  UNL     1     -36.475  14.384  -4.713  1.00 20.00     0.019 C 
HETATM    2  C2  UNL     1     -34.520  16.807  -6.111  1.00 20.00     0.292 C 
HETATM    3  C3  UNL     1     -32.901  15.737  -5.339  1.00 20.00     0.292 C 
HETATM    4  C4  UNL     1     -36.070  13.333  -5.733  1.00 20.00     0.075 C 
HETATM    5  C5  UNL     1     -35.180  15.009  -4.192  1.00 20.00     0.037 C 
HETATM    6  C6  UNL     1     -34.409  15.403  -5.450  1.00 20.00     0.066 C 
HETATM    7  N8  UNL     1     -33.258  17.170  -5.432  1.00 20.00     0.086 N 
HETATM    8  S10 UNL     1     -34.734  14.079  -6.718  1.00 20.00    -0.155 SA
HETATM    9  H22 UNL     1     -32.618  17.736  -5.988  1.00 20.00     0.316 HD
ENDROOT
BRANCH   5  10
HETATM   10  C7  UNL     1     -35.451  16.157  -3.231  1.00 20.00     0.228 C 
HETATM   11  F9  UNL     1     -34.453  16.188  -2.313  1.00 20.00    -0.255 F 
ENDBRANCH   5  10
TORSDOF 1
ENDMDL
MODEL 6
REMARK VINA RESULT:      -3.7     11.934     12.655
REMARK  1 active torsions:
REMARK  status: ('A' for Active; 'I' for Inactive)
REMARK    1  A    between atoms: C5_5  and  C7_7 
ROOT
HETATM    1  C1  UNL     1     -36.637  16.284  -3.852  1.00 20.00     0.019 C 
HETATM    2  C2  UNL     1     -33.902  15.742  -5.820  1.00 20.00     0.292 C 
HETATM    3  C3  UNL     1     -33.450  14.184  -4.507  1.00 20.00     0.292 C 
HETATM    4  C4  UNL     1     -37.352  15.032  -4.335  1.00 20.00     0.075 C 
HETATM    5  C5  UNL     1     -35.224  15.854  -3.455  1.00 20.00     0.037 C 
HETATM    6  C6  UNL     1     -34.704  15.078  -4.664  1.00 20.00     0.066 C 
HETATM    7  N8  UNL     1     -32.666  15.241  -5.184  1.00 20.00     0.086 N 
HETATM    8  S10 UNL     1     -36.148  14.131  -5.359  1.00 20.00    -0.155 SA
HETATM    9  H22 UNL     1     -31.957  14.901  -5.830  1.00 20.00     0.316 HD
ENDROOT
BRANCH   5  10
HETATM   10  C7  UNL     1     -34.364  17.040  -3.047  1.00 20.00     0.228 C 
HETATM   11  F9  UNL     1     -33.512  16.634  -2.074  1.00 20.00    -0.255 F 
ENDBRANCH   5  10
TORSDOF 1
ENDMDL
MODEL 7
REMARK VINA RESULT:      -3.7     12.360     13.465
REMARK  1 active torsions:
REMARK  status: ('A' for Active; 'I' for Inactive)
REMARK    1  A    between atoms: C5_5  and  C7_7 
ROOT
HETATM    1  C1  UNL     1     -35.265  13.852  -4.597  1.00 20.00     0.019 C 
HETATM    2  C2  UNL     1     -34.686  17.080  -5.544  1.00 20.00     0.292 C 
HETATM    3  C3  UNL     1     -33.760  16.263  -7.228  1.00 20.00     0.292 C 
HETATM    4  C4  UNL     1     -36.326  13.629  -5.662  1.00 20.00     0.075 C 
HETATM    5  C5  UNL     1     -34.052  14.453  -5.309  1.00 20.00     0.037 C 
HETATM    6  C6  UNL     1     -34.616  15.630  -6.104  1.00 20.00     0.066 C 
HETATM    7  N8  UNL     1     -33.454  17.379  -6.305  1.00 20.00     0.086 N 
HETATM    8  S10 UNL     1     -36.294  15.109  -6.720  1.00 20.00    -0.155 SA
HETATM    9  H22 UNL     1     -33.430  18.300  -6.739  1.00 20.00     0.316 HD
ENDROOT
BRANCH   5  10
HETATM   10  C7  UNL     1     -32.946  14.823  -4.332  1.00 20.00     0.228 C 
HETATM   11  F9  UNL     1     -32.180  13.725  -4.121  1.00 20.00    -0.255 F 
ENDBRANCH   5  10
TORSDOF 1
ENDMDL
MODEL 8
REMARK VINA RESULT:      -3.6     12.235     13.349
REMARK  1 active torsions:
REMARK  status: ('A' for Active; 'I' for Inactive)
REMARK    1  A    between atoms: C5_5  and  C7_7 
ROOT
HETATM    1  C1  UNL     1     -33.673  16.696  -5.716  1.00 20.00     0.019 C 
HETATM    2  C2  UNL     1     -34.239  13.807  -7.444  1.00 20.00     0.292 C 
HETATM    3  C3  UNL     1     -36.098  13.779  -6.495  1.00 20.00     0.292 C 
HETATM    4  C4  UNL     1     -34.649  17.503  -6.557  1.00 20.00     0.075 C 
HETATM    5  C5  UNL     1     -34.415  15.432  -5.280  1.00 20.00     0.037 C 
HETATM    6  C6  UNL     1     -34.989  14.856  -6.573  1.00 20.00     0.066 C 
HETATM    7  N8  UNL     1     -35.072  12.762  -6.812  1.00 20.00     0.086 N 
HETATM    8  S10 UNL     1     -35.500  16.303  -7.627  1.00 20.00    -0.155 SA
HETATM    9  H22 UNL     1     -35.381  12.022  -7.439  1.00 20.00     0.316 HD
ENDROOT
BRANCH   5  10
HETATM   10  C7  UNL     1     -33.511  14.480  -4.510  1.00 20.00     0.228 C 
HETATM   11  F9  UNL     1     -34.291  13.684  -3.737  1.00 20.00    -0.255 F 
ENDBRANCH   5  10
TORSDOF 1
ENDMDL
MODEL 9
REMARK VINA RESULT:      -3.6     12.389     13.693
REMARK  1 active torsions:
REMARK  status: ('A' for Active; 'I' for Inactive)
REMARK    1  A    between atoms: C5_5  and  C7_7 
ROOT
HETATM    1  C1  UNL     1     -34.570  16.034  -7.758  1.00 20.00     0.019 C 
HETATM    2  C2  UNL     1     -35.263  14.777  -4.661  1.00 20.00     0.292 C 
HETATM    3  C3  UNL     1     -33.204  14.483  -4.483  1.00 20.00     0.292 C 
HETATM    4  C4  UNL     1     -33.954  17.310  -7.208  1.00 20.00     0.075 C 
HETATM    5  C5  UNL     1     -33.911  14.874  -7.010  1.00 20.00     0.037 C 
HETATM    6  C6  UNL     1     -34.058  15.234  -5.533  1.00 20.00     0.066 C 
HETATM    7  N8  UNL     1     -34.405  13.694  -4.134  1.00 20.00     0.086 N 
HETATM    8  S10 UNL     1     -33.850  17.079  -5.406  1.00 20.00    -0.155 SA
HETATM    9  H22 UNL     1     -34.518  13.502  -3.141  1.00 20.00     0.316 HD
ENDROOT
BRANCH   5  10
HETATM   10  C7  UNL     1     -34.517  13.533  -7.397  1.00 20.00     0.228 C 
HETATM   11  F9  UNL     1     -35.782  13.747  -7.835  1.00 20.00    -0.255 F 
ENDBRANCH   5  10
TORSDOF 1
ENDMDL
