MODEL 1
REMARK VINA RESULT:      -4.8      0.000      0.000
REMARK  3 active torsions:
REMARK  status: ('A' for Active; 'I' for Inactive)
REMARK    1  A    between atoms: C5_5  and  C8_8 
REMARK    2  A    between atoms: C6_6  and  C7_7 
REMARK    3  A    between atoms: C6_6  and  C8_8 
ROOT
HETATM    1  C4  UNL     1     -33.426   5.146   3.067  1.00 20.00     0.032 C 
HETATM    2  C8  UNL     1     -34.186   6.254   3.821  1.00 20.00     0.033 C 
HETATM    3 CL9  UNL     1     -35.936   5.995   3.435  1.00 20.00    -0.120 Cl
ENDROOT
BRANCH   2   4
HETATM    4  C5  UNL     1     -34.016   6.091   5.347  1.00 20.00     0.021 C 
HETATM    5  C1  UNL     1     -33.739   7.380   6.110  1.00 20.00     0.007 C 
ENDBRANCH   2   4
BRANCH   2   6
HETATM    6  C6  UNL     1     -33.725   7.631   3.272  1.00 20.00     0.029 C 
BRANCH   6   7
HETATM    7  C7  UNL     1     -32.316   7.762   2.642  1.00 20.00    -0.021 C 
HETATM    8  C2  UNL     1     -32.392   8.722   1.447  1.00 20.00     0.009 C 
HETATM    9  C3  UNL     1     -31.237   8.254   3.605  1.00 20.00     0.009 C 
ENDBRANCH   6   7
ENDBRANCH   2   6
TORSDOF 3
ENDMDL
MODEL 2
REMARK VINA RESULT:      -4.3      1.620      2.518
REMARK  3 active torsions:
REMARK  status: ('A' for Active; 'I' for Inactive)
REMARK    1  A    between atoms: C5_5  and  C8_8 
REMARK    2  A    between atoms: C6_6  and  C7_7 
REMARK    3  A    between atoms: C6_6  and  C8_8 
ROOT
HETATM    1  C4  UNL     1     -31.419   7.983   3.376  1.00 20.00     0.032 C 
HETATM    2  C8  UNL     1     -32.851   7.482   3.112  1.00 20.00     0.033 C 
HETATM    3 CL9  UNL     1     -32.679   5.750   2.613  1.00 20.00    -0.120 Cl
ENDROOT
BRANCH   2   4
HETATM    4  C5  UNL     1     -33.687   7.512   4.410  1.00 20.00     0.021 C 
HETATM    5  C1  UNL     1     -34.394   6.206   4.757  1.00 20.00     0.007 C 
ENDBRANCH   2   4
BRANCH   2   6
HETATM    6  C6  UNL     1     -33.458   8.308   1.945  1.00 20.00     0.029 C 
BRANCH   6   7
HETATM    7  C7  UNL     1     -32.544   9.264   1.140  1.00 20.00    -0.021 C 
HETATM    8  C2  UNL     1     -32.837   9.093  -0.356  1.00 20.00     0.009 C 
HETATM    9  C3  UNL     1     -32.693  10.739   1.509  1.00 20.00     0.009 C 
ENDBRANCH   6   7
ENDBRANCH   2   6
TORSDOF 3
ENDMDL
MODEL 3
REMARK VINA RESULT:      -4.3      1.567      2.176
REMARK  3 active torsions:
REMARK  status: ('A' for Active; 'I' for Inactive)
REMARK    1  A    between atoms: C5_5  and  C8_8 
REMARK    2  A    between atoms: C6_6  and  C7_7 
REMARK    3  A    between atoms: C6_6  and  C8_8 
ROOT
HETATM    1  C4  UNL     1     -35.439   6.507   3.077  1.00 20.00     0.032 C 
HETATM    2  C8  UNL     1     -34.087   6.149   3.722  1.00 20.00     0.033 C 
HETATM    3 CL9  UNL     1     -34.010   7.105   5.258  1.00 20.00    -0.120 Cl
ENDROOT
BRANCH   2   4
HETATM    4  C5  UNL     1     -34.042   4.653   4.101  1.00 20.00     0.021 C 
HETATM    5  C1  UNL     1     -34.497   4.330   5.520  1.00 20.00     0.007 C 
ENDBRANCH   2   4
BRANCH   2   6
HETATM    6  C6  UNL     1     -32.948   6.598   2.766  1.00 20.00     0.029 C 
BRANCH   6   7
HETATM    7  C7  UNL     1     -32.564   8.096   2.697  1.00 20.00    -0.021 C 
HETATM    8  C2  UNL     1     -31.278   8.320   3.505  1.00 20.00     0.009 C 
HETATM    9  C3  UNL     1     -32.360   8.631   1.281  1.00 20.00     0.009 C 
ENDBRANCH   6   7
ENDBRANCH   2   6
TORSDOF 3
ENDMDL
MODEL 4
REMARK VINA RESULT:      -4.3      1.430      2.025
REMARK  3 active torsions:
REMARK  status: ('A' for Active; 'I' for Inactive)
REMARK    1  A    between atoms: C5_5  and  C8_8 
REMARK    2  A    between atoms: C6_6  and  C7_7 
REMARK    3  A    between atoms: C6_6  and  C8_8 
ROOT
HETATM    1  C4  UNL     1     -35.662   6.146   3.693  1.00 20.00     0.032 C 
HETATM    2  C8  UNL     1     -34.151   6.380   3.880  1.00 20.00     0.033 C 
HETATM    3 CL9  UNL     1     -33.936   6.816   5.624  1.00 20.00    -0.120 Cl
ENDROOT
BRANCH   2   4
HETATM    4  C5  UNL     1     -33.362   5.077   3.624  1.00 20.00     0.021 C 
HETATM    5  C1  UNL     1     -33.987   3.815   4.208  1.00 20.00     0.007 C 
ENDBRANCH   2   4
BRANCH   2   6
HETATM    6  C6  UNL     1     -33.720   7.572   2.983  1.00 20.00     0.029 C 
BRANCH   6   7
HETATM    7  C7  UNL     1     -32.228   7.730   2.600  1.00 20.00    -0.021 C 
HETATM    8  C2  UNL     1     -32.118   8.690   1.407  1.00 20.00     0.009 C 
HETATM    9  C3  UNL     1     -31.337   8.240   3.731  1.00 20.00     0.009 C 
ENDBRANCH   6   7
ENDBRANCH   2   6
TORSDOF 3
ENDMDL
MODEL 5
REMARK VINA RESULT:      -4.2      1.985      4.072
REMARK  3 active torsions:
REMARK  status: ('A' for Active; 'I' for Inactive)
REMARK    1  A    between atoms: C5_5  and  C8_8 
REMARK    2  A    between atoms: C6_6  and  C7_7 
REMARK    3  A    between atoms: C6_6  and  C8_8 
ROOT
HETATM    1  C4  UNL     1     -32.462   6.171   2.309  1.00 20.00     0.032 C 
HETATM    2  C8  UNL     1     -32.808   7.585   2.814  1.00 20.00     0.033 C 
HETATM    3 CL9  UNL     1     -31.317   8.184   3.648  1.00 20.00    -0.120 Cl
ENDROOT
BRANCH   2   4
HETATM    4  C5  UNL     1     -33.093   8.533   1.629  1.00 20.00     0.021 C 
HETATM    5  C1  UNL     1     -31.859   9.036   0.890  1.00 20.00     0.007 C 
ENDBRANCH   2   4
BRANCH   2   6
HETATM    6  C6  UNL     1     -33.973   7.474   3.836  1.00 20.00     0.029 C 
BRANCH   6   7
HETATM    7  C7  UNL     1     -33.823   6.531   5.055  1.00 20.00    -0.021 C 
HETATM    8  C2  UNL     1     -33.918   7.361   6.342  1.00 20.00     0.009 C 
HETATM    9  C3  UNL     1     -34.854   5.406   5.113  1.00 20.00     0.009 C 
ENDBRANCH   6   7
ENDBRANCH   2   6
TORSDOF 3
ENDMDL
MODEL 6
REMARK VINA RESULT:      -4.1      2.130      3.065
REMARK  3 active torsions:
REMARK  status: ('A' for Active; 'I' for Inactive)
REMARK    1  A    between atoms: C5_5  and  C8_8 
REMARK    2  A    between atoms: C6_6  and  C7_7 
REMARK    3  A    between atoms: C6_6  and  C8_8 
ROOT
HETATM    1  C4  UNL     1     -33.748   7.578   4.300  1.00 20.00     0.032 C 
HETATM    2  C8  UNL     1     -32.865   7.471   3.043  1.00 20.00     0.033 C 
HETATM    3 CL9  UNL     1     -31.241   8.107   3.531  1.00 20.00    -0.120 Cl
ENDROOT
BRANCH   2   4
HETATM    4  C5  UNL     1     -32.682   5.995   2.629  1.00 20.00     0.021 C 
HETATM    5  C1  UNL     1     -33.706   5.027   3.210  1.00 20.00     0.007 C 
ENDBRANCH   2   4
BRANCH   2   6
HETATM    6  C6  UNL     1     -33.471   8.374   1.934  1.00 20.00     0.029 C 
BRANCH   6   7
HETATM    7  C7  UNL     1     -32.534   9.286   1.104  1.00 20.00    -0.021 C 
HETATM    8  C2  UNL     1     -32.887   9.144  -0.383  1.00 20.00     0.009 C 
HETATM    9  C3  UNL     1     -32.589  10.763   1.488  1.00 20.00     0.009 C 
ENDBRANCH   6   7
ENDBRANCH   2   6
TORSDOF 3
ENDMDL
MODEL 7
REMARK VINA RESULT:      -4.1      1.548      3.688
REMARK  3 active torsions:
REMARK  status: ('A' for Active; 'I' for Inactive)
REMARK    1  A    between atoms: C5_5  and  C8_8 
REMARK    2  A    between atoms: C6_6  and  C7_7 
REMARK    3  A    between atoms: C6_6  and  C8_8 
ROOT
HETATM    1  C4  UNL     1     -34.303   6.526   1.389  1.00 20.00     0.032 C 
HETATM    2  C8  UNL     1     -33.485   6.329   2.680  1.00 20.00     0.033 C 
HETATM    3 CL9  UNL     1     -32.821   4.647   2.585  1.00 20.00    -0.120 Cl
ENDROOT
BRANCH   2   4
HETATM    4  C5  UNL     1     -32.286   7.302   2.719  1.00 20.00     0.021 C 
HETATM    5  C1  UNL     1     -32.395   8.503   1.787  1.00 20.00     0.007 C 
ENDBRANCH   2   4
BRANCH   2   6
HETATM    6  C6  UNL     1     -34.442   6.448   3.896  1.00 20.00     0.029 C 
BRANCH   6   7
HETATM    7  C7  UNL     1     -33.920   6.089   5.309  1.00 20.00    -0.021 C 
HETATM    8  C2  UNL     1     -33.890   7.360   6.168  1.00 20.00     0.009 C 
HETATM    9  C3  UNL     1     -34.738   5.021   6.032  1.00 20.00     0.009 C 
ENDBRANCH   6   7
ENDBRANCH   2   6
TORSDOF 3
ENDMDL
MODEL 8
REMARK VINA RESULT:      -3.9      2.198      4.240
REMARK  3 active torsions:
REMARK  status: ('A' for Active; 'I' for Inactive)
REMARK    1  A    between atoms: C5_5  and  C8_8 
REMARK    2  A    between atoms: C6_6  and  C7_7 
REMARK    3  A    between atoms: C6_6  and  C8_8 
ROOT
HETATM    1  C4  UNL     1     -31.389   8.058   0.963  1.00 20.00     0.032 C 
HETATM    2  C8  UNL     1     -32.366   8.390   2.107  1.00 20.00     0.033 C 
HETATM    3 CL9  UNL     1     -31.382   8.314   3.625  1.00 20.00    -0.120 Cl
ENDROOT
BRANCH   2   4
HETATM    4  C5  UNL     1     -32.899   9.832   1.968  1.00 20.00     0.021 C 
HETATM    5  C1  UNL     1     -32.583  10.516   0.643  1.00 20.00     0.007 C 
ENDBRANCH   2   4
BRANCH   2   6
HETATM    6  C6  UNL     1     -33.473   7.302   2.143  1.00 20.00     0.029 C 
BRANCH   6   7
HETATM    7  C7  UNL     1     -33.397   6.179   3.206  1.00 20.00    -0.021 C 
HETATM    8  C2  UNL     1     -34.759   6.059   3.904  1.00 20.00     0.009 C 
HETATM    9  C3  UNL     1     -33.001   4.812   2.653  1.00 20.00     0.009 C 
ENDBRANCH   6   7
ENDBRANCH   2   6
TORSDOF 3
ENDMDL
MODEL 9
REMARK VINA RESULT:      -3.6      1.548      4.048
REMARK  3 active torsions:
REMARK  status: ('A' for Active; 'I' for Inactive)
REMARK    1  A    between atoms: C5_5  and  C8_8 
REMARK    2  A    between atoms: C6_6  and  C7_7 
REMARK    3  A    between atoms: C6_6  and  C8_8 
ROOT
HETATM    1  C4  UNL     1     -31.438   8.372   3.677  1.00 20.00     0.032 C 
HETATM    2  C8  UNL     1     -32.484   7.915   2.642  1.00 20.00     0.033 C 
HETATM    3 CL9  UNL     1     -33.831   9.121   2.745  1.00 20.00    -0.120 Cl
ENDROOT
BRANCH   2   4
HETATM    4  C5  UNL     1     -31.904   7.984   1.213  1.00 20.00     0.021 C 
HETATM    5  C1  UNL     1     -32.094   9.317   0.500  1.00 20.00     0.007 C 
ENDBRANCH   2   4
BRANCH   2   6
HETATM    6  C6  UNL     1     -33.004   6.510   3.052  1.00 20.00     0.029 C 
BRANCH   6   7
HETATM    7  C7  UNL     1     -34.183   6.400   4.049  1.00 20.00    -0.021 C 
HETATM    8  C2  UNL     1     -34.587   4.926   4.184  1.00 20.00     0.009 C 
HETATM    9  C3  UNL     1     -33.889   6.963   5.438  1.00 20.00     0.009 C 
ENDBRANCH   6   7
ENDBRANCH   2   6
TORSDOF 3
ENDMDL
