MODEL 1
REMARK VINA RESULT:      -5.0      0.000      0.000
REMARK  3 active torsions:
REMARK  status: ('A' for Active; 'I' for Inactive)
REMARK    1  A    between atoms: C1_1  and  C3_3 
REMARK    2  A    between atoms: C2_2  and  C9_9 
REMARK    3  A    between atoms: C3_3  and  O11_11 
ROOT
HETATM    1  C1  UNL     1     -32.313   6.530   2.616  1.00 20.00     0.085 C 
HETATM    2  C2  UNL     1     -33.165   5.590   3.079  1.00 20.00    -0.070 C 
HETATM    3  C4  UNL     1     -33.127   4.162   2.576  1.00 20.00     0.044 C 
ENDROOT
BRANCH   2   4
HETATM    4  C9  UNL     1     -34.230   5.896   4.166  1.00 20.00    -0.028 C 
HETATM    5  C5  UNL     1     -35.531   6.408   3.508  1.00 20.00     0.019 C 
HETATM    6  C6  UNL     1     -33.795   6.979   5.185  1.00 20.00     0.019 C 
HETATM    7  C7  UNL     1     -34.538   4.616   4.970  1.00 20.00     0.019 C 
ENDBRANCH   2   4
BRANCH   1   8
HETATM    8  C3  UNL     1     -32.285   7.948   3.054  1.00 20.00     0.282 C 
HETATM    9  O10 UNL     1     -31.634   8.396   3.982  1.00 20.00    -0.260 OA
BRANCH   8  10
HETATM   10  O11 UNL     1     -33.097   8.647   2.214  1.00 20.00    -0.323 OA
HETATM   11  C8  UNL     1     -32.431   9.366   1.172  1.00 20.00     0.213 C 
ENDBRANCH   8  10
ENDBRANCH   1   8
TORSDOF 3
ENDMDL
MODEL 2
REMARK VINA RESULT:      -4.8      1.015      2.297
REMARK  3 active torsions:
REMARK  status: ('A' for Active; 'I' for Inactive)
REMARK    1  A    between atoms: C1_1  and  C3_3 
REMARK    2  A    between atoms: C2_2  and  C9_9 
REMARK    3  A    between atoms: C3_3  and  O11_11 
ROOT
HETATM    1  C1  UNL     1     -32.756   8.061   3.942  1.00 20.00     0.085 C 
HETATM    2  C2  UNL     1     -33.485   7.078   4.515  1.00 20.00    -0.070 C 
HETATM    3  C4  UNL     1     -33.823   7.092   5.991  1.00 20.00     0.044 C 
ENDROOT
BRANCH   2   4
HETATM    4  C9  UNL     1     -34.042   5.877   3.704  1.00 20.00    -0.028 C 
HETATM    5  C5  UNL     1     -34.643   4.823   4.661  1.00 20.00     0.019 C 
HETATM    6  C6  UNL     1     -32.976   5.143   2.854  1.00 20.00     0.019 C 
HETATM    7  C7  UNL     1     -35.138   6.365   2.734  1.00 20.00     0.019 C 
ENDBRANCH   2   4
BRANCH   1   8
HETATM    8  C3  UNL     1     -32.381   8.122   2.507  1.00 20.00     0.282 C 
HETATM    9  O10 UNL     1     -31.464   7.514   1.982  1.00 20.00    -0.260 OA
BRANCH   8  10
HETATM   10  O11 UNL     1     -33.263   8.958   1.895  1.00 20.00    -0.323 OA
HETATM   11  C8  UNL     1     -32.675  10.020   1.135  1.00 20.00     0.213 C 
ENDBRANCH   8  10
ENDBRANCH   1   8
TORSDOF 3
ENDMDL
MODEL 3
REMARK VINA RESULT:      -4.4     10.953     12.308
REMARK  3 active torsions:
REMARK  status: ('A' for Active; 'I' for Inactive)
REMARK    1  A    between atoms: C1_1  and  C3_3 
REMARK    2  A    between atoms: C2_2  and  C9_9 
REMARK    3  A    between atoms: C3_3  and  O11_11 
ROOT
HETATM    1  C1  UNL     1     -36.604  14.836  -4.591  1.00 20.00     0.085 C 
HETATM    2  C2  UNL     1     -35.810  15.732  -3.966  1.00 20.00    -0.070 C 
HETATM    3  C4  UNL     1     -36.373  16.783  -3.032  1.00 20.00     0.044 C 
ENDROOT
BRANCH   2   4
HETATM    4  C9  UNL     1     -34.267  15.742  -4.144  1.00 20.00    -0.028 C 
HETATM    5  C5  UNL     1     -33.891  16.402  -5.489  1.00 20.00     0.019 C 
HETATM    6  C6  UNL     1     -33.626  14.332  -4.150  1.00 20.00     0.019 C 
HETATM    7  C7  UNL     1     -33.614  16.532  -2.991  1.00 20.00     0.019 C 
ENDBRANCH   2   4
BRANCH   1   8
HETATM    8  C3  UNL     1     -36.133  13.778  -5.519  1.00 20.00     0.282 C 
HETATM    9  O10 UNL     1     -35.866  12.628  -5.216  1.00 20.00    -0.260 OA
BRANCH   8  10
HETATM   10  O11 UNL     1     -36.081  14.327  -6.764  1.00 20.00    -0.323 OA
HETATM   11  C8  UNL     1     -35.220  13.660  -7.694  1.00 20.00     0.213 C 
ENDBRANCH   8  10
ENDBRANCH   1   8
TORSDOF 3
ENDMDL
MODEL 4
REMARK VINA RESULT:      -4.4     11.238     12.631
REMARK  3 active torsions:
REMARK  status: ('A' for Active; 'I' for Inactive)
REMARK    1  A    between atoms: C1_1  and  C3_3 
REMARK    2  A    between atoms: C2_2  and  C9_9 
REMARK    3  A    between atoms: C3_3  and  O11_11 
ROOT
HETATM    1  C1  UNL     1     -36.047  14.827  -6.213  1.00 20.00     0.085 C 
HETATM    2  C2  UNL     1     -35.118  15.765  -5.927  1.00 20.00    -0.070 C 
HETATM    3  C4  UNL     1     -34.790  16.884  -6.893  1.00 20.00     0.044 C 
ENDROOT
BRANCH   2   4
HETATM    4  C9  UNL     1     -34.334  15.776  -4.587  1.00 20.00    -0.028 C 
HETATM    5  C5  UNL     1     -33.452  14.512  -4.477  1.00 20.00     0.019 C 
HETATM    6  C6  UNL     1     -35.237  15.794  -3.329  1.00 20.00     0.019 C 
HETATM    7  C7  UNL     1     -33.436  17.029  -4.518  1.00 20.00     0.019 C 
ENDBRANCH   2   4
BRANCH   1   8
HETATM    8  C3  UNL     1     -36.427  13.701  -5.324  1.00 20.00     0.282 C 
HETATM    9  O10 UNL     1     -35.845  12.633  -5.235  1.00 20.00    -0.260 OA
BRANCH   8  10
HETATM   10  O11 UNL     1     -37.523  14.094  -4.619  1.00 20.00    -0.323 OA
HETATM   11  C8  UNL     1     -38.588  14.648  -5.399  1.00 20.00     0.213 C 
ENDBRANCH   8  10
ENDBRANCH   1   8
TORSDOF 3
ENDMDL
MODEL 5
REMARK VINA RESULT:      -4.3     11.007     12.275
REMARK  3 active torsions:
REMARK  status: ('A' for Active; 'I' for Inactive)
REMARK    1  A    between atoms: C1_1  and  C3_3 
REMARK    2  A    between atoms: C2_2  and  C9_9 
REMARK    3  A    between atoms: C3_3  and  O11_11 
ROOT
HETATM    1  C1  UNL     1     -34.628  14.449  -4.020  1.00 20.00     0.085 C 
HETATM    2  C2  UNL     1     -35.249  15.589  -3.648  1.00 20.00    -0.070 C 
HETATM    3  C4  UNL     1     -34.760  16.419  -2.480  1.00 20.00     0.044 C 
ENDROOT
BRANCH   2   4
HETATM    4  C9  UNL     1     -36.493  16.140  -4.396  1.00 20.00    -0.028 C 
HETATM    5  C5  UNL     1     -37.006  17.422  -3.703  1.00 20.00     0.019 C 
HETATM    6  C6  UNL     1     -37.687  15.155  -4.442  1.00 20.00     0.019 C 
HETATM    7  C7  UNL     1     -36.121  16.467  -5.858  1.00 20.00     0.019 C 
ENDBRANCH   2   4
BRANCH   1   8
HETATM    8  C3  UNL     1     -35.042  13.579  -5.150  1.00 20.00     0.282 C 
HETATM    9  O10 UNL     1     -35.982  12.802  -5.146  1.00 20.00    -0.260 OA
BRANCH   8  10
HETATM   10  O11 UNL     1     -34.194  13.830  -6.185  1.00 20.00    -0.323 OA
HETATM   11  C8  UNL     1     -34.684  13.469  -7.481  1.00 20.00     0.213 C 
ENDBRANCH   8  10
ENDBRANCH   1   8
TORSDOF 3
ENDMDL
MODEL 6
REMARK VINA RESULT:      -4.2     11.037     12.586
REMARK  3 active torsions:
REMARK  status: ('A' for Active; 'I' for Inactive)
REMARK    1  A    between atoms: C1_1  and  C3_3 
REMARK    2  A    between atoms: C2_2  and  C9_9 
REMARK    3  A    between atoms: C3_3  and  O11_11 
ROOT
HETATM    1  C1  UNL     1     -36.051  15.096  -6.242  1.00 20.00     0.085 C 
HETATM    2  C2  UNL     1     -35.247  16.021  -5.676  1.00 20.00    -0.070 C 
HETATM    3  C4  UNL     1     -34.802  17.259  -6.426  1.00 20.00     0.044 C 
ENDROOT
BRANCH   2   4
HETATM    4  C9  UNL     1     -34.733  15.893  -4.216  1.00 20.00    -0.028 C 
HETATM    5  C5  UNL     1     -33.647  16.957  -3.940  1.00 20.00     0.019 C 
HETATM    6  C6  UNL     1     -34.096  14.519  -3.891  1.00 20.00     0.019 C 
HETATM    7  C7  UNL     1     -35.903  16.094  -3.231  1.00 20.00     0.019 C 
ENDBRANCH   2   4
BRANCH   1   8
HETATM    8  C3  UNL     1     -36.531  13.858  -5.578  1.00 20.00     0.282 C 
HETATM    9  O10 UNL     1     -37.537  13.756  -4.897  1.00 20.00    -0.260 OA
BRANCH   8  10
HETATM   10  O11 UNL     1     -35.654  12.866  -5.893  1.00 20.00    -0.323 OA
HETATM   11  C8  UNL     1     -35.182  12.868  -7.244  1.00 20.00     0.213 C 
ENDBRANCH   8  10
ENDBRANCH   1   8
TORSDOF 3
ENDMDL
MODEL 7
REMARK VINA RESULT:      -4.1     11.208     12.446
REMARK  3 active torsions:
REMARK  status: ('A' for Active; 'I' for Inactive)
REMARK    1  A    between atoms: C1_1  and  C3_3 
REMARK    2  A    between atoms: C2_2  and  C9_9 
REMARK    3  A    between atoms: C3_3  and  O11_11 
ROOT
HETATM    1  C1  UNL     1     -36.418  14.788  -4.129  1.00 20.00     0.085 C 
HETATM    2  C2  UNL     1     -35.398  15.638  -3.883  1.00 20.00    -0.070 C 
HETATM    3  C4  UNL     1     -35.425  16.600  -2.713  1.00 20.00     0.044 C 
ENDROOT
BRANCH   2   4
HETATM    4  C9  UNL     1     -34.122  15.684  -4.766  1.00 20.00    -0.028 C 
HETATM    5  C5  UNL     1     -33.338  16.988  -4.502  1.00 20.00     0.019 C 
HETATM    6  C6  UNL     1     -34.408  15.642  -6.288  1.00 20.00     0.019 C 
HETATM    7  C7  UNL     1     -33.220  14.474  -4.442  1.00 20.00     0.019 C 
ENDBRANCH   2   4
BRANCH   1   8
HETATM    8  C3  UNL     1     -36.470  13.818  -5.252  1.00 20.00     0.282 C 
HETATM    9  O10 UNL     1     -35.888  12.747  -5.299  1.00 20.00    -0.260 OA
BRANCH   8  10
HETATM   10  O11 UNL     1     -37.301  14.337  -6.196  1.00 20.00    -0.323 OA
HETATM   11  C8  UNL     1     -38.511  14.917  -5.697  1.00 20.00     0.213 C 
ENDBRANCH   8  10
ENDBRANCH   1   8
TORSDOF 3
ENDMDL
MODEL 8
REMARK VINA RESULT:      -4.1     11.049     12.346
REMARK  3 active torsions:
REMARK  status: ('A' for Active; 'I' for Inactive)
REMARK    1  A    between atoms: C1_1  and  C3_3 
REMARK    2  A    between atoms: C2_2  and  C9_9 
REMARK    3  A    between atoms: C3_3  and  O11_11 
ROOT
HETATM    1  C1  UNL     1     -35.548  13.775  -5.151  1.00 20.00     0.085 C 
HETATM    2  C2  UNL     1     -34.658  14.563  -4.510  1.00 20.00    -0.070 C 
HETATM    3  C4  UNL     1     -33.251  14.094  -4.204  1.00 20.00     0.044 C 
ENDROOT
BRANCH   2   4
HETATM    4  C9  UNL     1     -35.003  16.008  -4.056  1.00 20.00    -0.028 C 
HETATM    5  C5  UNL     1     -33.951  16.513  -3.045  1.00 20.00     0.019 C 
HETATM    6  C6  UNL     1     -36.381  16.136  -3.360  1.00 20.00     0.019 C 
HETATM    7  C7  UNL     1     -35.026  16.948  -5.280  1.00 20.00     0.019 C 
ENDBRANCH   2   4
BRANCH   1   8
HETATM    8  C3  UNL     1     -36.942  14.157  -5.487  1.00 20.00     0.282 C 
HETATM    9  O10 UNL     1     -37.926  13.947  -4.799  1.00 20.00    -0.260 OA
BRANCH   8  10
HETATM   10  O11 UNL     1     -36.907  14.801  -6.687  1.00 20.00    -0.323 OA
HETATM   11  C8  UNL     1     -36.338  14.054  -7.768  1.00 20.00     0.213 C 
ENDBRANCH   8  10
ENDBRANCH   1   8
TORSDOF 3
ENDMDL
MODEL 9
REMARK VINA RESULT:      -4.0     11.022     12.331
REMARK  3 active torsions:
REMARK  status: ('A' for Active; 'I' for Inactive)
REMARK    1  A    between atoms: C1_1  and  C3_3 
REMARK    2  A    between atoms: C2_2  and  C9_9 
REMARK    3  A    between atoms: C3_3  and  O11_11 
ROOT
HETATM    1  C1  UNL     1     -35.158  14.511  -4.214  1.00 20.00     0.085 C 
HETATM    2  C2  UNL     1     -35.972  14.483  -5.291  1.00 20.00    -0.070 C 
HETATM    3  C4  UNL     1     -37.476  14.372  -5.151  1.00 20.00     0.044 C 
ENDROOT
BRANCH   2   4
HETATM    4  C9  UNL     1     -35.432  14.579  -6.743  1.00 20.00    -0.028 C 
HETATM    5  C5  UNL     1     -34.691  13.278  -7.122  1.00 20.00     0.019 C 
HETATM    6  C6  UNL     1     -34.431  15.739  -6.967  1.00 20.00     0.019 C 
HETATM    7  C7  UNL     1     -36.605  14.799  -7.722  1.00 20.00     0.019 C 
ENDBRANCH   2   4
BRANCH   1   8
HETATM    8  C3  UNL     1     -33.678  14.617  -4.263  1.00 20.00     0.282 C 
HETATM    9  O10 UNL     1     -32.902  13.696  -4.454  1.00 20.00    -0.260 OA
BRANCH   8  10
HETATM   10  O11 UNL     1     -33.360  15.928  -4.081  1.00 20.00    -0.323 OA
HETATM   11  C8  UNL     1     -33.914  16.536  -2.909  1.00 20.00     0.213 C 
ENDBRANCH   8  10
ENDBRANCH   1   8
TORSDOF 3
ENDMDL
