MODEL 1
REMARK VINA RESULT:      -4.7      0.000      0.000
REMARK  1 active torsions:
REMARK  status: ('A' for Active; 'I' for Inactive)
REMARK    1  A    between atoms: C1_1  and  C4_4 
ROOT
HETATM    1  C2  UNL     1     -34.131   6.662   5.909  1.00 20.00     0.173 C 
HETATM    2  C3  UNL     1     -34.796   5.024   4.392  1.00 20.00     0.173 C 
HETATM    3  C4  UNL     1     -33.038   6.759   3.536  1.00 20.00     0.060 A 
HETATM    4  C5  UNL     1     -34.029   7.270   4.554  1.00 20.00     0.027 A 
HETATM    5  C6  UNL     1     -34.450   6.232   3.591  1.00 20.00     0.027 A 
HETATM    6  O8  UNL     1     -34.277   5.242   5.717  1.00 20.00    -0.390 OA
ENDROOT
BRANCH   3   7
HETATM    7  C1  UNL     1     -32.645   7.629   2.423  1.00 20.00     0.236 C 
HETATM    8  O7  UNL     1     -31.646   8.341   2.440  1.00 20.00    -0.306 OA
ENDBRANCH   3   7
TORSDOF 1
ENDMDL
MODEL 2
REMARK VINA RESULT:      -4.4      1.228      2.076
REMARK  1 active torsions:
REMARK  status: ('A' for Active; 'I' for Inactive)
REMARK    1  A    between atoms: C1_1  and  C4_4 
ROOT
HETATM    1  C2  UNL     1     -33.925   5.543   3.275  1.00 20.00     0.173 C 
HETATM    2  C3  UNL     1     -33.762   7.159   4.945  1.00 20.00     0.173 C 
HETATM    3  C4  UNL     1     -33.020   7.884   2.545  1.00 20.00     0.060 A 
HETATM    4  C5  UNL     1     -32.794   6.434   2.896  1.00 20.00     0.027 A 
HETATM    5  C6  UNL     1     -32.690   7.459   3.955  1.00 20.00     0.027 A 
HETATM    6  O8  UNL     1     -34.653   6.217   4.319  1.00 20.00    -0.390 OA
ENDROOT
BRANCH   3   7
HETATM    7  C1  UNL     1     -32.005   8.595   1.760  1.00 20.00     0.236 C 
HETATM    8  O7  UNL     1     -32.190   9.698   1.255  1.00 20.00    -0.306 OA
ENDBRANCH   3   7
TORSDOF 1
ENDMDL
MODEL 3
REMARK VINA RESULT:      -3.9      1.119      3.656
REMARK  1 active torsions:
REMARK  status: ('A' for Active; 'I' for Inactive)
REMARK    1  A    between atoms: C1_1  and  C4_4 
ROOT
HETATM    1  C2  UNL     1     -32.560   7.848   2.227  1.00 20.00     0.173 C 
HETATM    2  C3  UNL     1     -32.207   8.134   4.512  1.00 20.00     0.173 C 
HETATM    3  C4  UNL     1     -33.501   5.979   3.793  1.00 20.00     0.060 A 
HETATM    4  C5  UNL     1     -33.703   7.193   2.919  1.00 20.00     0.027 A 
HETATM    5  C6  UNL     1     -33.480   7.374   4.368  1.00 20.00     0.027 A 
HETATM    6  O8  UNL     1     -31.555   8.098   3.228  1.00 20.00    -0.390 OA
ENDROOT
BRANCH   3   7
HETATM    7  C1  UNL     1     -34.644   5.107   4.080  1.00 20.00     0.236 C 
HETATM    8  O7  UNL     1     -34.531   3.946   4.459  1.00 20.00    -0.306 OA
ENDBRANCH   3   7
TORSDOF 1
ENDMDL
MODEL 4
REMARK VINA RESULT:      -3.6      1.292      3.782
REMARK  1 active torsions:
REMARK  status: ('A' for Active; 'I' for Inactive)
REMARK    1  A    between atoms: C1_1  and  C4_4 
ROOT
HETATM    1  C2  UNL     1     -31.405   8.462   3.472  1.00 20.00     0.173 C 
HETATM    2  C3  UNL     1     -32.668   8.295   1.522  1.00 20.00     0.173 C 
HETATM    3  C4  UNL     1     -33.730   7.289   3.689  1.00 20.00     0.060 A 
HETATM    4  C5  UNL     1     -32.224   7.227   3.601  1.00 20.00     0.027 A 
HETATM    5  C6  UNL     1     -33.026   7.120   2.365  1.00 20.00     0.027 A 
HETATM    6  O8  UNL     1     -31.953   9.212   2.371  1.00 20.00    -0.390 OA
ENDROOT
BRANCH   3   7
HETATM    7  C1  UNL     1     -34.459   6.151   4.257  1.00 20.00     0.236 C 
HETATM    8  O7  UNL     1     -35.566   5.793   3.867  1.00 20.00    -0.306 OA
ENDBRANCH   3   7
TORSDOF 1
ENDMDL
MODEL 5
REMARK VINA RESULT:      -3.6     11.749     12.417
REMARK  1 active torsions:
REMARK  status: ('A' for Active; 'I' for Inactive)
REMARK    1  A    between atoms: C1_1  and  C4_4 
ROOT
HETATM    1  C2  UNL     1     -33.484  16.764  -4.404  1.00 20.00     0.173 C 
HETATM    2  C3  UNL     1     -34.726  16.488  -2.452  1.00 20.00     0.173 C 
HETATM    3  C4  UNL     1     -35.030  14.659  -4.296  1.00 20.00     0.060 A 
HETATM    4  C5  UNL     1     -34.733  16.054  -4.791  1.00 20.00     0.027 A 
HETATM    5  C6  UNL     1     -35.521  15.878  -3.554  1.00 20.00     0.027 A 
HETATM    6  O8  UNL     1     -33.398  16.700  -2.968  1.00 20.00    -0.390 OA
ENDROOT
BRANCH   3   7
HETATM    7  C1  UNL     1     -35.997  13.833  -5.026  1.00 20.00     0.236 C 
HETATM    8  O7  UNL     1     -35.809  12.651  -5.295  1.00 20.00    -0.306 OA
ENDBRANCH   3   7
TORSDOF 1
ENDMDL
MODEL 6
REMARK VINA RESULT:      -3.6     11.657     12.540
REMARK  1 active torsions:
REMARK  status: ('A' for Active; 'I' for Inactive)
REMARK    1  A    between atoms: C1_1  and  C4_4 
ROOT
HETATM    1  C2  UNL     1     -34.034  16.401  -3.340  1.00 20.00     0.173 C 
HETATM    2  C3  UNL     1     -32.969  15.804  -5.324  1.00 20.00     0.173 C 
HETATM    3  C4  UNL     1     -35.396  14.894  -4.984  1.00 20.00     0.060 A 
HETATM    4  C5  UNL     1     -34.576  15.071  -3.730  1.00 20.00     0.027 A 
HETATM    5  C6  UNL     1     -33.901  14.692  -4.988  1.00 20.00     0.027 A 
HETATM    6  O8  UNL     1     -33.335  16.918  -4.487  1.00 20.00    -0.390 OA
ENDROOT
BRANCH   3   7
HETATM    7  C1  UNL     1     -36.273  13.725  -5.105  1.00 20.00     0.236 C 
HETATM    8  O7  UNL     1     -35.859  12.586  -5.302  1.00 20.00    -0.306 OA
ENDBRANCH   3   7
TORSDOF 1
ENDMDL
MODEL 7
REMARK VINA RESULT:      -3.5      2.194      4.736
REMARK  1 active torsions:
REMARK  status: ('A' for Active; 'I' for Inactive)
REMARK    1  A    between atoms: C1_1  and  C4_4 
ROOT
HETATM    1  C2  UNL     1     -32.899  10.293   1.069  1.00 20.00     0.173 C 
HETATM    2  C3  UNL     1     -31.475   8.655   0.225  1.00 20.00     0.173 C 
HETATM    3  C4  UNL     1     -32.840   8.024   2.363  1.00 20.00     0.060 A 
HETATM    4  C5  UNL     1     -32.454   9.477   2.231  1.00 20.00     0.027 A 
HETATM    5  C6  UNL     1     -31.551   8.437   1.696  1.00 20.00     0.027 A 
HETATM    6  O8  UNL     1     -32.544   9.558  -0.117  1.00 20.00    -0.390 OA
ENDROOT
BRANCH   3   7
HETATM    7  C1  UNL     1     -32.786   7.388   3.684  1.00 20.00     0.236 C 
HETATM    8  O7  UNL     1     -33.759   6.877   4.229  1.00 20.00    -0.306 OA
ENDBRANCH   3   7
TORSDOF 1
ENDMDL
MODEL 8
REMARK VINA RESULT:      -3.4     11.536     12.665
REMARK  1 active torsions:
REMARK  status: ('A' for Active; 'I' for Inactive)
REMARK    1  A    between atoms: C1_1  and  C4_4 
ROOT
HETATM    1  C2  UNL     1     -33.288  18.554  -3.446  1.00 20.00     0.173 C 
HETATM    2  C3  UNL     1     -33.472  17.566  -1.344  1.00 20.00     0.173 C 
HETATM    3  C4  UNL     1     -33.773  15.987  -3.406  1.00 20.00     0.060 A 
HETATM    4  C5  UNL     1     -34.231  17.413  -3.594  1.00 20.00     0.027 A 
HETATM    5  C6  UNL     1     -34.347  16.785  -2.261  1.00 20.00     0.027 A 
HETATM    6  O8  UNL     1     -32.631  18.390  -2.175  1.00 20.00    -0.390 OA
ENDROOT
BRANCH   3   7
HETATM    7  C1  UNL     1     -34.568  14.899  -3.985  1.00 20.00     0.236 C 
HETATM    8  O7  UNL     1     -34.192  13.732  -4.022  1.00 20.00    -0.306 OA
ENDBRANCH   3   7
TORSDOF 1
ENDMDL
MODEL 9
REMARK VINA RESULT:      -3.4     11.401     12.090
REMARK  1 active torsions:
REMARK  status: ('A' for Active; 'I' for Inactive)
REMARK    1  A    between atoms: C1_1  and  C4_4 
ROOT
HETATM    1  C2  UNL     1     -37.208  15.254  -4.147  1.00 20.00     0.173 C 
HETATM    2  C3  UNL     1     -36.831  13.863  -5.977  1.00 20.00     0.173 C 
HETATM    3  C4  UNL     1     -34.810  14.237  -4.362  1.00 20.00     0.060 A 
HETATM    4  C5  UNL     1     -35.769  15.395  -4.499  1.00 20.00     0.027 A 
HETATM    5  C6  UNL     1     -35.529  14.512  -5.660  1.00 20.00     0.027 A 
HETATM    6  O8  UNL     1     -37.697  14.097  -4.850  1.00 20.00    -0.390 OA
ENDROOT
BRANCH   3   7
HETATM    7  C1  UNL     1     -33.372  14.508  -4.274  1.00 20.00     0.236 C 
HETATM    8  O7  UNL     1     -32.520  13.628  -4.212  1.00 20.00    -0.306 OA
ENDBRANCH   3   7
TORSDOF 1
ENDMDL
