MODEL 1
REMARK VINA RESULT:      -3.7      0.000      0.000
REMARK  1 active torsions:
REMARK  status: ('A' for Active; 'I' for Inactive)
REMARK    1  A    between atoms: C5_5  and  C6_6 
ROOT
HETATM    1  C1  UNL     1     -34.494   4.422   4.243  1.00 20.00     0.011 C 
HETATM    2  C2  UNL     1     -34.925   5.527   5.210  1.00 20.00     0.011 C 
HETATM    3  C3  UNL     1     -33.315   4.690   3.315  1.00 20.00     0.075 C 
HETATM    4  C4  UNL     1     -33.789   6.261   5.917  1.00 20.00     0.075 C 
HETATM    5  C5  UNL     1     -32.390   7.274   3.696  1.00 20.00     0.122 C 
HETATM    6  S7  UNL     1     -33.359   6.308   2.492  1.00 20.00    -0.152 SA
HETATM    7  S8  UNL     1     -33.383   7.846   5.112  1.00 20.00    -0.152 SA
ENDROOT
BRANCH   5   8
HETATM    8  C6  UNL     1     -31.824   8.501   2.982  1.00 20.00     0.140 C 
HETATM    9 CL9  UNL     1     -32.518   8.633   1.357  1.00 20.00    -0.128 Cl
ENDBRANCH   5   8
TORSDOF 1
ENDMDL
MODEL 2
REMARK VINA RESULT:      -3.6      1.161      2.385
REMARK  1 active torsions:
REMARK  status: ('A' for Active; 'I' for Inactive)
REMARK    1  A    between atoms: C5_5  and  C6_6 
ROOT
HETATM    1  C1  UNL     1     -34.322   6.315   6.014  1.00 20.00     0.011 C 
HETATM    2  C2  UNL     1     -34.463   5.253   4.921  1.00 20.00     0.011 C 
HETATM    3  C3  UNL     1     -33.805   7.694   5.621  1.00 20.00     0.075 C 
HETATM    4  C4  UNL     1     -35.062   5.741   3.605  1.00 20.00     0.075 C 
HETATM    5  C5  UNL     1     -33.202   7.735   2.917  1.00 20.00     0.122 C 
HETATM    6  S7  UNL     1     -32.354   7.672   4.530  1.00 20.00    -0.152 SA
HETATM    7  S8  UNL     1     -33.784   6.104   2.355  1.00 20.00    -0.152 SA
ENDROOT
BRANCH   5   8
HETATM    8  C6  UNL     1     -32.217   8.275   1.880  1.00 20.00     0.140 C 
HETATM    9 CL9  UNL     1     -32.771   9.845   1.274  1.00 20.00    -0.128 Cl
ENDBRANCH   5   8
TORSDOF 1
ENDMDL
MODEL 3
REMARK VINA RESULT:      -3.5     11.845     12.859
REMARK  1 active torsions:
REMARK  status: ('A' for Active; 'I' for Inactive)
REMARK    1  A    between atoms: C5_5  and  C6_6 
ROOT
HETATM    1  C1  UNL     1     -35.396  13.251  -6.771  1.00 20.00     0.011 C 
HETATM    2  C2  UNL     1     -34.300  14.103  -7.416  1.00 20.00     0.011 C 
HETATM    3  C3  UNL     1     -35.899  13.644  -5.387  1.00 20.00     0.075 C 
HETATM    4  C4  UNL     1     -34.472  15.613  -7.271  1.00 20.00     0.075 C 
HETATM    5  C5  UNL     1     -34.492  15.846  -4.467  1.00 20.00     0.122 C 
HETATM    6  S7  UNL     1     -34.589  14.047  -4.196  1.00 20.00    -0.152 SA
HETATM    7  S8  UNL     1     -33.471  16.295  -5.907  1.00 20.00    -0.152 SA
ENDROOT
BRANCH   5   8
HETATM    8  C6  UNL     1     -33.873  16.485  -3.224  1.00 20.00     0.140 C 
HETATM    9 CL9  UNL     1     -35.074  16.582  -1.926  1.00 20.00    -0.128 Cl
ENDBRANCH   5   8
TORSDOF 1
ENDMDL
MODEL 4
REMARK VINA RESULT:      -3.4     12.005     12.518
REMARK  1 active torsions:
REMARK  status: ('A' for Active; 'I' for Inactive)
REMARK    1  A    between atoms: C5_5  and  C6_6 
ROOT
HETATM    1  C1  UNL     1     -34.054  16.632  -2.537  1.00 20.00     0.011 C 
HETATM    2  C2  UNL     1     -35.559  16.601  -2.259  1.00 20.00     0.011 C 
HETATM    3  C3  UNL     1     -33.544  16.011  -3.833  1.00 20.00     0.075 C 
HETATM    4  C4  UNL     1     -36.453  16.935  -3.450  1.00 20.00     0.075 C 
HETATM    5  C5  UNL     1     -35.663  14.922  -5.248  1.00 20.00     0.122 C 
HETATM    6  S7  UNL     1     -34.256  14.386  -4.220  1.00 20.00    -0.152 SA
HETATM    7  S8  UNL     1     -37.105  15.440  -4.265  1.00 20.00    -0.152 SA
ENDROOT
BRANCH   5   8
HETATM    8  C6  UNL     1     -36.083  13.748  -6.132  1.00 20.00     0.140 C 
HETATM    9 CL9  UNL     1     -34.747  13.277  -7.196  1.00 20.00    -0.128 Cl
ENDBRANCH   5   8
TORSDOF 1
ENDMDL
MODEL 5
REMARK VINA RESULT:      -3.2     12.215     12.800
REMARK  1 active torsions:
REMARK  status: ('A' for Active; 'I' for Inactive)
REMARK    1  A    between atoms: C5_5  and  C6_6 
ROOT
HETATM    1  C1  UNL     1     -35.704  13.806  -7.575  1.00 20.00     0.011 C 
HETATM    2  C2  UNL     1     -36.878  14.459  -6.842  1.00 20.00     0.011 C 
HETATM    3  C3  UNL     1     -34.338  13.804  -6.897  1.00 20.00     0.075 C 
HETATM    4  C4  UNL     1     -36.975  14.149  -5.351  1.00 20.00     0.075 C 
HETATM    5  C5  UNL     1     -34.492  15.138  -4.473  1.00 20.00     0.122 C 
HETATM    6  S7  UNL     1     -33.859  15.395  -6.163  1.00 20.00    -0.152 SA
HETATM    7  S8  UNL     1     -36.274  15.482  -4.321  1.00 20.00    -0.152 SA
ENDROOT
BRANCH   5   8
HETATM    8  C6  UNL     1     -33.742  16.081  -3.533  1.00 20.00     0.140 C 
HETATM    9 CL9  UNL     1     -34.754  16.480  -2.135  1.00 20.00    -0.128 Cl
ENDBRANCH   5   8
TORSDOF 1
ENDMDL
MODEL 6
REMARK VINA RESULT:      -3.2     12.104     12.963
REMARK  1 active torsions:
REMARK  status: ('A' for Active; 'I' for Inactive)
REMARK    1  A    between atoms: C5_5  and  C6_6 
ROOT
HETATM    1  C1  UNL     1     -33.804  15.301  -6.856  1.00 20.00     0.011 C 
HETATM    2  C2  UNL     1     -35.332  15.240  -6.781  1.00 20.00     0.011 C 
HETATM    3  C3  UNL     1     -33.024  15.522  -5.564  1.00 20.00     0.075 C 
HETATM    4  C4  UNL     1     -35.900  14.431  -5.619  1.00 20.00     0.075 C 
HETATM    5  C5  UNL     1     -34.784  15.826  -3.446  1.00 20.00     0.122 C 
HETATM    6  S7  UNL     1     -33.688  16.833  -4.498  1.00 20.00    -0.152 SA
HETATM    7  S8  UNL     1     -36.398  15.488  -4.218  1.00 20.00    -0.152 SA
ENDROOT
BRANCH   5   8
HETATM    8  C6  UNL     1     -35.027  16.587  -2.143  1.00 20.00     0.140 C 
HETATM    9 CL9  UNL     1     -33.521  17.333  -1.582  1.00 20.00    -0.128 Cl
ENDBRANCH   5   8
TORSDOF 1
ENDMDL
MODEL 7
REMARK VINA RESULT:      -3.2     11.971     12.572
REMARK  1 active torsions:
REMARK  status: ('A' for Active; 'I' for Inactive)
REMARK    1  A    between atoms: C5_5  and  C6_6 
ROOT
HETATM    1  C1  UNL     1     -34.089  17.233  -1.780  1.00 20.00     0.011 C 
HETATM    2  C2  UNL     1     -35.561  16.840  -1.629  1.00 20.00     0.011 C 
HETATM    3  C3  UNL     1     -33.417  17.019  -3.132  1.00 20.00     0.075 C 
HETATM    4  C4  UNL     1     -36.467  17.233  -2.792  1.00 20.00     0.075 C 
HETATM    5  C5  UNL     1     -35.208  15.852  -4.895  1.00 20.00     0.122 C 
HETATM    6  S7  UNL     1     -33.753  15.405  -3.893  1.00 20.00    -0.152 SA
HETATM    7  S8  UNL     1     -36.759  15.846  -3.940  1.00 20.00    -0.152 SA
ENDROOT
BRANCH   5   8
HETATM    8  C6  UNL     1     -35.340  14.835  -6.028  1.00 20.00     0.140 C 
HETATM    9 CL9  UNL     1     -35.992  13.310  -5.404  1.00 20.00    -0.128 Cl
ENDBRANCH   5   8
TORSDOF 1
ENDMDL
MODEL 8
REMARK VINA RESULT:      -3.2     11.864     12.526
REMARK  1 active torsions:
REMARK  status: ('A' for Active; 'I' for Inactive)
REMARK    1  A    between atoms: C5_5  and  C6_6 
ROOT
HETATM    1  C1  UNL     1     -37.091  14.356  -5.273  1.00 20.00     0.011 C 
HETATM    2  C2  UNL     1     -35.814  13.518  -5.182  1.00 20.00     0.011 C 
HETATM    3  C3  UNL     1     -37.006  15.845  -4.954  1.00 20.00     0.075 C 
HETATM    4  C4  UNL     1     -34.563  14.164  -5.771  1.00 20.00     0.075 C 
HETATM    5  C5  UNL     1     -34.420  16.496  -4.205  1.00 20.00     0.122 C 
HETATM    6  S7  UNL     1     -36.061  16.240  -3.455  1.00 20.00    -0.152 SA
HETATM    7  S8  UNL     1     -33.518  14.940  -4.493  1.00 20.00    -0.152 SA
ENDROOT
BRANCH   5   8
HETATM    8  C6  UNL     1     -33.590  17.361  -3.256  1.00 20.00     0.140 C 
HETATM    9 CL9  UNL     1     -34.041  17.027  -1.576  1.00 20.00    -0.128 Cl
ENDBRANCH   5   8
TORSDOF 1
ENDMDL
MODEL 9
REMARK VINA RESULT:      -3.2     12.336     13.207
REMARK  1 active torsions:
REMARK  status: ('A' for Active; 'I' for Inactive)
REMARK    1  A    between atoms: C5_5  and  C6_6 
ROOT
HETATM    1  C1  UNL     1     -34.034  14.800  -7.626  1.00 20.00     0.011 C 
HETATM    2  C2  UNL     1     -35.411  14.136  -7.549  1.00 20.00     0.011 C 
HETATM    3  C3  UNL     1     -33.515  15.538  -6.397  1.00 20.00     0.075 C 
HETATM    4  C4  UNL     1     -35.702  13.379  -6.256  1.00 20.00     0.075 C 
HETATM    5  C5  UNL     1     -35.417  15.458  -4.384  1.00 20.00     0.122 C 
HETATM    6  S7  UNL     1     -34.732  16.627  -5.603  1.00 20.00    -0.152 SA
HETATM    7  S8  UNL     1     -36.693  14.365  -5.085  1.00 20.00    -0.152 SA
ENDROOT
BRANCH   5   8
HETATM    8  C6  UNL     1     -36.049  16.265  -3.250  1.00 20.00     0.140 C 
HETATM    9 CL9  UNL     1     -34.853  16.572  -1.980  1.00 20.00    -0.128 Cl
ENDBRANCH   5   8
TORSDOF 1
ENDMDL
