MODEL 1
REMARK VINA RESULT:      -4.5      0.000      0.000
REMARK  1 active torsions:
REMARK  status: ('A' for Active; 'I' for Inactive)
REMARK    1  A    between atoms: C1_1  and  C3_3 
ROOT
HETATM    1  C1  UNL     1     -34.446   6.141   5.727  1.00 20.00     0.072 C 
HETATM    2  C2  UNL     1     -33.642   7.193   5.878  1.00 20.00     0.189 C 
HETATM    3  F4  UNL     1     -32.915   7.678   4.854  1.00 20.00    -0.220 F 
ENDROOT
BRANCH   1   4
HETATM    4  C3  UNL     1     -34.628   5.399   4.447  1.00 20.00     0.378 C 
HETATM    5  F5  UNL     1     -34.719   4.055   4.631  1.00 20.00    -0.210 F 
HETATM    6  F6  UNL     1     -35.781   5.778   3.834  1.00 20.00    -0.210 F 
ENDBRANCH   1   4
TORSDOF 1
ENDMDL
MODEL 2
REMARK VINA RESULT:      -4.5      1.434      2.915
REMARK  1 active torsions:
REMARK  status: ('A' for Active; 'I' for Inactive)
REMARK    1  A    between atoms: C1_1  and  C3_3 
ROOT
HETATM    1  C1  UNL     1     -34.645   5.429   5.376  1.00 20.00     0.072 C 
HETATM    2  C2  UNL     1     -34.523   4.419   4.515  1.00 20.00     0.189 C 
HETATM    3  F4  UNL     1     -33.651   4.468   3.491  1.00 20.00    -0.220 F 
ENDROOT
BRANCH   1   4
HETATM    4  C3  UNL     1     -33.856   6.691   5.310  1.00 20.00     0.378 C 
HETATM    5  F5  UNL     1     -34.177   7.452   4.229  1.00 20.00    -0.210 F 
HETATM    6  F6  UNL     1     -34.095   7.464   6.403  1.00 20.00    -0.210 F 
ENDBRANCH   1   4
TORSDOF 1
ENDMDL
MODEL 3
REMARK VINA RESULT:      -4.4      1.345      1.370
REMARK  1 active torsions:
REMARK  status: ('A' for Active; 'I' for Inactive)
REMARK    1  A    between atoms: C1_1  and  C3_3 
ROOT
HETATM    1  C1  UNL     1     -33.762   6.880   4.184  1.00 20.00     0.072 C 
HETATM    2  C2  UNL     1     -33.753   7.204   5.477  1.00 20.00     0.189 C 
HETATM    3  F4  UNL     1     -34.450   6.497   6.385  1.00 20.00    -0.220 F 
ENDROOT
BRANCH   1   4
HETATM    4  C3  UNL     1     -34.520   5.733   3.610  1.00 20.00     0.378 C 
HETATM    5  F5  UNL     1     -34.169   4.543   4.168  1.00 20.00    -0.210 F 
HETATM    6  F6  UNL     1     -35.852   5.879   3.834  1.00 20.00    -0.210 F 
ENDBRANCH   1   4
TORSDOF 1
ENDMDL
MODEL 4
REMARK VINA RESULT:      -4.4      1.607      1.894
REMARK  1 active torsions:
REMARK  status: ('A' for Active; 'I' for Inactive)
REMARK    1  A    between atoms: C1_1  and  C3_3 
ROOT
HETATM    1  C1  UNL     1     -33.714   7.037   4.276  1.00 20.00     0.072 C 
HETATM    2  C2  UNL     1     -33.776   7.240   5.592  1.00 20.00     0.189 C 
HETATM    3  F4  UNL     1     -34.453   6.406   6.403  1.00 20.00    -0.220 F 
ENDROOT
BRANCH   1   4
HETATM    4  C3  UNL     1     -34.367   5.899   3.569  1.00 20.00     0.378 C 
HETATM    5  F5  UNL     1     -35.718   5.894   3.724  1.00 20.00    -0.210 F 
HETATM    6  F6  UNL     1     -34.137   5.971   2.232  1.00 20.00    -0.210 F 
ENDBRANCH   1   4
TORSDOF 1
ENDMDL
MODEL 5
REMARK VINA RESULT:      -4.3      1.940      2.143
REMARK  1 active torsions:
REMARK  status: ('A' for Active; 'I' for Inactive)
REMARK    1  A    between atoms: C1_1  and  C3_3 
ROOT
HETATM    1  C1  UNL     1     -34.410   4.589   4.403  1.00 20.00     0.072 C 
HETATM    2  C2  UNL     1     -34.651   5.078   5.620  1.00 20.00     0.189 C 
HETATM    3  F4  UNL     1     -34.276   6.323   5.966  1.00 20.00    -0.220 F 
ENDROOT
BRANCH   1   4
HETATM    4  C3  UNL     1     -33.718   5.340   3.318  1.00 20.00     0.378 C 
HETATM    5  F5  UNL     1     -33.011   4.527   2.488  1.00 20.00    -0.210 F 
HETATM    6  F6  UNL     1     -34.621   5.990   2.535  1.00 20.00    -0.210 F 
ENDBRANCH   1   4
TORSDOF 1
ENDMDL
MODEL 6
REMARK VINA RESULT:      -4.3      2.143      2.524
REMARK  1 active torsions:
REMARK  status: ('A' for Active; 'I' for Inactive)
REMARK    1  A    between atoms: C1_1  and  C3_3 
ROOT
HETATM    1  C1  UNL     1     -34.145   5.890   3.847  1.00 20.00     0.072 C 
HETATM    2  C2  UNL     1     -33.333   5.728   2.803  1.00 20.00     0.189 C 
HETATM    3  F4  UNL     1     -32.985   4.505   2.364  1.00 20.00    -0.220 F 
ENDROOT
BRANCH   1   4
HETATM    4  C3  UNL     1     -34.745   4.771   4.627  1.00 20.00     0.378 C 
HETATM    5  F5  UNL     1     -33.933   3.682   4.687  1.00 20.00    -0.210 F 
HETATM    6  F6  UNL     1     -34.969   5.150   5.913  1.00 20.00    -0.210 F 
ENDBRANCH   1   4
TORSDOF 1
ENDMDL
MODEL 7
REMARK VINA RESULT:      -4.3      1.673      2.732
REMARK  1 active torsions:
REMARK  status: ('A' for Active; 'I' for Inactive)
REMARK    1  A    between atoms: C1_1  and  C3_3 
ROOT
HETATM    1  C1  UNL     1     -34.318   6.579   4.023  1.00 20.00     0.072 C 
HETATM    2  C2  UNL     1     -33.908   5.890   2.959  1.00 20.00     0.189 C 
HETATM    3  F4  UNL     1     -33.247   4.724   3.087  1.00 20.00    -0.220 F 
ENDROOT
BRANCH   1   4
HETATM    4  C3  UNL     1     -34.102   6.155   5.435  1.00 20.00     0.378 C 
HETATM    5  F5  UNL     1     -34.236   7.183   6.316  1.00 20.00    -0.210 F 
HETATM    6  F6  UNL     1     -35.019   5.220   5.800  1.00 20.00    -0.210 F 
ENDBRANCH   1   4
TORSDOF 1
ENDMDL
MODEL 8
REMARK VINA RESULT:      -4.3      1.705      1.732
REMARK  1 active torsions:
REMARK  status: ('A' for Active; 'I' for Inactive)
REMARK    1  A    between atoms: C1_1  and  C3_3 
ROOT
HETATM    1  C1  UNL     1     -33.860   6.969   4.565  1.00 20.00     0.072 C 
HETATM    2  C2  UNL     1     -32.982   7.284   3.614  1.00 20.00     0.189 C 
HETATM    3  F4  UNL     1     -32.694   6.434   2.611  1.00 20.00    -0.220 F 
ENDROOT
BRANCH   1   4
HETATM    4  C3  UNL     1     -34.604   5.679   4.630  1.00 20.00     0.378 C 
HETATM    5  F5  UNL     1     -34.937   5.331   5.902  1.00 20.00    -0.210 F 
HETATM    6  F6  UNL     1     -35.772   5.765   3.940  1.00 20.00    -0.210 F 
ENDBRANCH   1   4
TORSDOF 1
ENDMDL
MODEL 9
REMARK VINA RESULT:      -4.2      1.668      2.290
REMARK  1 active torsions:
REMARK  status: ('A' for Active; 'I' for Inactive)
REMARK    1  A    between atoms: C1_1  and  C3_3 
ROOT
HETATM    1  C1  UNL     1     -34.170   6.521   4.104  1.00 20.00     0.072 C 
HETATM    2  C2  UNL     1     -33.279   7.236   3.419  1.00 20.00     0.189 C 
HETATM    3  F4  UNL     1     -32.182   7.748   4.009  1.00 20.00    -0.220 F 
ENDROOT
BRANCH   1   4
HETATM    4  C3  UNL     1     -34.062   6.212   5.557  1.00 20.00     0.378 C 
HETATM    5  F5  UNL     1     -34.230   7.312   6.339  1.00 20.00    -0.210 F 
HETATM    6  F6  UNL     1     -35.025   5.328   5.932  1.00 20.00    -0.210 F 
ENDBRANCH   1   4
TORSDOF 1
ENDMDL
