MODEL 1
REMARK VINA RESULT:      -5.5      0.000      0.000
REMARK  1 active torsions:
REMARK  status: ('A' for Active; 'I' for Inactive)
REMARK    1  A    between atoms: C4_4  and  C10_10 
ROOT
HETATM    1  C1  UNL     1     -33.719   5.566   4.343  1.00 20.00     0.016 C 
HETATM    2  C2  UNL     1     -33.802   5.742   2.831  1.00 20.00     0.017 C 
HETATM    3  C3  UNL     1     -34.334   6.879   4.818  1.00 20.00     0.122 C 
HETATM    4  C4  UNL     1     -33.466   7.228   2.666  1.00 20.00     0.129 C 
HETATM    5  C5  UNL     1     -34.439   4.334   4.871  1.00 20.00     0.013 C 
HETATM    6  C6  UNL     1     -32.945   4.772   2.033  1.00 20.00     0.013 C 
HETATM    7  C7  UNL     1     -33.885   7.300   6.206  1.00 20.00     0.040 C 
HETATM    8  O11 UNL     1     -33.931   7.880   3.866  1.00 20.00    -0.380 OA
ENDROOT
BRANCH   4   9
HETATM    9  C10 UNL     1     -31.987   7.564   2.509  1.00 20.00     0.007 C 
HETATM   10  C8  UNL     1     -31.759   8.426   1.268  1.00 20.00     0.012 C 
HETATM   11  C9  UNL     1     -31.458   8.270   3.756  1.00 20.00     0.012 C 
ENDBRANCH   4   9
TORSDOF 1
ENDMDL
MODEL 2
REMARK VINA RESULT:      -4.3     11.328     12.112
REMARK  1 active torsions:
REMARK  status: ('A' for Active; 'I' for Inactive)
REMARK    1  A    between atoms: C4_4  and  C10_10 
ROOT
HETATM    1  C1  UNL     1     -35.608  14.486  -4.673  1.00 20.00     0.016 C 
HETATM    2  C2  UNL     1     -34.279  15.229  -4.741  1.00 20.00     0.017 C 
HETATM    3  C3  UNL     1     -36.590  15.640  -4.858  1.00 20.00     0.122 C 
HETATM    4  C4  UNL     1     -34.598  16.523  -3.985  1.00 20.00     0.129 C 
HETATM    5  C5  UNL     1     -35.765  13.385  -5.710  1.00 20.00     0.013 C 
HETATM    6  C6  UNL     1     -33.085  14.437  -4.232  1.00 20.00     0.013 C 
HETATM    7  C7  UNL     1     -37.963  15.378  -4.266  1.00 20.00     0.040 C 
HETATM    8  O11 UNL     1     -36.002  16.778  -4.202  1.00 20.00    -0.380 OA
ENDROOT
BRANCH   4   9
HETATM    9  C10 UNL     1     -34.370  16.488  -2.478  1.00 20.00     0.007 C 
HETATM   10  C8  UNL     1     -33.210  17.404  -2.087  1.00 20.00     0.012 C 
HETATM   11  C9  UNL     1     -35.641  16.886  -1.730  1.00 20.00     0.012 C 
ENDBRANCH   4   9
TORSDOF 1
ENDMDL
MODEL 3
REMARK VINA RESULT:      -4.3     11.263     12.361
REMARK  1 active torsions:
REMARK  status: ('A' for Active; 'I' for Inactive)
REMARK    1  A    between atoms: C4_4  and  C10_10 
ROOT
HETATM    1  C1  UNL     1     -34.885  16.047  -3.688  1.00 20.00     0.016 C 
HETATM    2  C2  UNL     1     -34.465  14.611  -3.979  1.00 20.00     0.017 C 
HETATM    3  C3  UNL     1     -36.403  15.896  -3.638  1.00 20.00     0.122 C 
HETATM    4  C4  UNL     1     -35.550  14.155  -4.960  1.00 20.00     0.129 C 
HETATM    5  C5  UNL     1     -34.292  16.627  -2.414  1.00 20.00     0.013 C 
HETATM    6  C6  UNL     1     -33.029  14.455  -4.453  1.00 20.00     0.013 C 
HETATM    7  C7  UNL     1     -37.157  17.175  -3.956  1.00 20.00     0.040 C 
HETATM    8  O11 UNL     1     -36.741  14.894  -4.614  1.00 20.00    -0.380 OA
ENDROOT
BRANCH   4   9
HETATM    9  C10 UNL     1     -35.267  14.415  -6.435  1.00 20.00     0.007 C 
HETATM   10  C8  UNL     1     -35.022  13.101  -7.177  1.00 20.00     0.012 C 
HETATM   11  C9  UNL     1     -36.417  15.187  -7.079  1.00 20.00     0.012 C 
ENDBRANCH   4   9
TORSDOF 1
ENDMDL
MODEL 4
REMARK VINA RESULT:      -4.3     11.413     12.894
REMARK  1 active torsions:
REMARK  status: ('A' for Active; 'I' for Inactive)
REMARK    1  A    between atoms: C4_4  and  C10_10 
ROOT
HETATM    1  C1  UNL     1     -34.053  17.006  -4.833  1.00 20.00     0.016 C 
HETATM    2  C2  UNL     1     -33.405  16.177  -5.936  1.00 20.00     0.017 C 
HETATM    3  C3  UNL     1     -33.816  16.107  -3.623  1.00 20.00     0.122 C 
HETATM    4  C4  UNL     1     -33.805  14.752  -5.539  1.00 20.00     0.129 C 
HETATM    5  C5  UNL     1     -33.471  18.402  -4.674  1.00 20.00     0.013 C 
HETATM    6  C6  UNL     1     -33.773  16.604  -7.348  1.00 20.00     0.013 C 
HETATM    7  C7  UNL     1     -34.814  16.316  -2.498  1.00 20.00     0.040 C 
HETATM    8  O11 UNL     1     -33.919  14.753  -4.100  1.00 20.00    -0.380 OA
ENDROOT
BRANCH   4   9
HETATM    9  C10 UNL     1     -35.131  14.251  -6.100  1.00 20.00     0.007 C 
HETATM   10  C8  UNL     1     -34.894  13.258  -7.238  1.00 20.00     0.012 C 
HETATM   11  C9  UNL     1     -35.976  13.611  -4.999  1.00 20.00     0.012 C 
ENDBRANCH   4   9
TORSDOF 1
ENDMDL
MODEL 5
REMARK VINA RESULT:      -4.1     11.359     12.712
REMARK  1 active torsions:
REMARK  status: ('A' for Active; 'I' for Inactive)
REMARK    1  A    between atoms: C4_4  and  C10_10 
ROOT
HETATM    1  C1  UNL     1     -34.690  14.701  -5.772  1.00 20.00     0.016 C 
HETATM    2  C2  UNL     1     -33.426  15.270  -5.139  1.00 20.00     0.017 C 
HETATM    3  C3  UNL     1     -35.410  15.984  -6.177  1.00 20.00     0.122 C 
HETATM    4  C4  UNL     1     -33.967  16.499  -4.399  1.00 20.00     0.129 C 
HETATM    5  C5  UNL     1     -34.437  13.755  -6.936  1.00 20.00     0.013 C 
HETATM    6  C6  UNL     1     -32.638  14.279  -4.297  1.00 20.00     0.013 C 
HETATM    7  C7  UNL     1     -36.917  15.834  -6.287  1.00 20.00     0.040 C 
HETATM    8  O11 UNL     1     -35.106  16.955  -5.159  1.00 20.00    -0.380 OA
ENDROOT
BRANCH   4   9
HETATM    9  C10 UNL     1     -34.438  16.262  -2.969  1.00 20.00     0.007 C 
HETATM   10  C8  UNL     1     -33.599  17.076  -1.983  1.00 20.00     0.012 C 
HETATM   11  C9  UNL     1     -35.919  16.609  -2.824  1.00 20.00     0.012 C 
ENDBRANCH   4   9
TORSDOF 1
ENDMDL
MODEL 6
REMARK VINA RESULT:      -4.1     11.377     12.344
REMARK  1 active torsions:
REMARK  status: ('A' for Active; 'I' for Inactive)
REMARK    1  A    between atoms: C4_4  and  C10_10 
ROOT
HETATM    1  C1  UNL     1     -36.714  14.818  -5.488  1.00 20.00     0.016 C 
HETATM    2  C2  UNL     1     -36.533  15.272  -4.044  1.00 20.00     0.017 C 
HETATM    3  C3  UNL     1     -35.865  13.550  -5.498  1.00 20.00     0.122 C 
HETATM    4  C4  UNL     1     -35.058  14.943  -3.791  1.00 20.00     0.129 C 
HETATM    5  C5  UNL     1     -38.160  14.582  -5.895  1.00 20.00     0.013 C 
HETATM    6  C6  UNL     1     -36.951  16.709  -3.775  1.00 20.00     0.013 C 
HETATM    7  C7  UNL     1     -35.342  13.172  -6.872  1.00 20.00     0.040 C 
HETATM    8  O11 UNL     1     -34.752  13.803  -4.621  1.00 20.00    -0.380 OA
ENDROOT
BRANCH   4   9
HETATM    9  C10 UNL     1     -34.060  16.041  -4.140  1.00 20.00     0.007 C 
HETATM   10  C8  UNL     1     -33.483  16.670  -2.872  1.00 20.00     0.012 C 
HETATM   11  C9  UNL     1     -32.940  15.493  -5.023  1.00 20.00     0.012 C 
ENDBRANCH   4   9
TORSDOF 1
ENDMDL
MODEL 7
REMARK VINA RESULT:      -4.0     11.337     12.577
REMARK  1 active torsions:
REMARK  status: ('A' for Active; 'I' for Inactive)
REMARK    1  A    between atoms: C4_4  and  C10_10 
ROOT
HETATM    1  C1  UNL     1     -34.332  16.073  -3.289  1.00 20.00     0.016 C 
HETATM    2  C2  UNL     1     -35.517  16.766  -3.952  1.00 20.00     0.017 C 
HETATM    3  C3  UNL     1     -33.539  15.626  -4.514  1.00 20.00     0.122 C 
HETATM    4  C4  UNL     1     -35.785  15.855  -5.155  1.00 20.00     0.129 C 
HETATM    5  C5  UNL     1     -33.538  16.958  -2.342  1.00 20.00     0.013 C 
HETATM    6  C6  UNL     1     -36.699  17.020  -3.031  1.00 20.00     0.013 C 
HETATM    7  C7  UNL     1     -32.643  14.428  -4.261  1.00 20.00     0.040 C 
HETATM    8  O11 UNL     1     -34.510  15.287  -5.521  1.00 20.00    -0.380 OA
ENDROOT
BRANCH   4   9
HETATM    9  C10 UNL     1     -36.746  14.697  -4.913  1.00 20.00     0.007 C 
HETATM   10  C8  UNL     1     -38.045  14.902  -5.693  1.00 20.00     0.012 C 
HETATM   11  C9  UNL     1     -36.098  13.368  -5.293  1.00 20.00     0.012 C 
ENDBRANCH   4   9
TORSDOF 1
ENDMDL
MODEL 8
REMARK VINA RESULT:      -4.0     11.046     13.180
REMARK  1 active torsions:
REMARK  status: ('A' for Active; 'I' for Inactive)
REMARK    1  A    between atoms: C4_4  and  C10_10 
ROOT
HETATM    1  C1  UNL     1     -34.403  14.946  -6.409  1.00 20.00     0.016 C 
HETATM    2  C2  UNL     1     -33.795  14.632  -5.047  1.00 20.00     0.017 C 
HETATM    3  C3  UNL     1     -33.548  16.135  -6.837  1.00 20.00     0.122 C 
HETATM    4  C4  UNL     1     -33.518  16.033  -4.493  1.00 20.00     0.129 C 
HETATM    5  C5  UNL     1     -34.367  13.787  -7.394  1.00 20.00     0.013 C 
HETATM    6  C6  UNL     1     -34.642  13.723  -4.170  1.00 20.00     0.013 C 
HETATM    7  C7  UNL     1     -34.232  17.055  -7.833  1.00 20.00     0.040 C 
HETATM    8  O11 UNL     1     -33.254  16.872  -5.637  1.00 20.00    -0.380 OA
ENDROOT
BRANCH   4   9
HETATM    9  C10 UNL     1     -34.655  16.677  -3.708  1.00 20.00     0.007 C 
HETATM   10  C8  UNL     1     -34.310  16.750  -2.221  1.00 20.00     0.012 C 
HETATM   11  C9  UNL     1     -34.968  18.069  -4.254  1.00 20.00     0.012 C 
ENDBRANCH   4   9
TORSDOF 1
ENDMDL
MODEL 9
REMARK VINA RESULT:      -3.9     11.595     12.817
REMARK  1 active torsions:
REMARK  status: ('A' for Active; 'I' for Inactive)
REMARK    1  A    between atoms: C4_4  and  C10_10 
ROOT
HETATM    1  C1  UNL     1     -35.574  16.685  -4.975  1.00 20.00     0.016 C 
HETATM    2  C2  UNL     1     -36.461  16.434  -3.761  1.00 20.00     0.017 C 
HETATM    3  C3  UNL     1     -34.502  15.619  -4.771  1.00 20.00     0.122 C 
HETATM    4  C4  UNL     1     -35.429  16.117  -2.674  1.00 20.00     0.129 C 
HETATM    5  C5  UNL     1     -36.294  16.574  -6.310  1.00 20.00     0.013 C 
HETATM    6  C6  UNL     1     -37.437  17.557  -3.446  1.00 20.00     0.013 C 
HETATM    7  C7  UNL     1     -33.175  15.949  -5.431  1.00 20.00     0.040 C 
HETATM    8  O11 UNL     1     -34.309  15.508  -3.350  1.00 20.00    -0.380 OA
ENDROOT
BRANCH   4   9
HETATM    9  C10 UNL     1     -34.895  17.311  -1.892  1.00 20.00     0.007 C 
HETATM   10  C8  UNL     1     -35.422  17.297  -0.458  1.00 20.00     0.012 C 
HETATM   11  C9  UNL     1     -33.367  17.323  -1.900  1.00 20.00     0.012 C 
ENDBRANCH   4   9
TORSDOF 1
ENDMDL
