MODEL 1
REMARK VINA RESULT:      -5.1      0.000      0.000
REMARK  1 active torsions:
REMARK  status: ('A' for Active; 'I' for Inactive)
REMARK    1  A    between atoms: CA_4  and  C_5 
ROOT
HETATM    1  C1  UNK A   1     -32.614   7.593   2.825  1.00 20.00     0.013 A 
HETATM    2  C2  UNK A   1     -31.809   8.217   1.734  1.00 20.00     0.066 C 
ATOM      3  N   VAL A   1     -33.402   6.578   2.631  1.00 20.00    -0.255 NA
ATOM      4  CA  VAL A   1     -33.936   6.326   3.866  1.00 20.00     0.096 A 
ATOM      5  CB  VAL A   1     -33.509   7.151   4.831  1.00 20.00    -0.047 A 
ATOM      6  CG1 VAL A   1     -33.840   7.213   6.278  1.00 20.00     0.046 C 
ATOM      7  CG2 VAL A   1     -32.546   8.126   4.233  1.00 20.00     0.090 A 
ENDROOT
BRANCH   4   8
ATOM      8  C   VAL A   1     -34.886   5.235   4.046  1.00 20.00     0.290 C 
ATOM      9  O   VAL A   1     -34.544   4.100   4.368  1.00 20.00    -0.300 OA
ENDBRANCH   4   8
TORSDOF 1
ENDMDL
MODEL 2
REMARK VINA RESULT:      -4.3      1.429      2.276
REMARK  1 active torsions:
REMARK  status: ('A' for Active; 'I' for Inactive)
REMARK    1  A    between atoms: CA_4  and  C_5 
ROOT
HETATM    1  C1  UNK A   1     -32.545   7.662   2.591  1.00 20.00     0.013 A 
HETATM    2  C2  UNK A   1     -31.819   8.382   1.504  1.00 20.00     0.066 C 
ATOM      3  N   VAL A   1     -32.621   8.111   3.809  1.00 20.00    -0.255 NA
ATOM      4  CA  VAL A   1     -33.360   7.167   4.469  1.00 20.00     0.096 A 
ATOM      5  CB  VAL A   1     -33.751   6.138   3.707  1.00 20.00    -0.047 A 
ATOM      6  CG1 VAL A   1     -34.552   4.930   4.034  1.00 20.00     0.046 C 
ATOM      7  CG2 VAL A   1     -33.238   6.352   2.319  1.00 20.00     0.090 A 
ENDROOT
BRANCH   4   8
ATOM      8  C   VAL A   1     -33.660   7.330   5.887  1.00 20.00     0.290 C 
ATOM      9  O   VAL A   1     -34.528   6.681   6.464  1.00 20.00    -0.300 OA
ENDBRANCH   4   8
TORSDOF 1
ENDMDL
MODEL 3
REMARK VINA RESULT:      -4.1     11.927     12.243
REMARK  1 active torsions:
REMARK  status: ('A' for Active; 'I' for Inactive)
REMARK    1  A    between atoms: CA_4  and  C_5 
ROOT
HETATM    1  C1  UNK A   1     -34.424  16.693  -2.228  1.00 20.00     0.013 A 
HETATM    2  C2  UNK A   1     -34.765  15.851  -3.413  1.00 20.00     0.066 C 
ATOM      3  N   VAL A   1     -33.263  17.255  -2.072  1.00 20.00    -0.255 NA
ATOM      4  CA  VAL A   1     -33.369  17.920  -0.880  1.00 20.00     0.096 A 
ATOM      5  CB  VAL A   1     -34.560  17.794  -0.281  1.00 20.00    -0.047 A 
ATOM      6  CG1 VAL A   1     -35.073  18.347   0.999  1.00 20.00     0.046 C 
ATOM      7  CG2 VAL A   1     -35.434  16.932  -1.136  1.00 20.00     0.090 A 
ENDROOT
BRANCH   4   8
ATOM      8  C   VAL A   1     -32.240  18.684  -0.363  1.00 20.00     0.290 C 
ATOM      9  O   VAL A   1     -31.091  18.251  -0.354  1.00 20.00    -0.300 OA
ENDBRANCH   4   8
TORSDOF 1
ENDMDL
MODEL 4
REMARK VINA RESULT:      -4.1     11.513     11.918
REMARK  1 active torsions:
REMARK  status: ('A' for Active; 'I' for Inactive)
REMARK    1  A    between atoms: CA_4  and  C_5 
ROOT
HETATM    1  C1  UNK A   1     -35.687  16.442  -2.970  1.00 20.00     0.013 A 
HETATM    2  C2  UNK A   1     -36.277  17.491  -2.086  1.00 20.00     0.066 C 
ATOM      3  N   VAL A   1     -36.403  15.699  -3.760  1.00 20.00    -0.255 NA
ATOM      4  CA  VAL A   1     -35.489  14.888  -4.377  1.00 20.00     0.096 A 
ATOM      5  CB  VAL A   1     -34.221  15.096  -4.000  1.00 20.00    -0.047 A 
ATOM      6  CG1 VAL A   1     -32.957  14.441  -4.423  1.00 20.00     0.046 C 
ATOM      7  CG2 VAL A   1     -34.201  16.193  -2.984  1.00 20.00     0.090 A 
ENDROOT
BRANCH   4   8
ATOM      8  C   VAL A   1     -35.929  13.899  -5.355  1.00 20.00     0.290 C 
ATOM      9  O   VAL A   1     -35.886  12.690  -5.145  1.00 20.00    -0.300 OA
ENDBRANCH   4   8
TORSDOF 1
ENDMDL
MODEL 5
REMARK VINA RESULT:      -4.0     11.783     12.451
REMARK  1 active torsions:
REMARK  status: ('A' for Active; 'I' for Inactive)
REMARK    1  A    between atoms: CA_4  and  C_5 
ROOT
HETATM    1  C1  UNK A   1     -34.003  16.121  -3.730  1.00 20.00     0.013 A 
HETATM    2  C2  UNK A   1     -33.567  16.881  -2.521  1.00 20.00     0.066 C 
ATOM      3  N   VAL A   1     -34.982  15.267  -3.713  1.00 20.00    -0.255 NA
ATOM      4  CA  VAL A   1     -35.048  14.806  -5.001  1.00 20.00     0.096 A 
ATOM      5  CB  VAL A   1     -34.141  15.343  -5.827  1.00 20.00    -0.047 A 
ATOM      6  CG1 VAL A   1     -33.883  15.117  -7.272  1.00 20.00     0.046 C 
ATOM      7  CG2 VAL A   1     -33.308  16.314  -5.053  1.00 20.00     0.090 A 
ENDROOT
BRANCH   4   8
ATOM      8  C   VAL A   1     -36.048  13.813  -5.374  1.00 20.00     0.290 C 
ATOM      9  O   VAL A   1     -35.864  12.605  -5.252  1.00 20.00    -0.300 OA
ENDBRANCH   4   8
TORSDOF 1
ENDMDL
MODEL 6
REMARK VINA RESULT:      -3.9     11.690     11.972
REMARK  1 active torsions:
REMARK  status: ('A' for Active; 'I' for Inactive)
REMARK    1  A    between atoms: CA_4  and  C_5 
ROOT
HETATM    1  C1  UNK A   1     -34.646  16.189  -3.052  1.00 20.00     0.013 A 
HETATM    2  C2  UNK A   1     -33.679  16.932  -2.190  1.00 20.00     0.066 C 
ATOM      3  N   VAL A   1     -34.285  15.242  -3.865  1.00 20.00    -0.255 NA
ATOM      4  CA  VAL A   1     -35.455  14.838  -4.450  1.00 20.00     0.096 A 
ATOM      5  CB  VAL A   1     -36.540  15.501  -4.032  1.00 20.00    -0.047 A 
ATOM      6  CG1 VAL A   1     -37.971  15.370  -4.411  1.00 20.00     0.046 C 
ATOM      7  CG2 VAL A   1     -36.117  16.515  -3.017  1.00 20.00     0.090 A 
ENDROOT
BRANCH   4   8
ATOM      8  C   VAL A   1     -35.448  13.767  -5.440  1.00 20.00     0.290 C 
ATOM      9  O   VAL A   1     -35.887  12.644  -5.210  1.00 20.00    -0.300 OA
ENDBRANCH   4   8
TORSDOF 1
ENDMDL
MODEL 7
REMARK VINA RESULT:      -3.8      2.342      3.956
REMARK  1 active torsions:
REMARK  status: ('A' for Active; 'I' for Inactive)
REMARK    1  A    between atoms: CA_4  and  C_5 
ROOT
HETATM    1  C1  UNK A   1     -34.233   6.080   4.979  1.00 20.00     0.013 A 
HETATM    2  C2  UNK A   1     -34.924   6.074   6.302  1.00 20.00     0.066 C 
ATOM      3  N   VAL A   1     -33.686   7.144   4.472  1.00 20.00    -0.255 NA
ATOM      4  CA  VAL A   1     -33.174   6.721   3.275  1.00 20.00     0.096 A 
ATOM      5  CB  VAL A   1     -33.381   5.424   3.012  1.00 20.00    -0.047 A 
ATOM      6  CG1 VAL A   1     -32.994   4.590   1.845  1.00 20.00     0.046 C 
ATOM      7  CG2 VAL A   1     -34.137   4.822   4.154  1.00 20.00     0.090 A 
ENDROOT
BRANCH   4   8
ATOM      8  C   VAL A   1     -32.472   7.657   2.405  1.00 20.00     0.290 C 
ATOM      9  O   VAL A   1     -31.667   8.483   2.827  1.00 20.00    -0.300 OA
ENDBRANCH   4   8
TORSDOF 1
ENDMDL
MODEL 8
REMARK VINA RESULT:      -3.8     11.967     12.566
REMARK  1 active torsions:
REMARK  status: ('A' for Active; 'I' for Inactive)
REMARK    1  A    between atoms: CA_4  and  C_5 
ROOT
HETATM    1  C1  UNK A   1     -35.379  17.982   0.609  1.00 20.00     0.013 A 
HETATM    2  C2  UNK A   1     -36.536  18.030   1.550  1.00 20.00     0.066 C 
ATOM      3  N   VAL A   1     -34.269  18.625   0.818  1.00 20.00    -0.255 NA
ATOM      4  CA  VAL A   1     -33.491  18.314  -0.263  1.00 20.00     0.096 A 
ATOM      5  CB  VAL A   1     -34.075  17.496  -1.148  1.00 20.00    -0.047 A 
ATOM      6  CG1 VAL A   1     -33.580  16.930  -2.430  1.00 20.00     0.046 C 
ATOM      7  CG2 VAL A   1     -35.448  17.167  -0.657  1.00 20.00     0.090 A 
ENDROOT
BRANCH   4   8
ATOM      8  C   VAL A   1     -32.145  18.863  -0.381  1.00 20.00     0.290 C 
ATOM      9  O   VAL A   1     -31.135  18.165  -0.339  1.00 20.00    -0.300 OA
ENDBRANCH   4   8
TORSDOF 1
ENDMDL
MODEL 9
REMARK VINA RESULT:      -3.7     11.599     11.985
REMARK  1 active torsions:
REMARK  status: ('A' for Active; 'I' for Inactive)
REMARK    1  A    between atoms: CA_4  and  C_5 
ROOT
HETATM    1  C1  UNK A   1     -36.456  15.401  -4.104  1.00 20.00     0.013 A 
HETATM    2  C2  UNK A   1     -37.893  15.199  -4.453  1.00 20.00     0.066 C 
ATOM      3  N   VAL A   1     -35.491  14.738  -4.667  1.00 20.00    -0.255 NA
ATOM      4  CA  VAL A   1     -34.358  15.219  -4.069  1.00 20.00     0.096 A 
ATOM      5  CB  VAL A   1     -34.578  16.164  -3.146  1.00 20.00    -0.047 A 
ATOM      6  CG1 VAL A   1     -33.638  16.927  -2.286  1.00 20.00     0.046 C 
ATOM      7  CG2 VAL A   1     -36.051  16.405  -3.056  1.00 20.00     0.090 A 
ENDROOT
BRANCH   4   8
ATOM      8  C   VAL A   1     -33.050  14.701  -4.452  1.00 20.00     0.290 C 
ATOM      9  O   VAL A   1     -32.652  13.586  -4.125  1.00 20.00    -0.300 OA
ENDBRANCH   4   8
TORSDOF 1
ENDMDL
