MODEL 1
REMARK VINA RESULT:      -5.3      0.000      0.000
REMARK  2 active torsions:
REMARK  status: ('A' for Active; 'I' for Inactive)
REMARK    1  A    between atoms: C2_2  and  C9_9 
REMARK    2  A    between atoms: C3_3  and  C6_6 
ROOT
HETATM    1  C1  UNL     1     -32.712   7.551   4.628  1.00 20.00     0.079 A 
HETATM    2  C2  UNL     1     -33.447   6.827   3.711  1.00 20.00     0.045 A 
HETATM    3  C3  UNL     1     -32.422   8.178   2.320  1.00 20.00     0.079 A 
HETATM    4  N10 UNL     1     -33.282   7.186   2.388  1.00 20.00    -0.249 NA
HETATM    5  S11 UNL     1     -31.772   8.729   3.810  1.00 20.00    -0.084 SA
ENDROOT
BRANCH   2   6
HETATM    6  C9  UNL     1     -34.402   5.694   4.038  1.00 20.00     0.030 C 
HETATM    7  C7  UNL     1     -34.662   5.593   5.542  1.00 20.00     0.016 C 
HETATM    8  C8  UNL     1     -33.902   4.358   3.480  1.00 20.00     0.016 C 
ENDBRANCH   2   6
BRANCH   3   9
HETATM    9  C6  UNL     1     -32.020   8.810   0.978  1.00 20.00     0.045 A 
HETATM   10  C4  UNL     1     -32.299  10.279   0.758  1.00 20.00     0.012 A 
HETATM   11  C5  UNL     1     -33.110   9.254   0.030  1.00 20.00     0.012 A 
ENDBRANCH   3   9
TORSDOF 2
ENDMDL
MODEL 2
REMARK VINA RESULT:      -5.2      0.962      4.814
REMARK  2 active torsions:
REMARK  status: ('A' for Active; 'I' for Inactive)
REMARK    1  A    between atoms: C2_2  and  C9_9 
REMARK    2  A    between atoms: C3_3  and  C6_6 
ROOT
HETATM    1  C1  UNL     1     -32.195   8.475   3.620  1.00 20.00     0.079 A 
HETATM    2  C2  UNL     1     -32.798   8.145   2.423  1.00 20.00     0.045 A 
HETATM    3  C3  UNL     1     -33.846   6.723   3.723  1.00 20.00     0.079 A 
HETATM    4  N10 UNL     1     -33.744   7.141   2.481  1.00 20.00    -0.249 NA
HETATM    5  S11 UNL     1     -32.832   7.494   4.874  1.00 20.00    -0.084 SA
ENDROOT
BRANCH   2   6
HETATM    6  C9  UNL     1     -32.509   8.786   1.078  1.00 20.00     0.030 C 
HETATM    7  C7  UNL     1     -31.068   8.532   0.633  1.00 20.00     0.016 C 
HETATM    8  C8  UNL     1     -32.820  10.285   1.091  1.00 20.00     0.016 C 
ENDBRANCH   2   6
BRANCH   3   9
HETATM    9  C6  UNL     1     -34.819   5.603   4.124  1.00 20.00     0.045 A 
HETATM   10  C4  UNL     1     -34.695   4.996   5.503  1.00 20.00     0.012 A 
HETATM   11  C5  UNL     1     -34.278   4.203   4.305  1.00 20.00     0.012 A 
ENDBRANCH   3   9
TORSDOF 2
ENDMDL
MODEL 3
REMARK VINA RESULT:      -4.8      1.454      1.879
REMARK  2 active torsions:
REMARK  status: ('A' for Active; 'I' for Inactive)
REMARK    1  A    between atoms: C2_2  and  C9_9 
REMARK    2  A    between atoms: C3_3  and  C6_6 
ROOT
HETATM    1  C1  UNL     1     -33.832   5.642   3.013  1.00 20.00     0.079 A 
HETATM    2  C2  UNL     1     -33.814   6.677   3.927  1.00 20.00     0.045 A 
HETATM    3  C3  UNL     1     -32.759   7.671   2.281  1.00 20.00     0.079 A 
HETATM    4  N10 UNL     1     -33.199   7.840   3.508  1.00 20.00    -0.249 NA
HETATM    5  S11 UNL     1     -33.051   6.137   1.569  1.00 20.00    -0.084 SA
ENDROOT
BRANCH   2   6
HETATM    6  C9  UNL     1     -34.404   6.635   5.324  1.00 20.00     0.030 C 
HETATM    7  C7  UNL     1     -33.585   7.476   6.305  1.00 20.00     0.016 C 
HETATM    8  C8  UNL     1     -34.554   5.197   5.829  1.00 20.00     0.016 C 
ENDBRANCH   2   6
BRANCH   3   9
HETATM    9  C6  UNL     1     -32.023   8.788   1.523  1.00 20.00     0.045 A 
HETATM   10  C4  UNL     1     -32.667  10.152   1.440  1.00 20.00     0.012 A 
HETATM   11  C5  UNL     1     -32.607   9.286   0.221  1.00 20.00     0.012 A 
ENDBRANCH   3   9
TORSDOF 2
ENDMDL
MODEL 4
REMARK VINA RESULT:      -4.3     11.056     11.740
REMARK  2 active torsions:
REMARK  status: ('A' for Active; 'I' for Inactive)
REMARK    1  A    between atoms: C2_2  and  C9_9 
REMARK    2  A    between atoms: C3_3  and  C6_6 
ROOT
HETATM    1  C1  UNL     1     -33.692  17.467  -4.565  1.00 20.00     0.079 A 
HETATM    2  C2  UNL     1     -33.911  16.516  -3.589  1.00 20.00     0.045 A 
HETATM    3  C3  UNL     1     -34.102  15.227  -5.353  1.00 20.00     0.079 A 
HETATM    4  N10 UNL     1     -34.146  15.232  -4.039  1.00 20.00    -0.249 NA
HETATM    5  S11 UNL     1     -33.782  16.733  -6.112  1.00 20.00    -0.084 SA
ENDROOT
BRANCH   2   6
HETATM    6  C9  UNL     1     -33.913  16.767  -2.092  1.00 20.00     0.030 C 
HETATM    7  C7  UNL     1     -35.336  16.901  -1.546  1.00 20.00     0.016 C 
HETATM    8  C8  UNL     1     -33.070  17.992  -1.726  1.00 20.00     0.016 C 
ENDBRANCH   2   6
BRANCH   3   9
HETATM    9  C6  UNL     1     -34.325  13.942  -6.166  1.00 20.00     0.045 A 
HETATM   10  C4  UNL     1     -34.316  14.030  -7.675  1.00 20.00     0.012 A 
HETATM   11  C5  UNL     1     -35.607  13.797  -6.954  1.00 20.00     0.012 A 
ENDBRANCH   3   9
TORSDOF 2
ENDMDL
MODEL 5
REMARK VINA RESULT:      -4.3     10.606     11.467
REMARK  2 active torsions:
REMARK  status: ('A' for Active; 'I' for Inactive)
REMARK    1  A    between atoms: C2_2  and  C9_9 
REMARK    2  A    between atoms: C3_3  and  C6_6 
ROOT
HETATM    1  C1  UNL     1     -33.497  17.491  -4.213  1.00 20.00     0.079 A 
HETATM    2  C2  UNL     1     -34.089  17.079  -3.036  1.00 20.00     0.045 A 
HETATM    3  C3  UNL     1     -34.568  15.333  -4.274  1.00 20.00     0.079 A 
HETATM    4  N10 UNL     1     -34.703  15.843  -3.070  1.00 20.00    -0.249 NA
HETATM    5  S11 UNL     1     -33.712  16.287  -5.416  1.00 20.00    -0.084 SA
ENDROOT
BRANCH   2   6
HETATM    6  C9  UNL     1     -34.116  17.863  -1.737  1.00 20.00     0.030 C 
HETATM    7  C7  UNL     1     -32.711  18.039  -1.157  1.00 20.00     0.016 C 
HETATM    8  C8  UNL     1     -35.053  17.220  -0.711  1.00 20.00     0.016 C 
ENDBRANCH   2   6
BRANCH   3   9
HETATM    9  C6  UNL     1     -35.145  13.957  -4.641  1.00 20.00     0.045 A 
HETATM   10  C4  UNL     1     -35.354  13.626  -6.101  1.00 20.00     0.012 A 
HETATM   11  C5  UNL     1     -36.538  13.888  -5.224  1.00 20.00     0.012 A 
ENDBRANCH   3   9
TORSDOF 2
ENDMDL
MODEL 6
REMARK VINA RESULT:      -4.3     10.637     11.510
REMARK  2 active torsions:
REMARK  status: ('A' for Active; 'I' for Inactive)
REMARK    1  A    between atoms: C2_2  and  C9_9 
REMARK    2  A    between atoms: C3_3  and  C6_6 
ROOT
HETATM    1  C1  UNL     1     -35.304  16.838  -1.453  1.00 20.00     0.079 A 
HETATM    2  C2  UNL     1     -34.074  16.933  -2.071  1.00 20.00     0.045 A 
HETATM    3  C3  UNL     1     -33.673  18.219  -0.340  1.00 20.00     0.079 A 
HETATM    4  N10 UNL     1     -33.138  17.724  -1.434  1.00 20.00    -0.249 NA
HETATM    5  S11 UNL     1     -35.298  17.773  -0.015  1.00 20.00    -0.084 SA
ENDROOT
BRANCH   2   6
HETATM    6  C9  UNL     1     -33.679  16.251  -3.368  1.00 20.00     0.030 C 
HETATM    7  C7  UNL     1     -33.537  17.257  -4.512  1.00 20.00     0.016 C 
HETATM    8  C8  UNL     1     -34.660  15.136  -3.739  1.00 20.00     0.016 C 
ENDBRANCH   2   6
BRANCH   3   9
HETATM    9  C6  UNL     1     -32.885  19.146   0.599  1.00 20.00     0.045 A 
HETATM   10  C4  UNL     1     -31.430  18.837   0.869  1.00 20.00     0.012 A 
HETATM   11  C5  UNL     1     -32.447  18.612   1.944  1.00 20.00     0.012 A 
ENDBRANCH   3   9
TORSDOF 2
ENDMDL
MODEL 7
REMARK VINA RESULT:      -4.2     10.435     11.406
REMARK  2 active torsions:
REMARK  status: ('A' for Active; 'I' for Inactive)
REMARK    1  A    between atoms: C2_2  and  C9_9 
REMARK    2  A    between atoms: C3_3  and  C6_6 
ROOT
HETATM    1  C1  UNL     1     -35.611  16.373  -2.630  1.00 20.00     0.079 A 
HETATM    2  C2  UNL     1     -34.271  16.252  -2.938  1.00 20.00     0.045 A 
HETATM    3  C3  UNL     1     -34.124  17.861  -1.455  1.00 20.00     0.079 A 
HETATM    4  N10 UNL     1     -33.418  17.105  -2.266  1.00 20.00    -0.249 NA
HETATM    5  S11 UNL     1     -35.821  17.600  -1.451  1.00 20.00    -0.084 SA
ENDROOT
BRANCH   2   6
HETATM    6  C9  UNL     1     -33.676  15.276  -3.937  1.00 20.00     0.030 C 
HETATM    7  C7  UNL     1     -33.179  15.992  -5.194  1.00 20.00     0.016 C 
HETATM    8  C8  UNL     1     -34.666  14.165  -4.296  1.00 20.00     0.016 C 
ENDBRANCH   2   6
BRANCH   3   9
HETATM    9  C6  UNL     1     -33.467  18.923  -0.559  1.00 20.00     0.045 A 
HETATM   10  C4  UNL     1     -32.070  18.668  -0.041  1.00 20.00     0.012 A 
HETATM   11  C5  UNL     1     -33.233  18.597   0.898  1.00 20.00     0.012 A 
ENDBRANCH   3   9
TORSDOF 2
ENDMDL
MODEL 8
REMARK VINA RESULT:      -4.1     10.651     11.642
REMARK  2 active torsions:
REMARK  status: ('A' for Active; 'I' for Inactive)
REMARK    1  A    between atoms: C2_2  and  C9_9 
REMARK    2  A    between atoms: C3_3  and  C6_6 
ROOT
HETATM    1  C1  UNL     1     -33.558  18.554  -3.672  1.00 20.00     0.079 A 
HETATM    2  C2  UNL     1     -33.575  17.867  -2.475  1.00 20.00     0.045 A 
HETATM    3  C3  UNL     1     -33.656  16.153  -3.842  1.00 20.00     0.079 A 
HETATM    4  N10 UNL     1     -33.631  16.490  -2.572  1.00 20.00    -0.249 NA
HETATM    5  S11 UNL     1     -33.613  17.441  -4.975  1.00 20.00    -0.084 SA
ENDROOT
BRANCH   2   6
HETATM    6  C9  UNL     1     -33.538  18.492  -1.093  1.00 20.00     0.030 C 
HETATM    7  C7  UNL     1     -32.133  18.440  -0.490  1.00 20.00     0.016 C 
HETATM    8  C8  UNL     1     -34.559  17.843  -0.154  1.00 20.00     0.016 C 
ENDBRANCH   2   6
BRANCH   3   9
HETATM    9  C6  UNL     1     -33.718  14.684  -4.289  1.00 20.00     0.045 A 
HETATM   10  C4  UNL     1     -34.169  14.375  -5.699  1.00 20.00     0.012 A 
HETATM   11  C5  UNL     1     -35.072  14.062  -4.547  1.00 20.00     0.012 A 
ENDBRANCH   3   9
TORSDOF 2
ENDMDL
MODEL 9
REMARK VINA RESULT:      -4.1     10.840     11.436
REMARK  2 active torsions:
REMARK  status: ('A' for Active; 'I' for Inactive)
REMARK    1  A    between atoms: C2_2  and  C9_9 
REMARK    2  A    between atoms: C3_3  and  C6_6 
ROOT
HETATM    1  C1  UNL     1     -34.218  15.700  -5.706  1.00 20.00     0.079 A 
HETATM    2  C2  UNL     1     -35.024  14.932  -4.890  1.00 20.00     0.045 A 
HETATM    3  C3  UNL     1     -34.233  16.305  -3.374  1.00 20.00     0.079 A 
HETATM    4  N10 UNL     1     -35.033  15.278  -3.553  1.00 20.00    -0.249 NA
HETATM    5  S11 UNL     1     -33.437  16.907  -4.770  1.00 20.00    -0.084 SA
ENDROOT
BRANCH   2   6
HETATM    6  C9  UNL     1     -35.881  13.763  -5.338  1.00 20.00     0.030 C 
HETATM    7  C7  UNL     1     -35.454  13.248  -6.714  1.00 20.00     0.016 C 
HETATM    8  C8  UNL     1     -37.370  14.119  -5.326  1.00 20.00     0.016 C 
ENDBRANCH   2   6
BRANCH   3   9
HETATM    9  C6  UNL     1     -34.021  16.935  -1.988  1.00 20.00     0.045 A 
HETATM   10  C4  UNL     1     -35.201  17.028  -1.047  1.00 20.00     0.012 A 
HETATM   11  C5  UNL     1     -34.668  18.269  -1.692  1.00 20.00     0.012 A 
ENDBRANCH   3   9
TORSDOF 2
ENDMDL
