MODEL 1
REMARK VINA RESULT:      -5.8      0.000      0.000
REMARK  2 active torsions:
REMARK  status: ('A' for Active; 'I' for Inactive)
REMARK    1  A    between atoms: C2_2  and  C9_9 
REMARK    2  A    between atoms: C3_3  and  C10_10 
ROOT
HETATM    1  C1  UNL     1     -32.914   7.281   4.825  1.00 20.00     0.079 A 
HETATM    2  C2  UNL     1     -33.744   6.724   3.876  1.00 20.00     0.046 A 
HETATM    3  C3  UNL     1     -32.635   8.100   2.577  1.00 20.00     0.079 A 
HETATM    4  N11 UNL     1     -33.586   7.192   2.587  1.00 20.00    -0.249 NA
HETATM    5  S12 UNL     1     -31.888   8.439   4.084  1.00 20.00    -0.084 SA
ENDROOT
BRANCH   3   6
HETATM    6  C10 UNL     1     -32.201   8.841   1.246  1.00 20.00     0.045 C 
HETATM    7  C7  UNL     1     -33.013   8.585  -0.060  1.00 20.00     0.011 C 
HETATM    8  C4  UNL     1     -32.716  10.045  -0.450  1.00 20.00     0.002 C 
HETATM    9  C8  UNL     1     -32.588  10.339   1.057  1.00 20.00     0.011 C 
ENDBRANCH   3   6
BRANCH   2  10
HETATM   10  C9  UNL     1     -34.781   5.651   4.224  1.00 20.00     0.038 A 
HETATM   11  C5  UNL     1     -34.716   4.987   5.582  1.00 20.00     0.011 A 
HETATM   12  C6  UNL     1     -34.325   4.214   4.362  1.00 20.00     0.011 A 
ENDBRANCH   2  10
TORSDOF 2
ENDMDL
MODEL 2
REMARK VINA RESULT:      -5.7      0.811      5.230
REMARK  2 active torsions:
REMARK  status: ('A' for Active; 'I' for Inactive)
REMARK    1  A    between atoms: C2_2  and  C9_9 
REMARK    2  A    between atoms: C3_3  and  C10_10 
ROOT
HETATM    1  C1  UNL     1     -31.568   8.794   3.035  1.00 20.00     0.079 A 
HETATM    2  C2  UNL     1     -32.295   8.398   1.932  1.00 20.00     0.046 A 
HETATM    3  C3  UNL     1     -33.327   7.203   3.454  1.00 20.00     0.079 A 
HETATM    4  N11 UNL     1     -33.304   7.486   2.170  1.00 20.00    -0.249 NA
HETATM    5  S12 UNL     1     -32.164   7.999   4.433  1.00 20.00    -0.084 SA
ENDROOT
BRANCH   3   6
HETATM    6  C10 UNL     1     -34.374   6.182   4.066  1.00 20.00     0.045 C 
HETATM    7  C7  UNL     1     -34.071   4.655   3.989  1.00 20.00     0.011 C 
HETATM    8  C4  UNL     1     -34.798   4.513   5.340  1.00 20.00     0.002 C 
HETATM    9  C8  UNL     1     -34.415   5.981   5.611  1.00 20.00     0.011 C 
ENDBRANCH   3   6
BRANCH   2  10
HETATM   10  C9  UNL     1     -32.006   8.933   0.526  1.00 20.00     0.038 A 
HETATM   11  C5  UNL     1     -32.331  10.378   0.214  1.00 20.00     0.011 A 
HETATM   12  C6  UNL     1     -33.171   9.287  -0.373  1.00 20.00     0.011 A 
ENDBRANCH   2  10
TORSDOF 2
ENDMDL
MODEL 3
REMARK VINA RESULT:      -4.5     10.422     11.322
REMARK  2 active torsions:
REMARK  status: ('A' for Active; 'I' for Inactive)
REMARK    1  A    between atoms: C2_2  and  C9_9 
REMARK    2  A    between atoms: C3_3  and  C10_10 
ROOT
HETATM    1  C1  UNL     1     -35.466  16.617  -1.951  1.00 20.00     0.079 A 
HETATM    2  C2  UNL     1     -34.267  16.687  -2.629  1.00 20.00     0.046 A 
HETATM    3  C3  UNL     1     -33.738  17.921  -0.895  1.00 20.00     0.079 A 
HETATM    4  N11 UNL     1     -33.275  17.434  -2.025  1.00 20.00    -0.249 NA
HETATM    5  S12 UNL     1     -35.358  17.519  -0.496  1.00 20.00    -0.084 SA
ENDROOT
BRANCH   3   6
HETATM    6  C10 UNL     1     -32.848  18.830   0.050  1.00 20.00     0.045 C 
HETATM    7  C7  UNL     1     -33.009  18.697   1.595  1.00 20.00     0.011 C 
HETATM    8  C4  UNL     1     -31.505  19.011   1.709  1.00 20.00     0.002 C 
HETATM    9  C8  UNL     1     -31.358  18.440   0.286  1.00 20.00     0.011 C 
ENDBRANCH   3   6
BRANCH   2  10
HETATM   10  C9  UNL     1     -34.042  15.981  -3.969  1.00 20.00     0.038 A 
HETATM   11  C5  UNL     1     -34.717  14.649  -4.215  1.00 20.00     0.011 A 
HETATM   12  C6  UNL     1     -33.238  14.698  -3.993  1.00 20.00     0.011 A 
ENDBRANCH   2  10
TORSDOF 2
ENDMDL
MODEL 4
REMARK VINA RESULT:      -4.4     11.061     12.091
REMARK  2 active torsions:
REMARK  status: ('A' for Active; 'I' for Inactive)
REMARK    1  A    between atoms: C2_2  and  C9_9 
REMARK    2  A    between atoms: C3_3  and  C10_10 
ROOT
HETATM    1  C1  UNL     1     -34.157  17.007  -6.332  1.00 20.00     0.079 A 
HETATM    2  C2  UNL     1     -34.704  15.796  -5.965  1.00 20.00     0.046 A 
HETATM    3  C3  UNL     1     -34.211  16.555  -3.967  1.00 20.00     0.079 A 
HETATM    4  N11 UNL     1     -34.736  15.534  -4.609  1.00 20.00    -0.249 NA
HETATM    5  S12 UNL     1     -33.659  17.862  -4.931  1.00 20.00    -0.084 SA
ENDROOT
BRANCH   3   6
HETATM    6  C10 UNL     1     -34.094  16.576  -2.387  1.00 20.00     0.045 C 
HETATM    7  C7  UNL     1     -33.430  17.806  -1.697  1.00 20.00     0.011 C 
HETATM    8  C4  UNL     1     -34.407  17.590  -0.525  1.00 20.00     0.002 C 
HETATM    9  C8  UNL     1     -35.356  16.928  -1.543  1.00 20.00     0.011 C 
ENDBRANCH   3   6
BRANCH   2  10
HETATM   10  C9  UNL     1     -35.246  14.797  -6.992  1.00 20.00     0.038 A 
HETATM   11  C5  UNL     1     -35.453  13.357  -6.572  1.00 20.00     0.011 A 
HETATM   12  C6  UNL     1     -34.331  13.703  -7.499  1.00 20.00     0.011 A 
ENDBRANCH   2  10
TORSDOF 2
ENDMDL
MODEL 5
REMARK VINA RESULT:      -4.4     10.645     11.721
REMARK  2 active torsions:
REMARK  status: ('A' for Active; 'I' for Inactive)
REMARK    1  A    between atoms: C2_2  and  C9_9 
REMARK    2  A    between atoms: C3_3  and  C10_10 
ROOT
HETATM    1  C1  UNL     1     -33.511  17.147  -4.953  1.00 20.00     0.079 A 
HETATM    2  C2  UNL     1     -33.582  16.144  -4.010  1.00 20.00     0.046 A 
HETATM    3  C3  UNL     1     -33.483  17.866  -2.655  1.00 20.00     0.079 A 
HETATM    4  N11 UNL     1     -33.567  16.554  -2.691  1.00 20.00    -0.249 NA
HETATM    5  S12 UNL     1     -33.421  18.670  -4.170  1.00 20.00    -0.084 SA
ENDROOT
BRANCH   3   6
HETATM    6  C10 UNL     1     -33.443  18.663  -1.286  1.00 20.00     0.045 C 
HETATM    7  C7  UNL     1     -34.230  18.103  -0.063  1.00 20.00     0.011 C 
HETATM    8  C4  UNL     1     -33.118  18.682   0.832  1.00 20.00     0.002 C 
HETATM    9  C8  UNL     1     -32.179  18.545  -0.382  1.00 20.00     0.011 C 
ENDBRANCH   3   6
BRANCH   2  10
HETATM   10  C9  UNL     1     -33.674  14.664  -4.393  1.00 20.00     0.038 A 
HETATM   11  C5  UNL     1     -34.235  14.295  -5.750  1.00 20.00     0.011 A 
HETATM   12  C6  UNL     1     -35.042  14.026  -4.519  1.00 20.00     0.011 A 
ENDBRANCH   2  10
TORSDOF 2
ENDMDL
MODEL 6
REMARK VINA RESULT:      -4.3     10.496     11.401
REMARK  2 active torsions:
REMARK  status: ('A' for Active; 'I' for Inactive)
REMARK    1  A    between atoms: C2_2  and  C9_9 
REMARK    2  A    between atoms: C3_3  and  C10_10 
ROOT
HETATM    1  C1  UNL     1     -36.102  16.328  -3.198  1.00 20.00     0.079 A 
HETATM    2  C2  UNL     1     -34.805  15.863  -3.244  1.00 20.00     0.046 A 
HETATM    3  C3  UNL     1     -34.502  17.555  -1.881  1.00 20.00     0.079 A 
HETATM    4  N11 UNL     1     -33.886  16.565  -2.489  1.00 20.00    -0.249 NA
HETATM    5  S12 UNL     1     -36.187  17.699  -2.172  1.00 20.00    -0.084 SA
ENDROOT
BRANCH   3   6
HETATM    6  C10 UNL     1     -33.731  18.561  -0.930  1.00 20.00     0.045 C 
HETATM    7  C7  UNL     1     -33.885  18.408   0.613  1.00 20.00     0.011 C 
HETATM    8  C4  UNL     1     -32.428  18.895   0.738  1.00 20.00     0.002 C 
HETATM    9  C8  UNL     1     -32.206  18.347  -0.684  1.00 20.00     0.011 C 
ENDBRANCH   3   6
BRANCH   2  10
HETATM   10  C9  UNL     1     -34.401  14.643  -4.077  1.00 20.00     0.038 A 
HETATM   11  C5  UNL     1     -32.936  14.426  -4.390  1.00 20.00     0.011 A 
HETATM   12  C6  UNL     1     -33.867  14.860  -5.477  1.00 20.00     0.011 A 
ENDBRANCH   2  10
TORSDOF 2
ENDMDL
MODEL 7
REMARK VINA RESULT:      -4.3     10.652     11.379
REMARK  2 active torsions:
REMARK  status: ('A' for Active; 'I' for Inactive)
REMARK    1  A    between atoms: C2_2  and  C9_9 
REMARK    2  A    between atoms: C3_3  and  C10_10 
ROOT
HETATM    1  C1  UNL     1     -35.005  18.077  -0.479  1.00 20.00     0.079 A 
HETATM    2  C2  UNL     1     -33.642  18.256  -0.583  1.00 20.00     0.046 A 
HETATM    3  C3  UNL     1     -33.920  16.852  -2.246  1.00 20.00     0.079 A 
HETATM    4  N11 UNL     1     -33.018  17.554  -1.596  1.00 20.00    -0.249 NA
HETATM    5  S12 UNL     1     -35.539  16.990  -1.692  1.00 20.00    -0.084 SA
ENDROOT
BRANCH   3   6
HETATM    6  C10 UNL     1     -33.534  15.929  -3.474  1.00 20.00     0.045 C 
HETATM    7  C7  UNL     1     -34.596  14.934  -4.033  1.00 20.00     0.011 C 
HETATM    8  C4  UNL     1     -33.983  15.169  -5.426  1.00 20.00     0.002 C 
HETATM    9  C8  UNL     1     -33.524  16.545  -4.906  1.00 20.00     0.011 C 
ENDBRANCH   3   6
BRANCH   2  10
HETATM   10  C9  UNL     1     -32.861  19.175   0.361  1.00 20.00     0.038 A 
HETATM   11  C5  UNL     1     -31.460  18.777   0.774  1.00 20.00     0.011 A 
HETATM   12  C6  UNL     1     -32.574  18.699   1.770  1.00 20.00     0.011 A 
ENDBRANCH   2  10
TORSDOF 2
ENDMDL
MODEL 8
REMARK VINA RESULT:      -4.2     11.002     11.674
REMARK  2 active torsions:
REMARK  status: ('A' for Active; 'I' for Inactive)
REMARK    1  A    between atoms: C2_2  and  C9_9 
REMARK    2  A    between atoms: C3_3  and  C10_10 
ROOT
HETATM    1  C1  UNL     1     -34.605  16.235  -5.682  1.00 20.00     0.079 A 
HETATM    2  C2  UNL     1     -35.116  15.286  -4.822  1.00 20.00     0.046 A 
HETATM    3  C3  UNL     1     -34.062  16.528  -3.353  1.00 20.00     0.079 A 
HETATM    4  N11 UNL     1     -34.806  15.452  -3.487  1.00 20.00    -0.249 NA
HETATM    5  S12 UNL     1     -33.699  17.389  -4.793  1.00 20.00    -0.084 SA
ENDROOT
BRANCH   3   6
HETATM    6  C10 UNL     1     -33.530  17.007  -1.940  1.00 20.00     0.045 C 
HETATM    7  C7  UNL     1     -32.929  18.438  -1.805  1.00 20.00     0.011 C 
HETATM    8  C4  UNL     1     -33.502  18.470  -0.375  1.00 20.00     0.002 C 
HETATM    9  C8  UNL     1     -34.559  17.461  -0.861  1.00 20.00     0.011 C 
ENDBRANCH   3   6
BRANCH   2  10
HETATM   10  C9  UNL     1     -35.976  14.116  -5.310  1.00 20.00     0.038 A 
HETATM   11  C5  UNL     1     -36.793  14.289  -6.573  1.00 20.00     0.011 A 
HETATM   12  C6  UNL     1     -37.483  14.242  -5.247  1.00 20.00     0.011 A 
ENDBRANCH   2  10
TORSDOF 2
ENDMDL
MODEL 9
REMARK VINA RESULT:      -4.2     10.801     11.404
REMARK  2 active torsions:
REMARK  status: ('A' for Active; 'I' for Inactive)
REMARK    1  A    between atoms: C2_2  and  C9_9 
REMARK    2  A    between atoms: C3_3  and  C10_10 
ROOT
HETATM    1  C1  UNL     1     -35.913  16.933  -2.555  1.00 20.00     0.079 A 
HETATM    2  C2  UNL     1     -34.578  16.641  -2.368  1.00 20.00     0.046 A 
HETATM    3  C3  UNL     1     -34.992  15.255  -4.016  1.00 20.00     0.079 A 
HETATM    4  N11 UNL     1     -34.048  15.679  -3.205  1.00 20.00    -0.249 NA
HETATM    5  S12 UNL     1     -36.540  15.970  -3.828  1.00 20.00    -0.084 SA
ENDROOT
BRANCH   3   6
HETATM    6  C10 UNL     1     -34.715  14.142  -5.110  1.00 20.00     0.045 C 
HETATM    7  C7  UNL     1     -35.924  13.391  -5.745  1.00 20.00     0.011 C 
HETATM    8  C4  UNL     1     -35.107  13.320  -7.049  1.00 20.00     0.002 C 
HETATM    9  C8  UNL     1     -34.372  14.584  -6.564  1.00 20.00     0.011 C 
ENDBRANCH   3   6
BRANCH   2  10
HETATM   10  C9  UNL     1     -33.730  17.338  -1.300  1.00 20.00     0.038 A 
HETATM   11  C5  UNL     1     -34.203  18.662  -0.741  1.00 20.00     0.011 A 
HETATM   12  C6  UNL     1     -33.021  18.627  -1.657  1.00 20.00     0.011 A 
ENDBRANCH   2  10
TORSDOF 2
ENDMDL
