MODEL 1
REMARK VINA RESULT:      -3.9      0.000      0.000
REMARK  1 active torsions:
REMARK  status: ('A' for Active; 'I' for Inactive)
REMARK    1  A    between atoms: C7_7  and  N8_8 
ROOT
HETATM    1  C1  UNL     1     -33.405   4.802   2.844  1.00 20.00     0.065 C 
HETATM    2  C2  UNL     1     -34.006   6.186   2.567  1.00 20.00     0.275 C 
HETATM    3  C3  UNL     1     -34.565   6.669   4.878  1.00 20.00     0.306 C 
HETATM    4  C4  UNL     1     -33.727   4.293   4.209  1.00 20.00     0.154 A 
HETATM    5  C5  UNL     1     -34.265   5.248   5.239  1.00 20.00     0.179 A 
HETATM    6  N8  UNL     1     -33.860   7.139   3.677  1.00 20.00     0.090 N 
HETATM    7  O9  UNL     1     -35.111   4.295   4.564  1.00 20.00    -0.374 OA
ENDROOT
BRANCH   6   8
HETATM    8  C7  UNL     1     -32.465   7.473   3.953  1.00 20.00     0.268 C 
HETATM    9  C6  UNL     1     -31.852   8.210   2.810  1.00 20.00     0.037 C 
ENDBRANCH   6   8
TORSDOF 1
ENDMDL
MODEL 2
REMARK VINA RESULT:      -3.8      1.227      1.405
REMARK  1 active torsions:
REMARK  status: ('A' for Active; 'I' for Inactive)
REMARK    1  A    between atoms: C7_7  and  N8_8 
ROOT
HETATM    1  C1  UNL     1     -34.461   4.736   4.206  1.00 20.00     0.065 C 
HETATM    2  C2  UNL     1     -34.841   5.943   3.339  1.00 20.00     0.275 C 
HETATM    3  C3  UNL     1     -33.979   7.617   4.869  1.00 20.00     0.306 C 
HETATM    4  C4  UNL     1     -34.096   5.118   5.602  1.00 20.00     0.154 A 
HETATM    5  C5  UNL     1     -33.810   6.560   5.916  1.00 20.00     0.179 A 
HETATM    6  N8  UNL     1     -33.948   7.101   3.493  1.00 20.00     0.090 N 
HETATM    7  O9  UNL     1     -35.048   5.926   6.295  1.00 20.00    -0.374 OA
ENDROOT
BRANCH   6   8
HETATM    8  C7  UNL     1     -32.587   6.827   3.038  1.00 20.00     0.268 C 
HETATM    9  C6  UNL     1     -31.752   8.061   3.068  1.00 20.00     0.037 C 
ENDBRANCH   6   8
TORSDOF 1
ENDMDL
MODEL 3
REMARK VINA RESULT:      -3.7     12.129     13.200
REMARK  1 active torsions:
REMARK  status: ('A' for Active; 'I' for Inactive)
REMARK    1  A    between atoms: C7_7  and  N8_8 
ROOT
HETATM    1  C1  UNL     1     -35.027  14.775  -4.059  1.00 20.00     0.065 C 
HETATM    2  C2  UNL     1     -33.647  14.641  -4.714  1.00 20.00     0.275 C 
HETATM    3  C3  UNL     1     -34.482  13.994  -6.899  1.00 20.00     0.306 C 
HETATM    4  C4  UNL     1     -36.118  14.168  -4.877  1.00 20.00     0.154 A 
HETATM    5  C5  UNL     1     -35.850  13.822  -6.316  1.00 20.00     0.179 A 
HETATM    6  N8  UNL     1     -33.632  14.935  -6.154  1.00 20.00     0.090 N 
HETATM    7  O9  UNL     1     -35.911  12.815  -5.286  1.00 20.00    -0.374 OA
ENDROOT
BRANCH   6   8
HETATM    8  C7  UNL     1     -33.965  16.327  -6.448  1.00 20.00     0.268 C 
HETATM    9  C6  UNL     1     -34.049  16.561  -7.918  1.00 20.00     0.037 C 
ENDBRANCH   6   8
TORSDOF 1
ENDMDL
MODEL 4
REMARK VINA RESULT:      -3.7      1.177      2.215
REMARK  1 active torsions:
REMARK  status: ('A' for Active; 'I' for Inactive)
REMARK    1  A    between atoms: C7_7  and  N8_8 
ROOT
HETATM    1  C1  UNL     1     -34.158   7.278   4.992  1.00 20.00     0.065 C 
HETATM    2  C2  UNL     1     -32.690   7.381   4.561  1.00 20.00     0.275 C 
HETATM    3  C3  UNL     1     -32.841   5.720   2.799  1.00 20.00     0.306 C 
HETATM    4  C4  UNL     1     -34.845   6.079   4.427  1.00 20.00     0.154 A 
HETATM    5  C5  UNL     1     -34.198   5.330   3.294  1.00 20.00     0.179 A 
HETATM    6  N8  UNL     1     -32.457   7.098   3.138  1.00 20.00     0.090 N 
HETATM    7  O9  UNL     1     -34.193   4.827   4.645  1.00 20.00    -0.374 OA
ENDROOT
BRANCH   6   8
HETATM    8  C7  UNL     1     -33.092   8.078   2.259  1.00 20.00     0.268 C 
HETATM    9  C6  UNL     1     -32.073   8.856   1.497  1.00 20.00     0.037 C 
ENDBRANCH   6   8
TORSDOF 1
ENDMDL
MODEL 5
REMARK VINA RESULT:      -3.6     12.057     13.220
REMARK  1 active torsions:
REMARK  status: ('A' for Active; 'I' for Inactive)
REMARK    1  A    between atoms: C7_7  and  N8_8 
ROOT
HETATM    1  C1  UNL     1     -35.057  14.048  -4.472  1.00 20.00     0.065 C 
HETATM    2  C2  UNL     1     -33.670  14.502  -4.944  1.00 20.00     0.275 C 
HETATM    3  C3  UNL     1     -34.184  14.417  -7.314  1.00 20.00     0.306 C 
HETATM    4  C4  UNL     1     -35.888  13.482  -5.575  1.00 20.00     0.154 A 
HETATM    5  C5  UNL     1     -35.467  13.712  -7.001  1.00 20.00     0.179 A 
HETATM    6  N8  UNL     1     -33.678  15.247  -6.211  1.00 20.00     0.090 N 
HETATM    7  O9  UNL     1     -35.279  12.443  -6.343  1.00 20.00    -0.374 OA
ENDROOT
BRANCH   6   8
HETATM    8  C7  UNL     1     -34.387  16.521  -6.111  1.00 20.00     0.268 C 
HETATM    9  C6  UNL     1     -33.677  17.461  -5.197  1.00 20.00     0.037 C 
ENDBRANCH   6   8
TORSDOF 1
ENDMDL
MODEL 6
REMARK VINA RESULT:      -3.5     12.461     13.180
REMARK  1 active torsions:
REMARK  status: ('A' for Active; 'I' for Inactive)
REMARK    1  A    between atoms: C7_7  and  N8_8 
ROOT
HETATM    1  C1  UNL     1     -36.628  14.951  -4.408  1.00 20.00     0.065 C 
HETATM    2  C2  UNL     1     -35.186  15.372  -4.101  1.00 20.00     0.275 C 
HETATM    3  C3  UNL     1     -34.203  14.291  -6.038  1.00 20.00     0.306 C 
HETATM    4  C4  UNL     1     -36.711  13.887  -5.451  1.00 20.00     0.154 A 
HETATM    5  C5  UNL     1     -35.502  13.594  -6.296  1.00 20.00     0.179 A 
HETATM    6  N8  UNL     1     -34.342  15.550  -5.292  1.00 20.00     0.090 N 
HETATM    7  O9  UNL     1     -35.912  12.726  -5.220  1.00 20.00    -0.374 OA
ENDROOT
BRANCH   6   8
HETATM    8  C7  UNL     1     -34.795  16.647  -6.144  1.00 20.00     0.268 C 
HETATM    9  C6  UNL     1     -33.894  16.822  -7.319  1.00 20.00     0.037 C 
ENDBRANCH   6   8
TORSDOF 1
ENDMDL
MODEL 7
REMARK VINA RESULT:      -3.5     11.985     13.072
REMARK  1 active torsions:
REMARK  status: ('A' for Active; 'I' for Inactive)
REMARK    1  A    between atoms: C7_7  and  N8_8 
ROOT
HETATM    1  C1  UNL     1     -35.880  15.428  -4.058  1.00 20.00     0.065 C 
HETATM    2  C2  UNL     1     -34.795  14.370  -4.297  1.00 20.00     0.275 C 
HETATM    3  C3  UNL     1     -35.796  13.450  -6.306  1.00 20.00     0.306 C 
HETATM    4  C4  UNL     1     -37.104  15.197  -4.881  1.00 20.00     0.154 A 
HETATM    5  C5  UNL     1     -37.040  14.237  -6.037  1.00 20.00     0.179 A 
HETATM    6  N8  UNL     1     -34.584  14.031  -5.712  1.00 20.00     0.090 N 
HETATM    7  O9  UNL     1     -37.679  13.892  -4.791  1.00 20.00    -0.374 OA
ENDROOT
BRANCH   6   8
HETATM    8  C7  UNL     1     -34.075  15.158  -6.490  1.00 20.00     0.268 C 
HETATM    9  C6  UNL     1     -33.872  14.776  -7.917  1.00 20.00     0.037 C 
ENDBRANCH   6   8
TORSDOF 1
ENDMDL
MODEL 8
REMARK VINA RESULT:      -3.4     11.748     12.857
REMARK  1 active torsions:
REMARK  status: ('A' for Active; 'I' for Inactive)
REMARK    1  A    between atoms: C7_7  and  N8_8 
ROOT
HETATM    1  C1  UNL     1     -35.667  13.620  -4.939  1.00 20.00     0.065 C 
HETATM    2  C2  UNL     1     -34.475  13.992  -4.047  1.00 20.00     0.275 C 
HETATM    3  C3  UNL     1     -33.343  15.344  -5.714  1.00 20.00     0.306 C 
HETATM    4  C4  UNL     1     -35.433  13.934  -6.379  1.00 20.00     0.154 A 
HETATM    5  C5  UNL     1     -34.291  14.839  -6.755  1.00 20.00     0.179 A 
HETATM    6  N8  UNL     1     -33.884  15.304  -4.347  1.00 20.00     0.090 N 
HETATM    7  O9  UNL     1     -34.229  13.411  -6.943  1.00 20.00    -0.374 OA
ENDROOT
BRANCH   6   8
HETATM    8  C7  UNL     1     -34.804  16.409  -4.088  1.00 20.00     0.268 C 
HETATM    9  C6  UNL     1     -35.120  16.515  -2.634  1.00 20.00     0.037 C 
ENDBRANCH   6   8
TORSDOF 1
ENDMDL
MODEL 9
REMARK VINA RESULT:      -3.4      1.927      3.601
REMARK  1 active torsions:
REMARK  status: ('A' for Active; 'I' for Inactive)
REMARK    1  A    between atoms: C7_7  and  N8_8 
ROOT
HETATM    1  C1  UNL     1     -33.094   7.581   4.835  1.00 20.00     0.065 C 
HETATM    2  C2  UNL     1     -34.543   7.170   4.543  1.00 20.00     0.275 C 
HETATM    3  C3  UNL     1     -34.090   6.244   2.347  1.00 20.00     0.306 C 
HETATM    4  C4  UNL     1     -32.227   7.549   3.621  1.00 20.00     0.154 A 
HETATM    5  C5  UNL     1     -32.715   6.834   2.390  1.00 20.00     0.179 A 
HETATM    6  N8  UNL     1     -34.671   5.992   3.673  1.00 20.00     0.090 N 
HETATM    7  O9  UNL     1     -32.712   8.273   2.489  1.00 20.00    -0.374 OA
ENDROOT
BRANCH   6   8
HETATM    8  C7  UNL     1     -34.137   4.778   4.287  1.00 20.00     0.268 C 
HETATM    9  C6  UNL     1     -34.603   4.638   5.696  1.00 20.00     0.037 C 
ENDBRANCH   6   8
TORSDOF 1
ENDMDL
