MODEL 1
REMARK VINA RESULT:      -4.6      0.000      0.000
REMARK  0 active torsions:
REMARK  status: ('A' for Active; 'I' for Inactive)
ROOT
HETATM    1  C1  UNL     1     -33.931   5.872   2.624  1.00 20.00     0.184 A 
HETATM    2  C2  UNL     1     -34.440   5.988   3.932  1.00 20.00     0.175 A 
HETATM    3  C3  UNL     1     -33.627   6.917   4.535  1.00 20.00     0.162 A 
HETATM    4  C4  UNL     1     -31.641   8.243   3.725  1.00 20.00     0.181 C 
HETATM    5  N5  UNL     1     -32.878   6.663   2.408  1.00 20.00    -0.181 NA
HETATM    6  N6  UNL     1     -32.717   7.287   3.588  1.00 20.00    -0.260 N 
HETATM    7  F7  UNL     1     -35.473   5.344   4.464  1.00 20.00    -0.201 F 
HETATM    8 CL8  UNL     1     -33.608   7.578   6.094  1.00 20.00    -0.059 Cl
ENDROOT
TORSDOF 0
ENDMDL
MODEL 2
REMARK VINA RESULT:      -4.5      2.255      2.830
REMARK  0 active torsions:
REMARK  status: ('A' for Active; 'I' for Inactive)
ROOT
HETATM    1  C1  UNL     1     -34.669   5.365   5.571  1.00 20.00     0.184 A 
HETATM    2  C2  UNL     1     -34.085   6.637   5.420  1.00 20.00     0.175 A 
HETATM    3  C3  UNL     1     -33.466   6.588   4.194  1.00 20.00     0.162 A 
HETATM    4  C4  UNL     1     -33.272   4.787   2.441  1.00 20.00     0.181 C 
HETATM    5  N5  UNL     1     -34.442   4.566   4.525  1.00 20.00    -0.181 NA
HETATM    6  N6  UNL     1     -33.709   5.339   3.704  1.00 20.00    -0.260 N 
HETATM    7  F7  UNL     1     -34.122   7.656   6.271  1.00 20.00    -0.201 F 
HETATM    8 CL8  UNL     1     -32.563   7.726   3.324  1.00 20.00    -0.059 Cl
ENDROOT
TORSDOF 0
ENDMDL
MODEL 3
REMARK VINA RESULT:      -4.5      2.107      2.768
REMARK  0 active torsions:
REMARK  status: ('A' for Active; 'I' for Inactive)
ROOT
HETATM    1  C1  UNL     1     -32.639   6.996   2.452  1.00 20.00     0.184 A 
HETATM    2  C2  UNL     1     -32.398   7.651   3.675  1.00 20.00     0.175 A 
HETATM    3  C3  UNL     1     -33.355   7.154   4.526  1.00 20.00     0.162 A 
HETATM    4  C4  UNL     1     -35.208   5.471   4.229  1.00 20.00     0.181 C 
HETATM    5  N5  UNL     1     -33.668   6.147   2.517  1.00 20.00    -0.181 NA
HETATM    6  N6  UNL     1     -34.082   6.265   3.790  1.00 20.00    -0.260 N 
HETATM    7  F7  UNL     1     -31.457   8.550   3.946  1.00 20.00    -0.201 F 
HETATM    8 CL8  UNL     1     -33.704   7.457   6.156  1.00 20.00    -0.059 Cl
ENDROOT
TORSDOF 0
ENDMDL
MODEL 4
REMARK VINA RESULT:      -4.4      2.357      2.717
REMARK  0 active torsions:
REMARK  status: ('A' for Active; 'I' for Inactive)
ROOT
HETATM    1  C1  UNL     1     -34.373   4.352   4.347  1.00 20.00     0.184 A 
HETATM    2  C2  UNL     1     -33.630   4.959   3.316  1.00 20.00     0.175 A 
HETATM    3  C3  UNL     1     -33.355   6.220   3.789  1.00 20.00     0.162 A 
HETATM    4  C4  UNL     1     -33.918   7.407   5.940  1.00 20.00     0.181 C 
HETATM    5  N5  UNL     1     -34.556   5.158   5.395  1.00 20.00    -0.181 NA
HETATM    6  N6  UNL     1     -33.925   6.287   5.026  1.00 20.00    -0.260 N 
HETATM    7  F7  UNL     1     -33.277   4.434   2.148  1.00 20.00    -0.201 F 
HETATM    8 CL8  UNL     1     -32.509   7.529   3.126  1.00 20.00    -0.059 Cl
ENDROOT
TORSDOF 0
ENDMDL
MODEL 5
REMARK VINA RESULT:      -4.4      1.910      2.399
REMARK  0 active torsions:
REMARK  status: ('A' for Active; 'I' for Inactive)
ROOT
HETATM    1  C1  UNL     1     -34.029   6.937   5.939  1.00 20.00     0.184 A 
HETATM    2  C2  UNL     1     -34.324   5.796   5.168  1.00 20.00     0.175 A 
HETATM    3  C3  UNL     1     -33.646   5.993   3.989  1.00 20.00     0.162 A 
HETATM    4  C4  UNL     1     -32.162   7.851   3.152  1.00 20.00     0.181 C 
HETATM    5  N5  UNL     1     -33.225   7.794   5.304  1.00 20.00    -0.181 NA
HETATM    6  N6  UNL     1     -33.010   7.192   4.121  1.00 20.00    -0.260 N 
HETATM    7  F7  UNL     1     -35.088   4.762   5.503  1.00 20.00    -0.201 F 
HETATM    8 CL8  UNL     1     -33.513   5.064   2.579  1.00 20.00    -0.059 Cl
ENDROOT
TORSDOF 0
ENDMDL
MODEL 6
REMARK VINA RESULT:      -4.4      2.062      2.407
REMARK  0 active torsions:
REMARK  status: ('A' for Active; 'I' for Inactive)
ROOT
HETATM    1  C1  UNL     1     -32.696   6.820   2.712  1.00 20.00     0.184 A 
HETATM    2  C2  UNL     1     -33.266   5.543   2.879  1.00 20.00     0.175 A 
HETATM    3  C3  UNL     1     -33.808   5.571   4.141  1.00 20.00     0.162 A 
HETATM    4  C4  UNL     1     -33.904   7.346   5.928  1.00 20.00     0.181 C 
HETATM    5  N5  UNL     1     -32.861   7.602   3.782  1.00 20.00    -0.181 NA
HETATM    6  N6  UNL     1     -33.542   6.815   4.634  1.00 20.00    -0.260 N 
HETATM    7  F7  UNL     1     -33.276   4.536   2.013  1.00 20.00    -0.201 F 
HETATM    8 CL8  UNL     1     -34.655   4.417   5.047  1.00 20.00    -0.059 Cl
ENDROOT
TORSDOF 0
ENDMDL
MODEL 7
REMARK VINA RESULT:      -4.1      1.873      2.551
REMARK  0 active torsions:
REMARK  status: ('A' for Active; 'I' for Inactive)
ROOT
HETATM    1  C1  UNL     1     -32.806   7.779   3.981  1.00 20.00     0.184 A 
HETATM    2  C2  UNL     1     -33.618   7.200   4.975  1.00 20.00     0.175 A 
HETATM    3  C3  UNL     1     -33.882   5.934   4.509  1.00 20.00     0.162 A 
HETATM    4  C4  UNL     1     -33.200   4.698   2.420  1.00 20.00     0.181 C 
HETATM    5  N5  UNL     1     -32.568   6.950   2.962  1.00 20.00    -0.181 NA
HETATM    6  N6  UNL     1     -33.235   5.836   3.312  1.00 20.00    -0.260 N 
HETATM    7  F7  UNL     1     -34.038   7.752   6.108  1.00 20.00    -0.201 F 
HETATM    8 CL8  UNL     1     -34.784   4.648   5.142  1.00 20.00    -0.059 Cl
ENDROOT
TORSDOF 0
ENDMDL
MODEL 8
REMARK VINA RESULT:      -3.9      2.769      3.529
REMARK  0 active torsions:
REMARK  status: ('A' for Active; 'I' for Inactive)
ROOT
HETATM    1  C1  UNL     1     -33.337   7.744   4.938  1.00 20.00     0.184 A 
HETATM    2  C2  UNL     1     -32.834   7.307   3.698  1.00 20.00     0.175 A 
HETATM    3  C3  UNL     1     -33.306   6.023   3.570  1.00 20.00     0.162 A 
HETATM    4  C4  UNL     1     -34.742   4.567   5.044  1.00 20.00     0.181 C 
HETATM    5  N5  UNL     1     -34.072   6.815   5.553  1.00 20.00    -0.181 NA
HETATM    6  N6  UNL     1     -34.036   5.779   4.696  1.00 20.00    -0.260 N 
HETATM    7  F7  UNL     1     -32.073   7.982   2.844  1.00 20.00    -0.201 F 
HETATM    8 CL8  UNL     1     -33.127   4.855   2.355  1.00 20.00    -0.059 Cl
ENDROOT
TORSDOF 0
ENDMDL
MODEL 9
REMARK VINA RESULT:      -3.4     11.769     11.971
REMARK  0 active torsions:
REMARK  status: ('A' for Active; 'I' for Inactive)
ROOT
HETATM    1  C1  UNL     1     -33.030  14.679  -4.389  1.00 20.00     0.184 A 
HETATM    2  C2  UNL     1     -33.767  15.653  -3.690  1.00 20.00     0.175 A 
HETATM    3  C3  UNL     1     -35.080  15.349  -3.957  1.00 20.00     0.162 A 
HETATM    4  C4  UNL     1     -36.177  13.542  -5.331  1.00 20.00     0.181 C 
HETATM    5  N5  UNL     1     -33.809  13.819  -5.051  1.00 20.00    -0.181 NA
HETATM    6  N6  UNL     1     -35.050  14.252  -4.768  1.00 20.00    -0.260 N 
HETATM    7  F7  UNL     1     -33.299  16.645  -2.940  1.00 20.00    -0.201 F 
HETATM    8 CL8  UNL     1     -36.539  16.061  -3.475  1.00 20.00    -0.059 Cl
ENDROOT
TORSDOF 0
ENDMDL
