MODEL 1
REMARK VINA RESULT:      -5.8      0.000      0.000
REMARK  0 active torsions:
REMARK  status: ('A' for Active; 'I' for Inactive)
ROOT
HETATM    1  C1  UNL     1     -33.302   6.817   4.763  1.00 20.00     0.016 C 
HETATM    2  C2  UNL     1     -34.419   5.942   4.202  1.00 20.00     0.016 C 
HETATM    3  C3  UNL     1     -33.015   7.716   3.563  1.00 20.00     0.122 C 
HETATM    4  C4  UNL     1     -33.955   5.722   2.758  1.00 20.00     0.122 C 
HETATM    5  C5  UNL     1     -33.680   7.586   6.019  1.00 20.00     0.013 C 
HETATM    6  C6  UNL     1     -34.705   4.687   5.010  1.00 20.00     0.013 C 
HETATM    7  C7  UNL     1     -31.608   8.287   3.547  1.00 20.00     0.040 C 
HETATM    8  C8  UNL     1     -33.050   4.517   2.525  1.00 20.00     0.040 C 
HETATM    9  O9  UNL     1     -33.206   6.899   2.394  1.00 20.00    -0.381 OA
ENDROOT
TORSDOF 0
ENDMDL
MODEL 2
REMARK VINA RESULT:      -5.1      1.107      2.830
REMARK  0 active torsions:
REMARK  status: ('A' for Active; 'I' for Inactive)
ROOT
HETATM    1  C1  UNL     1     -32.921   6.666   3.748  1.00 20.00     0.016 C 
HETATM    2  C2  UNL     1     -34.012   7.128   4.707  1.00 20.00     0.016 C 
HETATM    3  C3  UNL     1     -33.739   5.830   2.766  1.00 20.00     0.122 C 
HETATM    4  C4  UNL     1     -34.896   5.880   4.807  1.00 20.00     0.122 C 
HETATM    5  C5  UNL     1     -32.150   7.796   3.084  1.00 20.00     0.013 C 
HETATM    6  C6  UNL     1     -33.501   7.690   6.023  1.00 20.00     0.013 C 
HETATM    7  C7  UNL     1     -32.933   4.761   2.050  1.00 20.00     0.040 C 
HETATM    8  C8  UNL     1     -34.521   4.883   5.897  1.00 20.00     0.040 C 
HETATM    9  O9  UNL     1     -34.775   5.200   3.541  1.00 20.00    -0.381 OA
ENDROOT
TORSDOF 0
ENDMDL
MODEL 3
REMARK VINA RESULT:      -4.7      0.972      2.580
REMARK  0 active torsions:
REMARK  status: ('A' for Active; 'I' for Inactive)
ROOT
HETATM    1  C1  UNL     1     -33.748   5.556   4.432  1.00 20.00     0.016 C 
HETATM    2  C2  UNL     1     -33.759   5.677   2.913  1.00 20.00     0.016 C 
HETATM    3  C3  UNL     1     -34.309   6.920   4.830  1.00 20.00     0.122 C 
HETATM    4  C4  UNL     1     -33.334   7.135   2.706  1.00 20.00     0.122 C 
HETATM    5  C5  UNL     1     -34.557   4.388   4.974  1.00 20.00     0.013 C 
HETATM    6  C6  UNL     1     -32.926   4.631   2.190  1.00 20.00     0.013 C 
HETATM    7  C7  UNL     1     -33.895   7.372   6.219  1.00 20.00     0.040 C 
HETATM    8  C8  UNL     1     -31.834   7.384   2.601  1.00 20.00     0.040 C 
HETATM    9  O9  UNL     1     -33.811   7.858   3.859  1.00 20.00    -0.381 OA
ENDROOT
TORSDOF 0
ENDMDL
MODEL 4
REMARK VINA RESULT:      -4.5      1.299      3.741
REMARK  0 active torsions:
REMARK  status: ('A' for Active; 'I' for Inactive)
ROOT
HETATM    1  C1  UNL     1     -33.173   5.561   3.339  1.00 20.00     0.016 C 
HETATM    2  C2  UNL     1     -33.380   7.068   3.243  1.00 20.00     0.016 C 
HETATM    3  C3  UNL     1     -34.484   5.135   3.998  1.00 20.00     0.122 C 
HETATM    4  C4  UNL     1     -34.087   7.377   4.567  1.00 20.00     0.122 C 
HETATM    5  C5  UNL     1     -32.917   4.877   2.005  1.00 20.00     0.013 C 
HETATM    6  C6  UNL     1     -32.115   7.863   2.962  1.00 20.00     0.013 C 
HETATM    7  C7  UNL     1     -34.386   3.830   4.769  1.00 20.00     0.040 C 
HETATM    8  C8  UNL     1     -33.180   7.692   5.750  1.00 20.00     0.040 C 
HETATM    9  O9  UNL     1     -34.840   6.194   4.905  1.00 20.00    -0.381 OA
ENDROOT
TORSDOF 0
ENDMDL
MODEL 5
REMARK VINA RESULT:      -4.0      1.231      3.015
REMARK  0 active torsions:
REMARK  status: ('A' for Active; 'I' for Inactive)
ROOT
HETATM    1  C1  UNL     1     -33.589   7.384   4.535  1.00 20.00     0.016 C 
HETATM    2  C2  UNL     1     -32.185   7.579   3.974  1.00 20.00     0.016 C 
HETATM    3  C3  UNL     1     -34.022   6.124   3.788  1.00 20.00     0.122 C 
HETATM    4  C4  UNL     1     -32.374   7.192   2.503  1.00 20.00     0.122 C 
HETATM    5  C5  UNL     1     -33.646   7.240   6.048  1.00 20.00     0.013 C 
HETATM    6  C6  UNL     1     -31.587   8.953   4.230  1.00 20.00     0.013 C 
HETATM    7  C7  UNL     1     -35.527   5.983   3.645  1.00 20.00     0.040 C 
HETATM    8  C8  UNL     1     -32.782   8.321   1.564  1.00 20.00     0.040 C 
HETATM    9  O9  UNL     1     -33.429   6.209   2.480  1.00 20.00    -0.381 OA
ENDROOT
TORSDOF 0
ENDMDL
MODEL 6
REMARK VINA RESULT:      -3.8     11.789     12.645
REMARK  0 active torsions:
REMARK  status: ('A' for Active; 'I' for Inactive)
ROOT
HETATM    1  C1  UNL     1     -36.014  14.736  -5.314  1.00 20.00     0.016 C 
HETATM    2  C2  UNL     1     -35.035  14.672  -4.147  1.00 20.00     0.016 C 
HETATM    3  C3  UNL     1     -35.472  13.618  -6.202  1.00 20.00     0.122 C 
HETATM    4  C4  UNL     1     -33.709  14.389  -4.860  1.00 20.00     0.122 C 
HETATM    5  C5  UNL     1     -37.471  14.546  -4.922  1.00 20.00     0.013 C 
HETATM    6  C6  UNL     1     -35.057  15.888  -3.236  1.00 20.00     0.013 C 
HETATM    7  C7  UNL     1     -35.814  13.784  -7.673  1.00 20.00     0.040 C 
HETATM    8  C8  UNL     1     -32.918  15.613  -5.306  1.00 20.00     0.040 C 
HETATM    9  O9  UNL     1     -34.043  13.637  -6.044  1.00 20.00    -0.381 OA
ENDROOT
TORSDOF 0
ENDMDL
MODEL 7
REMARK VINA RESULT:      -3.8     11.616     12.417
REMARK  0 active torsions:
REMARK  status: ('A' for Active; 'I' for Inactive)
ROOT
HETATM    1  C1  UNL     1     -35.875  15.493  -4.309  1.00 20.00     0.016 C 
HETATM    2  C2  UNL     1     -35.075  14.196  -4.305  1.00 20.00     0.016 C 
HETATM    3  C3  UNL     1     -37.298  14.950  -4.414  1.00 20.00     0.122 C 
HETATM    4  C4  UNL     1     -35.846  13.344  -5.318  1.00 20.00     0.122 C 
HETATM    5  C5  UNL     1     -35.651  16.372  -3.088  1.00 20.00     0.013 C 
HETATM    6  C6  UNL     1     -33.589  14.369  -4.574  1.00 20.00     0.013 C 
HETATM    7  C7  UNL     1     -38.284  15.928  -5.028  1.00 20.00     0.040 C 
HETATM    8  C8  UNL     1     -35.408  13.475  -6.772  1.00 20.00     0.040 C 
HETATM    9  O9  UNL     1     -37.220  13.776  -5.242  1.00 20.00    -0.381 OA
ENDROOT
TORSDOF 0
ENDMDL
MODEL 8
REMARK VINA RESULT:      -3.8     11.664     12.859
REMARK  0 active torsions:
REMARK  status: ('A' for Active; 'I' for Inactive)
ROOT
HETATM    1  C1  UNL     1     -35.873  14.908  -6.126  1.00 20.00     0.016 C 
HETATM    2  C2  UNL     1     -35.953  14.669  -4.623  1.00 20.00     0.016 C 
HETATM    3  C3  UNL     1     -34.912  13.797  -6.541  1.00 20.00     0.122 C 
HETATM    4  C4  UNL     1     -34.507  14.292  -4.284  1.00 20.00     0.122 C 
HETATM    5  C5  UNL     1     -37.214  14.849  -6.842  1.00 20.00     0.013 C 
HETATM    6  C6  UNL     1     -36.545  15.822  -3.829  1.00 20.00     0.013 C 
HETATM    7  C7  UNL     1     -34.156  14.088  -7.826  1.00 20.00     0.040 C 
HETATM    8  C8  UNL     1     -33.580  15.451  -3.934  1.00 20.00     0.040 C 
HETATM    9  O9  UNL     1     -33.972  13.654  -5.462  1.00 20.00    -0.381 OA
ENDROOT
TORSDOF 0
ENDMDL
MODEL 9
REMARK VINA RESULT:      -3.6     11.912     13.013
REMARK  0 active torsions:
REMARK  status: ('A' for Active; 'I' for Inactive)
ROOT
HETATM    1  C1  UNL     1     -34.605  15.024  -6.416  1.00 20.00     0.016 C 
HETATM    2  C2  UNL     1     -35.634  13.983  -6.842  1.00 20.00     0.016 C 
HETATM    3  C3  UNL     1     -34.013  14.350  -5.180  1.00 20.00     0.122 C 
HETATM    4  C4  UNL     1     -36.179  13.504  -5.492  1.00 20.00     0.122 C 
HETATM    5  C5  UNL     1     -33.571  15.355  -7.480  1.00 20.00     0.013 C 
HETATM    6  C6  UNL     1     -36.667  14.485  -7.837  1.00 20.00     0.013 C 
HETATM    7  C7  UNL     1     -33.406  15.321  -4.184  1.00 20.00     0.040 C 
HETATM    8  C8  UNL     1     -37.366  14.283  -4.937  1.00 20.00     0.040 C 
HETATM    9  O9  UNL     1     -35.096  13.642  -4.551  1.00 20.00    -0.381 OA
ENDROOT
TORSDOF 0
ENDMDL
