MODEL 1
REMARK VINA RESULT:      -4.4      0.000      0.000
REMARK  0 active torsions:
REMARK  status: ('A' for Active; 'I' for Inactive)
ROOT
HETATM    1  C1  UNL     1     -33.752   5.980   4.071  1.00 20.00     0.094 A 
HETATM    2  C2  UNL     1     -33.445   7.148   4.795  1.00 20.00     0.073 A 
HETATM    3  C3  UNL     1     -33.242   6.208   2.817  1.00 20.00     0.225 A 
HETATM    4  C4  UNL     1     -33.751   7.455   6.203  1.00 20.00     0.074 C 
HETATM    5  C5  UNL     1     -32.016   8.129   1.777  1.00 20.00     0.183 C 
HETATM    6  N6  UNL     1     -32.789   8.051   4.060  1.00 20.00    -0.174 NA
HETATM    7  N7  UNL     1     -32.681   7.450   2.864  1.00 20.00    -0.247 N 
HETATM    8  F8  UNL     1     -33.285   5.389   1.765  1.00 20.00    -0.183 F 
HETATM    9 BR9  UNL     1     -34.654   4.476   4.705  1.00 20.00    -0.044 Br
ENDROOT
TORSDOF 0
ENDMDL
MODEL 2
REMARK VINA RESULT:      -3.8      1.860      2.683
REMARK  0 active torsions:
REMARK  status: ('A' for Active; 'I' for Inactive)
ROOT
HETATM    1  C1  UNL     1     -33.695   6.012   4.342  1.00 20.00     0.094 A 
HETATM    2  C2  UNL     1     -33.182   5.698   3.069  1.00 20.00     0.073 A 
HETATM    3  C3  UNL     1     -33.218   7.273   4.604  1.00 20.00     0.225 A 
HETATM    4  C4  UNL     1     -33.377   4.466   2.286  1.00 20.00     0.074 C 
HETATM    5  C5  UNL     1     -31.773   8.870   3.325  1.00 20.00     0.183 C 
HETATM    6  N6  UNL     1     -32.436   6.682   2.558  1.00 20.00    -0.174 NA
HETATM    7  N7  UNL     1     -32.478   7.625   3.514  1.00 20.00    -0.247 N 
HETATM    8  F8  UNL     1     -33.429   8.007   5.697  1.00 20.00    -0.183 F 
HETATM    9 BR9  UNL     1     -34.777   4.933   5.409  1.00 20.00    -0.044 Br
ENDROOT
TORSDOF 0
ENDMDL
MODEL 3
REMARK VINA RESULT:      -3.6      2.889      3.981
REMARK  0 active torsions:
REMARK  status: ('A' for Active; 'I' for Inactive)
ROOT
HETATM    1  C1  UNL     1     -33.258   6.719   3.439  1.00 20.00     0.094 A 
HETATM    2  C2  UNL     1     -33.420   5.369   3.076  1.00 20.00     0.073 A 
HETATM    3  C3  UNL     1     -33.824   6.811   4.687  1.00 20.00     0.225 A 
HETATM    4  C4  UNL     1     -32.994   4.700   1.834  1.00 20.00     0.074 C 
HETATM    5  C5  UNL     1     -34.944   5.158   6.198  1.00 20.00     0.183 C 
HETATM    6  N6  UNL     1     -34.041   4.654   4.019  1.00 20.00    -0.174 NA
HETATM    7  N7  UNL     1     -34.273   5.558   4.985  1.00 20.00    -0.247 N 
HETATM    8  F8  UNL     1     -33.920   7.898   5.453  1.00 20.00    -0.183 F 
HETATM    9 BR9  UNL     1     -32.450   8.060   2.426  1.00 20.00    -0.044 Br
ENDROOT
TORSDOF 0
ENDMDL
MODEL 4
REMARK VINA RESULT:      -3.6     11.553     12.040
REMARK  0 active torsions:
REMARK  status: ('A' for Active; 'I' for Inactive)
ROOT
HETATM    1  C1  UNL     1     -34.647  15.675  -3.536  1.00 20.00     0.094 A 
HETATM    2  C2  UNL     1     -34.080  14.571  -4.199  1.00 20.00     0.073 A 
HETATM    3  C3  UNL     1     -35.982  15.621  -3.856  1.00 20.00     0.225 A 
HETATM    4  C4  UNL     1     -32.672  14.135  -4.206  1.00 20.00     0.074 C 
HETATM    5  C5  UNL     1     -37.358  14.060  -5.250  1.00 20.00     0.183 C 
HETATM    6  N6  UNL     1     -34.981  13.866  -4.889  1.00 20.00    -0.174 NA
HETATM    7  N7  UNL     1     -36.127  14.528  -4.659  1.00 20.00    -0.247 N 
HETATM    8  F8  UNL     1     -36.942  16.460  -3.466  1.00 20.00    -0.183 F 
HETATM    9 BR9  UNL     1     -33.756  16.918  -2.469  1.00 20.00    -0.044 Br
ENDROOT
TORSDOF 0
ENDMDL
MODEL 5
REMARK VINA RESULT:      -3.6     11.587     12.045
REMARK  0 active torsions:
REMARK  status: ('A' for Active; 'I' for Inactive)
ROOT
HETATM    1  C1  UNL     1     -34.844  16.072  -3.259  1.00 20.00     0.094 A 
HETATM    2  C2  UNL     1     -36.203  16.342  -3.506  1.00 20.00     0.073 A 
HETATM    3  C3  UNL     1     -34.597  14.901  -3.932  1.00 20.00     0.225 A 
HETATM    4  C4  UNL     1     -37.009  17.481  -3.031  1.00 20.00     0.074 C 
HETATM    5  C5  UNL     1     -36.016  13.389  -5.338  1.00 20.00     0.183 C 
HETATM    6  N6  UNL     1     -36.780  15.415  -4.277  1.00 20.00    -0.174 NA
HETATM    7  N7  UNL     1     -35.778  14.554  -4.520  1.00 20.00    -0.247 N 
HETATM    8  F8  UNL     1     -33.445  14.234  -4.000  1.00 20.00    -0.183 F 
HETATM    9 BR9  UNL     1     -33.668  17.097  -2.239  1.00 20.00    -0.044 Br
ENDROOT
TORSDOF 0
ENDMDL
MODEL 6
REMARK VINA RESULT:      -3.5      2.347      2.917
REMARK  0 active torsions:
REMARK  status: ('A' for Active; 'I' for Inactive)
ROOT
HETATM    1  C1  UNL     1     -33.045   6.996   3.440  1.00 20.00     0.094 A 
HETATM    2  C2  UNL     1     -33.473   7.161   4.770  1.00 20.00     0.073 A 
HETATM    3  C3  UNL     1     -33.406   5.711   3.118  1.00 20.00     0.225 A 
HETATM    4  C4  UNL     1     -33.350   8.354   5.627  1.00 20.00     0.074 C 
HETATM    5  C5  UNL     1     -34.554   3.876   4.379  1.00 20.00     0.183 C 
HETATM    6  N6  UNL     1     -34.062   6.067   5.261  1.00 20.00    -0.174 NA
HETATM    7  N7  UNL     1     -34.006   5.203   4.233  1.00 20.00    -0.247 N 
HETATM    8  F8  UNL     1     -33.210   5.082   1.959  1.00 20.00    -0.183 F 
HETATM    9 BR9  UNL     1     -32.181   8.262   2.378  1.00 20.00    -0.044 Br
ENDROOT
TORSDOF 0
ENDMDL
MODEL 7
REMARK VINA RESULT:      -3.5     12.258     12.551
REMARK  0 active torsions:
REMARK  status: ('A' for Active; 'I' for Inactive)
ROOT
HETATM    1  C1  UNL     1     -33.978  18.192   0.250  1.00 20.00     0.094 A 
HETATM    2  C2  UNL     1     -33.054  18.146  -0.811  1.00 20.00     0.073 A 
HETATM    3  C3  UNL     1     -33.243  18.617   1.330  1.00 20.00     0.225 A 
HETATM    4  C4  UNL     1     -33.292  17.761  -2.213  1.00 20.00     0.074 C 
HETATM    5  C5  UNL     1     -30.836  19.235   1.640  1.00 20.00     0.183 C 
HETATM    6  N6  UNL     1     -31.824  18.513  -0.438  1.00 20.00    -0.174 NA
HETATM    7  N7  UNL     1     -31.972  18.794   0.868  1.00 20.00    -0.247 N 
HETATM    8  F8  UNL     1     -33.676  18.815   2.575  1.00 20.00    -0.183 F 
HETATM    9 BR9  UNL     1     -35.791  17.764   0.173  1.00 20.00    -0.044 Br
ENDROOT
TORSDOF 0
ENDMDL
MODEL 8
REMARK VINA RESULT:      -3.5     11.711     11.947
REMARK  0 active torsions:
REMARK  status: ('A' for Active; 'I' for Inactive)
ROOT
HETATM    1  C1  UNL     1     -34.812  14.738  -4.263  1.00 20.00     0.094 A 
HETATM    2  C2  UNL     1     -35.432  15.751  -3.509  1.00 20.00     0.073 A 
HETATM    3  C3  UNL     1     -35.839  14.150  -4.960  1.00 20.00     0.225 A 
HETATM    4  C4  UNL     1     -34.807  16.707  -2.577  1.00 20.00     0.074 C 
HETATM    5  C5  UNL     1     -38.307  14.564  -5.069  1.00 20.00     0.183 C 
HETATM    6  N6  UNL     1     -36.752  15.808  -3.708  1.00 20.00    -0.174 NA
HETATM    7  N7  UNL     1     -36.968  14.823  -4.596  1.00 20.00    -0.247 N 
HETATM    8  F8  UNL     1     -35.756  13.131  -5.816  1.00 20.00    -0.183 F 
HETATM    9 BR9  UNL     1     -32.996  14.312  -4.287  1.00 20.00    -0.044 Br
ENDROOT
TORSDOF 0
ENDMDL
MODEL 9
REMARK VINA RESULT:      -3.4     11.906     12.965
REMARK  0 active torsions:
REMARK  status: ('A' for Active; 'I' for Inactive)
ROOT
HETATM    1  C1  UNL     1     -34.349  14.839  -6.029  1.00 20.00     0.094 A 
HETATM    2  C2  UNL     1     -34.016  16.164  -6.368  1.00 20.00     0.073 A 
HETATM    3  C3  UNL     1     -34.265  14.803  -4.658  1.00 20.00     0.225 A 
HETATM    4  C4  UNL     1     -33.949  16.773  -7.708  1.00 20.00     0.074 C 
HETATM    5  C5  UNL     1     -33.688  16.512  -2.921  1.00 20.00     0.183 C 
HETATM    6  N6  UNL     1     -33.741  16.916  -5.298  1.00 20.00    -0.174 NA
HETATM    7  N7  UNL     1     -33.902  16.060  -4.275  1.00 20.00    -0.247 N 
HETATM    8  F8  UNL     1     -34.489  13.757  -3.861  1.00 20.00    -0.183 F 
HETATM    9 BR9  UNL     1     -34.799  13.462  -7.203  1.00 20.00    -0.044 Br
ENDROOT
TORSDOF 0
ENDMDL
