MODEL 1
REMARK VINA RESULT:      -5.1      0.000      0.000
REMARK  1 active torsions:
REMARK  status: ('A' for Active; 'I' for Inactive)
REMARK    1  A    between atoms: C4_4  and  C10_10 
ROOT
HETATM    1  C1  UNL     1     -34.844   5.968   3.881  1.00 20.00     0.016 C 
HETATM    2  C2  UNL     1     -33.827   6.016   2.736  1.00 20.00     0.017 C 
HETATM    3  C3  UNL     1     -34.391   7.091   4.829  1.00 20.00     0.122 C 
HETATM    4  C4  UNL     1     -33.535   7.518   2.700  1.00 20.00     0.129 C 
HETATM    5  C5  UNL     1     -35.100   4.609   4.513  1.00 20.00     0.013 C 
HETATM    6  C6  UNL     1     -32.589   5.144   2.950  1.00 20.00     0.013 C 
HETATM    7  C7  UNL     1     -33.676   6.675   6.105  1.00 20.00     0.040 C 
HETATM    8  O11 UNL     1     -33.503   7.938   4.073  1.00 20.00    -0.380 OA
ENDROOT
BRANCH   4   9
HETATM    9  C10 UNL     1     -32.255   7.950   2.007  1.00 20.00     0.007 C 
HETATM   10  C8  UNL     1     -32.539   9.038   0.971  1.00 20.00     0.012 C 
HETATM   11  C9  UNL     1     -31.226   8.440   3.025  1.00 20.00     0.012 C 
ENDBRANCH   4   9
TORSDOF 1
ENDMDL
MODEL 2
REMARK VINA RESULT:      -4.4     11.150     12.725
REMARK  1 active torsions:
REMARK  status: ('A' for Active; 'I' for Inactive)
REMARK    1  A    between atoms: C4_4  and  C10_10 
ROOT
HETATM    1  C1  UNL     1     -33.781  16.222  -6.086  1.00 20.00     0.016 C 
HETATM    2  C2  UNL     1     -33.235  15.819  -4.713  1.00 20.00     0.017 C 
HETATM    3  C3  UNL     1     -35.130  16.889  -5.770  1.00 20.00     0.122 C 
HETATM    4  C4  UNL     1     -33.793  16.959  -3.857  1.00 20.00     0.129 C 
HETATM    5  C5  UNL     1     -33.792  15.146  -7.161  1.00 20.00     0.013 C 
HETATM    6  C6  UNL     1     -33.656  14.424  -4.247  1.00 20.00     0.013 C 
HETATM    7  C7  UNL     1     -36.387  16.083  -6.056  1.00 20.00     0.040 C 
HETATM    8  O11 UNL     1     -35.113  17.210  -4.365  1.00 20.00    -0.380 OA
ENDROOT
BRANCH   4   9
HETATM    9  C10 UNL     1     -33.862  16.720  -2.361  1.00 20.00     0.007 C 
HETATM   10  C8  UNL     1     -33.021  17.751  -1.606  1.00 20.00     0.012 C 
HETATM   11  C9  UNL     1     -35.310  16.754  -1.871  1.00 20.00     0.012 C 
ENDBRANCH   4   9
TORSDOF 1
ENDMDL
MODEL 3
REMARK VINA RESULT:      -4.3     11.199     12.277
REMARK  1 active torsions:
REMARK  status: ('A' for Active; 'I' for Inactive)
REMARK    1  A    between atoms: C4_4  and  C10_10 
ROOT
HETATM    1  C1  UNL     1     -34.517  14.427  -4.374  1.00 20.00     0.016 C 
HETATM    2  C2  UNL     1     -34.926  15.499  -3.359  1.00 20.00     0.017 C 
HETATM    3  C3  UNL     1     -33.566  15.163  -5.331  1.00 20.00     0.122 C 
HETATM    4  C4  UNL     1     -33.638  16.325  -3.308  1.00 20.00     0.129 C 
HETATM    5  C5  UNL     1     -35.641  13.627  -5.015  1.00 20.00     0.013 C 
HETATM    6  C6  UNL     1     -36.167  16.302  -3.750  1.00 20.00     0.013 C 
HETATM    7  C7  UNL     1     -34.114  15.543  -6.698  1.00 20.00     0.040 C 
HETATM    8  O11 UNL     1     -33.157  16.371  -4.660  1.00 20.00    -0.380 OA
ENDROOT
BRANCH   4   9
HETATM    9  C10 UNL     1     -33.752  17.735  -2.761  1.00 20.00     0.007 C 
HETATM   10  C8  UNL     1     -32.941  17.885  -1.472  1.00 20.00     0.012 C 
HETATM   11  C9  UNL     1     -33.293  18.759  -3.799  1.00 20.00     0.012 C 
ENDBRANCH   4   9
TORSDOF 1
ENDMDL
MODEL 4
REMARK VINA RESULT:      -4.2     11.258     12.549
REMARK  1 active torsions:
REMARK  status: ('A' for Active; 'I' for Inactive)
REMARK    1  A    between atoms: C4_4  and  C10_10 
ROOT
HETATM    1  C1  UNL     1     -34.864  16.069  -3.687  1.00 20.00     0.016 C 
HETATM    2  C2  UNL     1     -34.400  14.731  -4.270  1.00 20.00     0.017 C 
HETATM    3  C3  UNL     1     -34.840  17.027  -4.889  1.00 20.00     0.122 C 
HETATM    4  C4  UNL     1     -34.982  14.836  -5.682  1.00 20.00     0.129 C 
HETATM    5  C5  UNL     1     -34.162  16.546  -2.425  1.00 20.00     0.013 C 
HETATM    6  C6  UNL     1     -32.886  14.514  -4.234  1.00 20.00     0.013 C 
HETATM    7  C7  UNL     1     -33.691  18.021  -4.961  1.00 20.00     0.040 C 
HETATM    8  O11 UNL     1     -34.798  16.206  -6.072  1.00 20.00    -0.380 OA
ENDROOT
BRANCH   4   9
HETATM    9  C10 UNL     1     -34.388  13.923  -6.737  1.00 20.00     0.007 C 
HETATM   10  C8  UNL     1     -35.421  12.903  -7.218  1.00 20.00     0.012 C 
HETATM   11  C9  UNL     1     -33.852  14.733  -7.918  1.00 20.00     0.012 C 
ENDBRANCH   4   9
TORSDOF 1
ENDMDL
MODEL 5
REMARK VINA RESULT:      -4.1     11.250     12.246
REMARK  1 active torsions:
REMARK  status: ('A' for Active; 'I' for Inactive)
REMARK    1  A    between atoms: C4_4  and  C10_10 
ROOT
HETATM    1  C1  UNL     1     -35.593  17.060  -1.328  1.00 20.00     0.016 C 
HETATM    2  C2  UNL     1     -34.198  16.691  -1.842  1.00 20.00     0.017 C 
HETATM    3  C3  UNL     1     -36.364  17.460  -2.597  1.00 20.00     0.122 C 
HETATM    4  C4  UNL     1     -34.561  16.110  -3.211  1.00 20.00     0.129 C 
HETATM    5  C5  UNL     1     -35.657  18.032  -0.160  1.00 20.00     0.013 C 
HETATM    6  C6  UNL     1     -33.214  17.860  -1.901  1.00 20.00     0.013 C 
HETATM    7  C7  UNL     1     -36.597  18.945  -2.828  1.00 20.00     0.040 C 
HETATM    8  O11 UNL     1     -35.616  16.944  -3.715  1.00 20.00    -0.380 OA
ENDROOT
BRANCH   4   9
HETATM    9  C10 UNL     1     -33.446  16.026  -4.236  1.00 20.00     0.007 C 
HETATM   10  C8  UNL     1     -33.024  14.573  -4.461  1.00 20.00     0.012 C 
HETATM   11  C9  UNL     1     -33.873  16.666  -5.557  1.00 20.00     0.012 C 
ENDBRANCH   4   9
TORSDOF 1
ENDMDL
MODEL 6
REMARK VINA RESULT:      -4.0     11.375     12.222
REMARK  1 active torsions:
REMARK  status: ('A' for Active; 'I' for Inactive)
REMARK    1  A    between atoms: C4_4  and  C10_10 
ROOT
HETATM    1  C1  UNL     1     -35.416  15.498  -3.961  1.00 20.00     0.016 C 
HETATM    2  C2  UNL     1     -35.743  16.689  -3.056  1.00 20.00     0.017 C 
HETATM    3  C3  UNL     1     -33.879  15.480  -4.012  1.00 20.00     0.122 C 
HETATM    4  C4  UNL     1     -34.551  16.634  -2.097  1.00 20.00     0.129 C 
HETATM    5  C5  UNL     1     -36.140  15.434  -5.297  1.00 20.00     0.013 C 
HETATM    6  C6  UNL     1     -35.891  18.022  -3.791  1.00 20.00     0.013 C 
HETATM    7  C7  UNL     1     -33.221  15.993  -5.283  1.00 20.00     0.040 C 
HETATM    8  O11 UNL     1     -33.419  16.287  -2.910  1.00 20.00    -0.380 OA
ENDROOT
BRANCH   4   9
HETATM    9  C10 UNL     1     -34.245  17.895  -1.312  1.00 20.00     0.007 C 
HETATM   10  C8  UNL     1     -34.843  17.819   0.093  1.00 20.00     0.012 C 
HETATM   11  C9  UNL     1     -32.737  18.135  -1.236  1.00 20.00     0.012 C 
ENDBRANCH   4   9
TORSDOF 1
ENDMDL
MODEL 7
REMARK VINA RESULT:      -4.0     10.820     12.134
REMARK  1 active torsions:
REMARK  status: ('A' for Active; 'I' for Inactive)
REMARK    1  A    between atoms: C4_4  and  C10_10 
ROOT
HETATM    1  C1  UNL     1     -35.712  15.708  -5.624  1.00 20.00     0.016 C 
HETATM    2  C2  UNL     1     -34.598  15.621  -4.575  1.00 20.00     0.017 C 
HETATM    3  C3  UNL     1     -36.973  16.022  -4.802  1.00 20.00     0.122 C 
HETATM    4  C4  UNL     1     -35.098  16.657  -3.566  1.00 20.00     0.129 C 
HETATM    5  C5  UNL     1     -35.814  14.557  -6.612  1.00 20.00     0.013 C 
HETATM    6  C6  UNL     1     -34.391  14.225  -3.986  1.00 20.00     0.013 C 
HETATM    7  C7  UNL     1     -37.955  14.883  -4.575  1.00 20.00     0.040 C 
HETATM    8  O11 UNL     1     -36.523  16.489  -3.515  1.00 20.00    -0.380 OA
ENDROOT
BRANCH   4   9
HETATM    9  C10 UNL     1     -34.527  16.575  -2.162  1.00 20.00     0.007 C 
HETATM   10  C8  UNL     1     -33.280  17.451  -2.031  1.00 20.00     0.012 C 
HETATM   11  C9  UNL     1     -35.574  16.982  -1.125  1.00 20.00     0.012 C 
ENDBRANCH   4   9
TORSDOF 1
ENDMDL
MODEL 8
REMARK VINA RESULT:      -4.0     11.174     12.191
REMARK  1 active torsions:
REMARK  status: ('A' for Active; 'I' for Inactive)
REMARK    1  A    between atoms: C4_4  and  C10_10 
ROOT
HETATM    1  C1  UNL     1     -33.756  17.000  -1.821  1.00 20.00     0.016 C 
HETATM    2  C2  UNL     1     -33.690  16.477  -3.259  1.00 20.00     0.017 C 
HETATM    3  C3  UNL     1     -35.261  17.168  -1.554  1.00 20.00     0.122 C 
HETATM    4  C4  UNL     1     -34.976  15.648  -3.303  1.00 20.00     0.129 C 
HETATM    5  C5  UNL     1     -32.870  18.189  -1.484  1.00 20.00     0.013 C 
HETATM    6  C6  UNL     1     -33.615  17.569  -4.328  1.00 20.00     0.013 C 
HETATM    7  C7  UNL     1     -35.814  18.584  -1.570  1.00 20.00     0.040 C 
HETATM    8  O11 UNL     1     -35.948  16.407  -2.567  1.00 20.00    -0.380 OA
ENDROOT
BRANCH   4   9
HETATM    9  C10 UNL     1     -35.527  15.312  -4.676  1.00 20.00     0.007 C 
HETATM   10  C8  UNL     1     -35.553  13.799  -4.896  1.00 20.00     0.012 C 
HETATM   11  C9  UNL     1     -36.927  15.900  -4.858  1.00 20.00     0.012 C 
ENDBRANCH   4   9
TORSDOF 1
ENDMDL
MODEL 9
REMARK VINA RESULT:      -4.0     11.233     12.665
REMARK  1 active torsions:
REMARK  status: ('A' for Active; 'I' for Inactive)
REMARK    1  A    between atoms: C4_4  and  C10_10 
ROOT
HETATM    1  C1  UNL     1     -33.394  17.046  -4.483  1.00 20.00     0.016 C 
HETATM    2  C2  UNL     1     -34.174  16.587  -5.719  1.00 20.00     0.017 C 
HETATM    3  C3  UNL     1     -33.803  16.045  -3.391  1.00 20.00     0.122 C 
HETATM    4  C4  UNL     1     -34.194  15.075  -5.478  1.00 20.00     0.129 C 
HETATM    5  C5  UNL     1     -33.487  18.520  -4.123  1.00 20.00     0.013 C 
HETATM    6  C6  UNL     1     -35.561  17.214  -5.862  1.00 20.00     0.013 C 
HETATM    7  C7  UNL     1     -34.788  16.531  -2.338  1.00 20.00     0.040 C 
HETATM    8  O11 UNL     1     -34.389  14.914  -4.065  1.00 20.00    -0.380 OA
ENDROOT
BRANCH   4   9
HETATM    9  C10 UNL     1     -35.241  14.276  -6.230  1.00 20.00     0.007 C 
HETATM   10  C8  UNL     1     -34.594  13.425  -7.323  1.00 20.00     0.012 C 
HETATM   11  C9  UNL     1     -36.042  13.393  -5.273  1.00 20.00     0.012 C 
ENDBRANCH   4   9
TORSDOF 1
ENDMDL
