MODEL 1
REMARK VINA RESULT:      -6.3      0.000      0.000
REMARK  2 active torsions:
REMARK  status: ('A' for Active; 'I' for Inactive)
REMARK    1  A    between atoms: C1_1  and  C3_3 
REMARK    2  A    between atoms: C3_3  and  C4_4 
ROOT
HETATM    1  C3  UNL     1     -33.623   6.200   3.162  1.00 20.00     0.319 C 
HETATM    2  F7  UNL     1     -34.714   6.305   2.343  1.00 20.00    -0.209 F 
HETATM    3 CL12 UNL     1     -32.714   4.755   2.614  1.00 20.00    -0.067 Cl
ENDROOT
BRANCH   1   4
HETATM    4  C1  UNL     1     -34.061   6.021   4.597  1.00 20.00     0.143 C 
HETATM    5  C2  UNL     1     -34.595   4.896   5.094  1.00 20.00     0.289 C 
HETATM    6  F5  UNL     1     -34.959   4.823   6.392  1.00 20.00    -0.171 F 
HETATM    7  F6  UNL     1     -34.775   3.815   4.305  1.00 20.00    -0.171 F 
HETATM    8 CL11 UNL     1     -33.854   7.382   5.662  1.00 20.00    -0.078 Cl
ENDBRANCH   1   4
BRANCH   1   9
HETATM    9  C4  UNL     1     -32.796   7.454   2.921  1.00 20.00     0.443 C 
HETATM   10  F8  UNL     1     -32.158   7.386   1.731  1.00 20.00    -0.166 F 
HETATM   11  F9  UNL     1     -31.856   7.649   3.870  1.00 20.00    -0.166 F 
HETATM   12  F10 UNL     1     -33.583   8.553   2.890  1.00 20.00    -0.166 F 
ENDBRANCH   1   9
TORSDOF 2
ENDMDL
MODEL 2
REMARK VINA RESULT:      -6.0      1.416      3.769
REMARK  2 active torsions:
REMARK  status: ('A' for Active; 'I' for Inactive)
REMARK    1  A    between atoms: C1_1  and  C3_3 
REMARK    2  A    between atoms: C3_3  and  C4_4 
ROOT
HETATM    1  C3  UNL     1     -33.660   5.813   3.343  1.00 20.00     0.319 C 
HETATM    2  F7  UNL     1     -32.711   4.945   2.876  1.00 20.00    -0.209 F 
HETATM    3 CL12 UNL     1     -34.685   6.249   1.937  1.00 20.00    -0.067 Cl
ENDROOT
BRANCH   1   4
HETATM    4  C1  UNL     1     -33.005   7.051   3.909  1.00 20.00     0.143 C 
HETATM    5  C2  UNL     1     -32.120   7.811   3.250  1.00 20.00     0.289 C 
HETATM    6  F5  UNL     1     -31.582   8.904   3.833  1.00 20.00    -0.171 F 
HETATM    7  F6  UNL     1     -31.750   7.498   1.989  1.00 20.00    -0.171 F 
HETATM    8 CL11 UNL     1     -33.441   7.504   5.532  1.00 20.00    -0.078 Cl
ENDBRANCH   1   4
BRANCH   1   9
HETATM    9  C4  UNL     1     -34.480   5.030   4.358  1.00 20.00     0.443 C 
HETATM   10  F8  UNL     1     -35.765   5.453   4.366  1.00 20.00    -0.166 F 
HETATM   11  F9  UNL     1     -34.009   5.154   5.616  1.00 20.00    -0.166 F 
HETATM   12  F10 UNL     1     -34.496   3.712   4.053  1.00 20.00    -0.166 F 
ENDBRANCH   1   9
TORSDOF 2
ENDMDL
MODEL 3
REMARK VINA RESULT:      -6.0      1.416      3.758
REMARK  2 active torsions:
REMARK  status: ('A' for Active; 'I' for Inactive)
REMARK    1  A    between atoms: C1_1  and  C3_3 
REMARK    2  A    between atoms: C3_3  and  C4_4 
ROOT
HETATM    1  C3  UNL     1     -33.654   5.812   3.325  1.00 20.00     0.319 C 
HETATM    2  F7  UNL     1     -32.702   4.943   2.867  1.00 20.00    -0.209 F 
HETATM    3 CL12 UNL     1     -34.663   6.252   1.908  1.00 20.00    -0.067 Cl
ENDROOT
BRANCH   1   4
HETATM    4  C1  UNL     1     -33.002   7.049   3.899  1.00 20.00     0.143 C 
HETATM    5  C2  UNL     1     -32.115   7.813   3.246  1.00 20.00     0.289 C 
HETATM    6  F5  UNL     1     -31.581   8.903   3.836  1.00 20.00    -0.171 F 
HETATM    7  F6  UNL     1     -31.741   7.506   1.985  1.00 20.00    -0.171 F 
HETATM    8 CL11 UNL     1     -33.444   7.493   5.522  1.00 20.00    -0.078 Cl
ENDBRANCH   1   4
BRANCH   1   9
HETATM    9  C4  UNL     1     -34.486   5.030   4.330  1.00 20.00     0.443 C 
HETATM   10  F8  UNL     1     -33.993   5.180   5.581  1.00 20.00    -0.166 F 
HETATM   11  F9  UNL     1     -34.514   3.707   4.066  1.00 20.00    -0.166 F 
HETATM   12  F10 UNL     1     -35.764   5.473   4.349  1.00 20.00    -0.166 F 
ENDBRANCH   1   9
TORSDOF 2
ENDMDL
MODEL 4
REMARK VINA RESULT:      -5.9      1.718      3.448
REMARK  2 active torsions:
REMARK  status: ('A' for Active; 'I' for Inactive)
REMARK    1  A    between atoms: C1_1  and  C3_3 
REMARK    2  A    between atoms: C3_3  and  C4_4 
ROOT
HETATM    1  C3  UNL     1     -34.267   5.895   4.038  1.00 20.00     0.319 C 
HETATM    2  F7  UNL     1     -35.384   6.291   3.355  1.00 20.00    -0.209 F 
HETATM    3 CL12 UNL     1     -34.833   5.280   5.625  1.00 20.00    -0.067 Cl
ENDROOT
BRANCH   1   4
HETATM    4  C1  UNL     1     -33.333   7.065   4.240  1.00 20.00     0.143 C 
HETATM    5  C2  UNL     1     -32.676   7.692   3.254  1.00 20.00     0.289 C 
HETATM    6  F5  UNL     1     -31.859   8.732   3.526  1.00 20.00    -0.171 F 
HETATM    7  F6  UNL     1     -32.822   7.296   1.972  1.00 20.00    -0.171 F 
HETATM    8 CL11 UNL     1     -33.104   7.620   5.874  1.00 20.00    -0.078 Cl
ENDBRANCH   1   4
BRANCH   1   9
HETATM    9  C4  UNL     1     -33.664   4.757   3.228  1.00 20.00     0.443 C 
HETATM   10  F8  UNL     1     -34.102   3.560   3.681  1.00 20.00    -0.166 F 
HETATM   11  F9  UNL     1     -32.315   4.736   3.282  1.00 20.00    -0.166 F 
HETATM   12  F10 UNL     1     -34.023   4.846   1.927  1.00 20.00    -0.166 F 
ENDBRANCH   1   9
TORSDOF 2
ENDMDL
MODEL 5
REMARK VINA RESULT:      -5.8      1.923      2.494
REMARK  2 active torsions:
REMARK  status: ('A' for Active; 'I' for Inactive)
REMARK    1  A    between atoms: C1_1  and  C3_3 
REMARK    2  A    between atoms: C3_3  and  C4_4 
ROOT
HETATM    1  C3  UNL     1     -34.249   5.689   3.783  1.00 20.00     0.319 C 
HETATM    2  F7  UNL     1     -35.544   5.986   3.454  1.00 20.00    -0.209 F 
HETATM    3 CL12 UNL     1     -34.297   4.140   4.686  1.00 20.00    -0.067 Cl
ENDROOT
BRANCH   1   4
HETATM    4  C1  UNL     1     -33.666   6.777   4.654  1.00 20.00     0.143 C 
HETATM    5  C2  UNL     1     -33.988   6.975   5.940  1.00 20.00     0.289 C 
HETATM    6  F5  UNL     1     -33.417   7.975   6.646  1.00 20.00    -0.171 F 
HETATM    7  F6  UNL     1     -34.888   6.177   6.554  1.00 20.00    -0.171 F 
HETATM    8 CL11 UNL     1     -32.501   7.840   3.917  1.00 20.00    -0.078 Cl
ENDBRANCH   1   4
BRANCH   1   9
HETATM    9  C4  UNL     1     -33.517   5.496   2.464  1.00 20.00     0.443 C 
HETATM   10  F8  UNL     1     -33.312   4.182   2.216  1.00 20.00    -0.166 F 
HETATM   11  F9  UNL     1     -32.310   6.100   2.444  1.00 20.00    -0.166 F 
HETATM   12  F10 UNL     1     -34.240   5.988   1.433  1.00 20.00    -0.166 F 
ENDBRANCH   1   9
TORSDOF 2
ENDMDL
MODEL 6
REMARK VINA RESULT:      -5.7      2.040      3.021
REMARK  2 active torsions:
REMARK  status: ('A' for Active; 'I' for Inactive)
REMARK    1  A    between atoms: C1_1  and  C3_3 
REMARK    2  A    between atoms: C3_3  and  C4_4 
ROOT
HETATM    1  C3  UNL     1     -34.048   6.079   3.185  1.00 20.00     0.319 C 
HETATM    2  F7  UNL     1     -33.947   6.625   1.934  1.00 20.00    -0.209 F 
HETATM    3 CL12 UNL     1     -35.801   5.957   3.545  1.00 20.00    -0.067 Cl
ENDROOT
BRANCH   1   4
HETATM    4  C1  UNL     1     -33.372   6.969   4.202  1.00 20.00     0.143 C 
HETATM    5  C2  UNL     1     -33.672   6.994   5.508  1.00 20.00     0.289 C 
HETATM    6  F5  UNL     1     -33.016   7.823   6.348  1.00 20.00    -0.171 F 
HETATM    7  F6  UNL     1     -34.636   6.190   6.007  1.00 20.00    -0.171 F 
HETATM    8 CL11 UNL     1     -32.122   8.030   3.617  1.00 20.00    -0.078 Cl
ENDBRANCH   1   4
BRANCH   1   9
HETATM    9  C4  UNL     1     -33.442   4.687   3.084  1.00 20.00     0.443 C 
HETATM   10  F8  UNL     1     -32.124   4.714   3.388  1.00 20.00    -0.166 F 
HETATM   11  F9  UNL     1     -33.557   4.157   1.848  1.00 20.00    -0.166 F 
HETATM   12  F10 UNL     1     -34.035   3.837   3.952  1.00 20.00    -0.166 F 
ENDBRANCH   1   9
TORSDOF 2
ENDMDL
MODEL 7
REMARK VINA RESULT:      -5.5      0.797      4.204
REMARK  2 active torsions:
REMARK  status: ('A' for Active; 'I' for Inactive)
REMARK    1  A    between atoms: C1_1  and  C3_3 
REMARK    2  A    between atoms: C3_3  and  C4_4 
ROOT
HETATM    1  C3  UNL     1     -34.352   6.107   4.398  1.00 20.00     0.319 C 
HETATM    2  F7  UNL     1     -35.608   6.448   3.976  1.00 20.00    -0.209 F 
HETATM    3 CL12 UNL     1     -33.901   7.298   5.662  1.00 20.00    -0.067 Cl
ENDROOT
BRANCH   1   4
HETATM    4  C1  UNL     1     -33.374   6.178   3.249  1.00 20.00     0.143 C 
HETATM    5  C2  UNL     1     -32.899   7.317   2.725  1.00 20.00     0.289 C 
HETATM    6  F5  UNL     1     -32.026   7.288   1.695  1.00 20.00    -0.171 F 
HETATM    7  F6  UNL     1     -33.284   8.513   3.219  1.00 20.00    -0.171 F 
HETATM    8 CL11 UNL     1     -32.844   4.666   2.569  1.00 20.00    -0.078 Cl
ENDBRANCH   1   4
BRANCH   1   9
HETATM    9  C4  UNL     1     -34.480   4.722   5.015  1.00 20.00     0.443 C 
HETATM   10  F8  UNL     1     -35.173   4.776   6.176  1.00 20.00    -0.166 F 
HETATM   11  F9  UNL     1     -33.284   4.160   5.288  1.00 20.00    -0.166 F 
HETATM   12  F10 UNL     1     -35.149   3.885   4.190  1.00 20.00    -0.166 F 
ENDBRANCH   1   9
TORSDOF 2
ENDMDL
MODEL 8
REMARK VINA RESULT:      -5.5      1.921      4.083
REMARK  2 active torsions:
REMARK  status: ('A' for Active; 'I' for Inactive)
REMARK    1  A    between atoms: C1_1  and  C3_3 
REMARK    2  A    between atoms: C3_3  and  C4_4 
ROOT
HETATM    1  C3  UNL     1     -33.457   7.288   3.560  1.00 20.00     0.319 C 
HETATM    2  F7  UNL     1     -34.622   7.961   3.310  1.00 20.00    -0.209 F 
HETATM    3 CL12 UNL     1     -33.228   7.311   5.339  1.00 20.00    -0.067 Cl
ENDROOT
BRANCH   1   4
HETATM    4  C1  UNL     1     -32.297   7.979   2.880  1.00 20.00     0.143 C 
HETATM    5  C2  UNL     1     -32.305   8.404   1.609  1.00 20.00     0.289 C 
HETATM    6  F5  UNL     1     -31.222   9.013   1.081  1.00 20.00    -0.171 F 
HETATM    7  F6  UNL     1     -33.398   8.232   0.834  1.00 20.00    -0.171 F 
HETATM    8 CL11 UNL     1     -30.860   8.226   3.830  1.00 20.00    -0.078 Cl
ENDBRANCH   1   4
BRANCH   1   9
HETATM    9  C4  UNL     1     -33.689   5.861   3.086  1.00 20.00     0.443 C 
HETATM   10  F8  UNL     1     -34.206   5.104   4.081  1.00 20.00    -0.166 F 
HETATM   11  F9  UNL     1     -32.554   5.258   2.672  1.00 20.00    -0.166 F 
HETATM   12  F10 UNL     1     -34.570   5.829   2.061  1.00 20.00    -0.166 F 
ENDBRANCH   1   9
TORSDOF 2
ENDMDL
MODEL 9
REMARK VINA RESULT:      -5.4      1.808      2.728
REMARK  2 active torsions:
REMARK  status: ('A' for Active; 'I' for Inactive)
REMARK    1  A    between atoms: C1_1  and  C3_3 
REMARK    2  A    between atoms: C3_3  and  C4_4 
ROOT
HETATM    1  C3  UNL     1     -33.819   6.970   3.911  1.00 20.00     0.319 C 
HETATM    2  F7  UNL     1     -35.101   7.440   3.828  1.00 20.00    -0.209 F 
HETATM    3 CL12 UNL     1     -32.898   7.770   2.596  1.00 20.00    -0.067 Cl
ENDROOT
BRANCH   1   4
HETATM    4  C1  UNL     1     -33.796   5.471   3.721  1.00 20.00     0.143 C 
HETATM    5  C2  UNL     1     -34.485   4.600   4.471  1.00 20.00     0.289 C 
HETATM    6  F5  UNL     1     -34.406   3.273   4.230  1.00 20.00    -0.171 F 
HETATM    7  F6  UNL     1     -35.273   5.033   5.479  1.00 20.00    -0.171 F 
HETATM    8 CL11 UNL     1     -32.797   4.853   2.437  1.00 20.00    -0.078 Cl
ENDBRANCH   1   4
BRANCH   1   9
HETATM    9  C4  UNL     1     -33.293   7.428   5.263  1.00 20.00     0.443 C 
HETATM   10  F8  UNL     1     -34.227   8.154   5.920  1.00 20.00    -0.166 F 
HETATM   11  F9  UNL     1     -32.188   8.197   5.160  1.00 20.00    -0.166 F 
HETATM   12  F10 UNL     1     -32.986   6.370   6.047  1.00 20.00    -0.166 F 
ENDBRANCH   1   9
TORSDOF 2
ENDMDL
