MODEL 1
REMARK VINA RESULT:      -4.9      0.000      0.000
REMARK  0 active torsions:
REMARK  status: ('A' for Active; 'I' for Inactive)
ROOT
HETATM    1  C1  UNL     1     -34.412   5.468   4.065  1.00 20.00     0.017 C 
HETATM    2  C2  UNL     1     -33.141   5.664   3.247  1.00 20.00     0.027 C 
HETATM    3  C3  UNL     1     -34.603   6.849   4.695  1.00 20.00     0.123 C 
HETATM    4  C4  UNL     1     -33.339   7.087   2.741  1.00 20.00     0.197 C 
HETATM    5  C5  UNL     1     -34.362   4.298   5.036  1.00 20.00     0.013 C 
HETATM    6  C6  UNL     1     -32.962   4.648   2.128  1.00 20.00     0.014 C 
HETATM    7  C7  UNL     1     -33.855   7.099   5.999  1.00 20.00     0.040 C 
HETATM    8  O8  UNL     1     -34.115   7.790   3.720  1.00 20.00    -0.369 OA
HETATM    9 BR9  UNL     1     -31.637   7.988   2.484  1.00 20.00    -0.061 Br
ENDROOT
TORSDOF 0
ENDMDL
MODEL 2
REMARK VINA RESULT:      -4.4      1.741      2.747
REMARK  0 active torsions:
REMARK  status: ('A' for Active; 'I' for Inactive)
ROOT
HETATM    1  C1  UNL     1     -33.974   7.131   4.692  1.00 20.00     0.017 C 
HETATM    2  C2  UNL     1     -33.777   5.638   4.454  1.00 20.00     0.027 C 
HETATM    3  C3  UNL     1     -33.267   7.743   3.481  1.00 20.00     0.123 C 
HETATM    4  C4  UNL     1     -33.923   5.564   2.940  1.00 20.00     0.197 C 
HETATM    5  C5  UNL     1     -33.502   7.620   6.053  1.00 20.00     0.013 C 
HETATM    6  C6  UNL     1     -34.768   4.756   5.198  1.00 20.00     0.014 C 
HETATM    7  C7  UNL     1     -31.766   7.965   3.625  1.00 20.00     0.040 C 
HETATM    8  O8  UNL     1     -33.475   6.814   2.401  1.00 20.00    -0.369 OA
HETATM    9 BR9  UNL     1     -32.863   4.114   2.198  1.00 20.00    -0.061 Br
ENDROOT
TORSDOF 0
ENDMDL
MODEL 3
REMARK VINA RESULT:      -4.2      1.687      2.661
REMARK  0 active torsions:
REMARK  status: ('A' for Active; 'I' for Inactive)
ROOT
HETATM    1  C1  UNL     1     -33.770   5.563   2.783  1.00 20.00     0.017 C 
HETATM    2  C2  UNL     1     -32.997   6.645   3.529  1.00 20.00     0.027 C 
HETATM    3  C3  UNL     1     -34.684   5.012   3.878  1.00 20.00     0.123 C 
HETATM    4  C4  UNL     1     -34.082   7.202   4.440  1.00 20.00     0.197 C 
HETATM    5  C5  UNL     1     -32.897   4.541   2.072  1.00 20.00     0.013 C 
HETATM    6  C6  UNL     1     -32.373   7.697   2.623  1.00 20.00     0.014 C 
HETATM    7  C7  UNL     1     -34.091   3.918   4.758  1.00 20.00     0.040 C 
HETATM    8  O8  UNL     1     -34.998   6.136   4.723  1.00 20.00    -0.369 OA
HETATM    9 BR9  UNL     1     -33.333   7.879   6.100  1.00 20.00    -0.061 Br
ENDROOT
TORSDOF 0
ENDMDL
MODEL 4
REMARK VINA RESULT:      -4.1      2.274      3.767
REMARK  0 active torsions:
REMARK  status: ('A' for Active; 'I' for Inactive)
ROOT
HETATM    1  C1  UNL     1     -33.271   7.412   3.378  1.00 20.00     0.017 C 
HETATM    2  C2  UNL     1     -33.386   6.915   4.815  1.00 20.00     0.027 C 
HETATM    3  C3  UNL     1     -33.843   6.234   2.587  1.00 20.00     0.123 C 
HETATM    4  C4  UNL     1     -34.710   6.166   4.759  1.00 20.00     0.197 C 
HETATM    5  C5  UNL     1     -31.875   7.865   2.977  1.00 20.00     0.013 C 
HETATM    6  C6  UNL     1     -33.365   8.024   5.857  1.00 20.00     0.014 C 
HETATM    7  C7  UNL     1     -32.859   5.124   2.234  1.00 20.00     0.040 C 
HETATM    8  O8  UNL     1     -34.867   5.665   3.425  1.00 20.00    -0.369 OA
HETATM    9 BR9  UNL     1     -34.741   4.689   6.020  1.00 20.00    -0.061 Br
ENDROOT
TORSDOF 0
ENDMDL
MODEL 5
REMARK VINA RESULT:      -3.6     11.499     12.603
REMARK  0 active torsions:
REMARK  status: ('A' for Active; 'I' for Inactive)
ROOT
HETATM    1  C1  UNL     1     -37.055  14.869  -4.485  1.00 20.00     0.017 C 
HETATM    2  C2  UNL     1     -35.728  15.530  -4.132  1.00 20.00     0.027 C 
HETATM    3  C3  UNL     1     -36.615  13.770  -5.455  1.00 20.00     0.123 C 
HETATM    4  C4  UNL     1     -34.805  14.320  -4.079  1.00 20.00     0.197 C 
HETATM    5  C5  UNL     1     -38.118  15.825  -5.005  1.00 20.00     0.013 C 
HETATM    6  C6  UNL     1     -35.757  16.321  -2.832  1.00 20.00     0.014 C 
HETATM    7  C7  UNL     1     -36.482  14.181  -6.917  1.00 20.00     0.040 C 
HETATM    8  O8  UNL     1     -35.317  13.345  -4.996  1.00 20.00    -0.369 OA
HETATM    9 BR9  UNL     1     -32.988  14.795  -4.576  1.00 20.00    -0.061 Br
ENDROOT
TORSDOF 0
ENDMDL
MODEL 6
REMARK VINA RESULT:      -3.6     11.913     13.226
REMARK  0 active torsions:
REMARK  status: ('A' for Active; 'I' for Inactive)
ROOT
HETATM    1  C1  UNL     1     -36.163  14.021  -6.636  1.00 20.00     0.017 C 
HETATM    2  C2  UNL     1     -36.039  14.961  -5.441  1.00 20.00     0.027 C 
HETATM    3  C3  UNL     1     -34.700  13.672  -6.919  1.00 20.00     0.123 C 
HETATM    4  C4  UNL     1     -34.895  14.310  -4.676  1.00 20.00     0.197 C 
HETATM    5  C5  UNL     1     -36.947  14.591  -7.808  1.00 20.00     0.013 C 
HETATM    6  C6  UNL     1     -37.314  15.091  -4.621  1.00 20.00     0.014 C 
HETATM    7  C7  UNL     1     -33.942  14.642  -7.818  1.00 20.00     0.040 C 
HETATM    8  O8  UNL     1     -34.049  13.661  -5.634  1.00 20.00    -0.369 OA
HETATM    9 BR9  UNL     1     -33.868  15.628  -3.684  1.00 20.00    -0.061 Br
ENDROOT
TORSDOF 0
ENDMDL
MODEL 7
REMARK VINA RESULT:      -3.5     11.959     12.725
REMARK  0 active torsions:
REMARK  status: ('A' for Active; 'I' for Inactive)
ROOT
HETATM    1  C1  UNL     1     -36.328  15.290  -3.895  1.00 20.00     0.017 C 
HETATM    2  C2  UNL     1     -35.232  14.831  -4.850  1.00 20.00     0.027 C 
HETATM    3  C3  UNL     1     -37.597  14.899  -4.656  1.00 20.00     0.123 C 
HETATM    4  C4  UNL     1     -35.838  13.543  -5.391  1.00 20.00     0.197 C 
HETATM    5  C5  UNL     1     -36.230  16.748  -3.476  1.00 20.00     0.013 C 
HETATM    6  C6  UNL     1     -33.878  14.625  -4.186  1.00 20.00     0.014 C 
HETATM    7  C7  UNL     1     -38.113  15.917  -5.666  1.00 20.00     0.040 C 
HETATM    8  O8  UNL     1     -37.264  13.695  -5.374  1.00 20.00    -0.369 OA
HETATM    9 BR9  UNL     1     -35.241  13.188  -7.206  1.00 20.00    -0.061 Br
ENDROOT
TORSDOF 0
ENDMDL
MODEL 8
REMARK VINA RESULT:      -3.5     12.086     13.124
REMARK  0 active torsions:
REMARK  status: ('A' for Active; 'I' for Inactive)
ROOT
HETATM    1  C1  UNL     1     -33.408  16.560  -4.871  1.00 20.00     0.017 C 
HETATM    2  C2  UNL     1     -34.383  15.883  -5.828  1.00 20.00     0.027 C 
HETATM    3  C3  UNL     1     -33.673  15.811  -3.563  1.00 20.00     0.123 C 
HETATM    4  C4  UNL     1     -34.304  14.439  -5.350  1.00 20.00     0.197 C 
HETATM    5  C5  UNL     1     -33.537  18.074  -4.806  1.00 20.00     0.013 C 
HETATM    6  C6  UNL     1     -34.026  16.051  -7.297  1.00 20.00     0.014 C 
HETATM    7  C7  UNL     1     -34.815  16.345  -2.706  1.00 20.00     0.040 C 
HETATM    8  O8  UNL     1     -34.004  14.463  -3.949  1.00 20.00    -0.369 OA
HETATM    9 BR9  UNL     1     -35.982  13.504  -5.645  1.00 20.00    -0.061 Br
ENDROOT
TORSDOF 0
ENDMDL
MODEL 9
REMARK VINA RESULT:      -3.5     11.861     12.536
REMARK  0 active torsions:
REMARK  status: ('A' for Active; 'I' for Inactive)
ROOT
HETATM    1  C1  UNL     1     -34.595  15.931  -3.060  1.00 20.00     0.017 C 
HETATM    2  C2  UNL     1     -34.241  15.230  -4.367  1.00 20.00     0.027 C 
HETATM    3  C3  UNL     1     -36.070  16.278  -3.275  1.00 20.00     0.123 C 
HETATM    4  C4  UNL     1     -35.525  14.459  -4.641  1.00 20.00     0.197 C 
HETATM    5  C5  UNL     1     -33.685  17.095  -2.702  1.00 20.00     0.013 C 
HETATM    6  C6  UNL     1     -33.011  14.338  -4.277  1.00 20.00     0.014 C 
HETATM    7  C7  UNL     1     -36.349  17.589  -4.001  1.00 20.00     0.040 C 
HETATM    8  O8  UNL     1     -36.608  15.208  -4.074  1.00 20.00    -0.369 OA
HETATM    9 BR9  UNL     1     -35.817  14.228  -6.548  1.00 20.00    -0.061 Br
ENDROOT
TORSDOF 0
ENDMDL
