MODEL 1
REMARK VINA RESULT:      -4.9      0.000      0.000
REMARK  2 active torsions:
REMARK  status: ('A' for Active; 'I' for Inactive)
REMARK    1  A    between atoms: C6_6  and  C7_7 
REMARK    2  A    between atoms: C6_6  and  C8_8 
ROOT
HETATM    1  C1  UNL     1     -34.148   3.964   4.231  1.00 20.00     0.012 C 
HETATM    2  C2  UNL     1     -33.620   4.755   3.499  1.00 20.00    -0.117 C 
HETATM    3  C7  UNL     1     -32.973   5.714   2.598  1.00 20.00     0.103 C 
ENDROOT
BRANCH   3   4
HETATM    4  C6  UNL     1     -33.135   7.145   3.108  1.00 20.00    -0.021 C 
HETATM    5  C4  UNL     1     -33.130   8.227   1.988  1.00 20.00     0.011 C 
HETATM    6  C3  UNL     1     -31.616   8.393   2.220  1.00 20.00     0.002 C 
HETATM    7  C5  UNL     1     -31.816   7.793   3.624  1.00 20.00     0.011 C 
BRANCH   4   8
HETATM    8  C8  UNL     1     -34.306   7.262   4.079  1.00 20.00     0.095 C 
HETATM    9 BR9  UNL     1     -33.627   7.443   5.887  1.00 20.00    -0.096 Br
ENDBRANCH   4   8
ENDBRANCH   3   4
TORSDOF 2
ENDMDL
MODEL 2
REMARK VINA RESULT:      -4.6      1.241      3.545
REMARK  2 active torsions:
REMARK  status: ('A' for Active; 'I' for Inactive)
REMARK    1  A    between atoms: C6_6  and  C7_7 
REMARK    2  A    between atoms: C6_6  and  C8_8 
ROOT
HETATM    1  C1  UNL     1     -32.875  10.242   1.147  1.00 20.00     0.012 C 
HETATM    2  C2  UNL     1     -32.411   9.212   1.554  1.00 20.00    -0.117 C 
HETATM    3  C7  UNL     1     -31.836   7.956   2.046  1.00 20.00     0.103 C 
ENDROOT
BRANCH   3   4
HETATM    4  C6  UNL     1     -32.713   7.337   3.133  1.00 20.00    -0.021 C 
HETATM    5  C4  UNL     1     -32.743   5.780   3.121  1.00 20.00     0.011 C 
HETATM    6  C3  UNL     1     -34.008   5.857   2.245  1.00 20.00     0.002 C 
HETATM    7  C5  UNL     1     -34.229   7.285   2.778  1.00 20.00     0.011 C 
BRANCH   4   8
HETATM    8  C8  UNL     1     -32.417   7.942   4.502  1.00 20.00     0.095 C 
HETATM    9 BR9  UNL     1     -33.695   7.267   5.794  1.00 20.00    -0.096 Br
ENDBRANCH   4   8
ENDBRANCH   3   4
TORSDOF 2
ENDMDL
MODEL 3
REMARK VINA RESULT:      -4.4      2.005      2.821
REMARK  2 active torsions:
REMARK  status: ('A' for Active; 'I' for Inactive)
REMARK    1  A    between atoms: C6_6  and  C7_7 
REMARK    2  A    between atoms: C6_6  and  C8_8 
ROOT
HETATM    1  C1  UNL     1     -34.658   5.053   5.852  1.00 20.00     0.012 C 
HETATM    2  C2  UNL     1     -34.158   6.073   5.461  1.00 20.00    -0.117 C 
HETATM    3  C7  UNL     1     -33.550   7.323   4.993  1.00 20.00     0.103 C 
ENDROOT
BRANCH   3   4
HETATM    4  C6  UNL     1     -33.000   7.170   3.576  1.00 20.00    -0.021 C 
HETATM    5  C4  UNL     1     -34.081   7.264   2.458  1.00 20.00     0.011 C 
HETATM    6  C3  UNL     1     -34.194   5.728   2.502  1.00 20.00     0.002 C 
HETATM    7  C5  UNL     1     -32.788   5.693   3.130  1.00 20.00     0.011 C 
BRANCH   4   8
HETATM    8  C8  UNL     1     -31.789   8.068   3.346  1.00 20.00     0.095 C 
HETATM    9 BR9  UNL     1     -31.851   8.785   1.546  1.00 20.00    -0.096 Br
ENDBRANCH   4   8
ENDBRANCH   3   4
TORSDOF 2
ENDMDL
MODEL 4
REMARK VINA RESULT:      -4.3      1.956      3.341
REMARK  2 active torsions:
REMARK  status: ('A' for Active; 'I' for Inactive)
REMARK    1  A    between atoms: C6_6  and  C7_7 
REMARK    2  A    between atoms: C6_6  and  C8_8 
ROOT
HETATM    1  C1  UNL     1     -33.998   7.344   6.364  1.00 20.00     0.012 C 
HETATM    2  C2  UNL     1     -33.398   7.342   5.324  1.00 20.00    -0.117 C 
HETATM    3  C7  UNL     1     -32.658   7.345   4.058  1.00 20.00     0.103 C 
ENDROOT
BRANCH   3   4
HETATM    4  C6  UNL     1     -33.418   6.580   2.975  1.00 20.00    -0.021 C 
HETATM    5  C4  UNL     1     -34.791   6.009   3.440  1.00 20.00     0.011 C 
HETATM    6  C3  UNL     1     -34.075   4.686   3.772  1.00 20.00     0.002 C 
HETATM    7  C5  UNL     1     -32.959   5.102   2.796  1.00 20.00     0.011 C 
BRANCH   4   8
HETATM    8  C8  UNL     1     -33.484   7.371   1.673  1.00 20.00     0.095 C 
HETATM    9 BR9  UNL     1     -32.165   8.792   1.716  1.00 20.00    -0.096 Br
ENDBRANCH   4   8
ENDBRANCH   3   4
TORSDOF 2
ENDMDL
MODEL 5
REMARK VINA RESULT:      -4.2      1.892      2.422
REMARK  2 active torsions:
REMARK  status: ('A' for Active; 'I' for Inactive)
REMARK    1  A    between atoms: C6_6  and  C7_7 
REMARK    2  A    between atoms: C6_6  and  C8_8 
ROOT
HETATM    1  C1  UNL     1     -34.628   5.404   5.955  1.00 20.00     0.012 C 
HETATM    2  C2  UNL     1     -34.203   6.362   5.369  1.00 20.00    -0.117 C 
HETATM    3  C7  UNL     1     -33.684   7.538   4.663  1.00 20.00     0.103 C 
ENDROOT
BRANCH   3   4
HETATM    4  C6  UNL     1     -33.324   7.196   3.217  1.00 20.00    -0.021 C 
HETATM    5  C4  UNL     1     -31.794   7.061   2.956  1.00 20.00     0.011 C 
HETATM    6  C3  UNL     1     -31.783   8.542   2.532  1.00 20.00     0.002 C 
HETATM    7  C5  UNL     1     -33.294   8.424   2.259  1.00 20.00     0.011 C 
BRANCH   4   8
HETATM    8  C8  UNL     1     -34.149   6.024   2.698  1.00 20.00     0.095 C 
HETATM    9 BR9  UNL     1     -33.003   4.475   2.481  1.00 20.00    -0.096 Br
ENDBRANCH   4   8
ENDBRANCH   3   4
TORSDOF 2
ENDMDL
MODEL 6
REMARK VINA RESULT:      -4.1     11.221     12.105
REMARK  2 active torsions:
REMARK  status: ('A' for Active; 'I' for Inactive)
REMARK    1  A    between atoms: C6_6  and  C7_7 
REMARK    2  A    between atoms: C6_6  and  C8_8 
ROOT
HETATM    1  C1  UNL     1     -35.422  17.105  -0.780  1.00 20.00     0.012 C 
HETATM    2  C2  UNL     1     -34.610  16.983  -1.656  1.00 20.00    -0.117 C 
HETATM    3  C7  UNL     1     -33.611  16.839  -2.720  1.00 20.00     0.103 C 
ENDROOT
BRANCH   3   4
HETATM    4  C6  UNL     1     -34.220  16.185  -3.960  1.00 20.00    -0.021 C 
HETATM    5  C4  UNL     1     -34.404  14.643  -3.843  1.00 20.00     0.011 C 
HETATM    6  C3  UNL     1     -33.030  14.474  -4.517  1.00 20.00     0.002 C 
HETATM    7  C5  UNL     1     -33.194  15.892  -5.095  1.00 20.00     0.011 C 
BRANCH   4   8
HETATM    8  C8  UNL     1     -35.468  16.926  -4.428  1.00 20.00     0.095 C 
HETATM    9 BR9  UNL     1     -36.988  15.724  -4.378  1.00 20.00    -0.096 Br
ENDBRANCH   4   8
ENDBRANCH   3   4
TORSDOF 2
ENDMDL
MODEL 7
REMARK VINA RESULT:      -4.1     11.009     12.305
REMARK  2 active torsions:
REMARK  status: ('A' for Active; 'I' for Inactive)
REMARK    1  A    between atoms: C6_6  and  C7_7 
REMARK    2  A    between atoms: C6_6  and  C8_8 
ROOT
HETATM    1  C1  UNL     1     -35.495  16.873  -1.451  1.00 20.00     0.012 C 
HETATM    2  C2  UNL     1     -34.611  16.646  -2.231  1.00 20.00    -0.117 C 
HETATM    3  C7  UNL     1     -33.524  16.373  -3.177  1.00 20.00     0.103 C 
ENDROOT
BRANCH   3   4
HETATM    4  C6  UNL     1     -34.043  15.639  -4.413  1.00 20.00    -0.021 C 
HETATM    5  C4  UNL     1     -33.110  15.744  -5.656  1.00 20.00     0.011 C 
HETATM    6  C3  UNL     1     -33.940  16.957  -6.118  1.00 20.00     0.002 C 
HETATM    7  C5  UNL     1     -35.093  16.441  -5.238  1.00 20.00     0.011 C 
BRANCH   4   8
HETATM    8  C8  UNL     1     -34.473  14.215  -4.078  1.00 20.00     0.095 C 
HETATM    9 BR9  UNL     1     -35.970  13.712  -5.203  1.00 20.00    -0.096 Br
ENDBRANCH   4   8
ENDBRANCH   3   4
TORSDOF 2
ENDMDL
MODEL 8
REMARK VINA RESULT:      -4.1      1.805      2.441
REMARK  2 active torsions:
REMARK  status: ('A' for Active; 'I' for Inactive)
REMARK    1  A    between atoms: C6_6  and  C7_7 
REMARK    2  A    between atoms: C6_6  and  C8_8 
ROOT
HETATM    1  C1  UNL     1     -34.482   4.211   4.475  1.00 20.00     0.012 C 
HETATM    2  C2  UNL     1     -33.777   4.829   3.725  1.00 20.00    -0.117 C 
HETATM    3  C7  UNL     1     -32.912   5.574   2.804  1.00 20.00     0.103 C 
ENDROOT
BRANCH   3   4
HETATM    4  C6  UNL     1     -33.122   7.081   2.950  1.00 20.00    -0.021 C 
HETATM    5  C4  UNL     1     -32.041   7.795   3.815  1.00 20.00     0.011 C 
HETATM    6  C3  UNL     1     -32.967   7.621   5.033  1.00 20.00     0.002 C 
HETATM    7  C5  UNL     1     -34.147   7.478   4.054  1.00 20.00     0.011 C 
BRANCH   4   8
HETATM    8  C8  UNL     1     -33.375   7.743   1.600  1.00 20.00     0.095 C 
HETATM    9 BR9  UNL     1     -32.255   9.317   1.435  1.00 20.00    -0.096 Br
ENDBRANCH   4   8
ENDBRANCH   3   4
TORSDOF 2
ENDMDL
MODEL 9
REMARK VINA RESULT:      -4.0     11.349     12.524
REMARK  2 active torsions:
REMARK  status: ('A' for Active; 'I' for Inactive)
REMARK    1  A    between atoms: C6_6  and  C7_7 
REMARK    2  A    between atoms: C6_6  and  C8_8 
ROOT
HETATM    1  C1  UNL     1     -32.768  18.044  -1.323  1.00 20.00     0.012 C 
HETATM    2  C2  UNL     1     -33.673  17.362  -1.721  1.00 20.00    -0.117 C 
HETATM    3  C7  UNL     1     -34.781  16.529  -2.198  1.00 20.00     0.103 C 
ENDROOT
BRANCH   3   4
HETATM    4  C6  UNL     1     -34.676  16.281  -3.702  1.00 20.00    -0.021 C 
HETATM    5  C4  UNL     1     -35.566  15.112  -4.221  1.00 20.00     0.011 C 
HETATM    6  C3  UNL     1     -34.353  14.177  -4.055  1.00 20.00     0.002 C 
HETATM    7  C5  UNL     1     -33.447  15.421  -4.123  1.00 20.00     0.011 C 
BRANCH   4   8
HETATM    8  C8  UNL     1     -34.828  17.575  -4.494  1.00 20.00     0.095 C 
HETATM    9 BR9  UNL     1     -34.094  17.333  -6.272  1.00 20.00    -0.096 Br
ENDBRANCH   4   8
ENDBRANCH   3   4
TORSDOF 2
ENDMDL
