MODEL 1
REMARK VINA RESULT:      -4.5      0.000      0.000
REMARK  0 active torsions:
REMARK  status: ('A' for Active; 'I' for Inactive)
ROOT
HETATM    1  C1  UNL     1     -32.260   7.566   3.192  1.00 20.00     0.217 C 
HETATM    2  C2  UNL     1     -33.569   8.186   3.630  1.00 20.00     0.108 C 
HETATM    3  C3  UNL     1     -33.645   5.554   2.842  1.00 20.00     0.131 C 
HETATM    4  C4  UNL     1     -34.266   7.282   4.663  1.00 20.00    -0.001 C 
HETATM    5  C5  UNL     1     -34.567   5.863   4.051  1.00 20.00    -0.028 C 
HETATM    6  C6  UNL     1     -33.448   7.271   5.966  1.00 20.00     0.011 C 
HETATM    7  C7  UNL     1     -36.025   5.853   3.536  1.00 20.00     0.016 C 
HETATM    8  C8  UNL     1     -34.445   4.722   5.081  1.00 20.00     0.016 C 
HETATM    9  N9  UNL     1     -32.361   6.217   2.916  1.00 20.00    -0.360 N 
HETATM   10  O10 UNL     1     -31.223   8.215   3.090  1.00 20.00    -0.274 OA
HETATM   11  H25 UNL     1     -31.538   5.695   2.766  1.00 20.00     0.162 HD
ENDROOT
TORSDOF 0
ENDMDL
MODEL 2
REMARK VINA RESULT:      -4.4      2.216      3.632
REMARK  0 active torsions:
REMARK  status: ('A' for Active; 'I' for Inactive)
ROOT
HETATM    1  C1  UNL     1     -34.525   5.752   5.168  1.00 20.00     0.217 C 
HETATM    2  C2  UNL     1     -35.009   5.886   3.741  1.00 20.00     0.108 C 
HETATM    3  C3  UNL     1     -33.343   7.862   4.677  1.00 20.00     0.131 C 
HETATM    4  C4  UNL     1     -33.820   6.151   2.799  1.00 20.00    -0.001 C 
HETATM    5  C5  UNL     1     -33.074   7.477   3.199  1.00 20.00    -0.028 C 
HETATM    6  C6  UNL     1     -32.933   4.896   2.734  1.00 20.00     0.011 C 
HETATM    7  C7  UNL     1     -33.614   8.627   2.316  1.00 20.00     0.016 C 
HETATM    8  C8  UNL     1     -31.551   7.408   2.966  1.00 20.00     0.016 C 
HETATM    9  N9  UNL     1     -33.610   6.721   5.528  1.00 20.00    -0.360 N 
HETATM   10  O10 UNL     1     -34.923   4.867   5.920  1.00 20.00    -0.274 OA
HETATM   11  H25 UNL     1     -33.127   6.633   6.383  1.00 20.00     0.162 HD
ENDROOT
TORSDOF 0
ENDMDL
MODEL 3
REMARK VINA RESULT:      -4.4     11.395     12.612
REMARK  0 active torsions:
REMARK  status: ('A' for Active; 'I' for Inactive)
ROOT
HETATM    1  C1  UNL     1     -35.502  13.844  -5.198  1.00 20.00     0.217 C 
HETATM    2  C2  UNL     1     -34.327  14.368  -5.995  1.00 20.00     0.108 C 
HETATM    3  C3  UNL     1     -35.637  16.170  -4.385  1.00 20.00     0.131 C 
HETATM    4  C4  UNL     1     -33.367  15.145  -5.076  1.00 20.00    -0.001 C 
HETATM    5  C5  UNL     1     -34.099  16.366  -4.406  1.00 20.00    -0.028 C 
HETATM    6  C6  UNL     1     -32.697  14.166  -4.095  1.00 20.00     0.011 C 
HETATM    7  C7  UNL     1     -33.805  17.631  -5.246  1.00 20.00     0.016 C 
HETATM    8  C8  UNL     1     -33.608  16.652  -2.973  1.00 20.00     0.016 C 
HETATM    9  N9  UNL     1     -36.038  14.780  -4.336  1.00 20.00    -0.360 N 
HETATM   10  O10 UNL     1     -35.930  12.700  -5.326  1.00 20.00    -0.274 OA
HETATM   11  H25 UNL     1     -36.708  14.493  -3.672  1.00 20.00     0.162 HD
ENDROOT
TORSDOF 0
ENDMDL
MODEL 4
REMARK VINA RESULT:      -4.3     11.791     12.693
REMARK  0 active torsions:
REMARK  status: ('A' for Active; 'I' for Inactive)
ROOT
HETATM    1  C1  UNL     1     -34.953  13.477  -5.701  1.00 20.00     0.217 C 
HETATM    2  C2  UNL     1     -35.954  14.190  -4.818  1.00 20.00     0.108 C 
HETATM    3  C3  UNL     1     -33.299  14.765  -4.398  1.00 20.00     0.131 C 
HETATM    4  C4  UNL     1     -35.672  15.704  -4.810  1.00 20.00    -0.001 C 
HETATM    5  C5  UNL     1     -34.227  16.001  -4.265  1.00 20.00    -0.028 C 
HETATM    6  C6  UNL     1     -35.979  16.286  -6.201  1.00 20.00     0.011 C 
HETATM    7  C7  UNL     1     -34.333  16.339  -2.759  1.00 20.00     0.016 C 
HETATM    8  C8  UNL     1     -33.558  17.209  -4.952  1.00 20.00     0.016 C 
HETATM    9  N9  UNL     1     -33.653  13.899  -5.502  1.00 20.00    -0.360 N 
HETATM   10  O10 UNL     1     -35.280  12.607  -6.502  1.00 20.00    -0.274 OA
HETATM   11  H25 UNL     1     -32.951  13.603  -6.128  1.00 20.00     0.162 HD
ENDROOT
TORSDOF 0
ENDMDL
MODEL 5
REMARK VINA RESULT:      -4.2     11.437     12.756
REMARK  0 active torsions:
REMARK  status: ('A' for Active; 'I' for Inactive)
ROOT
HETATM    1  C1  UNL     1     -36.765  14.203  -4.766  1.00 20.00     0.217 C 
HETATM    2  C2  UNL     1     -36.758  15.581  -4.142  1.00 20.00     0.108 C 
HETATM    3  C3  UNL     1     -34.380  14.204  -4.134  1.00 20.00     0.131 C 
HETATM    4  C4  UNL     1     -35.593  16.414  -4.706  1.00 20.00    -0.001 C 
HETATM    5  C5  UNL     1     -34.212  15.723  -4.402  1.00 20.00    -0.028 C 
HETATM    6  C6  UNL     1     -35.857  16.720  -6.190  1.00 20.00     0.011 C 
HETATM    7  C7  UNL     1     -33.622  16.357  -3.120  1.00 20.00     0.016 C 
HETATM    8  C8  UNL     1     -33.175  15.925  -5.524  1.00 20.00     0.016 C 
HETATM    9  N9  UNL     1     -35.513  13.622  -4.820  1.00 20.00    -0.360 N 
HETATM   10  O10 UNL     1     -37.792  13.665  -5.171  1.00 20.00    -0.274 OA
HETATM   11  H25 UNL     1     -35.390  12.793  -5.338  1.00 20.00     0.162 HD
ENDROOT
TORSDOF 0
ENDMDL
MODEL 6
REMARK VINA RESULT:      -4.1     11.314     12.241
REMARK  0 active torsions:
REMARK  status: ('A' for Active; 'I' for Inactive)
ROOT
HETATM    1  C1  UNL     1     -33.242  14.241  -4.386  1.00 20.00     0.217 C 
HETATM    2  C2  UNL     1     -33.093  15.642  -4.936  1.00 20.00     0.108 C 
HETATM    3  C3  UNL     1     -35.646  14.635  -4.781  1.00 20.00     0.131 C 
HETATM    4  C4  UNL     1     -34.063  16.600  -4.220  1.00 20.00    -0.001 C 
HETATM    5  C5  UNL     1     -35.554  16.141  -4.422  1.00 20.00    -0.028 C 
HETATM    6  C6  UNL     1     -33.624  16.768  -2.755  1.00 20.00     0.011 C 
HETATM    7  C7  UNL     1     -36.153  16.936  -5.607  1.00 20.00     0.016 C 
HETATM    8  C8  UNL     1     -36.445  16.422  -3.196  1.00 20.00     0.016 C 
HETATM    9  N9  UNL     1     -34.558  13.849  -4.239  1.00 20.00    -0.360 N 
HETATM   10  O10 UNL     1     -32.277  13.533  -4.110  1.00 20.00    -0.274 OA
HETATM   11  H25 UNL     1     -34.759  13.015  -3.753  1.00 20.00     0.162 HD
ENDROOT
TORSDOF 0
ENDMDL
MODEL 7
REMARK VINA RESULT:      -4.1     11.564     12.720
REMARK  0 active torsions:
REMARK  status: ('A' for Active; 'I' for Inactive)
ROOT
HETATM    1  C1  UNL     1     -34.128  14.360  -5.632  1.00 20.00     0.217 C 
HETATM    2  C2  UNL     1     -34.426  14.157  -4.162  1.00 20.00     0.108 C 
HETATM    3  C3  UNL     1     -33.269  16.546  -4.877  1.00 20.00     0.131 C 
HETATM    4  C4  UNL     1     -35.188  15.372  -3.602  1.00 20.00    -0.001 C 
HETATM    5  C5  UNL     1     -34.339  16.687  -3.762  1.00 20.00    -0.028 C 
HETATM    6  C6  UNL     1     -36.594  15.422  -4.224  1.00 20.00     0.011 C 
HETATM    7  C7  UNL     1     -33.591  16.951  -2.434  1.00 20.00     0.016 C 
HETATM    8  C8  UNL     1     -35.202  17.933  -4.048  1.00 20.00     0.016 C 
HETATM    9  N9  UNL     1     -33.650  15.622  -5.923  1.00 20.00    -0.360 N 
HETATM   10  O10 UNL     1     -34.294  13.475  -6.468  1.00 20.00    -0.274 OA
HETATM   11  H25 UNL     1     -33.567  15.898  -6.866  1.00 20.00     0.162 HD
ENDROOT
TORSDOF 0
ENDMDL
MODEL 8
REMARK VINA RESULT:      -4.1     11.612     12.862
REMARK  0 active torsions:
REMARK  status: ('A' for Active; 'I' for Inactive)
ROOT
HETATM    1  C1  UNL     1     -33.117  14.470  -4.536  1.00 20.00     0.217 C 
HETATM    2  C2  UNL     1     -34.375  14.908  -3.818  1.00 20.00     0.108 C 
HETATM    3  C3  UNL     1     -33.742  16.240  -6.138  1.00 20.00     0.131 C 
HETATM    4  C4  UNL     1     -35.555  14.967  -4.805  1.00 20.00    -0.001 C 
HETATM    5  C5  UNL     1     -35.263  15.988  -5.966  1.00 20.00    -0.028 C 
HETATM    6  C6  UNL     1     -35.910  13.542  -5.262  1.00 20.00     0.011 C 
HETATM    7  C7  UNL     1     -35.917  17.342  -5.602  1.00 20.00     0.016 C 
HETATM    8  C8  UNL     1     -35.857  15.551  -7.320  1.00 20.00     0.016 C 
HETATM    9  N9  UNL     1     -32.926  15.111  -5.744  1.00 20.00    -0.360 N 
HETATM   10  O10 UNL     1     -32.348  13.633  -4.071  1.00 20.00    -0.274 OA
HETATM   11  H25 UNL     1     -32.219  14.791  -6.351  1.00 20.00     0.162 HD
ENDROOT
TORSDOF 0
ENDMDL
MODEL 9
REMARK VINA RESULT:      -4.1     11.967     13.032
REMARK  0 active torsions:
REMARK  status: ('A' for Active; 'I' for Inactive)
ROOT
HETATM    1  C1  UNL     1     -33.774  16.188  -6.237  1.00 20.00     0.217 C 
HETATM    2  C2  UNL     1     -32.940  15.533  -5.157  1.00 20.00     0.108 C 
HETATM    3  C3  UNL     1     -34.461  17.698  -4.411  1.00 20.00     0.131 C 
HETATM    4  C4  UNL     1     -33.807  15.246  -3.918  1.00 20.00    -0.001 C 
HETATM    5  C5  UNL     1     -34.416  16.577  -3.340  1.00 20.00    -0.028 C 
HETATM    6  C6  UNL     1     -34.834  14.151  -4.257  1.00 20.00     0.011 C 
HETATM    7  C7  UNL     1     -33.506  17.071  -2.190  1.00 20.00     0.016 C 
HETATM    8  C8  UNL     1     -35.828  16.389  -2.748  1.00 20.00     0.016 C 
HETATM    9  N9  UNL     1     -34.588  17.196  -5.762  1.00 20.00    -0.360 N 
HETATM   10  O10 UNL     1     -33.712  15.849  -7.415  1.00 20.00    -0.274 OA
HETATM   11  H25 UNL     1     -35.273  17.581  -6.358  1.00 20.00     0.162 HD
ENDROOT
TORSDOF 0
ENDMDL
