MODEL 1
REMARK VINA RESULT:      -4.6      0.000      0.000
REMARK  0 active torsions:
REMARK  status: ('A' for Active; 'I' for Inactive)
ROOT
HETATM    1  C1  UNL     1     -34.877  14.516  -4.341  1.00 20.00     0.105 C 
HETATM    2  C2  UNL     1     -35.404  15.549  -3.656  1.00 20.00     0.056 C 
HETATM    3  C3  UNL     1     -35.761  13.708  -5.218  1.00 20.00     0.196 C 
HETATM    4  C4  UNL     1     -37.567  15.288  -4.434  1.00 20.00     0.035 C 
HETATM    5  C5  UNL     1     -37.173  14.188  -5.381  1.00 20.00     0.205 C 
HETATM    6  C6  UNL     1     -34.588  16.441  -2.751  1.00 20.00     0.072 C 
HETATM    7  C7  UNL     1     -39.019  15.700  -4.384  1.00 20.00     0.068 C 
HETATM    8  N8  UNL     1     -36.733  15.914  -3.666  1.00 20.00    -0.259 NA
HETATM    9  O9  UNL     1     -35.346  12.714  -5.811  1.00 20.00    -0.289 OA
HETATM   10 CL10 UNL     1     -33.219  14.049  -4.292  1.00 20.00    -0.078 Cl
HETATM   11 CL11 UNL     1     -37.326  14.804  -7.039  1.00 20.00    -0.110 Cl
ENDROOT
TORSDOF 0
ENDMDL
MODEL 2
REMARK VINA RESULT:      -4.2      2.222      2.464
REMARK  0 active torsions:
REMARK  status: ('A' for Active; 'I' for Inactive)
ROOT
HETATM    1  C1  UNL     1     -35.038  14.611  -6.379  1.00 20.00     0.105 C 
HETATM    2  C2  UNL     1     -34.969  15.955  -6.377  1.00 20.00     0.056 C 
HETATM    3  C3  UNL     1     -35.895  13.932  -5.375  1.00 20.00     0.196 C 
HETATM    4  C4  UNL     1     -36.409  16.278  -4.595  1.00 20.00     0.035 C 
HETATM    5  C5  UNL     1     -36.736  14.813  -4.499  1.00 20.00     0.205 C 
HETATM    6  C6  UNL     1     -34.141  16.741  -7.365  1.00 20.00     0.072 C 
HETATM    7  C7  UNL     1     -37.061  17.220  -3.611  1.00 20.00     0.068 C 
HETATM    8  N8  UNL     1     -35.609  16.783  -5.480  1.00 20.00    -0.259 NA
HETATM    9  O9  UNL     1     -35.940  12.707  -5.288  1.00 20.00    -0.289 OA
HETATM   10 CL10 UNL     1     -34.203  13.586  -7.485  1.00 20.00    -0.078 Cl
HETATM   11 CL11 UNL     1     -38.424  14.589  -5.002  1.00 20.00    -0.110 Cl
ENDROOT
TORSDOF 0
ENDMDL
MODEL 3
REMARK VINA RESULT:      -4.1      2.967      3.986
REMARK  0 active torsions:
REMARK  status: ('A' for Active; 'I' for Inactive)
ROOT
HETATM    1  C1  UNL     1     -34.117  15.019  -5.940  1.00 20.00     0.105 C 
HETATM    2  C2  UNL     1     -33.952  16.280  -6.381  1.00 20.00     0.056 C 
HETATM    3  C3  UNL     1     -34.044  14.751  -4.481  1.00 20.00     0.196 C 
HETATM    4  C4  UNL     1     -33.635  17.235  -4.297  1.00 20.00     0.035 C 
HETATM    5  C5  UNL     1     -33.918  15.943  -3.581  1.00 20.00     0.205 C 
HETATM    6  C6  UNL     1     -34.023  16.661  -7.841  1.00 20.00     0.072 C 
HETATM    7  C7  UNL     1     -33.295  18.451  -3.468  1.00 20.00     0.068 C 
HETATM    8  N8  UNL     1     -33.676  17.371  -5.585  1.00 20.00    -0.259 NA
HETATM    9  O9  UNL     1     -34.119  13.609  -4.032  1.00 20.00    -0.289 OA
HETATM   10 CL10 UNL     1     -34.426  13.658  -6.950  1.00 20.00    -0.078 Cl
HETATM   11 CL11 UNL     1     -35.463  16.114  -2.723  1.00 20.00    -0.110 Cl
ENDROOT
TORSDOF 0
ENDMDL
MODEL 4
REMARK VINA RESULT:      -3.9      1.497      1.633
REMARK  0 active torsions:
REMARK  status: ('A' for Active; 'I' for Inactive)
ROOT
HETATM    1  C1  UNL     1     -34.987  15.816  -3.576  1.00 20.00     0.105 C 
HETATM    2  C2  UNL     1     -36.121  16.539  -3.538  1.00 20.00     0.056 C 
HETATM    3  C3  UNL     1     -34.998  14.493  -4.250  1.00 20.00     0.196 C 
HETATM    4  C4  UNL     1     -37.428  15.016  -4.689  1.00 20.00     0.035 C 
HETATM    5  C5  UNL     1     -36.261  14.109  -4.963  1.00 20.00     0.205 C 
HETATM    6  C6  UNL     1     -36.211  17.902  -2.893  1.00 20.00     0.072 C 
HETATM    7  C7  UNL     1     -38.788  14.602  -5.200  1.00 20.00     0.068 C 
HETATM    8  N8  UNL     1     -37.337  16.138  -4.049  1.00 20.00    -0.259 NA
HETATM    9  O9  UNL     1     -34.009  13.762  -4.252  1.00 20.00    -0.289 OA
HETATM   10 CL10 UNL     1     -33.481  16.314  -2.901  1.00 20.00    -0.078 Cl
HETATM   11 CL11 UNL     1     -35.913  14.167  -6.704  1.00 20.00    -0.110 Cl
ENDROOT
TORSDOF 0
ENDMDL
MODEL 5
REMARK VINA RESULT:      -3.9      1.430      3.548
REMARK  0 active torsions:
REMARK  status: ('A' for Active; 'I' for Inactive)
ROOT
HETATM    1  C1  UNL     1     -35.975  14.799  -6.171  1.00 20.00     0.105 C 
HETATM    2  C2  UNL     1     -36.722  14.969  -5.063  1.00 20.00     0.056 C 
HETATM    3  C3  UNL     1     -34.543  15.189  -6.140  1.00 20.00     0.196 C 
HETATM    4  C4  UNL     1     -35.032  15.853  -3.754  1.00 20.00     0.035 C 
HETATM    5  C5  UNL     1     -33.992  15.632  -4.817  1.00 20.00     0.205 C 
HETATM    6  C6  UNL     1     -38.182  14.590  -4.986  1.00 20.00     0.072 C 
HETATM    7  C7  UNL     1     -34.599  16.486  -2.453  1.00 20.00     0.068 C 
HETATM    8  N8  UNL     1     -36.278  15.521  -3.881  1.00 20.00    -0.259 NA
HETATM    9  O9  UNL     1     -33.835  15.120  -7.142  1.00 20.00    -0.289 OA
HETATM   10 CL10 UNL     1     -36.554  14.140  -7.654  1.00 20.00    -0.078 Cl
HETATM   11 CL11 UNL     1     -32.893  14.354  -4.258  1.00 20.00    -0.110 Cl
ENDROOT
TORSDOF 0
ENDMDL
MODEL 6
REMARK VINA RESULT:      -3.9      2.526      3.173
REMARK  0 active torsions:
REMARK  status: ('A' for Active; 'I' for Inactive)
ROOT
HETATM    1  C1  UNL     1     -34.571  15.550  -4.056  1.00 20.00     0.105 C 
HETATM    2  C2  UNL     1     -33.853  14.573  -4.641  1.00 20.00     0.056 C 
HETATM    3  C3  UNL     1     -35.858  15.963  -4.670  1.00 20.00     0.196 C 
HETATM    4  C4  UNL     1     -35.318  14.198  -6.392  1.00 20.00     0.035 C 
HETATM    5  C5  UNL     1     -36.335  15.162  -5.845  1.00 20.00     0.205 C 
HETATM    6  C6  UNL     1     -32.541  14.068  -4.088  1.00 20.00     0.072 C 
HETATM    7  C7  UNL     1     -35.631  13.492  -7.690  1.00 20.00     0.068 C 
HETATM    8  N8  UNL     1     -34.193  13.928  -5.811  1.00 20.00    -0.259 NA
HETATM    9  O9  UNL     1     -36.518  16.896  -4.217  1.00 20.00    -0.289 OA
HETATM   10 CL10 UNL     1     -34.117  16.373  -2.612  1.00 20.00    -0.078 Cl
HETATM   11 CL11 UNL     1     -37.744  14.228  -5.300  1.00 20.00    -0.110 Cl
ENDROOT
TORSDOF 0
ENDMDL
MODEL 7
REMARK VINA RESULT:      -3.9      2.378      3.539
REMARK  0 active torsions:
REMARK  status: ('A' for Active; 'I' for Inactive)
ROOT
HETATM    1  C1  UNL     1     -35.767  15.603  -3.915  1.00 20.00     0.105 C 
HETATM    2  C2  UNL     1     -36.733  15.044  -4.666  1.00 20.00     0.056 C 
HETATM    3  C3  UNL     1     -34.346  15.344  -4.260  1.00 20.00     0.196 C 
HETATM    4  C4  UNL     1     -35.313  13.950  -6.129  1.00 20.00     0.035 C 
HETATM    5  C5  UNL     1     -34.087  14.570  -5.517  1.00 20.00     0.205 C 
HETATM    6  C6  UNL     1     -38.207  15.257  -4.410  1.00 20.00     0.072 C 
HETATM    7  C7  UNL     1     -35.129  12.990  -7.280  1.00 20.00     0.068 C 
HETATM    8  N8  UNL     1     -36.521  14.198  -5.734  1.00 20.00    -0.259 NA
HETATM    9  O9  UNL     1     -33.426  15.774  -3.566  1.00 20.00    -0.289 OA
HETATM   10 CL10 UNL     1     -36.047  16.631  -2.560  1.00 20.00    -0.078 Cl
HETATM   11 CL11 UNL     1     -33.396  15.705  -6.695  1.00 20.00    -0.110 Cl
ENDROOT
TORSDOF 0
ENDMDL
MODEL 8
REMARK VINA RESULT:      -3.8      1.956      2.660
REMARK  0 active torsions:
REMARK  status: ('A' for Active; 'I' for Inactive)
ROOT
HETATM    1  C1  UNL     1     -35.604  14.235  -4.970  1.00 20.00     0.105 C 
HETATM    2  C2  UNL     1     -34.585  14.794  -4.292  1.00 20.00     0.056 C 
HETATM    3  C3  UNL     1     -36.989  14.698  -4.700  1.00 20.00     0.196 C 
HETATM    4  C4  UNL     1     -35.882  16.247  -3.043  1.00 20.00     0.035 C 
HETATM    5  C5  UNL     1     -37.142  15.863  -3.769  1.00 20.00     0.205 C 
HETATM    6  C6  UNL     1     -33.140  14.407  -4.503  1.00 20.00     0.072 C 
HETATM    7  C7  UNL     1     -35.979  17.275  -1.941  1.00 20.00     0.068 C 
HETATM    8  N8  UNL     1     -34.714  15.758  -3.314  1.00 20.00    -0.259 NA
HETATM    9  O9  UNL     1     -37.960  14.173  -5.241  1.00 20.00    -0.289 OA
HETATM   10 CL10 UNL     1     -35.431  13.005  -6.165  1.00 20.00    -0.078 Cl
HETATM   11 CL11 UNL     1     -37.659  17.249  -4.750  1.00 20.00    -0.110 Cl
ENDROOT
TORSDOF 0
ENDMDL
MODEL 9
REMARK VINA RESULT:      -3.8      2.173      3.337
REMARK  0 active torsions:
REMARK  status: ('A' for Active; 'I' for Inactive)
ROOT
HETATM    1  C1  UNL     1     -35.852  14.619  -6.143  1.00 20.00     0.105 C 
HETATM    2  C2  UNL     1     -34.673  15.254  -6.010  1.00 20.00     0.056 C 
HETATM    3  C3  UNL     1     -36.788  14.591  -4.990  1.00 20.00     0.196 C 
HETATM    4  C4  UNL     1     -34.993  15.924  -3.819  1.00 20.00     0.035 C 
HETATM    5  C5  UNL     1     -36.400  15.395  -3.785  1.00 20.00     0.205 C 
HETATM    6  C6  UNL     1     -33.659  15.354  -7.125  1.00 20.00     0.072 C 
HETATM    7  C7  UNL     1     -34.445  16.574  -2.570  1.00 20.00     0.068 C 
HETATM    8  N8  UNL     1     -34.224  15.866  -4.859  1.00 20.00    -0.259 NA
HETATM    9  O9  UNL     1     -37.846  13.967  -5.035  1.00 20.00    -0.289 OA
HETATM   10 CL10 UNL     1     -36.385  13.826  -7.577  1.00 20.00    -0.078 Cl
HETATM   11 CL11 UNL     1     -37.509  16.779  -3.704  1.00 20.00    -0.110 Cl
ENDROOT
TORSDOF 0
ENDMDL
