MODEL 1
REMARK VINA RESULT:      -4.0      0.000      0.000
REMARK  0 active torsions:
REMARK  status: ('A' for Active; 'I' for Inactive)
ROOT
HETATM    1  C1  UNL     1     -33.943  16.443  -3.001  1.00 20.00     0.023 C 
HETATM    2  C2  UNL     1     -35.096  16.553  -2.329  1.00 20.00     0.047 C 
HETATM    3  C3  UNL     1     -34.043  15.813  -4.380  1.00 20.00     0.040 C 
HETATM    4  C4  UNL     1     -35.297  17.092  -0.962  1.00 20.00     0.076 C 
HETATM    5  C5  UNL     1     -33.379  14.432  -4.338  1.00 20.00     0.029 C 
HETATM    6  C6  UNL     1     -33.356  16.678  -5.435  1.00 20.00     0.029 C 
HETATM    7  O7  UNL     1     -36.221  16.102  -3.003  1.00 20.00    -0.305 OA
HETATM    8  P8  UNL     1     -35.878  15.705  -4.554  1.00 20.00     0.165 P 
HETATM    9  S9  UNL     1     -36.747  14.135  -5.274  1.00 20.00    -0.049 SA
HETATM   10 CL10 UNL     1     -36.494  17.367  -5.508  1.00 20.00    -0.054 Cl
ENDROOT
TORSDOF 0
ENDMDL
MODEL 2
REMARK VINA RESULT:      -3.6      2.276      3.483
REMARK  0 active torsions:
REMARK  status: ('A' for Active; 'I' for Inactive)
ROOT
HETATM    1  C1  UNL     1     -33.529  16.630  -5.426  1.00 20.00     0.023 C 
HETATM    2  C2  UNL     1     -34.204  16.983  -6.528  1.00 20.00     0.047 C 
HETATM    3  C3  UNL     1     -34.055  15.403  -4.700  1.00 20.00     0.040 C 
HETATM    4  C4  UNL     1     -33.943  18.145  -7.412  1.00 20.00     0.076 C 
HETATM    5  C5  UNL     1     -34.675  15.848  -3.370  1.00 20.00     0.029 C 
HETATM    6  C6  UNL     1     -32.936  14.399  -4.430  1.00 20.00     0.029 C 
HETATM    7  O7  UNL     1     -35.268  16.158  -6.863  1.00 20.00    -0.305 OA
HETATM    8  P8  UNL     1     -35.324  14.829  -5.910  1.00 20.00     0.165 P 
HETATM    9  S9  UNL     1     -37.073  14.222  -5.349  1.00 20.00    -0.049 SA
HETATM   10 CL10 UNL     1     -34.447  13.473  -7.111  1.00 20.00    -0.054 Cl
ENDROOT
TORSDOF 0
ENDMDL
MODEL 3
REMARK VINA RESULT:      -3.6      2.940      3.643
REMARK  0 active torsions:
REMARK  status: ('A' for Active; 'I' for Inactive)
ROOT
HETATM    1  C1  UNL     1     -33.488  16.387  -3.290  1.00 20.00     0.023 C 
HETATM    2  C2  UNL     1     -34.606  15.674  -3.482  1.00 20.00     0.047 C 
HETATM    3  C3  UNL     1     -33.687  17.774  -2.704  1.00 20.00     0.040 C 
HETATM    4  C4  UNL     1     -34.721  14.315  -4.065  1.00 20.00     0.076 C 
HETATM    5  C5  UNL     1     -33.368  18.814  -3.785  1.00 20.00     0.029 C 
HETATM    6  C6  UNL     1     -32.780  17.999  -1.496  1.00 20.00     0.029 C 
HETATM    7  O7  UNL     1     -35.782  16.296  -3.090  1.00 20.00    -0.305 OA
HETATM    8  P8  UNL     1     -35.488  17.704  -2.307  1.00 20.00     0.165 P 
HETATM    9  S9  UNL     1     -36.677  19.183  -2.680  1.00 20.00    -0.049 SA
HETATM   10 CL10 UNL     1     -35.664  17.108  -0.393  1.00 20.00    -0.054 Cl
ENDROOT
TORSDOF 0
ENDMDL
MODEL 4
REMARK VINA RESULT:      -3.6      2.486      2.813
REMARK  0 active torsions:
REMARK  status: ('A' for Active; 'I' for Inactive)
ROOT
HETATM    1  C1  UNL     1     -34.762  15.888  -2.915  1.00 20.00     0.023 C 
HETATM    2  C2  UNL     1     -33.979  16.974  -2.962  1.00 20.00     0.047 C 
HETATM    3  C3  UNL     1     -35.458  15.524  -4.215  1.00 20.00     0.040 C 
HETATM    4  C4  UNL     1     -33.209  17.580  -1.849  1.00 20.00     0.076 C 
HETATM    5  C5  UNL     1     -36.960  15.793  -4.059  1.00 20.00     0.029 C 
HETATM    6  C6  UNL     1     -35.237  14.054  -4.568  1.00 20.00     0.029 C 
HETATM    7  O7  UNL     1     -33.895  17.592  -4.201  1.00 20.00    -0.305 OA
HETATM    8  P8  UNL     1     -34.646  16.718  -5.363  1.00 20.00     0.165 P 
HETATM    9  S9  UNL     1     -35.648  17.701  -6.694  1.00 20.00    -0.049 SA
HETATM   10 CL10 UNL     1     -33.073  15.781  -6.199  1.00 20.00    -0.054 Cl
ENDROOT
TORSDOF 0
ENDMDL
MODEL 5
REMARK VINA RESULT:      -3.5      2.669      3.027
REMARK  0 active torsions:
REMARK  status: ('A' for Active; 'I' for Inactive)
ROOT
HETATM    1  C1  UNL     1     -35.904  16.942  -2.746  1.00 20.00     0.023 C 
HETATM    2  C2  UNL     1     -34.645  16.940  -2.290  1.00 20.00     0.047 C 
HETATM    3  C3  UNL     1     -36.091  16.420  -4.160  1.00 20.00     0.040 C 
HETATM    4  C4  UNL     1     -34.161  17.418  -0.972  1.00 20.00     0.076 C 
HETATM    5  C5  UNL     1     -36.467  17.595  -5.071  1.00 20.00     0.029 C 
HETATM    6  C6  UNL     1     -37.188  15.358  -4.218  1.00 20.00     0.029 C 
HETATM    7  O7  UNL     1     -33.696  16.434  -3.167  1.00 20.00    -0.305 OA
HETATM    8  P8  UNL     1     -34.392  15.784  -4.498  1.00 20.00     0.165 P 
HETATM    9  S9  UNL     1     -33.504  16.085  -6.190  1.00 20.00    -0.049 SA
HETATM   10 CL10 UNL     1     -34.368  13.831  -4.015  1.00 20.00    -0.054 Cl
ENDROOT
TORSDOF 0
ENDMDL
MODEL 6
REMARK VINA RESULT:      -3.5      2.941      3.257
REMARK  0 active torsions:
REMARK  status: ('A' for Active; 'I' for Inactive)
ROOT
HETATM    1  C1  UNL     1     -35.357  14.593  -5.053  1.00 20.00     0.023 C 
HETATM    2  C2  UNL     1     -36.378  15.357  -4.644  1.00 20.00     0.047 C 
HETATM    3  C3  UNL     1     -33.996  15.269  -5.066  1.00 20.00     0.040 C 
HETATM    4  C4  UNL     1     -37.810  14.979  -4.560  1.00 20.00     0.076 C 
HETATM    5  C5  UNL     1     -33.560  15.466  -6.523  1.00 20.00     0.029 C 
HETATM    6  C6  UNL     1     -32.953  14.429  -4.331  1.00 20.00     0.029 C 
HETATM    7  O7  UNL     1     -36.040  16.647  -4.264  1.00 20.00    -0.305 OA
HETATM    8  P8  UNL     1     -34.418  16.863  -4.238  1.00 20.00     0.165 P 
HETATM    9  S9  UNL     1     -33.745  18.559  -4.879  1.00 20.00    -0.049 SA
HETATM   10 CL10 UNL     1     -34.044  16.642  -2.273  1.00 20.00    -0.054 Cl
ENDROOT
TORSDOF 0
ENDMDL
MODEL 7
REMARK VINA RESULT:      -3.5      2.130      2.332
REMARK  0 active torsions:
REMARK  status: ('A' for Active; 'I' for Inactive)
ROOT
HETATM    1  C1  UNL     1     -34.644  14.969  -3.979  1.00 20.00     0.023 C 
HETATM    2  C2  UNL     1     -34.737  16.211  -3.489  1.00 20.00     0.047 C 
HETATM    3  C3  UNL     1     -35.250  14.758  -5.356  1.00 20.00     0.040 C 
HETATM    4  C4  UNL     1     -34.269  16.699  -2.169  1.00 20.00     0.076 C 
HETATM    5  C5  UNL     1     -36.506  13.891  -5.212  1.00 20.00     0.029 C 
HETATM    6  C6  UNL     1     -34.261  14.072  -6.296  1.00 20.00     0.029 C 
HETATM    7  O7  UNL     1     -35.349  17.135  -4.325  1.00 20.00    -0.305 OA
HETATM    8  P8  UNL     1     -35.648  16.504  -5.805  1.00 20.00     0.165 P 
HETATM    9  S9  UNL     1     -37.321  16.988  -6.645  1.00 20.00    -0.049 SA
HETATM   10 CL10 UNL     1     -34.087  17.234  -6.844  1.00 20.00    -0.054 Cl
ENDROOT
TORSDOF 0
ENDMDL
MODEL 8
REMARK VINA RESULT:      -3.4      3.204      4.134
REMARK  0 active torsions:
REMARK  status: ('A' for Active; 'I' for Inactive)
ROOT
HETATM    1  C1  UNL     1     -35.661  16.313  -3.026  1.00 20.00     0.023 C 
HETATM    2  C2  UNL     1     -34.549  15.670  -3.404  1.00 20.00     0.047 C 
HETATM    3  C3  UNL     1     -35.444  17.612  -2.269  1.00 20.00     0.040 C 
HETATM    4  C4  UNL     1     -34.454  14.376  -4.121  1.00 20.00     0.076 C 
HETATM    5  C5  UNL     1     -35.868  17.406  -0.810  1.00 20.00     0.029 C 
HETATM    6  C6  UNL     1     -36.258  18.751  -2.880  1.00 20.00     0.029 C 
HETATM    7  O7  UNL     1     -33.358  16.300  -3.074  1.00 20.00    -0.305 OA
HETATM    8  P8  UNL     1     -33.617  17.791  -2.451  1.00 20.00     0.165 P 
HETATM    9  S9  UNL     1     -32.490  18.337  -0.977  1.00 20.00    -0.049 SA
HETATM   10 CL10 UNL     1     -33.279  18.935  -4.072  1.00 20.00    -0.054 Cl
ENDROOT
TORSDOF 0
ENDMDL
MODEL 9
REMARK VINA RESULT:      -3.4      2.704      3.001
REMARK  0 active torsions:
REMARK  status: ('A' for Active; 'I' for Inactive)
ROOT
HETATM    1  C1  UNL     1     -36.156  15.568  -3.399  1.00 20.00     0.023 C 
HETATM    2  C2  UNL     1     -35.319  16.454  -2.843  1.00 20.00     0.047 C 
HETATM    3  C3  UNL     1     -35.889  15.240  -4.858  1.00 20.00     0.040 C 
HETATM    4  C4  UNL     1     -35.356  16.985  -1.459  1.00 20.00     0.076 C 
HETATM    5  C5  UNL     1     -37.017  15.835  -5.710  1.00 20.00     0.029 C 
HETATM    6  C6  UNL     1     -35.823  13.730  -5.082  1.00 20.00     0.029 C 
HETATM    7  O7  UNL     1     -34.311  16.921  -3.673  1.00 20.00    -0.305 OA
HETATM    8  P8  UNL     1     -34.286  16.121  -5.101  1.00 20.00     0.165 P 
HETATM    9  S9  UNL     1     -33.921  17.164  -6.688  1.00 20.00    -0.049 SA
HETATM   10 CL10 UNL     1     -32.809  14.797  -4.760  1.00 20.00    -0.054 Cl
ENDROOT
TORSDOF 0
ENDMDL
