MODEL 1
REMARK VINA RESULT:      -5.5      0.000      0.000
REMARK  2 active torsions:
REMARK  status: ('A' for Active; 'I' for Inactive)
REMARK    1  A    between atoms: C3_3  and  C4_4 
REMARK    2  A    between atoms: C5_5  and  C9_9 
ROOT
HETATM    1  C1  UNL     1     -33.937   6.709   5.759  1.00 20.00    -0.024 C 
HETATM    2  C2  UNL     1     -34.421   5.517   5.375  1.00 20.00    -0.087 C 
HETATM    3  C6  UNL     1     -33.295   7.691   4.821  1.00 20.00     0.036 C 
HETATM    4  C7  UNL     1     -34.326   5.041   3.946  1.00 20.00     0.034 C 
HETATM    5  C8  UNL     1     -33.364   5.866   3.086  1.00 20.00     0.013 C 
HETATM    6  C9  UNL     1     -33.543   7.369   3.338  1.00 20.00     0.018 C 
HETATM    7  C10 UNL     1     -35.090   4.583   6.339  1.00 20.00     0.043 C 
ENDROOT
BRANCH   6   8
HETATM    8  C5  UNL     1     -32.640   8.179   2.457  1.00 20.00    -0.076 C 
HETATM    9  C3  UNL     1     -32.933   8.657   1.235  1.00 20.00     0.044 C 
HETATM   10  C11 UNL     1     -31.283   8.448   3.057  1.00 20.00     0.044 C 
BRANCH   9  11
HETATM   11  C4  UNL     1     -32.020   9.453   0.387  1.00 20.00     0.259 C 
HETATM   12  O12 UNL     1     -32.068  10.678   0.366  1.00 20.00    -0.302 OA
ENDBRANCH   9  11
ENDBRANCH   6   8
TORSDOF 2
ENDMDL
MODEL 2
REMARK VINA RESULT:      -5.5     10.890     11.675
REMARK  2 active torsions:
REMARK  status: ('A' for Active; 'I' for Inactive)
REMARK    1  A    between atoms: C3_3  and  C4_4 
REMARK    2  A    between atoms: C5_5  and  C9_9 
ROOT
HETATM    1  C1  UNL     1     -34.916  17.850  -0.322  1.00 20.00    -0.024 C 
HETATM    2  C2  UNL     1     -33.672  18.342  -0.441  1.00 20.00    -0.087 C 
HETATM    3  C6  UNL     1     -35.542  16.912  -1.314  1.00 20.00     0.036 C 
HETATM    4  C7  UNL     1     -32.796  18.015  -1.625  1.00 20.00     0.034 C 
HETATM    5  C8  UNL     1     -33.553  17.370  -2.791  1.00 20.00     0.013 C 
HETATM    6  C9  UNL     1     -34.529  16.296  -2.294  1.00 20.00     0.018 C 
HETATM    7  C10 UNL     1     -33.073  19.246   0.595  1.00 20.00     0.043 C 
ENDROOT
BRANCH   6   8
HETATM    8  C5  UNL     1     -35.229  15.627  -3.438  1.00 20.00    -0.076 C 
HETATM    9  C3  UNL     1     -34.782  14.574  -4.144  1.00 20.00     0.044 C 
HETATM   10  C11 UNL     1     -36.560  16.245  -3.782  1.00 20.00     0.044 C 
BRANCH   9  11
HETATM   11  C4  UNL     1     -35.496  13.935  -5.270  1.00 20.00     0.259 C 
HETATM   12  O12 UNL     1     -35.892  12.776  -5.205  1.00 20.00    -0.302 OA
ENDBRANCH   9  11
ENDBRANCH   6   8
TORSDOF 2
ENDMDL
MODEL 3
REMARK VINA RESULT:      -5.3     10.917     11.615
REMARK  2 active torsions:
REMARK  status: ('A' for Active; 'I' for Inactive)
REMARK    1  A    between atoms: C3_3  and  C4_4 
REMARK    2  A    between atoms: C5_5  and  C9_9 
ROOT
HETATM    1  C1  UNL     1     -35.295  17.493  -0.618  1.00 20.00    -0.024 C 
HETATM    2  C2  UNL     1     -34.180  18.175  -0.311  1.00 20.00    -0.087 C 
HETATM    3  C6  UNL     1     -35.428  16.611  -1.827  1.00 20.00     0.036 C 
HETATM    4  C7  UNL     1     -32.956  18.139  -1.192  1.00 20.00     0.034 C 
HETATM    5  C8  UNL     1     -33.215  17.548  -2.581  1.00 20.00     0.013 C 
HETATM    6  C9  UNL     1     -34.082  16.285  -2.495  1.00 20.00     0.018 C 
HETATM    7  C10 UNL     1     -34.078  19.014   0.929  1.00 20.00     0.043 C 
ENDROOT
BRANCH   6   8
HETATM    8  C5  UNL     1     -34.290  15.676  -3.849  1.00 20.00    -0.076 C 
HETATM    9  C3  UNL     1     -34.996  14.566  -4.127  1.00 20.00     0.044 C 
HETATM   10  C11 UNL     1     -33.616  16.431  -4.967  1.00 20.00     0.044 C 
BRANCH   9  11
HETATM   11  C4  UNL     1     -35.183  13.987  -5.475  1.00 20.00     0.259 C 
HETATM   12  O12 UNL     1     -35.603  12.846  -5.632  1.00 20.00    -0.302 OA
ENDBRANCH   9  11
ENDBRANCH   6   8
TORSDOF 2
ENDMDL
MODEL 4
REMARK VINA RESULT:      -5.2     10.954     11.802
REMARK  2 active torsions:
REMARK  status: ('A' for Active; 'I' for Inactive)
REMARK    1  A    between atoms: C3_3  and  C4_4 
REMARK    2  A    between atoms: C5_5  and  C9_9 
ROOT
HETATM    1  C1  UNL     1     -32.838  17.844  -1.438  1.00 20.00    -0.024 C 
HETATM    2  C2  UNL     1     -33.589  18.300  -0.421  1.00 20.00    -0.087 C 
HETATM    3  C6  UNL     1     -33.372  16.992  -2.553  1.00 20.00     0.036 C 
HETATM    4  C7  UNL     1     -35.052  17.956  -0.296  1.00 20.00     0.034 C 
HETATM    5  C8  UNL     1     -35.496  16.812  -1.212  1.00 20.00     0.013 C 
HETATM    6  C9  UNL     1     -34.908  16.967  -2.620  1.00 20.00     0.018 C 
HETATM    7  C10 UNL     1     -33.022  19.182   0.652  1.00 20.00     0.043 C 
ENDROOT
BRANCH   6   8
HETATM    8  C5  UNL     1     -35.387  15.877  -3.532  1.00 20.00    -0.076 C 
HETATM    9  C3  UNL     1     -36.636  15.722  -4.005  1.00 20.00     0.044 C 
HETATM   10  C11 UNL     1     -34.314  14.891  -3.918  1.00 20.00     0.044 C 
BRANCH   9  11
HETATM   11  C4  UNL     1     -37.079  14.635  -4.904  1.00 20.00     0.259 C 
HETATM   12  O12 UNL     1     -38.164  14.082  -4.757  1.00 20.00    -0.302 OA
ENDBRANCH   9  11
ENDBRANCH   6   8
TORSDOF 2
ENDMDL
MODEL 5
REMARK VINA RESULT:      -5.1     11.067     11.729
REMARK  2 active torsions:
REMARK  status: ('A' for Active; 'I' for Inactive)
REMARK    1  A    between atoms: C3_3  and  C4_4 
REMARK    2  A    between atoms: C5_5  and  C9_9 
ROOT
HETATM    1  C1  UNL     1     -34.712  14.867  -4.674  1.00 20.00    -0.024 C 
HETATM    2  C2  UNL     1     -36.041  14.886  -4.869  1.00 20.00    -0.087 C 
HETATM    3  C6  UNL     1     -34.020  15.608  -3.567  1.00 20.00     0.036 C 
HETATM    4  C7  UNL     1     -36.963  15.698  -3.994  1.00 20.00     0.034 C 
HETATM    5  C8  UNL     1     -36.234  16.721  -3.115  1.00 20.00     0.013 C 
HETATM    6  C9  UNL     1     -34.980  16.110  -2.476  1.00 20.00     0.018 C 
HETATM    7  C10 UNL     1     -36.695  14.098  -5.965  1.00 20.00     0.043 C 
ENDROOT
BRANCH   6   8
HETATM    8  C5  UNL     1     -34.298  17.094  -1.574  1.00 20.00    -0.076 C 
HETATM    9  C3  UNL     1     -33.049  17.573  -1.711  1.00 20.00     0.044 C 
HETATM   10  C11 UNL     1     -35.149  17.552  -0.416  1.00 20.00     0.044 C 
BRANCH   9  11
HETATM   11  C4  UNL     1     -32.402  18.544  -0.803  1.00 20.00     0.259 C 
HETATM   12  O12 UNL     1     -31.261  18.372  -0.387  1.00 20.00    -0.302 OA
ENDBRANCH   9  11
ENDBRANCH   6   8
TORSDOF 2
ENDMDL
MODEL 6
REMARK VINA RESULT:      -5.0     11.027     11.658
REMARK  2 active torsions:
REMARK  status: ('A' for Active; 'I' for Inactive)
REMARK    1  A    between atoms: C3_3  and  C4_4 
REMARK    2  A    between atoms: C5_5  and  C9_9 
ROOT
HETATM    1  C1  UNL     1     -36.211  14.935  -4.392  1.00 20.00    -0.024 C 
HETATM    2  C2  UNL     1     -35.316  14.379  -5.224  1.00 20.00    -0.087 C 
HETATM    3  C6  UNL     1     -35.848  15.891  -3.292  1.00 20.00     0.036 C 
HETATM    4  C7  UNL     1     -33.837  14.647  -5.097  1.00 20.00     0.034 C 
HETATM    5  C8  UNL     1     -33.444  15.315  -3.775  1.00 20.00     0.013 C 
HETATM    6  C9  UNL     1     -34.418  16.443  -3.412  1.00 20.00     0.018 C 
HETATM    7  C10 UNL     1     -35.727  13.458  -6.335  1.00 20.00     0.043 C 
ENDROOT
BRANCH   6   8
HETATM    8  C5  UNL     1     -34.002  17.133  -2.148  1.00 20.00    -0.076 C 
HETATM    9  C3  UNL     1     -32.827  17.745  -1.919  1.00 20.00     0.044 C 
HETATM   10  C11 UNL     1     -35.049  17.101  -1.064  1.00 20.00     0.044 C 
BRANCH   9  11
HETATM   11  C4  UNL     1     -32.444  18.418  -0.659  1.00 20.00     0.259 C 
HETATM   12  O12 UNL     1     -31.282  18.440  -0.270  1.00 20.00    -0.302 OA
ENDBRANCH   9  11
ENDBRANCH   6   8
TORSDOF 2
ENDMDL
MODEL 7
REMARK VINA RESULT:      -5.0     11.112     11.954
REMARK  2 active torsions:
REMARK  status: ('A' for Active; 'I' for Inactive)
REMARK    1  A    between atoms: C3_3  and  C4_4 
REMARK    2  A    between atoms: C5_5  and  C9_9 
ROOT
HETATM    1  C1  UNL     1     -33.439  15.547  -5.857  1.00 20.00    -0.024 C 
HETATM    2  C2  UNL     1     -34.313  14.554  -6.094  1.00 20.00    -0.087 C 
HETATM    3  C6  UNL     1     -33.393  16.331  -4.578  1.00 20.00     0.036 C 
HETATM    4  C7  UNL     1     -35.364  14.162  -5.086  1.00 20.00     0.034 C 
HETATM    5  C8  UNL     1     -35.549  15.183  -3.960  1.00 20.00     0.013 C 
HETATM    6  C9  UNL     1     -34.196  15.684  -3.437  1.00 20.00     0.018 C 
HETATM    7  C10 UNL     1     -34.298  13.771  -7.373  1.00 20.00     0.043 C 
ENDROOT
BRANCH   6   8
HETATM    8  C5  UNL     1     -34.375  16.642  -2.298  1.00 20.00    -0.076 C 
HETATM    9  C3  UNL     1     -35.487  16.807  -1.558  1.00 20.00     0.044 C 
HETATM   10  C11 UNL     1     -33.153  17.473  -2.002  1.00 20.00     0.044 C 
BRANCH   9  11
HETATM   11  C4  UNL     1     -35.634  17.762  -0.439  1.00 20.00     0.259 C 
HETATM   12  O12 UNL     1     -35.704  17.382   0.724  1.00 20.00    -0.302 OA
ENDBRANCH   9  11
ENDBRANCH   6   8
TORSDOF 2
ENDMDL
MODEL 8
REMARK VINA RESULT:      -4.9     11.230     11.792
REMARK  2 active torsions:
REMARK  status: ('A' for Active; 'I' for Inactive)
REMARK    1  A    between atoms: C3_3  and  C4_4 
REMARK    2  A    between atoms: C5_5  and  C9_9 
ROOT
HETATM    1  C1  UNL     1     -35.081  17.705   0.027  1.00 20.00    -0.024 C 
HETATM    2  C2  UNL     1     -33.942  18.357   0.312  1.00 20.00    -0.087 C 
HETATM    3  C6  UNL     1     -35.311  16.945  -1.247  1.00 20.00     0.036 C 
HETATM    4  C7  UNL     1     -32.790  18.410  -0.660  1.00 20.00     0.034 C 
HETATM    5  C8  UNL     1     -33.158  17.956  -2.076  1.00 20.00     0.013 C 
HETATM    6  C9  UNL     1     -34.022  16.689  -2.046  1.00 20.00     0.018 C 
HETATM    7  C10 UNL     1     -33.741  19.071   1.616  1.00 20.00     0.043 C 
ENDROOT
BRANCH   6   8
HETATM    8  C5  UNL     1     -34.337  16.214  -3.433  1.00 20.00    -0.076 C 
HETATM    9  C3  UNL     1     -33.457  16.020  -4.431  1.00 20.00     0.044 C 
HETATM   10  C11 UNL     1     -35.802  15.946  -3.667  1.00 20.00     0.044 C 
BRANCH   9  11
HETATM   11  C4  UNL     1     -33.798  15.550  -5.791  1.00 20.00     0.259 C 
HETATM   12  O12 UNL     1     -33.323  16.079  -6.791  1.00 20.00    -0.302 OA
ENDBRANCH   9  11
ENDBRANCH   6   8
TORSDOF 2
ENDMDL
MODEL 9
REMARK VINA RESULT:      -4.6     11.370     11.978
REMARK  2 active torsions:
REMARK  status: ('A' for Active; 'I' for Inactive)
REMARK    1  A    between atoms: C3_3  and  C4_4 
REMARK    2  A    between atoms: C5_5  and  C9_9 
ROOT
HETATM    1  C1  UNL     1     -33.522  16.858  -2.284  1.00 20.00    -0.024 C 
HETATM    2  C2  UNL     1     -34.593  17.232  -1.565  1.00 20.00    -0.087 C 
HETATM    3  C6  UNL     1     -33.607  16.267  -3.662  1.00 20.00     0.036 C 
HETATM    4  C7  UNL     1     -36.000  17.052  -2.079  1.00 20.00     0.034 C 
HETATM    5  C8  UNL     1     -36.096  16.132  -3.300  1.00 20.00     0.013 C 
HETATM    6  C9  UNL     1     -34.988  16.439  -4.316  1.00 20.00     0.018 C 
HETATM    7  C10 UNL     1     -34.460  17.855  -0.207  1.00 20.00     0.043 C 
ENDROOT
BRANCH   6   8
HETATM    8  C5  UNL     1     -35.115  15.576  -5.535  1.00 20.00    -0.076 C 
HETATM    9  C3  UNL     1     -34.733  14.292  -5.649  1.00 20.00     0.044 C 
HETATM   10  C11 UNL     1     -35.741  16.276  -6.714  1.00 20.00     0.044 C 
BRANCH   9  11
HETATM   11  C4  UNL     1     -34.871  13.465  -6.867  1.00 20.00     0.259 C 
HETATM   12  O12 UNL     1     -35.073  12.257  -6.804  1.00 20.00    -0.302 OA
ENDBRANCH   9  11
ENDBRANCH   6   8
TORSDOF 2
ENDMDL
