MODEL 1
REMARK VINA RESULT:      -4.4      0.000      0.000
REMARK  0 active torsions:
REMARK  status: ('A' for Active; 'I' for Inactive)
ROOT
HETATM    1  C1  UNL     1     -33.130   6.813   3.471  1.00 20.00    -0.071 C 
HETATM    2  C2  UNL     1     -32.042   7.450   3.024  1.00 20.00    -0.027 C 
HETATM    3  C3  UNL     1     -33.711   6.169   5.782  1.00 20.00     0.009 C 
HETATM    4  C4  UNL     1     -34.487   4.946   5.256  1.00 20.00     0.006 C 
HETATM    5  C5  UNL     1     -35.352   6.872   4.208  1.00 20.00     0.014 C 
HETATM    6  C6  UNL     1     -33.943   7.221   4.685  1.00 20.00     0.015 C 
HETATM    7  C7  UNL     1     -34.982   5.418   3.870  1.00 20.00    -0.002 C 
HETATM    8  C8  UNL     1     -33.807   5.595   2.851  1.00 20.00    -0.021 C 
HETATM    9  C9  UNL     1     -31.466   8.669   3.666  1.00 20.00     0.036 C 
HETATM   10  C10 UNL     1     -32.878   4.375   2.773  1.00 20.00     0.020 C 
HETATM   11  C11 UNL     1     -34.345   5.892   1.439  1.00 20.00     0.020 C 
ENDROOT
TORSDOF 0
ENDMDL
MODEL 2
REMARK VINA RESULT:      -4.4     11.446     12.821
REMARK  0 active torsions:
REMARK  status: ('A' for Active; 'I' for Inactive)
ROOT
HETATM    1  C1  UNL     1     -35.488  16.075  -3.514  1.00 20.00    -0.071 C 
HETATM    2  C2  UNL     1     -35.843  16.821  -2.462  1.00 20.00    -0.027 C 
HETATM    3  C3  UNL     1     -33.323  15.995  -4.698  1.00 20.00     0.009 C 
HETATM    4  C4  UNL     1     -34.044  15.644  -6.013  1.00 20.00     0.006 C 
HETATM    5  C5  UNL     1     -34.673  14.060  -4.385  1.00 20.00     0.014 C 
HETATM    6  C6  UNL     1     -34.189  15.300  -3.635  1.00 20.00     0.015 C 
HETATM    7  C7  UNL     1     -35.295  14.877  -5.529  1.00 20.00    -0.002 C 
HETATM    8  C8  UNL     1     -36.304  15.805  -4.773  1.00 20.00    -0.021 C 
HETATM    9  C9  UNL     1     -35.002  16.998  -1.242  1.00 20.00     0.036 C 
HETATM   10  C10 UNL     1     -36.647  17.088  -5.544  1.00 20.00     0.020 C 
HETATM   11  C11 UNL     1     -37.613  15.056  -4.462  1.00 20.00     0.020 C 
ENDROOT
TORSDOF 0
ENDMDL
MODEL 3
REMARK VINA RESULT:      -4.3     11.632     13.238
REMARK  0 active torsions:
REMARK  status: ('A' for Active; 'I' for Inactive)
ROOT
HETATM    1  C1  UNL     1     -35.442  15.280  -5.405  1.00 20.00    -0.071 C 
HETATM    2  C2  UNL     1     -36.667  15.110  -5.913  1.00 20.00    -0.027 C 
HETATM    3  C3  UNL     1     -34.790  15.974  -3.127  1.00 20.00     0.009 C 
HETATM    4  C4  UNL     1     -33.519  16.643  -3.683  1.00 20.00     0.006 C 
HETATM    5  C5  UNL     1     -33.531  14.392  -4.382  1.00 20.00     0.014 C 
HETATM    6  C6  UNL     1     -34.977  14.764  -4.056  1.00 20.00     0.015 C 
HETATM    7  C7  UNL     1     -33.194  15.789  -4.929  1.00 20.00    -0.002 C 
HETATM    8  C8  UNL     1     -34.255  15.972  -6.066  1.00 20.00    -0.021 C 
HETATM    9  C9  UNL     1     -37.765  14.377  -5.217  1.00 20.00     0.036 C 
HETATM   10  C10 UNL     1     -34.539  17.444  -6.404  1.00 20.00     0.020 C 
HETATM   11  C11 UNL     1     -33.811  15.252  -7.353  1.00 20.00     0.020 C 
ENDROOT
TORSDOF 0
ENDMDL
MODEL 4
REMARK VINA RESULT:      -4.2     11.716     13.298
REMARK  0 active torsions:
REMARK  status: ('A' for Active; 'I' for Inactive)
ROOT
HETATM    1  C1  UNL     1     -34.260  16.440  -3.700  1.00 20.00    -0.071 C 
HETATM    2  C2  UNL     1     -34.121  16.602  -2.380  1.00 20.00    -0.027 C 
HETATM    3  C3  UNL     1     -34.576  18.155  -5.448  1.00 20.00     0.009 C 
HETATM    4  C4  UNL     1     -35.394  17.159  -6.291  1.00 20.00     0.006 C 
HETATM    5  C5  UNL     1     -33.303  16.179  -5.821  1.00 20.00     0.014 C 
HETATM    6  C6  UNL     1     -33.539  17.253  -4.759  1.00 20.00     0.015 C 
HETATM    7  C7  UNL     1     -34.788  15.792  -5.899  1.00 20.00    -0.002 C 
HETATM    8  C8  UNL     1     -35.115  15.402  -4.419  1.00 20.00    -0.021 C 
HETATM    9  C9  UNL     1     -33.225  17.618  -1.753  1.00 20.00     0.036 C 
HETATM   10  C10 UNL     1     -36.607  15.519  -4.072  1.00 20.00     0.020 C 
HETATM   11  C11 UNL     1     -34.654  13.965  -4.114  1.00 20.00     0.020 C 
ENDROOT
TORSDOF 0
ENDMDL
MODEL 5
REMARK VINA RESULT:      -4.2     11.662     13.095
REMARK  0 active torsions:
REMARK  status: ('A' for Active; 'I' for Inactive)
ROOT
HETATM    1  C1  UNL     1     -34.244  16.174  -5.400  1.00 20.00    -0.071 C 
HETATM    2  C2  UNL     1     -33.913  16.090  -6.692  1.00 20.00    -0.027 C 
HETATM    3  C3  UNL     1     -33.566  17.861  -3.730  1.00 20.00     0.009 C 
HETATM    4  C4  UNL     1     -33.656  16.806  -2.612  1.00 20.00     0.006 C 
HETATM    5  C5  UNL     1     -35.730  16.871  -3.729  1.00 20.00     0.014 C 
HETATM    6  C6  UNL     1     -34.688  17.440  -4.692  1.00 20.00     0.015 C 
HETATM    7  C7  UNL     1     -34.754  15.848  -3.126  1.00 20.00    -0.002 C 
HETATM    8  C8  UNL     1     -34.292  15.037  -4.383  1.00 20.00    -0.021 C 
HETATM    9  C9  UNL     1     -33.935  17.247  -7.636  1.00 20.00     0.036 C 
HETATM   10  C10 UNL     1     -32.932  14.348  -4.199  1.00 20.00     0.020 C 
HETATM   11  C11 UNL     1     -35.335  13.970  -4.762  1.00 20.00     0.020 C 
ENDROOT
TORSDOF 0
ENDMDL
MODEL 6
REMARK VINA RESULT:      -4.2     11.739     13.227
REMARK  0 active torsions:
REMARK  status: ('A' for Active; 'I' for Inactive)
ROOT
HETATM    1  C1  UNL     1     -34.675  15.560  -6.058  1.00 20.00    -0.071 C 
HETATM    2  C2  UNL     1     -33.977  16.643  -6.416  1.00 20.00    -0.027 C 
HETATM    3  C3  UNL     1     -37.046  15.027  -6.498  1.00 20.00     0.009 C 
HETATM    4  C4  UNL     1     -37.121  14.229  -5.182  1.00 20.00     0.006 C 
HETATM    5  C5  UNL     1     -35.351  13.356  -6.472  1.00 20.00     0.014 C 
HETATM    6  C6  UNL     1     -35.603  14.779  -6.969  1.00 20.00     0.015 C 
HETATM    7  C7  UNL     1     -35.676  13.706  -5.010  1.00 20.00    -0.002 C 
HETATM    8  C8  UNL     1     -34.662  14.859  -4.704  1.00 20.00    -0.021 C 
HETATM    9  C9  UNL     1     -34.012  17.244  -7.782  1.00 20.00     0.036 C 
HETATM   10  C10 UNL     1     -35.109  15.776  -3.556  1.00 20.00     0.020 C 
HETATM   11  C11 UNL     1     -33.272  14.291  -4.363  1.00 20.00     0.020 C 
ENDROOT
TORSDOF 0
ENDMDL
MODEL 7
REMARK VINA RESULT:      -4.2     11.551     13.099
REMARK  0 active torsions:
REMARK  status: ('A' for Active; 'I' for Inactive)
ROOT
HETATM    1  C1  UNL     1     -34.413  16.442  -5.122  1.00 20.00    -0.071 C 
HETATM    2  C2  UNL     1     -34.494  17.686  -5.607  1.00 20.00    -0.027 C 
HETATM    3  C3  UNL     1     -35.030  14.311  -6.205  1.00 20.00     0.009 C 
HETATM    4  C4  UNL     1     -35.387  13.706  -4.835  1.00 20.00     0.006 C 
HETATM    5  C5  UNL     1     -33.169  14.496  -4.733  1.00 20.00     0.014 C 
HETATM    6  C6  UNL     1     -33.856  15.247  -5.873  1.00 20.00     0.015 C 
HETATM    7  C7  UNL     1     -34.439  14.452  -3.868  1.00 20.00    -0.002 C 
HETATM    8  C8  UNL     1     -34.808  15.967  -3.728  1.00 20.00    -0.021 C 
HETATM    9  C9  UNL     1     -34.042  18.079  -6.974  1.00 20.00     0.036 C 
HETATM   10  C10 UNL     1     -36.293  16.207  -3.418  1.00 20.00     0.020 C 
HETATM   11  C11 UNL     1     -33.963  16.638  -2.629  1.00 20.00     0.020 C 
ENDROOT
TORSDOF 0
ENDMDL
MODEL 8
REMARK VINA RESULT:      -4.1     11.387     12.745
REMARK  0 active torsions:
REMARK  status: ('A' for Active; 'I' for Inactive)
ROOT
HETATM    1  C1  UNL     1     -35.270  16.203  -3.445  1.00 20.00    -0.071 C 
HETATM    2  C2  UNL     1     -34.812  16.460  -2.215  1.00 20.00    -0.027 C 
HETATM    3  C3  UNL     1     -37.491  15.368  -4.129  1.00 20.00     0.009 C 
HETATM    4  C4  UNL     1     -36.862  14.661  -5.344  1.00 20.00     0.006 C 
HETATM    5  C5  UNL     1     -36.268  16.940  -5.431  1.00 20.00     0.014 C 
HETATM    6  C6  UNL     1     -36.625  16.629  -3.978  1.00 20.00     0.015 C 
HETATM    7  C7  UNL     1     -35.646  15.555  -5.675  1.00 20.00    -0.002 C 
HETATM    8  C8  UNL     1     -34.538  15.481  -4.572  1.00 20.00    -0.021 C 
HETATM    9  C9  UNL     1     -35.578  17.215  -1.180  1.00 20.00     0.036 C 
HETATM   10  C10 UNL     1     -34.143  14.045  -4.199  1.00 20.00     0.020 C 
HETATM   11  C11 UNL     1     -33.272  16.238  -5.013  1.00 20.00     0.020 C 
ENDROOT
TORSDOF 0
ENDMDL
MODEL 9
REMARK VINA RESULT:      -4.1     11.741     13.120
REMARK  0 active torsions:
REMARK  status: ('A' for Active; 'I' for Inactive)
ROOT
HETATM    1  C1  UNL     1     -35.422  15.886  -5.835  1.00 20.00    -0.071 C 
HETATM    2  C2  UNL     1     -35.941  16.565  -6.864  1.00 20.00    -0.027 C 
HETATM    3  C3  UNL     1     -33.096  15.858  -5.009  1.00 20.00     0.009 C 
HETATM    4  C4  UNL     1     -33.272  14.404  -4.532  1.00 20.00     0.006 C 
HETATM    5  C5  UNL     1     -34.966  15.712  -3.545  1.00 20.00     0.014 C 
HETATM    6  C6  UNL     1     -34.491  16.465  -4.787  1.00 20.00     0.015 C 
HETATM    7  C7  UNL     1     -34.778  14.330  -4.192  1.00 20.00    -0.002 C 
HETATM    8  C8  UNL     1     -35.679  14.427  -5.468  1.00 20.00    -0.021 C 
HETATM    9  C9  UNL     1     -35.674  18.010  -7.129  1.00 20.00     0.036 C 
HETATM   10  C10 UNL     1     -35.266  13.454  -6.582  1.00 20.00     0.020 C 
HETATM   11  C11 UNL     1     -37.157  14.173  -5.119  1.00 20.00     0.020 C 
ENDROOT
TORSDOF 0
ENDMDL
