MODEL 1
REMARK VINA RESULT:      -5.0      0.000      0.000
REMARK  2 active torsions:
REMARK  status: ('A' for Active; 'I' for Inactive)
REMARK    1  A    between atoms: C2_2  and  O6_6 
REMARK    2  A    between atoms: C5_5  and  O6_6 
ROOT
HETATM    1  C1  UNL     1     -33.539   5.408   3.119  1.00 20.00     0.099 A 
HETATM    2  C2  UNL     1     -33.647   6.901   3.250  1.00 20.00     0.181 A 
HETATM    3  C3  UNL     1     -34.584   6.008   4.016  1.00 20.00     0.207 A 
HETATM    4  F7  UNL     1     -35.890   5.955   3.541  1.00 20.00    -0.223 F 
HETATM    5 CL8  UNL     1     -34.406   5.820   5.751  1.00 20.00    -0.080 Cl
ENDROOT
BRANCH   2   6
HETATM    6  O6  UNL     1     -32.594   7.547   3.982  1.00 20.00    -0.382 OA
BRANCH   6   7
HETATM    7  C5  UNL     1     -31.633   8.101   3.103  1.00 20.00     0.164 C 
HETATM    8  C4  UNL     1     -32.345   8.717   1.918  1.00 20.00     0.033 C 
ENDBRANCH   6   7
ENDBRANCH   2   6
TORSDOF 2
ENDMDL
MODEL 2
REMARK VINA RESULT:      -4.6      1.638      1.712
REMARK  2 active torsions:
REMARK  status: ('A' for Active; 'I' for Inactive)
REMARK    1  A    between atoms: C2_2  and  O6_6 
REMARK    2  A    between atoms: C5_5  and  O6_6 
ROOT
HETATM    1  C1  UNL     1     -35.410   6.088   3.753  1.00 20.00     0.099 A 
HETATM    2  C2  UNL     1     -34.057   6.578   4.185  1.00 20.00     0.181 A 
HETATM    3  C3  UNL     1     -34.596   5.283   4.726  1.00 20.00     0.207 A 
HETATM    4  F7  UNL     1     -35.029   5.317   6.048  1.00 20.00    -0.223 F 
HETATM    5 CL8  UNL     1     -33.925   3.753   4.192  1.00 20.00    -0.080 Cl
ENDROOT
BRANCH   2   6
HETATM    6  O6  UNL     1     -33.016   6.506   3.197  1.00 20.00    -0.382 OA
BRANCH   6   7
HETATM    7  C5  UNL     1     -32.187   7.652   3.252  1.00 20.00     0.164 C 
HETATM    8  C4  UNL     1     -32.230   8.358   1.915  1.00 20.00     0.033 C 
ENDBRANCH   6   7
ENDBRANCH   2   6
TORSDOF 2
ENDMDL
MODEL 3
REMARK VINA RESULT:      -4.3      2.186      2.887
REMARK  2 active torsions:
REMARK  status: ('A' for Active; 'I' for Inactive)
REMARK    1  A    between atoms: C2_2  and  O6_6 
REMARK    2  A    between atoms: C5_5  and  O6_6 
ROOT
HETATM    1  C1  UNL     1     -31.476   8.073   3.335  1.00 20.00     0.099 A 
HETATM    2  C2  UNL     1     -32.239   8.254   2.054  1.00 20.00     0.181 A 
HETATM    3  C3  UNL     1     -32.660   7.198   3.038  1.00 20.00     0.207 A 
HETATM    4  F7  UNL     1     -32.367   5.887   2.676  1.00 20.00    -0.223 F 
HETATM    5 CL8  UNL     1     -34.117   7.408   3.991  1.00 20.00    -0.080 Cl
ENDROOT
BRANCH   2   6
HETATM    6  O6  UNL     1     -33.044   9.440   1.963  1.00 20.00    -0.382 OA
BRANCH   6   7
HETATM    7  C5  UNL     1     -32.694  10.203   0.823  1.00 20.00     0.164 C 
HETATM    8  C4  UNL     1     -33.055   9.423  -0.423  1.00 20.00     0.033 C 
ENDBRANCH   6   7
ENDBRANCH   2   6
TORSDOF 2
ENDMDL
MODEL 4
REMARK VINA RESULT:      -4.2      3.629      4.665
REMARK  2 active torsions:
REMARK  status: ('A' for Active; 'I' for Inactive)
REMARK    1  A    between atoms: C2_2  and  O6_6 
REMARK    2  A    between atoms: C5_5  and  O6_6 
ROOT
HETATM    1  C1  UNL     1     -31.189   8.834   0.974  1.00 20.00     0.099 A 
HETATM    2  C2  UNL     1     -32.287   8.759   1.997  1.00 20.00     0.181 A 
HETATM    3  C3  UNL     1     -32.436   9.653   0.796  1.00 20.00     0.207 A 
HETATM    4  F7  UNL     1     -32.304  11.016   1.040  1.00 20.00    -0.223 F 
HETATM    5 CL8  UNL     1     -33.543   9.223  -0.495  1.00 20.00    -0.080 Cl
ENDROOT
BRANCH   2   6
HETATM    6  O6  UNL     1     -33.046   7.539   2.018  1.00 20.00    -0.382 OA
BRANCH   6   7
HETATM    7  C5  UNL     1     -33.253   7.096   3.346  1.00 20.00     0.164 C 
HETATM    8  C4  UNL     1     -34.215   5.928   3.333  1.00 20.00     0.033 C 
ENDBRANCH   6   7
ENDBRANCH   2   6
TORSDOF 2
ENDMDL
MODEL 5
REMARK VINA RESULT:      -4.2      1.668      1.858
REMARK  2 active torsions:
REMARK  status: ('A' for Active; 'I' for Inactive)
REMARK    1  A    between atoms: C2_2  and  O6_6 
REMARK    2  A    between atoms: C5_5  and  O6_6 
ROOT
HETATM    1  C1  UNL     1     -34.016   7.259   5.572  1.00 20.00     0.099 A 
HETATM    2  C2  UNL     1     -33.106   6.837   4.453  1.00 20.00     0.181 A 
HETATM    3  C3  UNL     1     -34.300   5.996   4.809  1.00 20.00     0.207 A 
HETATM    4  F7  UNL     1     -34.023   4.810   5.481  1.00 20.00    -0.223 F 
HETATM    5 CL8  UNL     1     -35.699   5.954   3.752  1.00 20.00    -0.080 Cl
ENDROOT
BRANCH   2   6
HETATM    6  O6  UNL     1     -33.177   7.623   3.253  1.00 20.00    -0.382 OA
BRANCH   6   7
HETATM    7  C5  UNL     1     -31.897   8.098   2.882  1.00 20.00     0.164 C 
HETATM    8  C4  UNL     1     -32.000   8.811   1.551  1.00 20.00     0.033 C 
ENDBRANCH   6   7
ENDBRANCH   2   6
TORSDOF 2
ENDMDL
MODEL 6
REMARK VINA RESULT:      -4.1      1.935      3.046
REMARK  2 active torsions:
REMARK  status: ('A' for Active; 'I' for Inactive)
REMARK    1  A    between atoms: C2_2  and  O6_6 
REMARK    2  A    between atoms: C5_5  and  O6_6 
ROOT
HETATM    1  C1  UNL     1     -32.732   7.502   2.456  1.00 20.00     0.099 A 
HETATM    2  C2  UNL     1     -33.680   7.300   3.604  1.00 20.00     0.181 A 
HETATM    3  C3  UNL     1     -33.578   6.262   2.521  1.00 20.00     0.207 A 
HETATM    4  F7  UNL     1     -34.647   6.213   1.632  1.00 20.00    -0.223 F 
HETATM    5 CL8  UNL     1     -32.791   4.727   2.837  1.00 20.00    -0.080 Cl
ENDROOT
BRANCH   2   6
HETATM    6  O6  UNL     1     -33.077   7.001   4.873  1.00 20.00    -0.382 OA
BRANCH   6   7
HETATM    7  C5  UNL     1     -34.063   6.847   5.878  1.00 20.00     0.164 C 
HETATM    8  C4  UNL     1     -34.612   5.439   5.819  1.00 20.00     0.033 C 
ENDBRANCH   6   7
ENDBRANCH   2   6
TORSDOF 2
ENDMDL
MODEL 7
REMARK VINA RESULT:      -3.9      2.866      3.868
REMARK  2 active torsions:
REMARK  status: ('A' for Active; 'I' for Inactive)
REMARK    1  A    between atoms: C2_2  and  O6_6 
REMARK    2  A    between atoms: C5_5  and  O6_6 
ROOT
HETATM    1  C1  UNL     1     -32.427   6.353   2.668  1.00 20.00     0.099 A 
HETATM    2  C2  UNL     1     -33.059   6.974   3.881  1.00 20.00     0.181 A 
HETATM    3  C3  UNL     1     -32.247   7.820   2.939  1.00 20.00     0.207 A 
HETATM    4  F7  UNL     1     -30.991   8.199   3.402  1.00 20.00    -0.223 F 
HETATM    5 CL8  UNL     1     -33.037   8.971   1.878  1.00 20.00    -0.080 Cl
ENDROOT
BRANCH   2   6
HETATM    6  O6  UNL     1     -34.488   7.118   3.842  1.00 20.00    -0.382 OA
BRANCH   6   7
HETATM    7  C5  UNL     1     -35.128   5.875   4.068  1.00 20.00     0.164 C 
HETATM    8  C4  UNL     1     -34.647   5.305   5.384  1.00 20.00     0.033 C 
ENDBRANCH   6   7
ENDBRANCH   2   6
TORSDOF 2
ENDMDL
MODEL 8
REMARK VINA RESULT:      -3.8      2.590      3.475
REMARK  2 active torsions:
REMARK  status: ('A' for Active; 'I' for Inactive)
REMARK    1  A    between atoms: C2_2  and  O6_6 
REMARK    2  A    between atoms: C5_5  and  O6_6 
ROOT
HETATM    1  C1  UNL     1     -34.537   6.165   2.341  1.00 20.00     0.099 A 
HETATM    2  C2  UNL     1     -34.153   5.885   3.767  1.00 20.00     0.181 A 
HETATM    3  C3  UNL     1     -33.094   5.958   2.702  1.00 20.00     0.207 A 
HETATM    4  F7  UNL     1     -32.544   4.740   2.316  1.00 20.00    -0.223 F 
HETATM    5 CL8  UNL     1     -32.007   7.333   2.627  1.00 20.00    -0.080 Cl
ENDROOT
BRANCH   2   6
HETATM    6  O6  UNL     1     -34.261   6.992   4.677  1.00 20.00    -0.382 OA
BRANCH   6   7
HETATM    7  C5  UNL     1     -34.304   6.542   6.018  1.00 20.00     0.164 C 
HETATM    8  C4  UNL     1     -34.578   5.054   6.030  1.00 20.00     0.033 C 
ENDBRANCH   6   7
ENDBRANCH   2   6
TORSDOF 2
ENDMDL
MODEL 9
REMARK VINA RESULT:      -3.8      2.399      3.593
REMARK  2 active torsions:
REMARK  status: ('A' for Active; 'I' for Inactive)
REMARK    1  A    between atoms: C2_2  and  O6_6 
REMARK    2  A    between atoms: C5_5  and  O6_6 
ROOT
HETATM    1  C1  UNL     1     -33.081   8.208   2.505  1.00 20.00     0.099 A 
HETATM    2  C2  UNL     1     -32.858   6.729   2.654  1.00 20.00     0.181 A 
HETATM    3  C3  UNL     1     -32.371   7.675   3.717  1.00 20.00     0.207 A 
HETATM    4  F7  UNL     1     -30.996   7.885   3.753  1.00 20.00    -0.223 F 
HETATM    5 CL8  UNL     1     -33.185   7.758   5.268  1.00 20.00    -0.080 Cl
ENDROOT
BRANCH   2   6
HETATM    6  O6  UNL     1     -34.024   5.943   2.945  1.00 20.00    -0.382 OA
BRANCH   6   7
HETATM    7  C5  UNL     1     -33.664   4.649   3.390  1.00 20.00     0.164 C 
HETATM    8  C4  UNL     1     -34.423   4.334   4.661  1.00 20.00     0.033 C 
ENDBRANCH   6   7
ENDBRANCH   2   6
TORSDOF 2
ENDMDL
