MODEL 1
REMARK VINA RESULT:      -5.3      0.000      0.000
REMARK  2 active torsions:
REMARK  status: ('A' for Active; 'I' for Inactive)
REMARK    1  A    between atoms: C1_1  and  C2_2 
REMARK    2  A    between atoms: C1_1  and  C3_3 
ROOT
HETATM    1  C1  UNL     1     -33.570   5.866   3.199  1.00 20.00     0.168 C 
ENDROOT
BRANCH   1   2
HETATM    2  C2  UNL     1     -33.234   7.345   3.191  1.00 20.00     0.360 C 
HETATM    3  F4  UNL     1     -32.114   7.548   3.933  1.00 20.00    -0.214 F 
HETATM    4  F5  UNL     1     -32.940   7.747   1.931  1.00 20.00    -0.214 F 
ENDBRANCH   1   2
BRANCH   1   5
HETATM    5  C3  UNL     1     -34.629   5.469   4.217  1.00 20.00     0.325 C 
HETATM    6  F6  UNL     1     -35.854   5.853   3.777  1.00 20.00    -0.188 F 
HETATM    7  F7  UNL     1     -34.661   4.113   4.306  1.00 20.00    -0.188 F 
HETATM    8 CL8  UNL     1     -34.331   6.147   5.824  1.00 20.00    -0.048 Cl
ENDBRANCH   1   5
TORSDOF 2
ENDMDL
MODEL 2
REMARK VINA RESULT:      -5.3      2.243      3.274
REMARK  2 active torsions:
REMARK  status: ('A' for Active; 'I' for Inactive)
REMARK    1  A    between atoms: C1_1  and  C2_2 
REMARK    2  A    between atoms: C1_1  and  C3_3 
ROOT
HETATM    1  C1  UNL     1     -34.790   6.058   4.088  1.00 20.00     0.168 C 
ENDROOT
BRANCH   1   2
HETATM    2  C2  UNL     1     -34.242   5.767   5.473  1.00 20.00     0.360 C 
HETATM    3  F4  UNL     1     -34.425   6.860   6.259  1.00 20.00    -0.214 F 
HETATM    4  F5  UNL     1     -34.941   4.758   6.046  1.00 20.00    -0.214 F 
ENDBRANCH   1   2
BRANCH   1   5
HETATM    5  C3  UNL     1     -33.771   5.912   2.969  1.00 20.00     0.325 C 
HETATM    6  F6  UNL     1     -33.205   4.680   3.020  1.00 20.00    -0.188 F 
HETATM    7  F7  UNL     1     -34.420   5.987   1.776  1.00 20.00    -0.188 F 
HETATM    8 CL8  UNL     1     -32.509   7.151   3.017  1.00 20.00    -0.048 Cl
ENDBRANCH   1   5
TORSDOF 2
ENDMDL
MODEL 3
REMARK VINA RESULT:      -5.2      2.046      2.668
REMARK  2 active torsions:
REMARK  status: ('A' for Active; 'I' for Inactive)
REMARK    1  A    between atoms: C1_1  and  C2_2 
REMARK    2  A    between atoms: C1_1  and  C3_3 
ROOT
HETATM    1  C1  UNL     1     -33.640   6.769   4.234  1.00 20.00     0.168 C 
ENDROOT
BRANCH   1   2
HETATM    2  C2  UNL     1     -34.085   7.117   5.642  1.00 20.00     0.360 C 
HETATM    3  F4  UNL     1     -34.477   5.980   6.275  1.00 20.00    -0.214 F 
HETATM    4  F5  UNL     1     -33.039   7.610   6.349  1.00 20.00    -0.214 F 
ENDBRANCH   1   2
BRANCH   1   5
HETATM    5  C3  UNL     1     -34.499   5.718   3.548  1.00 20.00     0.325 C 
HETATM    6  F6  UNL     1     -35.812   6.002   3.739  1.00 20.00    -0.188 F 
HETATM    7  F7  UNL     1     -34.283   5.786   2.207  1.00 20.00    -0.188 F 
HETATM    8 CL8  UNL     1     -34.156   4.074   4.105  1.00 20.00    -0.048 Cl
ENDBRANCH   1   5
TORSDOF 2
ENDMDL
MODEL 4
REMARK VINA RESULT:      -5.2      2.021      2.606
REMARK  2 active torsions:
REMARK  status: ('A' for Active; 'I' for Inactive)
REMARK    1  A    between atoms: C1_1  and  C2_2 
REMARK    2  A    between atoms: C1_1  and  C3_3 
ROOT
HETATM    1  C1  UNL     1     -33.907   6.959   4.228  1.00 20.00     0.168 C 
ENDROOT
BRANCH   1   2
HETATM    2  C2  UNL     1     -33.651   6.765   5.710  1.00 20.00     0.360 C 
HETATM    3  F4  UNL     1     -33.204   7.934   6.239  1.00 20.00    -0.214 F 
HETATM    4  F5  UNL     1     -34.811   6.473   6.347  1.00 20.00    -0.214 F 
ENDBRANCH   1   2
BRANCH   1   5
HETATM    5  C3  UNL     1     -34.638   5.802   3.563  1.00 20.00     0.325 C 
HETATM    6  F6  UNL     1     -35.978   6.008   3.627  1.00 20.00    -0.188 F 
HETATM    7  F7  UNL     1     -34.315   5.784   2.242  1.00 20.00    -0.188 F 
HETATM    8 CL8  UNL     1     -34.241   4.232   4.276  1.00 20.00    -0.048 Cl
ENDBRANCH   1   5
TORSDOF 2
ENDMDL
MODEL 5
REMARK VINA RESULT:      -5.2      1.207      1.419
REMARK  2 active torsions:
REMARK  status: ('A' for Active; 'I' for Inactive)
REMARK    1  A    between atoms: C1_1  and  C2_2 
REMARK    2  A    between atoms: C1_1  and  C3_3 
ROOT
HETATM    1  C1  UNL     1     -33.494   6.143   2.952  1.00 20.00     0.168 C 
ENDROOT
BRANCH   1   2
HETATM    2  C2  UNL     1     -32.988   7.573   2.964  1.00 20.00     0.360 C 
HETATM    3  F4  UNL     1     -31.789   7.613   3.601  1.00 20.00    -0.214 F 
HETATM    4  F5  UNL     1     -32.764   7.997   1.696  1.00 20.00    -0.214 F 
ENDBRANCH   1   2
BRANCH   1   5
HETATM    5  C3  UNL     1     -34.513   5.831   4.037  1.00 20.00     0.325 C 
HETATM    6  F6  UNL     1     -34.378   6.712   5.060  1.00 20.00    -0.188 F 
HETATM    7  F7  UNL     1     -35.761   6.019   3.530  1.00 20.00    -0.188 F 
HETATM    8 CL8  UNL     1     -34.383   4.176   4.651  1.00 20.00    -0.048 Cl
ENDBRANCH   1   5
TORSDOF 2
ENDMDL
MODEL 6
REMARK VINA RESULT:      -5.2      1.574      1.950
REMARK  2 active torsions:
REMARK  status: ('A' for Active; 'I' for Inactive)
REMARK    1  A    between atoms: C1_1  and  C2_2 
REMARK    2  A    between atoms: C1_1  and  C3_3 
ROOT
HETATM    1  C1  UNL     1     -33.778   6.678   4.211  1.00 20.00     0.168 C 
ENDROOT
BRANCH   1   2
HETATM    2  C2  UNL     1     -33.066   6.372   2.907  1.00 20.00     0.360 C 
HETATM    3  F4  UNL     1     -33.991   6.066   1.960  1.00 20.00    -0.214 F 
HETATM    4  F5  UNL     1     -32.413   7.474   2.466  1.00 20.00    -0.214 F 
ENDBRANCH   1   2
BRANCH   1   5
HETATM    5  C3  UNL     1     -34.738   5.592   4.671  1.00 20.00     0.325 C 
HETATM    6  F6  UNL     1     -34.983   5.727   5.999  1.00 20.00    -0.188 F 
HETATM    7  F7  UNL     1     -35.930   5.768   4.041  1.00 20.00    -0.188 F 
HETATM    8 CL8  UNL     1     -34.144   3.959   4.337  1.00 20.00    -0.048 Cl
ENDBRANCH   1   5
TORSDOF 2
ENDMDL
MODEL 7
REMARK VINA RESULT:      -5.2      1.957      2.655
REMARK  2 active torsions:
REMARK  status: ('A' for Active; 'I' for Inactive)
REMARK    1  A    between atoms: C1_1  and  C2_2 
REMARK    2  A    between atoms: C1_1  and  C3_3 
ROOT
HETATM    1  C1  UNL     1     -34.347   5.842   5.520  1.00 20.00     0.168 C 
ENDROOT
BRANCH   1   2
HETATM    2  C2  UNL     1     -33.592   7.153   5.401  1.00 20.00     0.360 C 
HETATM    3  F4  UNL     1     -34.130   7.884   4.391  1.00 20.00    -0.214 F 
HETATM    4  F5  UNL     1     -33.749   7.882   6.532  1.00 20.00    -0.214 F 
ENDBRANCH   1   2
BRANCH   1   5
HETATM    5  C3  UNL     1     -34.683   5.191   4.187  1.00 20.00     0.325 C 
HETATM    6  F6  UNL     1     -34.915   3.866   4.369  1.00 20.00    -0.188 F 
HETATM    7  F7  UNL     1     -35.844   5.723   3.722  1.00 20.00    -0.188 F 
HETATM    8 CL8  UNL     1     -33.418   5.415   2.970  1.00 20.00    -0.048 Cl
ENDBRANCH   1   5
TORSDOF 2
ENDMDL
MODEL 8
REMARK VINA RESULT:      -5.0      1.925      3.441
REMARK  2 active torsions:
REMARK  status: ('A' for Active; 'I' for Inactive)
REMARK    1  A    between atoms: C1_1  and  C2_2 
REMARK    2  A    between atoms: C1_1  and  C3_3 
ROOT
HETATM    1  C1  UNL     1     -33.732   7.050   4.497  1.00 20.00     0.168 C 
ENDROOT
BRANCH   1   2
HETATM    2  C2  UNL     1     -34.502   5.748   4.611  1.00 20.00     0.360 C 
HETATM    3  F4  UNL     1     -34.845   5.550   5.911  1.00 20.00    -0.214 F 
HETATM    4  F5  UNL     1     -35.661   5.833   3.916  1.00 20.00    -0.214 F 
ENDBRANCH   1   2
BRANCH   1   5
HETATM    5  C3  UNL     1     -32.860   7.154   3.254  1.00 20.00     0.325 C 
HETATM    6  F6  UNL     1     -32.461   5.916   2.868  1.00 20.00    -0.188 F 
HETATM    7  F7  UNL     1     -33.612   7.650   2.235  1.00 20.00    -0.188 F 
HETATM    8 CL8  UNL     1     -31.446   8.192   3.487  1.00 20.00    -0.048 Cl
ENDBRANCH   1   5
TORSDOF 2
ENDMDL
MODEL 9
REMARK VINA RESULT:      -5.0      0.882      3.439
REMARK  2 active torsions:
REMARK  status: ('A' for Active; 'I' for Inactive)
REMARK    1  A    between atoms: C1_1  and  C2_2 
REMARK    2  A    between atoms: C1_1  and  C3_3 
ROOT
HETATM    1  C1  UNL     1     -33.597   5.880   3.240  1.00 20.00     0.168 C 
ENDROOT
BRANCH   1   2
HETATM    2  C2  UNL     1     -34.527   5.236   4.251  1.00 20.00     0.360 C 
HETATM    3  F4  UNL     1     -35.801   5.632   3.994  1.00 20.00    -0.214 F 
HETATM    4  F5  UNL     1     -34.505   3.889   4.108  1.00 20.00    -0.214 F 
ENDBRANCH   1   2
BRANCH   1   5
HETATM    5  C3  UNL     1     -33.052   7.235   3.664  1.00 20.00     0.325 C 
HETATM    6  F6  UNL     1     -31.738   7.324   3.336  1.00 20.00    -0.188 F 
HETATM    7  F7  UNL     1     -33.691   8.203   2.956  1.00 20.00    -0.188 F 
HETATM    8 CL8  UNL     1     -33.259   7.552   5.393  1.00 20.00    -0.048 Cl
ENDBRANCH   1   5
TORSDOF 2
ENDMDL
