MODEL 1
REMARK VINA RESULT:      -4.8      0.000      0.000
REMARK  2 active torsions:
REMARK  status: ('A' for Active; 'I' for Inactive)
REMARK    1  A    between atoms: C2_2  and  O6_6 
REMARK    2  A    between atoms: C5_5  and  O6_6 
ROOT
HETATM    1  C1  UNL     1     -33.964   6.957   4.966  1.00 20.00     0.099 A 
HETATM    2  C2  UNL     1     -33.220   6.575   3.717  1.00 20.00     0.181 A 
HETATM    3  C3  UNL     1     -34.486   5.854   4.090  1.00 20.00     0.207 A 
HETATM    4  F7  UNL     1     -35.617   6.159   3.339  1.00 20.00    -0.223 F 
HETATM    5 CL8  UNL     1     -34.376   4.201   4.663  1.00 20.00    -0.080 Cl
ENDROOT
BRANCH   2   6
HETATM    6  O6  UNL     1     -33.316   7.498   2.622  1.00 20.00    -0.382 OA
BRANCH   6   7
HETATM    7  C5  UNL     1     -32.099   8.198   2.441  1.00 20.00     0.164 C 
HETATM    8  C4  UNL     1     -32.251   9.163   1.284  1.00 20.00     0.033 C 
ENDBRANCH   6   7
ENDBRANCH   2   6
TORSDOF 2
ENDMDL
MODEL 2
REMARK VINA RESULT:      -4.7      1.290      1.424
REMARK  2 active torsions:
REMARK  status: ('A' for Active; 'I' for Inactive)
REMARK    1  A    between atoms: C2_2  and  O6_6 
REMARK    2  A    between atoms: C5_5  and  O6_6 
ROOT
HETATM    1  C1  UNL     1     -35.089   6.187   3.378  1.00 20.00     0.099 A 
HETATM    2  C2  UNL     1     -33.732   6.663   3.818  1.00 20.00     0.181 A 
HETATM    3  C3  UNL     1     -34.191   5.272   4.162  1.00 20.00     0.207 A 
HETATM    4  F7  UNL     1     -33.608   4.233   3.445  1.00 20.00    -0.223 F 
HETATM    5 CL8  UNL     1     -34.604   4.911   5.827  1.00 20.00    -0.080 Cl
ENDROOT
BRANCH   2   6
HETATM    6  O6  UNL     1     -32.738   6.764   2.787  1.00 20.00    -0.382 OA
BRANCH   6   7
HETATM    7  C5  UNL     1     -32.020   7.980   2.894  1.00 20.00     0.164 C 
HETATM    8  C4  UNL     1     -32.096   8.716   1.573  1.00 20.00     0.033 C 
ENDBRANCH   6   7
ENDBRANCH   2   6
TORSDOF 2
ENDMDL
MODEL 3
REMARK VINA RESULT:      -4.5      1.988      2.518
REMARK  2 active torsions:
REMARK  status: ('A' for Active; 'I' for Inactive)
REMARK    1  A    between atoms: C2_2  and  O6_6 
REMARK    2  A    between atoms: C5_5  and  O6_6 
ROOT
HETATM    1  C1  UNL     1     -31.635   8.013   3.347  1.00 20.00     0.099 A 
HETATM    2  C2  UNL     1     -32.312   8.272   2.030  1.00 20.00     0.181 A 
HETATM    3  C3  UNL     1     -32.948   7.352   3.037  1.00 20.00     0.207 A 
HETATM    4  F7  UNL     1     -34.053   7.850   3.719  1.00 20.00    -0.223 F 
HETATM    5 CL8  UNL     1     -32.967   5.630   2.708  1.00 20.00    -0.080 Cl
ENDROOT
BRANCH   2   6
HETATM    6  O6  UNL     1     -32.921   9.564   1.881  1.00 20.00    -0.382 OA
BRANCH   6   7
HETATM    7  C5  UNL     1     -32.563  10.152   0.644  1.00 20.00     0.164 C 
HETATM    8  C4  UNL     1     -33.050   9.267  -0.483  1.00 20.00     0.033 C 
ENDBRANCH   6   7
ENDBRANCH   2   6
TORSDOF 2
ENDMDL
MODEL 4
REMARK VINA RESULT:      -4.5      3.237      4.247
REMARK  2 active torsions:
REMARK  status: ('A' for Active; 'I' for Inactive)
REMARK    1  A    between atoms: C2_2  and  O6_6 
REMARK    2  A    between atoms: C5_5  and  O6_6 
ROOT
HETATM    1  C1  UNL     1     -31.544   8.504   3.282  1.00 20.00     0.099 A 
HETATM    2  C2  UNL     1     -32.805   7.824   2.827  1.00 20.00     0.181 A 
HETATM    3  C3  UNL     1     -32.021   8.679   1.868  1.00 20.00     0.207 A 
HETATM    4  F7  UNL     1     -31.291   8.006   0.894  1.00 20.00    -0.223 F 
HETATM    5 CL8  UNL     1     -32.683  10.229   1.389  1.00 20.00    -0.080 Cl
ENDROOT
BRANCH   2   6
HETATM    6  O6  UNL     1     -32.716   6.405   2.627  1.00 20.00    -0.382 OA
BRANCH   6   7
HETATM    7  C5  UNL     1     -33.915   5.763   3.020  1.00 20.00     0.164 C 
HETATM    8  C4  UNL     1     -34.293   6.231   4.409  1.00 20.00     0.033 C 
ENDBRANCH   6   7
ENDBRANCH   2   6
TORSDOF 2
ENDMDL
MODEL 5
REMARK VINA RESULT:      -4.3      1.595      1.873
REMARK  2 active torsions:
REMARK  status: ('A' for Active; 'I' for Inactive)
REMARK    1  A    between atoms: C2_2  and  O6_6 
REMARK    2  A    between atoms: C5_5  and  O6_6 
ROOT
HETATM    1  C1  UNL     1     -32.793   5.898   2.896  1.00 20.00     0.099 A 
HETATM    2  C2  UNL     1     -33.338   7.240   2.495  1.00 20.00     0.181 A 
HETATM    3  C3  UNL     1     -33.786   6.598   3.780  1.00 20.00     0.207 A 
HETATM    4  F7  UNL     1     -33.276   7.141   4.954  1.00 20.00    -0.223 F 
HETATM    5 CL8  UNL     1     -35.417   5.964   3.879  1.00 20.00    -0.080 Cl
ENDROOT
BRANCH   2   6
HETATM    6  O6  UNL     1     -32.435   8.349   2.623  1.00 20.00    -0.382 OA
BRANCH   6   7
HETATM    7  C5  UNL     1     -32.037   8.827   1.351  1.00 20.00     0.164 C 
HETATM    8  C4  UNL     1     -32.661  10.186   1.117  1.00 20.00     0.033 C 
ENDBRANCH   6   7
ENDBRANCH   2   6
TORSDOF 2
ENDMDL
MODEL 6
REMARK VINA RESULT:      -4.1      2.737      3.852
REMARK  2 active torsions:
REMARK  status: ('A' for Active; 'I' for Inactive)
REMARK    1  A    between atoms: C2_2  and  O6_6 
REMARK    2  A    between atoms: C5_5  and  O6_6 
ROOT
HETATM    1  C1  UNL     1     -32.862   7.445   4.388  1.00 20.00     0.099 A 
HETATM    2  C2  UNL     1     -34.059   7.363   3.483  1.00 20.00     0.181 A 
HETATM    3  C3  UNL     1     -32.678   7.146   2.927  1.00 20.00     0.207 A 
HETATM    4  F7  UNL     1     -32.336   5.835   2.614  1.00 20.00    -0.223 F 
HETATM    5 CL8  UNL     1     -31.983   8.382   1.895  1.00 20.00    -0.080 Cl
ENDROOT
BRANCH   2   6
HETATM    6  O6  UNL     1     -34.875   6.190   3.627  1.00 20.00    -0.382 OA
BRANCH   6   7
HETATM    7  C5  UNL     1     -34.788   5.670   4.940  1.00 20.00     0.164 C 
HETATM    8  C4  UNL     1     -34.395   4.209   4.868  1.00 20.00     0.033 C 
ENDBRANCH   6   7
ENDBRANCH   2   6
TORSDOF 2
ENDMDL
MODEL 7
REMARK VINA RESULT:      -3.8      2.590      3.920
REMARK  2 active torsions:
REMARK  status: ('A' for Active; 'I' for Inactive)
REMARK    1  A    between atoms: C2_2  and  O6_6 
REMARK    2  A    between atoms: C5_5  and  O6_6 
ROOT
HETATM    1  C1  UNL     1     -32.625   6.217   2.638  1.00 20.00     0.099 A 
HETATM    2  C2  UNL     1     -33.320   6.658   3.896  1.00 20.00     0.181 A 
HETATM    3  C3  UNL     1     -32.635   7.671   3.020  1.00 20.00     0.207 A 
HETATM    4  F7  UNL     1     -33.461   8.492   2.260  1.00 20.00    -0.223 F 
HETATM    5 CL8  UNL     1     -31.145   8.402   3.586  1.00 20.00    -0.080 Cl
ENDROOT
BRANCH   2   6
HETATM    6  O6  UNL     1     -34.756   6.653   3.855  1.00 20.00    -0.382 OA
BRANCH   6   7
HETATM    7  C5  UNL     1     -35.271   5.413   4.301  1.00 20.00     0.164 C 
HETATM    8  C4  UNL     1     -34.596   5.038   5.604  1.00 20.00     0.033 C 
ENDBRANCH   6   7
ENDBRANCH   2   6
TORSDOF 2
ENDMDL
MODEL 8
REMARK VINA RESULT:      -3.8      2.667      3.650
REMARK  2 active torsions:
REMARK  status: ('A' for Active; 'I' for Inactive)
REMARK    1  A    between atoms: C2_2  and  O6_6 
REMARK    2  A    between atoms: C5_5  and  O6_6 
ROOT
HETATM    1  C1  UNL     1     -32.948   4.846   2.606  1.00 20.00     0.099 A 
HETATM    2  C2  UNL     1     -33.402   5.503   3.880  1.00 20.00     0.181 A 
HETATM    3  C3  UNL     1     -33.642   6.178   2.557  1.00 20.00     0.207 A 
HETATM    4  F7  UNL     1     -34.949   6.165   2.083  1.00 20.00    -0.223 F 
HETATM    5 CL8  UNL     1     -32.701   7.603   2.157  1.00 20.00    -0.080 Cl
ENDROOT
BRANCH   2   6
HETATM    6  O6  UNL     1     -34.553   4.921   4.511  1.00 20.00    -0.382 OA
BRANCH   6   7
HETATM    7  C5  UNL     1     -34.706   5.407   5.832  1.00 20.00     0.164 C 
HETATM    8  C4  UNL     1     -34.053   6.769   5.936  1.00 20.00     0.033 C 
ENDBRANCH   6   7
ENDBRANCH   2   6
TORSDOF 2
ENDMDL
MODEL 9
REMARK VINA RESULT:      -3.6      2.399      2.789
REMARK  2 active torsions:
REMARK  status: ('A' for Active; 'I' for Inactive)
REMARK    1  A    between atoms: C2_2  and  O6_6 
REMARK    2  A    between atoms: C5_5  and  O6_6 
ROOT
HETATM    1  C1  UNL     1     -34.648   4.248   4.785  1.00 20.00     0.099 A 
HETATM    2  C2  UNL     1     -33.835   5.471   5.104  1.00 20.00     0.181 A 
HETATM    3  C3  UNL     1     -34.238   5.183   3.683  1.00 20.00     0.207 A 
HETATM    4  F7  UNL     1     -35.249   5.978   3.153  1.00 20.00    -0.223 F 
HETATM    5 CL8  UNL     1     -33.007   4.661   2.549  1.00 20.00    -0.080 Cl
ENDROOT
BRANCH   2   6
HETATM    6  O6  UNL     1     -34.538   6.540   5.757  1.00 20.00    -0.382 OA
BRANCH   6   7
HETATM    7  C5  UNL     1     -33.652   7.584   6.115  1.00 20.00     0.164 C 
HETATM    8  C4  UNL     1     -32.816   7.957   4.910  1.00 20.00     0.033 C 
ENDBRANCH   6   7
ENDBRANCH   2   6
TORSDOF 2
ENDMDL
