MODEL 1
REMARK VINA RESULT:      -4.4      0.000      0.000
REMARK  1 active torsions:
REMARK  status: ('A' for Active; 'I' for Inactive)
REMARK    1  A    between atoms: C1_1  and  C2_2 
ROOT
HETATM    1  C1  UNL     1     -34.690   5.271   4.096  1.00 20.00     0.314 C 
HETATM    2  F3  UNL     1     -34.419   3.941   4.025  1.00 20.00    -0.228 F 
HETATM    3 CL5  UNL     1     -33.471   6.150   3.147  1.00 20.00    -0.085 Cl
ENDROOT
BRANCH   1   4
HETATM    4  C2  UNL     1     -34.660   5.715   5.545  1.00 20.00     0.314 C 
HETATM    5  F4  UNL     1     -34.096   4.739   6.305  1.00 20.00    -0.228 F 
HETATM    6 CL6  UNL     1     -33.698   7.199   5.727  1.00 20.00    -0.085 Cl
ENDBRANCH   1   4
TORSDOF 1
ENDMDL
MODEL 2
REMARK VINA RESULT:      -4.4      1.281      1.621
REMARK  1 active torsions:
REMARK  status: ('A' for Active; 'I' for Inactive)
REMARK    1  A    between atoms: C1_1  and  C2_2 
ROOT
HETATM    1  C1  UNL     1     -33.944   5.764   3.125  1.00 20.00     0.314 C 
HETATM    2  F3  UNL     1     -33.070   4.844   2.639  1.00 20.00    -0.228 F 
HETATM    3 CL5  UNL     1     -33.029   7.196   3.645  1.00 20.00    -0.085 Cl
ENDROOT
BRANCH   1   4
HETATM    4  C2  UNL     1     -34.709   5.167   4.289  1.00 20.00     0.314 C 
HETATM    5  F4  UNL     1     -34.349   3.866   4.447  1.00 20.00    -0.228 F 
HETATM    6 CL6  UNL     1     -34.345   6.041   5.794  1.00 20.00    -0.085 Cl
ENDBRANCH   1   4
TORSDOF 1
ENDMDL
MODEL 3
REMARK VINA RESULT:      -4.4      2.109      2.779
REMARK  1 active torsions:
REMARK  status: ('A' for Active; 'I' for Inactive)
REMARK    1  A    between atoms: C1_1  and  C2_2 
ROOT
HETATM    1  C1  UNL     1     -33.777   7.011   4.113  1.00 20.00     0.314 C 
HETATM    2  F3  UNL     1     -32.532   7.014   3.569  1.00 20.00    -0.228 F 
HETATM    3 CL5  UNL     1     -33.639   7.345   5.853  1.00 20.00    -0.085 Cl
ENDROOT
BRANCH   1   4
HETATM    4  C2  UNL     1     -34.426   5.662   3.878  1.00 20.00     0.314 C 
HETATM    5  F4  UNL     1     -33.645   4.923   3.046  1.00 20.00    -0.228 F 
HETATM    6 CL6  UNL     1     -34.612   4.780   5.410  1.00 20.00    -0.085 Cl
ENDBRANCH   1   4
TORSDOF 1
ENDMDL
MODEL 4
REMARK VINA RESULT:      -4.4      2.071      2.409
REMARK  1 active torsions:
REMARK  status: ('A' for Active; 'I' for Inactive)
REMARK    1  A    between atoms: C1_1  and  C2_2 
ROOT
HETATM    1  C1  UNL     1     -34.457   5.730   4.085  1.00 20.00     0.314 C 
HETATM    2  F3  UNL     1     -35.700   5.917   3.569  1.00 20.00    -0.228 F 
HETATM    3 CL5  UNL     1     -34.609   4.884   5.641  1.00 20.00    -0.085 Cl
ENDROOT
BRANCH   1   4
HETATM    4  C2  UNL     1     -33.781   7.074   4.272  1.00 20.00     0.314 C 
HETATM    5  F4  UNL     1     -33.295   7.163   5.538  1.00 20.00    -0.228 F 
HETATM    6 CL6  UNL     1     -32.428   7.260   3.133  1.00 20.00    -0.085 Cl
ENDBRANCH   1   4
TORSDOF 1
ENDMDL
MODEL 5
REMARK VINA RESULT:      -4.4      2.345      2.485
REMARK  1 active torsions:
REMARK  status: ('A' for Active; 'I' for Inactive)
REMARK    1  A    between atoms: C1_1  and  C2_2 
ROOT
HETATM    1  C1  UNL     1     -34.503   5.601   4.035  1.00 20.00     0.314 C 
HETATM    2  F3  UNL     1     -35.762   5.975   3.684  1.00 20.00    -0.228 F 
HETATM    3 CL5  UNL     1     -34.592   4.624   5.517  1.00 20.00    -0.085 Cl
ENDROOT
BRANCH   1   4
HETATM    4  C2  UNL     1     -33.654   6.837   4.260  1.00 20.00     0.314 C 
HETATM    5  F4  UNL     1     -34.120   7.853   3.486  1.00 20.00    -0.228 F 
HETATM    6 CL6  UNL     1     -33.725   7.345   5.962  1.00 20.00    -0.085 Cl
ENDBRANCH   1   4
TORSDOF 1
ENDMDL
MODEL 6
REMARK VINA RESULT:      -4.3      1.911      2.559
REMARK  1 active torsions:
REMARK  status: ('A' for Active; 'I' for Inactive)
REMARK    1  A    between atoms: C1_1  and  C2_2 
ROOT
HETATM    1  C1  UNL     1     -34.764   5.761   4.884  1.00 20.00     0.314 C 
HETATM    2  F3  UNL     1     -34.551   5.879   6.221  1.00 20.00    -0.228 F 
HETATM    3 CL5  UNL     1     -34.291   4.125   4.376  1.00 20.00    -0.085 Cl
ENDROOT
BRANCH   1   4
HETATM    4  C2  UNL     1     -33.947   6.806   4.149  1.00 20.00     0.314 C 
HETATM    5  F4  UNL     1     -33.073   7.386   5.014  1.00 20.00    -0.228 F 
HETATM    6 CL6  UNL     1     -33.021   6.062   2.826  1.00 20.00    -0.085 Cl
ENDBRANCH   1   4
TORSDOF 1
ENDMDL
MODEL 7
REMARK VINA RESULT:      -4.3      1.167      2.555
REMARK  1 active torsions:
REMARK  status: ('A' for Active; 'I' for Inactive)
REMARK    1  A    between atoms: C1_1  and  C2_2 
ROOT
HETATM    1  C1  UNL     1     -34.142   5.610   5.347  1.00 20.00     0.314 C 
HETATM    2  F3  UNL     1     -35.150   5.100   6.102  1.00 20.00    -0.228 F 
HETATM    3 CL5  UNL     1     -33.855   7.292   5.843  1.00 20.00    -0.085 Cl
ENDROOT
BRANCH   1   4
HETATM    4  C2  UNL     1     -34.526   5.543   3.882  1.00 20.00     0.314 C 
HETATM    5  F4  UNL     1     -35.807   5.971   3.731  1.00 20.00    -0.228 F 
HETATM    6 CL6  UNL     1     -33.464   6.584   2.907  1.00 20.00    -0.085 Cl
ENDBRANCH   1   4
TORSDOF 1
ENDMDL
MODEL 8
REMARK VINA RESULT:      -4.3      2.129      3.113
REMARK  1 active torsions:
REMARK  status: ('A' for Active; 'I' for Inactive)
REMARK    1  A    between atoms: C1_1  and  C2_2 
ROOT
HETATM    1  C1  UNL     1     -33.713   7.146   4.237  1.00 20.00     0.314 C 
HETATM    2  F3  UNL     1     -32.459   7.246   3.724  1.00 20.00    -0.228 F 
HETATM    3 CL5  UNL     1     -33.629   7.384   5.996  1.00 20.00    -0.085 Cl
ENDROOT
BRANCH   1   4
HETATM    4  C2  UNL     1     -34.284   5.780   3.910  1.00 20.00     0.314 C 
HETATM    5  F4  UNL     1     -35.528   5.925   3.383  1.00 20.00    -0.228 F 
HETATM    6 CL6  UNL     1     -33.261   4.941   2.723  1.00 20.00    -0.085 Cl
ENDBRANCH   1   4
TORSDOF 1
ENDMDL
MODEL 9
REMARK VINA RESULT:      -4.2      2.051      2.771
REMARK  1 active torsions:
REMARK  status: ('A' for Active; 'I' for Inactive)
REMARK    1  A    between atoms: C1_1  and  C2_2 
ROOT
HETATM    1  C1  UNL     1     -33.762   6.631   4.873  1.00 20.00     0.314 C 
HETATM    2  F3  UNL     1     -34.137   7.547   5.805  1.00 20.00    -0.228 F 
HETATM    3 CL5  UNL     1     -33.363   7.484   3.366  1.00 20.00    -0.085 Cl
ENDROOT
BRANCH   1   4
HETATM    4  C2  UNL     1     -34.895   5.649   4.647  1.00 20.00     0.314 C 
HETATM    5  F4  UNL     1     -35.603   6.022   3.549  1.00 20.00    -0.228 F 
HETATM    6 CL6  UNL     1     -34.261   4.010   4.381  1.00 20.00    -0.085 Cl
ENDBRANCH   1   4
TORSDOF 1
ENDMDL
