MODEL 1
REMARK VINA RESULT:      -3.5      0.000      0.000
REMARK  0 active torsions:
REMARK  status: ('A' for Active; 'I' for Inactive)
ROOT
HETATM    1  C1  UNL     1     -34.282   5.783   4.181  1.00 20.00     0.227 C 
HETATM    2 CL2  UNL     1     -35.908   6.141   3.572  1.00 20.00    -0.076 Cl
HETATM    3 CL3  UNL     1     -34.166   4.079   4.660  1.00 20.00    -0.076 Cl
HETATM    4 BR4  UNL     1     -32.989   6.125   2.761  1.00 20.00    -0.037 Br
HETATM    5 BR5  UNL     1     -33.938   6.898   5.744  1.00 20.00    -0.037 Br
ENDROOT
TORSDOF 0
ENDMDL
MODEL 2
REMARK VINA RESULT:      -3.5      0.003      2.748
REMARK  0 active torsions:
REMARK  status: ('A' for Active; 'I' for Inactive)
ROOT
HETATM    1  C1  UNL     1     -34.281   5.785   4.182  1.00 20.00     0.227 C 
HETATM    2 CL2  UNL     1     -34.166   4.081   4.662  1.00 20.00    -0.076 Cl
HETATM    3 CL3  UNL     1     -35.907   6.144   3.572  1.00 20.00    -0.076 Cl
HETATM    4 BR4  UNL     1     -33.935   6.902   5.743  1.00 20.00    -0.037 Br
HETATM    5 BR5  UNL     1     -32.989   6.123   2.761  1.00 20.00    -0.037 Br
ENDROOT
TORSDOF 0
ENDMDL
MODEL 3
REMARK VINA RESULT:      -3.3      1.898      2.324
REMARK  0 active torsions:
REMARK  status: ('A' for Active; 'I' for Inactive)
ROOT
HETATM    1  C1  UNL     1     -34.176   5.965   4.102  1.00 20.00     0.227 C 
HETATM    2 CL2  UNL     1     -32.960   6.319   2.860  1.00 20.00    -0.076 Cl
HETATM    3 CL3  UNL     1     -35.803   6.312   3.486  1.00 20.00    -0.076 Cl
HETATM    4 BR4  UNL     1     -34.070   4.073   4.563  1.00 20.00    -0.037 Br
HETATM    5 BR5  UNL     1     -33.837   7.099   5.653  1.00 20.00    -0.037 Br
ENDROOT
TORSDOF 0
ENDMDL
MODEL 4
REMARK VINA RESULT:      -3.3      1.898      2.419
REMARK  0 active torsions:
REMARK  status: ('A' for Active; 'I' for Inactive)
ROOT
HETATM    1  C1  UNL     1     -34.175   5.966   4.103  1.00 20.00     0.227 C 
HETATM    2 CL2  UNL     1     -35.802   6.311   3.487  1.00 20.00    -0.076 Cl
HETATM    3 CL3  UNL     1     -32.959   6.321   2.861  1.00 20.00    -0.076 Cl
HETATM    4 BR4  UNL     1     -33.837   7.099   5.654  1.00 20.00    -0.037 Br
HETATM    5 BR5  UNL     1     -34.068   4.073   4.563  1.00 20.00    -0.037 Br
ENDROOT
TORSDOF 0
ENDMDL
MODEL 5
REMARK VINA RESULT:      -3.3      1.892      2.266
REMARK  0 active torsions:
REMARK  status: ('A' for Active; 'I' for Inactive)
ROOT
HETATM    1  C1  UNL     1     -34.256   5.997   4.211  1.00 20.00     0.227 C 
HETATM    2 CL2  UNL     1     -35.872   6.279   3.537  1.00 20.00    -0.076 Cl
HETATM    3 CL3  UNL     1     -34.092   6.816   5.776  1.00 20.00    -0.076 Cl
HETATM    4 BR4  UNL     1     -34.012   4.080   4.477  1.00 20.00    -0.037 Br
HETATM    5 BR5  UNL     1     -32.928   6.724   2.981  1.00 20.00    -0.037 Br
ENDROOT
TORSDOF 0
ENDMDL
MODEL 6
REMARK VINA RESULT:      -3.3      1.892      2.351
REMARK  0 active torsions:
REMARK  status: ('A' for Active; 'I' for Inactive)
ROOT
HETATM    1  C1  UNL     1     -34.256   5.998   4.211  1.00 20.00     0.227 C 
HETATM    2 CL2  UNL     1     -34.092   6.815   5.776  1.00 20.00    -0.076 Cl
HETATM    3 CL3  UNL     1     -35.873   6.279   3.537  1.00 20.00    -0.076 Cl
HETATM    4 BR4  UNL     1     -32.928   6.723   2.981  1.00 20.00    -0.037 Br
HETATM    5 BR5  UNL     1     -34.012   4.080   4.477  1.00 20.00    -0.037 Br
ENDROOT
TORSDOF 0
ENDMDL
MODEL 7
REMARK VINA RESULT:      -2.5      1.835      2.423
REMARK  0 active torsions:
REMARK  status: ('A' for Active; 'I' for Inactive)
ROOT
HETATM    1  C1  UNL     1     -34.122   5.874   4.200  1.00 20.00     0.227 C 
HETATM    2 CL2  UNL     1     -32.840   5.974   2.980  1.00 20.00    -0.076 Cl
HETATM    3 CL3  UNL     1     -34.215   4.231   4.862  1.00 20.00    -0.076 Cl
HETATM    4 BR4  UNL     1     -33.708   7.112   5.650  1.00 20.00    -0.037 Br
HETATM    5 BR5  UNL     1     -35.827   6.307   3.356  1.00 20.00    -0.037 Br
ENDROOT
TORSDOF 0
ENDMDL
MODEL 8
REMARK VINA RESULT:      -2.5      1.835      2.233
REMARK  0 active torsions:
REMARK  status: ('A' for Active; 'I' for Inactive)
ROOT
HETATM    1  C1  UNL     1     -34.123   5.873   4.200  1.00 20.00     0.227 C 
HETATM    2 CL2  UNL     1     -34.214   4.231   4.863  1.00 20.00    -0.076 Cl
HETATM    3 CL3  UNL     1     -32.839   5.974   2.980  1.00 20.00    -0.076 Cl
HETATM    4 BR4  UNL     1     -35.827   6.306   3.356  1.00 20.00    -0.037 Br
HETATM    5 BR5  UNL     1     -33.708   7.112   5.650  1.00 20.00    -0.037 Br
ENDROOT
TORSDOF 0
ENDMDL
MODEL 9
REMARK VINA RESULT:      -2.5      8.902      9.339
REMARK  0 active torsions:
REMARK  status: ('A' for Active; 'I' for Inactive)
ROOT
HETATM    1  C1  UNL     1     -42.080   6.226  -0.347  1.00 20.00     0.227 C 
HETATM    2 CL2  UNL     1     -42.553   6.145   1.361  1.00 20.00    -0.076 Cl
HETATM    3 CL3  UNL     1     -40.507   5.443  -0.587  1.00 20.00    -0.076 Cl
HETATM    4 BR4  UNL     1     -43.417   5.289  -1.414  1.00 20.00    -0.037 Br
HETATM    5 BR5  UNL     1     -41.934   8.100  -0.868  1.00 20.00    -0.037 Br
ENDROOT
TORSDOF 0
ENDMDL
