MODEL 1
REMARK VINA RESULT:      -3.6      0.000      0.000
REMARK  1 active torsions:
REMARK  status: ('A' for Active; 'I' for Inactive)
REMARK    1  A    between atoms: C1_1  and  S3_3 
ROOT
HETATM    1  C1  UNL     1     -33.580   7.075   4.268  1.00 20.00     0.295 C 
HETATM    2  O2  UNL     1     -32.788   7.571   3.475  1.00 20.00    -0.266 OA
HETATM    3 CL4  UNL     1     -33.656   7.421   5.971  1.00 20.00    -0.031 Cl
ENDROOT
BRANCH   1   4
HETATM    4  S3  UNL     1     -34.802   5.894   3.761  1.00 20.00     0.036 SA
HETATM    5 CL5  UNL     1     -34.540   4.442   5.163  1.00 20.00    -0.034 Cl
ENDBRANCH   1   4
TORSDOF 1
ENDMDL
MODEL 2
REMARK VINA RESULT:      -3.5      2.002      2.323
REMARK  1 active torsions:
REMARK  status: ('A' for Active; 'I' for Inactive)
REMARK    1  A    between atoms: C1_1  and  S3_3 
ROOT
HETATM    1  C1  UNL     1     -33.998   6.569   5.238  1.00 20.00     0.295 C 
HETATM    2  O2  UNL     1     -33.843   7.388   6.137  1.00 20.00    -0.266 OA
HETATM    3 CL4  UNL     1     -34.656   4.969   5.430  1.00 20.00    -0.031 Cl
ENDROOT
BRANCH   1   4
HETATM    4  S3  UNL     1     -33.558   6.924   3.558  1.00 20.00     0.036 SA
HETATM    5 CL5  UNL     1     -33.273   5.046   2.829  1.00 20.00    -0.034 Cl
ENDBRANCH   1   4
TORSDOF 1
ENDMDL
MODEL 3
REMARK VINA RESULT:      -3.5      2.415      2.634
REMARK  1 active torsions:
REMARK  status: ('A' for Active; 'I' for Inactive)
REMARK    1  A    between atoms: C1_1  and  S3_3 
ROOT
HETATM    1  C1  UNL     1     -34.348   5.868   5.179  1.00 20.00     0.295 C 
HETATM    2  O2  UNL     1     -34.749   4.860   5.749  1.00 20.00    -0.266 OA
HETATM    3 CL4  UNL     1     -33.796   7.321   5.962  1.00 20.00    -0.031 Cl
ENDROOT
BRANCH   1   4
HETATM    4  S3  UNL     1     -34.273   5.980   3.411  1.00 20.00     0.036 SA
HETATM    5 CL5  UNL     1     -32.634   7.161   3.168  1.00 20.00    -0.034 Cl
ENDBRANCH   1   4
TORSDOF 1
ENDMDL
MODEL 4
REMARK VINA RESULT:      -3.4      1.729      2.614
REMARK  1 active torsions:
REMARK  status: ('A' for Active; 'I' for Inactive)
REMARK    1  A    between atoms: C1_1  and  S3_3 
ROOT
HETATM    1  C1  UNL     1     -33.711   5.336   3.561  1.00 20.00     0.295 C 
HETATM    2  O2  UNL     1     -33.094   4.820   2.636  1.00 20.00    -0.266 OA
HETATM    3 CL4  UNL     1     -34.696   4.488   4.717  1.00 20.00    -0.031 Cl
ENDROOT
BRANCH   1   4
HETATM    4  S3  UNL     1     -33.675   7.085   3.854  1.00 20.00     0.036 SA
HETATM    5 CL5  UNL     1     -33.820   7.139   5.883  1.00 20.00    -0.034 Cl
ENDBRANCH   1   4
TORSDOF 1
ENDMDL
MODEL 5
REMARK VINA RESULT:      -3.4      2.173      2.413
REMARK  1 active torsions:
REMARK  status: ('A' for Active; 'I' for Inactive)
REMARK    1  A    between atoms: C1_1  and  S3_3 
ROOT
HETATM    1  C1  UNL     1     -33.468   5.775   3.084  1.00 20.00     0.295 C 
HETATM    2  O2  UNL     1     -32.985   4.753   2.612  1.00 20.00    -0.266 OA
HETATM    3 CL4  UNL     1     -32.934   7.396   2.745  1.00 20.00    -0.031 Cl
ENDROOT
BRANCH   1   4
HETATM    4  S3  UNL     1     -34.829   5.733   4.221  1.00 20.00     0.036 SA
HETATM    5 CL5  UNL     1     -34.060   6.786   5.782  1.00 20.00    -0.034 Cl
ENDBRANCH   1   4
TORSDOF 1
ENDMDL
MODEL 6
REMARK VINA RESULT:      -3.4      2.013      2.768
REMARK  1 active torsions:
REMARK  status: ('A' for Active; 'I' for Inactive)
REMARK    1  A    between atoms: C1_1  and  S3_3 
ROOT
HETATM    1  C1  UNL     1     -33.990   6.579   5.170  1.00 20.00     0.295 C 
HETATM    2  O2  UNL     1     -33.771   7.513   5.932  1.00 20.00    -0.266 OA
HETATM    3 CL4  UNL     1     -34.650   5.034   5.624  1.00 20.00    -0.031 Cl
ENDROOT
BRANCH   1   4
HETATM    4  S3  UNL     1     -33.650   6.686   3.432  1.00 20.00     0.036 SA
HETATM    5 CL5  UNL     1     -31.993   7.867   3.436  1.00 20.00    -0.034 Cl
ENDBRANCH   1   4
TORSDOF 1
ENDMDL
MODEL 7
REMARK VINA RESULT:      -3.4      1.680      1.680
REMARK  1 active torsions:
REMARK  status: ('A' for Active; 'I' for Inactive)
REMARK    1  A    between atoms: C1_1  and  S3_3 
ROOT
HETATM    1  C1  UNL     1     -33.639   7.079   4.571  1.00 20.00     0.295 C 
HETATM    2  O2  UNL     1     -33.757   7.398   5.749  1.00 20.00    -0.266 OA
HETATM    3 CL4  UNL     1     -32.404   7.650   3.487  1.00 20.00    -0.031 Cl
ENDROOT
BRANCH   1   4
HETATM    4  S3  UNL     1     -34.758   5.947   3.789  1.00 20.00     0.036 SA
HETATM    5 CL5  UNL     1     -34.477   4.282   4.924  1.00 20.00    -0.034 Cl
ENDBRANCH   1   4
TORSDOF 1
ENDMDL
MODEL 8
REMARK VINA RESULT:      -3.4      1.603      2.522
REMARK  1 active torsions:
REMARK  status: ('A' for Active; 'I' for Inactive)
REMARK    1  A    between atoms: C1_1  and  S3_3 
ROOT
HETATM    1  C1  UNL     1     -33.485   6.207   3.224  1.00 20.00     0.295 C 
HETATM    2  O2  UNL     1     -33.158   7.330   2.859  1.00 20.00    -0.266 OA
HETATM    3 CL4  UNL     1     -32.944   4.714   2.513  1.00 20.00    -0.031 Cl
ENDROOT
BRANCH   1   4
HETATM    4  S3  UNL     1     -34.597   5.947   4.582  1.00 20.00     0.036 SA
HETATM    5 CL5  UNL     1     -33.819   7.219   5.966  1.00 20.00    -0.034 Cl
ENDBRANCH   1   4
TORSDOF 1
ENDMDL
MODEL 9
REMARK VINA RESULT:      -3.2      2.844      3.425
REMARK  1 active torsions:
REMARK  status: ('A' for Active; 'I' for Inactive)
REMARK    1  A    between atoms: C1_1  and  S3_3 
ROOT
HETATM    1  C1  UNL     1     -34.061   4.967   3.925  1.00 20.00     0.295 C 
HETATM    2  O2  UNL     1     -34.714   4.091   4.480  1.00 20.00    -0.266 OA
HETATM    3 CL4  UNL     1     -33.012   4.734   2.557  1.00 20.00    -0.031 Cl
ENDROOT
BRANCH   1   4
HETATM    4  S3  UNL     1     -34.103   6.656   4.467  1.00 20.00     0.036 SA
HETATM    5 CL5  UNL     1     -32.621   7.462   3.330  1.00 20.00    -0.034 Cl
ENDBRANCH   1   4
TORSDOF 1
ENDMDL
