MODEL 1
REMARK VINA RESULT:      -3.9      0.000      0.000
REMARK  1 active torsions:
REMARK  status: ('A' for Active; 'I' for Inactive)
REMARK    1  A    between atoms: C2_2  and  C3_3 
ROOT
HETATM    1  C1  UNL     1     -35.607   6.081   3.454  1.00 20.00     0.051 C 
HETATM    2  C3  UNL     1     -34.231   5.796   4.053  1.00 20.00     0.122 C 
HETATM    3 CL5  UNL     1     -34.420   4.740   5.493  1.00 20.00    -0.101 Cl
HETATM    4 CL6  UNL     1     -33.265   4.883   2.836  1.00 20.00    -0.101 Cl
ENDROOT
BRANCH   2   5
HETATM    5  C2  UNL     1     -33.452   7.068   4.415  1.00 20.00     0.156 C 
HETATM    6 CL4  UNL     1     -33.584   7.519   6.138  1.00 20.00    -0.127 Cl
ENDBRANCH   2   5
TORSDOF 1
ENDMDL
MODEL 2
REMARK VINA RESULT:      -3.9      1.463      1.965
REMARK  1 active torsions:
REMARK  status: ('A' for Active; 'I' for Inactive)
REMARK    1  A    between atoms: C2_2  and  C3_3 
ROOT
HETATM    1  C1  UNL     1     -35.631   6.116   3.600  1.00 20.00     0.051 C 
HETATM    2  C3  UNL     1     -34.221   5.801   4.095  1.00 20.00     0.122 C 
HETATM    3 CL5  UNL     1     -33.866   6.801   5.544  1.00 20.00    -0.101 Cl
HETATM    4 CL6  UNL     1     -34.178   4.074   4.607  1.00 20.00    -0.101 Cl
ENDROOT
BRANCH   2   5
HETATM    5  C2  UNL     1     -33.142   6.003   3.023  1.00 20.00     0.156 C 
HETATM    6 CL4  UNL     1     -32.360   7.606   3.091  1.00 20.00    -0.127 Cl
ENDBRANCH   2   5
TORSDOF 1
ENDMDL
MODEL 3
REMARK VINA RESULT:      -3.9      1.348      1.970
REMARK  1 active torsions:
REMARK  status: ('A' for Active; 'I' for Inactive)
REMARK    1  A    between atoms: C2_2  and  C3_3 
ROOT
HETATM    1  C1  UNL     1     -34.429   4.796   5.276  1.00 20.00     0.051 C 
HETATM    2  C3  UNL     1     -34.225   5.710   4.070  1.00 20.00     0.122 C 
HETATM    3 CL5  UNL     1     -33.306   4.825   2.806  1.00 20.00    -0.101 Cl
HETATM    4 CL6  UNL     1     -35.844   6.106   3.384  1.00 20.00    -0.101 Cl
ENDROOT
BRANCH   2   5
HETATM    5  C2  UNL     1     -33.526   7.030   4.420  1.00 20.00     0.156 C 
HETATM    6 CL4  UNL     1     -33.660   7.473   6.144  1.00 20.00    -0.127 Cl
ENDBRANCH   2   5
TORSDOF 1
ENDMDL
MODEL 4
REMARK VINA RESULT:      -3.8      1.901      2.570
REMARK  1 active torsions:
REMARK  status: ('A' for Active; 'I' for Inactive)
REMARK    1  A    between atoms: C2_2  and  C3_3 
ROOT
HETATM    1  C1  UNL     1     -34.298   4.283   4.667  1.00 20.00     0.051 C 
HETATM    2  C3  UNL     1     -34.262   5.712   4.127  1.00 20.00     0.122 C 
HETATM    3 CL5  UNL     1     -35.889   6.151   3.506  1.00 20.00    -0.101 Cl
HETATM    4 CL6  UNL     1     -33.888   6.821   5.497  1.00 20.00    -0.101 Cl
ENDROOT
BRANCH   2   5
HETATM    5  C2  UNL     1     -33.196   5.924   3.044  1.00 20.00     0.156 C 
HETATM    6 CL4  UNL     1     -32.454   7.548   3.081  1.00 20.00    -0.127 Cl
ENDBRANCH   2   5
TORSDOF 1
ENDMDL
MODEL 5
REMARK VINA RESULT:      -3.8      1.882      2.229
REMARK  1 active torsions:
REMARK  status: ('A' for Active; 'I' for Inactive)
REMARK    1  A    between atoms: C2_2  and  C3_3 
ROOT
HETATM    1  C1  UNL     1     -34.000   6.659   5.386  1.00 20.00     0.051 C 
HETATM    2  C3  UNL     1     -34.230   5.798   4.145  1.00 20.00     0.122 C 
HETATM    3 CL5  UNL     1     -34.178   4.064   4.611  1.00 20.00    -0.101 Cl
HETATM    4 CL6  UNL     1     -35.886   6.140   3.522  1.00 20.00    -0.101 Cl
ENDROOT
BRANCH   2   5
HETATM    5  C2  UNL     1     -33.232   6.083   3.015  1.00 20.00     0.156 C 
HETATM    6 CL4  UNL     1     -32.277   7.571   3.265  1.00 20.00    -0.127 Cl
ENDBRANCH   2   5
TORSDOF 1
ENDMDL
MODEL 6
REMARK VINA RESULT:      -3.8      1.352      1.946
REMARK  1 active torsions:
REMARK  status: ('A' for Active; 'I' for Inactive)
REMARK    1  A    between atoms: C2_2  and  C3_3 
ROOT
HETATM    1  C1  UNL     1     -33.418   5.005   2.936  1.00 20.00     0.051 C 
HETATM    2  C3  UNL     1     -34.200   5.791   3.986  1.00 20.00     0.122 C 
HETATM    3 CL5  UNL     1     -35.860   6.102   3.376  1.00 20.00    -0.101 Cl
HETATM    4 CL6  UNL     1     -34.349   4.767   5.460  1.00 20.00    -0.101 Cl
ENDROOT
BRANCH   2   5
HETATM    5  C2  UNL     1     -33.519   7.106   4.391  1.00 20.00     0.156 C 
HETATM    6 CL4  UNL     1     -33.645   7.466   6.134  1.00 20.00    -0.127 Cl
ENDBRANCH   2   5
TORSDOF 1
ENDMDL
MODEL 7
REMARK VINA RESULT:      -3.7      1.201      1.232
REMARK  1 active torsions:
REMARK  status: ('A' for Active; 'I' for Inactive)
REMARK    1  A    between atoms: C2_2  and  C3_3 
ROOT
HETATM    1  C1  UNL     1     -35.686   6.020   3.589  1.00 20.00     0.051 C 
HETATM    2  C3  UNL     1     -34.379   5.661   4.294  1.00 20.00     0.122 C 
HETATM    3 CL5  UNL     1     -34.115   3.888   4.180  1.00 20.00    -0.101 Cl
HETATM    4 CL6  UNL     1     -33.027   6.466   3.416  1.00 20.00    -0.101 Cl
ENDROOT
BRANCH   2   5
HETATM    5  C2  UNL     1     -34.332   6.120   5.757  1.00 20.00     0.156 C 
HETATM    6 CL4  UNL     1     -33.405   7.626   6.003  1.00 20.00    -0.127 Cl
ENDBRANCH   2   5
TORSDOF 1
ENDMDL
MODEL 8
REMARK VINA RESULT:      -3.7      1.653      2.170
REMARK  1 active torsions:
REMARK  status: ('A' for Active; 'I' for Inactive)
REMARK    1  A    between atoms: C2_2  and  C3_3 
ROOT
HETATM    1  C1  UNL     1     -34.175   4.041   4.223  1.00 20.00     0.051 C 
HETATM    2  C3  UNL     1     -34.331   5.558   4.316  1.00 20.00     0.122 C 
HETATM    3 CL5  UNL     1     -33.016   6.345   3.380  1.00 20.00    -0.101 Cl
HETATM    4 CL6  UNL     1     -35.893   6.011   3.541  1.00 20.00    -0.101 Cl
ENDROOT
BRANCH   2   5
HETATM    5  C2  UNL     1     -34.351   6.078   5.760  1.00 20.00     0.156 C 
HETATM    6 CL4  UNL     1     -33.476   7.618   5.976  1.00 20.00    -0.127 Cl
ENDBRANCH   2   5
TORSDOF 1
ENDMDL
MODEL 9
REMARK VINA RESULT:      -3.7      1.589      1.857
REMARK  1 active torsions:
REMARK  status: ('A' for Active; 'I' for Inactive)
REMARK    1  A    between atoms: C2_2  and  C3_3 
ROOT
HETATM    1  C1  UNL     1     -33.243   6.290   3.387  1.00 20.00     0.051 C 
HETATM    2  C3  UNL     1     -34.348   5.663   4.236  1.00 20.00     0.122 C 
HETATM    3 CL5  UNL     1     -35.944   6.055   3.512  1.00 20.00    -0.101 Cl
HETATM    4 CL6  UNL     1     -34.154   3.873   4.178  1.00 20.00    -0.101 Cl
ENDROOT
BRANCH   2   5
HETATM    5  C2  UNL     1     -34.302   6.096   5.707  1.00 20.00     0.156 C 
HETATM    6 CL4  UNL     1     -33.471   7.655   5.967  1.00 20.00    -0.127 Cl
ENDBRANCH   2   5
TORSDOF 1
ENDMDL
