MODEL 1
REMARK VINA RESULT:      -5.3      0.000      0.000
REMARK  2 active torsions:
REMARK  status: ('A' for Active; 'I' for Inactive)
REMARK    1  A    between atoms: C1_1  and  P9_9 
REMARK    2  A    between atoms: C2_2  and  P9_9 
ROOT
HETATM    1  P9  UNL     1     -34.007   7.439   3.958  1.00 20.00     0.209 P 
HETATM    2 CL10 UNL     1     -33.476   7.142   5.966  1.00 20.00    -0.077 Cl
ENDROOT
BRANCH   1   3
HETATM    3  C1  UNL     1     -32.437   7.536   3.166  1.00 20.00     0.429 C 
HETATM    4  F3  UNL     1     -32.637   8.210   2.032  1.00 20.00    -0.165 F 
HETATM    5  F4  UNL     1     -31.645   8.202   4.008  1.00 20.00    -0.165 F 
HETATM    6  F5  UNL     1     -32.010   6.292   2.948  1.00 20.00    -0.165 F 
ENDBRANCH   1   3
BRANCH   1   7
HETATM    7  C2  UNL     1     -34.630   5.859   3.497  1.00 20.00     0.429 C 
HETATM    8  F6  UNL     1     -34.392   5.737   2.189  1.00 20.00    -0.165 F 
HETATM    9  F7  UNL     1     -35.937   5.891   3.764  1.00 20.00    -0.165 F 
HETATM   10  F8  UNL     1     -33.991   4.938   4.217  1.00 20.00    -0.165 F 
ENDBRANCH   1   7
TORSDOF 2
ENDMDL
MODEL 2
REMARK VINA RESULT:      -5.2      0.029      1.217
REMARK  2 active torsions:
REMARK  status: ('A' for Active; 'I' for Inactive)
REMARK    1  A    between atoms: C1_1  and  P9_9 
REMARK    2  A    between atoms: C2_2  and  P9_9 
ROOT
HETATM    1  P9  UNL     1     -33.996   7.444   3.950  1.00 20.00     0.209 P 
HETATM    2 CL10 UNL     1     -33.464   7.147   5.958  1.00 20.00    -0.077 Cl
ENDROOT
BRANCH   1   3
HETATM    3  C1  UNL     1     -32.427   7.544   3.158  1.00 20.00     0.429 C 
HETATM    4  F3  UNL     1     -32.034   6.285   2.959  1.00 20.00    -0.165 F 
HETATM    5  F4  UNL     1     -32.641   8.186   2.008  1.00 20.00    -0.165 F 
HETATM    6  F5  UNL     1     -31.602   8.211   3.964  1.00 20.00    -0.165 F 
ENDBRANCH   1   3
BRANCH   1   7
HETATM    7  C2  UNL     1     -34.618   5.863   3.489  1.00 20.00     0.429 C 
HETATM    8  F6  UNL     1     -34.393   5.747   2.179  1.00 20.00    -0.165 F 
HETATM    9  F7  UNL     1     -35.922   5.888   3.770  1.00 20.00    -0.165 F 
HETATM   10  F8  UNL     1     -33.966   4.941   4.198  1.00 20.00    -0.165 F 
ENDBRANCH   1   7
TORSDOF 2
ENDMDL
MODEL 3
REMARK VINA RESULT:      -5.2      0.030      1.210
REMARK  2 active torsions:
REMARK  status: ('A' for Active; 'I' for Inactive)
REMARK    1  A    between atoms: C1_1  and  P9_9 
REMARK    2  A    between atoms: C2_2  and  P9_9 
ROOT
HETATM    1  P9  UNL     1     -33.997   7.445   3.940  1.00 20.00     0.209 P 
HETATM    2 CL10 UNL     1     -33.466   7.156   5.949  1.00 20.00    -0.077 Cl
ENDROOT
BRANCH   1   3
HETATM    3  C1  UNL     1     -32.427   7.538   3.148  1.00 20.00     0.429 C 
HETATM    4  F3  UNL     1     -31.626   8.192   3.991  1.00 20.00    -0.165 F 
HETATM    5  F4  UNL     1     -32.035   6.275   2.968  1.00 20.00    -0.165 F 
HETATM    6  F5  UNL     1     -32.587   8.187   1.995  1.00 20.00    -0.165 F 
ENDBRANCH   1   3
BRANCH   1   7
HETATM    7  C2  UNL     1     -34.620   5.862   3.486  1.00 20.00     0.429 C 
HETATM    8  F6  UNL     1     -34.392   5.738   2.177  1.00 20.00    -0.165 F 
HETATM    9  F7  UNL     1     -35.925   5.891   3.764  1.00 20.00    -0.165 F 
HETATM   10  F8  UNL     1     -33.972   4.943   4.202  1.00 20.00    -0.165 F 
ENDBRANCH   1   7
TORSDOF 2
ENDMDL
MODEL 4
REMARK VINA RESULT:      -5.2      1.333      3.306
REMARK  2 active torsions:
REMARK  status: ('A' for Active; 'I' for Inactive)
REMARK    1  A    between atoms: C1_1  and  P9_9 
REMARK    2  A    between atoms: C2_2  and  P9_9 
ROOT
HETATM    1  P9  UNL     1     -33.346   5.990   4.631  1.00 20.00     0.209 P 
HETATM    2 CL10 UNL     1     -33.785   7.499   6.019  1.00 20.00    -0.077 Cl
ENDROOT
BRANCH   1   3
HETATM    3  C1  UNL     1     -34.813   5.016   4.660  1.00 20.00     0.429 C 
HETATM    4  F3  UNL     1     -34.507   3.870   4.049  1.00 20.00    -0.165 F 
HETATM    5  F4  UNL     1     -35.102   4.831   5.949  1.00 20.00    -0.165 F 
HETATM    6  F5  UNL     1     -35.767   5.692   4.020  1.00 20.00    -0.165 F 
ENDBRANCH   1   3
BRANCH   1   7
HETATM    7  C2  UNL     1     -33.427   6.854   3.099  1.00 20.00     0.429 C 
HETATM    8  F6  UNL     1     -32.169   7.166   2.785  1.00 20.00    -0.165 F 
HETATM    9  F7  UNL     1     -34.166   7.940   3.333  1.00 20.00    -0.165 F 
HETATM   10  F8  UNL     1     -33.989   6.046   2.200  1.00 20.00    -0.165 F 
ENDBRANCH   1   7
TORSDOF 2
ENDMDL
MODEL 5
REMARK VINA RESULT:      -5.2      1.326      3.405
REMARK  2 active torsions:
REMARK  status: ('A' for Active; 'I' for Inactive)
REMARK    1  A    between atoms: C1_1  and  P9_9 
REMARK    2  A    between atoms: C2_2  and  P9_9 
ROOT
HETATM    1  P9  UNL     1     -33.346   6.004   4.631  1.00 20.00     0.209 P 
HETATM    2 CL10 UNL     1     -33.775   7.502   6.036  1.00 20.00    -0.077 Cl
ENDROOT
BRANCH   1   3
HETATM    3  C1  UNL     1     -34.817   5.037   4.655  1.00 20.00     0.429 C 
HETATM    4  F3  UNL     1     -34.512   3.886   4.054  1.00 20.00    -0.165 F 
HETATM    5  F4  UNL     1     -35.117   4.862   5.944  1.00 20.00    -0.165 F 
HETATM    6  F5  UNL     1     -35.764   5.713   4.004  1.00 20.00    -0.165 F 
ENDBRANCH   1   3
BRANCH   1   7
HETATM    7  C2  UNL     1     -33.428   6.883   3.108  1.00 20.00     0.429 C 
HETATM    8  F6  UNL     1     -33.968   6.040   2.226  1.00 20.00    -0.165 F 
HETATM    9  F7  UNL     1     -32.167   7.189   2.797  1.00 20.00    -0.165 F 
HETATM   10  F8  UNL     1     -34.179   7.968   3.299  1.00 20.00    -0.165 F 
ENDBRANCH   1   7
TORSDOF 2
ENDMDL
MODEL 6
REMARK VINA RESULT:      -4.9      1.250      2.251
REMARK  2 active torsions:
REMARK  status: ('A' for Active; 'I' for Inactive)
REMARK    1  A    between atoms: C1_1  and  P9_9 
REMARK    2  A    between atoms: C2_2  and  P9_9 
ROOT
HETATM    1  P9  UNL     1     -34.498   6.496   4.271  1.00 20.00     0.209 P 
HETATM    2 CL10 UNL     1     -33.363   7.354   5.813  1.00 20.00    -0.077 Cl
ENDROOT
BRANCH   1   3
HETATM    3  C1  UNL     1     -33.430   6.665   2.881  1.00 20.00     0.429 C 
HETATM    4  F3  UNL     1     -32.271   6.107   3.236  1.00 20.00    -0.165 F 
HETATM    5  F4  UNL     1     -34.020   6.000   1.886  1.00 20.00    -0.165 F 
HETATM    6  F5  UNL     1     -33.305   7.965   2.615  1.00 20.00    -0.165 F 
ENDBRANCH   1   3
BRANCH   1   7
HETATM    7  C2  UNL     1     -34.429   4.781   4.666  1.00 20.00     0.429 C 
HETATM    8  F6  UNL     1     -35.662   4.309   4.469  1.00 20.00    -0.165 F 
HETATM    9  F7  UNL     1     -34.070   4.717   5.950  1.00 20.00    -0.165 F 
HETATM   10  F8  UNL     1     -33.533   4.209   3.862  1.00 20.00    -0.165 F 
ENDBRANCH   1   7
TORSDOF 2
ENDMDL
MODEL 7
REMARK VINA RESULT:      -4.9      2.050      2.388
REMARK  2 active torsions:
REMARK  status: ('A' for Active; 'I' for Inactive)
REMARK    1  A    between atoms: C1_1  and  P9_9 
REMARK    2  A    between atoms: C2_2  and  P9_9 
ROOT
HETATM    1  P9  UNL     1     -33.371   5.736   3.686  1.00 20.00     0.209 P 
HETATM    2 CL10 UNL     1     -34.127   5.948   1.741  1.00 20.00    -0.077 Cl
ENDROOT
BRANCH   1   3
HETATM    3  C1  UNL     1     -33.098   7.407   4.167  1.00 20.00     0.429 C 
HETATM    4  F3  UNL     1     -31.977   7.790   3.554  1.00 20.00    -0.165 F 
HETATM    5  F4  UNL     1     -34.161   8.089   3.733  1.00 20.00    -0.165 F 
HETATM    6  F5  UNL     1     -32.985   7.440   5.495  1.00 20.00    -0.165 F 
ENDBRANCH   1   3
BRANCH   1   7
HETATM    7  C2  UNL     1     -34.799   5.249   4.593  1.00 20.00     0.429 C 
HETATM    8  F6  UNL     1     -34.833   3.917   4.540  1.00 20.00    -0.165 F 
HETATM    9  F7  UNL     1     -35.837   5.800   3.960  1.00 20.00    -0.165 F 
HETATM   10  F8  UNL     1     -34.670   5.704   5.840  1.00 20.00    -0.165 F 
ENDBRANCH   1   7
TORSDOF 2
ENDMDL
MODEL 8
REMARK VINA RESULT:      -4.9      2.048      2.849
REMARK  2 active torsions:
REMARK  status: ('A' for Active; 'I' for Inactive)
REMARK    1  A    between atoms: C1_1  and  P9_9 
REMARK    2  A    between atoms: C2_2  and  P9_9 
ROOT
HETATM    1  P9  UNL     1     -34.573   6.297   4.163  1.00 20.00     0.209 P 
HETATM    2 CL10 UNL     1     -34.482   4.262   4.663  1.00 20.00    -0.077 Cl
ENDROOT
BRANCH   1   3
HETATM    3  C1  UNL     1     -33.582   7.036   5.417  1.00 20.00     0.429 C 
HETATM    4  F3  UNL     1     -34.355   7.949   6.008  1.00 20.00    -0.165 F 
HETATM    5  F4  UNL     1     -33.254   6.048   6.251  1.00 20.00    -0.165 F 
HETATM    6  F5  UNL     1     -32.515   7.579   4.831  1.00 20.00    -0.165 F 
ENDBRANCH   1   3
BRANCH   1   7
HETATM    7  C2  UNL     1     -33.571   6.373   2.717  1.00 20.00     0.429 C 
HETATM    8  F6  UNL     1     -34.336   5.934   1.716  1.00 20.00    -0.165 F 
HETATM    9  F7  UNL     1     -32.537   5.561   2.947  1.00 20.00    -0.165 F 
HETATM   10  F8  UNL     1     -33.189   7.639   2.546  1.00 20.00    -0.165 F 
ENDBRANCH   1   7
TORSDOF 2
ENDMDL
MODEL 9
REMARK VINA RESULT:      -4.8      2.059      2.611
REMARK  2 active torsions:
REMARK  status: ('A' for Active; 'I' for Inactive)
REMARK    1  A    between atoms: C1_1  and  P9_9 
REMARK    2  A    between atoms: C2_2  and  P9_9 
ROOT
HETATM    1  P9  UNL     1     -33.354   5.736   3.746  1.00 20.00     0.209 P 
HETATM    2 CL10 UNL     1     -34.018   5.939   1.767  1.00 20.00    -0.077 Cl
ENDROOT
BRANCH   1   3
HETATM    3  C1  UNL     1     -33.114   7.410   4.234  1.00 20.00     0.429 C 
HETATM    4  F3  UNL     1     -31.994   7.814   3.632  1.00 20.00    -0.165 F 
HETATM    5  F4  UNL     1     -34.184   8.075   3.793  1.00 20.00    -0.165 F 
HETATM    6  F5  UNL     1     -33.013   7.440   5.563  1.00 20.00    -0.165 F 
ENDBRANCH   1   3
BRANCH   1   7
HETATM    7  C2  UNL     1     -34.821   5.244   4.585  1.00 20.00     0.429 C 
HETATM    8  F6  UNL     1     -34.693   5.683   5.839  1.00 20.00    -0.165 F 
HETATM    9  F7  UNL     1     -34.846   3.911   4.525  1.00 20.00    -0.165 F 
HETATM   10  F8  UNL     1     -35.859   5.797   3.958  1.00 20.00    -0.165 F 
ENDBRANCH   1   7
TORSDOF 2
ENDMDL
