MODEL 1
REMARK VINA RESULT:      -5.4      0.000      0.000
REMARK  1 active torsions:
REMARK  status: ('A' for Active; 'I' for Inactive)
REMARK    1  A    between atoms: C4_4  and  C8_8 
ROOT
HETATM    1  C1  UNL     1     -32.507   7.499   4.350  1.00 20.00     0.030 A 
HETATM    2  C2  UNL     1     -33.490   7.444   2.155  1.00 20.00     0.055 A 
HETATM    3  C3  UNL     1     -31.616   8.445   3.868  1.00 20.00     0.119 A 
HETATM    4  C4  UNL     1     -33.458   6.994   3.471  1.00 20.00    -0.010 A 
HETATM    5  C5  UNL     1     -32.556   8.393   1.773  1.00 20.00     0.126 A 
HETATM    6  N9  UNL     1     -31.617   8.907   2.598  1.00 20.00    -0.249 NA
HETATM    7 CL12 UNL     1     -32.520   9.007   0.171  1.00 20.00    -0.062 Cl
ENDROOT
BRANCH   4   8
HETATM    8  C8  UNL     1     -34.480   5.933   3.955  1.00 20.00     0.173 C 
HETATM    9  C6  UNL     1     -34.033   4.463   3.943  1.00 20.00     0.218 C 
HETATM   10  O10 UNL     1     -34.537   4.273   5.287  1.00 20.00    -0.384 OA
HETATM   11  C7  UNL     1     -34.601   5.708   5.471  1.00 20.00     0.218 C 
HETATM   12  F11 UNL     1     -35.646   6.180   3.320  1.00 20.00    -0.233 F 
ENDBRANCH   4   8
TORSDOF 1
ENDMDL
MODEL 2
REMARK VINA RESULT:      -5.2      3.739      4.830
REMARK  1 active torsions:
REMARK  status: ('A' for Active; 'I' for Inactive)
REMARK    1  A    between atoms: C4_4  and  C8_8 
ROOT
HETATM    1  C1  UNL     1     -32.898   6.157   2.161  1.00 20.00     0.030 A 
HETATM    2  C2  UNL     1     -33.393   7.390   4.167  1.00 20.00     0.055 A 
HETATM    3  C3  UNL     1     -33.548   5.074   2.731  1.00 20.00     0.119 A 
HETATM    4  C4  UNL     1     -32.823   7.333   2.899  1.00 20.00    -0.010 A 
HETATM    5  C5  UNL     1     -34.021   6.251   4.647  1.00 20.00     0.126 A 
HETATM    6  N9  UNL     1     -34.113   5.091   3.959  1.00 20.00    -0.249 NA
HETATM    7 CL12 UNL     1     -34.751   6.229   6.199  1.00 20.00    -0.062 Cl
ENDROOT
BRANCH   4   8
HETATM    8  C8  UNL     1     -32.108   8.576   2.311  1.00 20.00     0.173 C 
HETATM    9  C6  UNL     1     -31.453   8.428   0.929  1.00 20.00     0.218 C 
HETATM   10  O10 UNL     1     -32.059   9.665   0.482  1.00 20.00    -0.384 OA
HETATM   11  C7  UNL     1     -32.980   9.623   1.599  1.00 20.00     0.218 C 
HETATM   12  F11 UNL     1     -31.300   9.068   3.275  1.00 20.00    -0.233 F 
ENDBRANCH   4   8
TORSDOF 1
ENDMDL
MODEL 3
REMARK VINA RESULT:      -4.8     11.292     11.801
REMARK  1 active torsions:
REMARK  status: ('A' for Active; 'I' for Inactive)
REMARK    1  A    between atoms: C4_4  and  C8_8 
ROOT
HETATM    1  C1  UNL     1     -35.621  16.568  -2.075  1.00 20.00     0.030 A 
HETATM    2  C2  UNL     1     -33.285  17.085  -2.326  1.00 20.00     0.055 A 
HETATM    3  C3  UNL     1     -35.588  17.253  -0.870  1.00 20.00     0.119 A 
HETATM    4  C4  UNL     1     -34.444  16.487  -2.810  1.00 20.00    -0.010 A 
HETATM    5  C5  UNL     1     -33.357  17.747  -1.110  1.00 20.00     0.126 A 
HETATM    6  N9  UNL     1     -34.481  17.846  -0.367  1.00 20.00    -0.249 NA
HETATM    7 CL12 UNL     1     -31.978  18.513  -0.435  1.00 20.00    -0.062 Cl
ENDROOT
BRANCH   4   8
HETATM    8  C8  UNL     1     -34.423  15.734  -4.165  1.00 20.00     0.173 C 
HETATM    9  C6  UNL     1     -33.062  15.234  -4.676  1.00 20.00     0.218 C 
HETATM   10  O10 UNL     1     -33.625  13.932  -4.970  1.00 20.00    -0.384 OA
HETATM   11  C7  UNL     1     -34.778  14.239  -4.149  1.00 20.00     0.218 C 
HETATM   12  F11 UNL     1     -35.124  16.477  -5.048  1.00 20.00    -0.233 F 
ENDBRANCH   4   8
TORSDOF 1
ENDMDL
MODEL 4
REMARK VINA RESULT:      -4.7      3.640      4.545
REMARK  1 active torsions:
REMARK  status: ('A' for Active; 'I' for Inactive)
REMARK    1  A    between atoms: C4_4  and  C8_8 
ROOT
HETATM    1  C1  UNL     1     -32.997   8.060   5.032  1.00 20.00     0.030 A 
HETATM    2  C2  UNL     1     -33.279   6.251   3.472  1.00 20.00     0.055 A 
HETATM    3  C3  UNL     1     -33.760   7.333   5.931  1.00 20.00     0.119 A 
HETATM    4  C4  UNL     1     -32.756   7.502   3.781  1.00 20.00    -0.010 A 
HETATM    5  C5  UNL     1     -34.029   5.604   4.442  1.00 20.00     0.126 A 
HETATM    6  N9  UNL     1     -34.284   6.115   5.667  1.00 20.00    -0.249 NA
HETATM    7 CL12 UNL     1     -34.713   4.058   4.149  1.00 20.00    -0.062 Cl
ENDROOT
BRANCH   4   8
HETATM    8  C8  UNL     1     -31.909   8.271   2.736  1.00 20.00     0.173 C 
HETATM    9  C6  UNL     1     -32.103   7.901   1.257  1.00 20.00     0.218 C 
HETATM   10  O10 UNL     1     -32.204   9.300   0.895  1.00 20.00    -0.384 OA
HETATM   11  C7  UNL     1     -32.420   9.648   2.284  1.00 20.00     0.218 C 
HETATM   12  F11 UNL     1     -30.628   8.251   3.165  1.00 20.00    -0.233 F 
ENDBRANCH   4   8
TORSDOF 1
ENDMDL
MODEL 5
REMARK VINA RESULT:      -4.7     11.743     12.124
REMARK  1 active torsions:
REMARK  status: ('A' for Active; 'I' for Inactive)
REMARK    1  A    between atoms: C4_4  and  C8_8 
ROOT
HETATM    1  C1  UNL     1     -35.591  16.619  -1.925  1.00 20.00     0.030 A 
HETATM    2  C2  UNL     1     -33.252  17.135  -2.157  1.00 20.00     0.055 A 
HETATM    3  C3  UNL     1     -35.576  17.336  -0.739  1.00 20.00     0.119 A 
HETATM    4  C4  UNL     1     -34.403  16.521  -2.642  1.00 20.00    -0.010 A 
HETATM    5  C5  UNL     1     -33.343  17.829  -0.961  1.00 20.00     0.126 A 
HETATM    6  N9  UNL     1     -34.478  17.945  -0.237  1.00 20.00    -0.249 NA
HETATM    7 CL12 UNL     1     -31.976  18.617  -0.289  1.00 20.00    -0.062 Cl
ENDROOT
BRANCH   4   8
HETATM    8  C8  UNL     1     -34.362  15.732  -3.975  1.00 20.00     0.173 C 
HETATM    9  C6  UNL     1     -35.287  16.205  -5.107  1.00 20.00     0.218 C 
HETATM   10  O10 UNL     1     -34.198  16.138  -6.058  1.00 20.00    -0.384 OA
HETATM   11  C7  UNL     1     -33.244  16.081  -4.970  1.00 20.00     0.218 C 
HETATM   12  F11 UNL     1     -34.462  14.420  -3.668  1.00 20.00    -0.233 F 
ENDBRANCH   4   8
TORSDOF 1
ENDMDL
MODEL 6
REMARK VINA RESULT:      -4.6     11.286     12.175
REMARK  1 active torsions:
REMARK  status: ('A' for Active; 'I' for Inactive)
REMARK    1  A    between atoms: C4_4  and  C8_8 
ROOT
HETATM    1  C1  UNL     1     -33.525  17.071  -5.126  1.00 20.00     0.030 A 
HETATM    2  C2  UNL     1     -33.692  16.309  -2.850  1.00 20.00     0.055 A 
HETATM    3  C3  UNL     1     -33.418  18.361  -4.630  1.00 20.00     0.119 A 
HETATM    4  C4  UNL     1     -33.664  16.032  -4.213  1.00 20.00    -0.010 A 
HETATM    5  C5  UNL     1     -33.577  17.633  -2.456  1.00 20.00     0.126 A 
HETATM    6  N9  UNL     1     -33.441  18.669  -3.314  1.00 20.00    -0.249 NA
HETATM    7 CL12 UNL     1     -33.600  18.069  -0.797  1.00 20.00    -0.062 Cl
ENDROOT
BRANCH   4   8
HETATM    8  C8  UNL     1     -33.788  14.570  -4.712  1.00 20.00     0.173 C 
HETATM    9  C6  UNL     1     -35.137  13.863  -4.506  1.00 20.00     0.218 C 
HETATM   10  O10 UNL     1     -35.128  13.395  -5.876  1.00 20.00    -0.384 OA
HETATM   11  C7  UNL     1     -34.093  14.353  -6.203  1.00 20.00     0.218 C 
HETATM   12  F11 UNL     1     -32.714  13.895  -4.247  1.00 20.00    -0.233 F 
ENDBRANCH   4   8
TORSDOF 1
ENDMDL
MODEL 7
REMARK VINA RESULT:      -4.5     11.703     12.270
REMARK  1 active torsions:
REMARK  status: ('A' for Active; 'I' for Inactive)
REMARK    1  A    between atoms: C4_4  and  C8_8 
ROOT
HETATM    1  C1  UNL     1     -35.074  14.031  -4.781  1.00 20.00     0.030 A 
HETATM    2  C2  UNL     1     -36.474  15.801  -3.945  1.00 20.00     0.055 A 
HETATM    3  C3  UNL     1     -36.227  13.403  -5.227  1.00 20.00     0.119 A 
HETATM    4  C4  UNL     1     -35.209  15.252  -4.129  1.00 20.00    -0.010 A 
HETATM    5  C5  UNL     1     -37.563  15.093  -4.429  1.00 20.00     0.126 A 
HETATM    6  N9  UNL     1     -37.472  13.905  -5.067  1.00 20.00    -0.249 NA
HETATM    7 CL12 UNL     1     -39.160  15.693  -4.249  1.00 20.00    -0.062 Cl
ENDROOT
BRANCH   4   8
HETATM    8  C8  UNL     1     -33.954  15.999  -3.609  1.00 20.00     0.173 C 
HETATM    9  C6  UNL     1     -33.664  17.389  -4.196  1.00 20.00     0.218 C 
HETATM   10  O10 UNL     1     -33.445  17.930  -2.870  1.00 20.00    -0.384 OA
HETATM   11  C7  UNL     1     -34.086  16.770  -2.286  1.00 20.00     0.218 C 
HETATM   12  F11 UNL     1     -32.920  15.131  -3.662  1.00 20.00    -0.233 F 
ENDBRANCH   4   8
TORSDOF 1
ENDMDL
MODEL 8
REMARK VINA RESULT:      -4.5     11.617     12.019
REMARK  1 active torsions:
REMARK  status: ('A' for Active; 'I' for Inactive)
REMARK    1  A    between atoms: C4_4  and  C8_8 
ROOT
HETATM    1  C1  UNL     1     -33.335  17.326  -2.309  1.00 20.00     0.030 A 
HETATM    2  C2  UNL     1     -35.437  16.859  -1.236  1.00 20.00     0.055 A 
HETATM    3  C3  UNL     1     -32.983  18.054  -1.183  1.00 20.00     0.119 A 
HETATM    4  C4  UNL     1     -34.586  16.720  -2.328  1.00 20.00    -0.010 A 
HETATM    5  C5  UNL     1     -34.990  17.608  -0.159  1.00 20.00     0.126 A 
HETATM    6  N9  UNL     1     -33.782  18.211  -0.104  1.00 20.00    -0.249 NA
HETATM    7 CL12 UNL     1     -35.971  17.832   1.231  1.00 20.00    -0.062 Cl
ENDROOT
BRANCH   4   8
HETATM    8  C8  UNL     1     -35.031  15.893  -3.561  1.00 20.00     0.173 C 
HETATM    9  C6  UNL     1     -36.534  15.853  -3.881  1.00 20.00     0.218 C 
HETATM   10  O10 UNL     1     -36.269  16.137  -5.276  1.00 20.00    -0.384 OA
HETATM   11  C7  UNL     1     -34.928  16.565  -4.939  1.00 20.00     0.218 C 
HETATM   12  F11 UNL     1     -34.436  14.684  -3.470  1.00 20.00    -0.233 F 
ENDBRANCH   4   8
TORSDOF 1
ENDMDL
MODEL 9
REMARK VINA RESULT:      -4.5     11.374     11.822
REMARK  1 active torsions:
REMARK  status: ('A' for Active; 'I' for Inactive)
REMARK    1  A    between atoms: C4_4  and  C8_8 
ROOT
HETATM    1  C1  UNL     1     -36.194  16.303  -3.317  1.00 20.00     0.030 A 
HETATM    2  C2  UNL     1     -33.825  16.211  -2.904  1.00 20.00     0.055 A 
HETATM    3  C3  UNL     1     -36.237  17.424  -2.504  1.00 20.00     0.119 A 
HETATM    4  C4  UNL     1     -34.961  15.690  -3.516  1.00 20.00    -0.010 A 
HETATM    5  C5  UNL     1     -33.976  17.337  -2.110  1.00 20.00     0.126 A 
HETATM    6  N9  UNL     1     -35.156  17.958  -1.893  1.00 20.00    -0.249 NA
HETATM    7 CL12 UNL     1     -32.631  18.048  -1.317  1.00 20.00    -0.062 Cl
ENDROOT
BRANCH   4   8
HETATM    8  C8  UNL     1     -34.853  14.433  -4.416  1.00 20.00     0.173 C 
HETATM    9  C6  UNL     1     -36.135  13.947  -5.110  1.00 20.00     0.218 C 
HETATM   10  O10 UNL     1     -35.434  13.823  -6.371  1.00 20.00    -0.384 OA
HETATM   11  C7  UNL     1     -34.351  14.633  -5.855  1.00 20.00     0.218 C 
HETATM   12  F11 UNL     1     -34.196  13.489  -3.709  1.00 20.00    -0.233 F 
ENDBRANCH   4   8
TORSDOF 1
ENDMDL
