MODEL 1
REMARK VINA RESULT:      -4.4      0.000      0.000
REMARK  0 active torsions:
REMARK  status: ('A' for Active; 'I' for Inactive)
ROOT
HETATM    1  C1  UNL     1     -34.854  15.558  -3.947  1.00 20.00    -0.071 C 
HETATM    2  C2  UNL     1     -34.597  16.337  -2.891  1.00 20.00    -0.027 C 
HETATM    3  C3  UNL     1     -36.672  15.745  -5.607  1.00 20.00     0.009 C 
HETATM    4  C4  UNL     1     -35.764  15.127  -6.686  1.00 20.00     0.006 C 
HETATM    5  C5  UNL     1     -35.846  13.642  -4.858  1.00 20.00     0.014 C 
HETATM    6  C6  UNL     1     -36.222  15.024  -4.325  1.00 20.00     0.015 C 
HETATM    7  C7  UNL     1     -34.833  14.202  -5.870  1.00 20.00    -0.002 C 
HETATM    8  C8  UNL     1     -33.850  15.009  -4.956  1.00 20.00    -0.021 C 
HETATM    9  C9  UNL     1     -35.634  16.798  -1.922  1.00 20.00     0.036 C 
HETATM   10  C10 UNL     1     -32.823  14.072  -4.294  1.00 20.00     0.020 C 
HETATM   11  C11 UNL     1     -33.093  16.115  -5.703  1.00 20.00     0.020 C 
ENDROOT
TORSDOF 0
ENDMDL
MODEL 2
REMARK VINA RESULT:      -4.4      1.187      2.816
REMARK  0 active torsions:
REMARK  status: ('A' for Active; 'I' for Inactive)
ROOT
HETATM    1  C1  UNL     1     -35.855  15.481  -4.298  1.00 20.00    -0.071 C 
HETATM    2  C2  UNL     1     -37.187  15.601  -4.292  1.00 20.00    -0.027 C 
HETATM    3  C3  UNL     1     -34.361  14.872  -6.167  1.00 20.00     0.009 C 
HETATM    4  C4  UNL     1     -33.238  15.735  -5.563  1.00 20.00     0.006 C 
HETATM    5  C5  UNL     1     -33.936  14.191  -3.926  1.00 20.00     0.014 C 
HETATM    6  C6  UNL     1     -35.085  14.332  -4.922  1.00 20.00     0.015 C 
HETATM    7  C7  UNL     1     -33.522  15.667  -4.046  1.00 20.00    -0.002 C 
HETATM    8  C8  UNL     1     -34.839  16.421  -3.656  1.00 20.00    -0.021 C 
HETATM    9  C9  UNL     1     -38.117  14.610  -4.907  1.00 20.00     0.036 C 
HETATM   10  C10 UNL     1     -35.001  16.486  -2.126  1.00 20.00     0.020 C 
HETATM   11  C11 UNL     1     -34.913  17.847  -4.217  1.00 20.00     0.020 C 
ENDROOT
TORSDOF 0
ENDMDL
MODEL 3
REMARK VINA RESULT:      -4.4      0.904      1.029
REMARK  0 active torsions:
REMARK  status: ('A' for Active; 'I' for Inactive)
ROOT
HETATM    1  C1  UNL     1     -35.017  16.101  -3.471  1.00 20.00    -0.071 C 
HETATM    2  C2  UNL     1     -34.520  16.576  -2.323  1.00 20.00    -0.027 C 
HETATM    3  C3  UNL     1     -36.917  16.943  -4.804  1.00 20.00     0.009 C 
HETATM    4  C4  UNL     1     -36.247  16.436  -6.095  1.00 20.00     0.006 C 
HETATM    5  C5  UNL     1     -36.434  14.621  -4.604  1.00 20.00     0.014 C 
HETATM    6  C6  UNL     1     -36.491  15.894  -3.762  1.00 20.00     0.015 C 
HETATM    7  C7  UNL     1     -35.434  15.215  -5.611  1.00 20.00    -0.002 C 
HETATM    8  C8  UNL     1     -34.235  15.629  -4.692  1.00 20.00    -0.021 C 
HETATM    9  C9  UNL     1     -35.355  16.976  -1.154  1.00 20.00     0.036 C 
HETATM   10  C10 UNL     1     -33.344  14.415  -4.372  1.00 20.00     0.020 C 
HETATM   11  C11 UNL     1     -33.357  16.733  -5.297  1.00 20.00     0.020 C 
ENDROOT
TORSDOF 0
ENDMDL
MODEL 4
REMARK VINA RESULT:      -4.3      1.179      3.221
REMARK  0 active torsions:
REMARK  status: ('A' for Active; 'I' for Inactive)
ROOT
HETATM    1  C1  UNL     1     -35.290  15.511  -4.607  1.00 20.00    -0.071 C 
HETATM    2  C2  UNL     1     -36.075  14.550  -5.106  1.00 20.00    -0.027 C 
HETATM    3  C3  UNL     1     -35.272  16.475  -2.334  1.00 20.00     0.009 C 
HETATM    4  C4  UNL     1     -33.761  16.745  -2.451  1.00 20.00     0.006 C 
HETATM    5  C5  UNL     1     -34.835  17.784  -4.273  1.00 20.00     0.014 C 
HETATM    6  C6  UNL     1     -35.771  16.685  -3.774  1.00 20.00     0.015 C 
HETATM    7  C7  UNL     1     -33.563  16.975  -3.966  1.00 20.00    -0.002 C 
HETATM    8  C8  UNL     1     -33.785  15.666  -4.797  1.00 20.00    -0.021 C 
HETATM    9  C9  UNL     1     -37.553  14.494  -4.910  1.00 20.00     0.036 C 
HETATM   10  C10 UNL     1     -33.410  15.884  -6.274  1.00 20.00     0.020 C 
HETATM   11  C11 UNL     1     -32.992  14.465  -4.264  1.00 20.00     0.020 C 
ENDROOT
TORSDOF 0
ENDMDL
MODEL 5
REMARK VINA RESULT:      -4.3      1.100      2.965
REMARK  0 active torsions:
REMARK  status: ('A' for Active; 'I' for Inactive)
ROOT
HETATM    1  C1  UNL     1     -34.975  16.340  -3.634  1.00 20.00    -0.071 C 
HETATM    2  C2  UNL     1     -35.368  16.698  -2.407  1.00 20.00    -0.027 C 
HETATM    3  C3  UNL     1     -33.221  14.732  -4.293  1.00 20.00     0.009 C 
HETATM    4  C4  UNL     1     -34.003  14.390  -5.575  1.00 20.00     0.006 C 
HETATM    5  C5  UNL     1     -33.652  16.720  -5.528  1.00 20.00     0.014 C 
HETATM    6  C6  UNL     1     -33.532  16.224  -4.088  1.00 20.00     0.015 C 
HETATM    7  C7  UNL     1     -34.750  15.706  -5.889  1.00 20.00    -0.002 C 
HETATM    8  C8  UNL     1     -35.863  16.021  -4.833  1.00 20.00    -0.021 C 
HETATM    9  C9  UNL     1     -34.432  17.038  -1.296  1.00 20.00     0.036 C 
HETATM   10  C10 UNL     1     -36.703  17.236  -5.266  1.00 20.00     0.020 C 
HETATM   11  C11 UNL     1     -36.809  14.841  -4.574  1.00 20.00     0.020 C 
ENDROOT
TORSDOF 0
ENDMDL
MODEL 6
REMARK VINA RESULT:      -4.3      1.287      3.605
REMARK  0 active torsions:
REMARK  status: ('A' for Active; 'I' for Inactive)
ROOT
HETATM    1  C1  UNL     1     -34.637  15.823  -5.878  1.00 20.00    -0.071 C 
HETATM    2  C2  UNL     1     -34.989  16.304  -7.076  1.00 20.00    -0.027 C 
HETATM    3  C3  UNL     1     -33.568  16.997  -3.988  1.00 20.00     0.009 C 
HETATM    4  C4  UNL     1     -34.284  16.066  -2.992  1.00 20.00     0.006 C 
HETATM    5  C5  UNL     1     -33.081  14.728  -4.513  1.00 20.00     0.014 C 
HETATM    6  C6  UNL     1     -33.308  16.077  -5.193  1.00 20.00     0.015 C 
HETATM    7  C7  UNL     1     -34.438  14.753  -3.791  1.00 20.00    -0.002 C 
HETATM    8  C8  UNL     1     -35.451  14.898  -4.978  1.00 20.00    -0.021 C 
HETATM    9  C9  UNL     1     -34.114  17.170  -7.917  1.00 20.00     0.036 C 
HETATM   10  C10 UNL     1     -35.716  13.535  -5.643  1.00 20.00     0.020 C 
HETATM   11  C11 UNL     1     -36.795  15.509  -4.561  1.00 20.00     0.020 C 
ENDROOT
TORSDOF 0
ENDMDL
MODEL 7
REMARK VINA RESULT:      -4.1      1.273      2.751
REMARK  0 active torsions:
REMARK  status: ('A' for Active; 'I' for Inactive)
ROOT
HETATM    1  C1  UNL     1     -34.912  15.855  -4.369  1.00 20.00    -0.071 C 
HETATM    2  C2  UNL     1     -34.677  15.889  -3.052  1.00 20.00    -0.027 C 
HETATM    3  C3  UNL     1     -33.294  15.887  -6.234  1.00 20.00     0.009 C 
HETATM    4  C4  UNL     1     -34.256  15.048  -7.095  1.00 20.00     0.006 C 
HETATM    5  C5  UNL     1     -35.410  16.970  -6.367  1.00 20.00     0.014 C 
HETATM    6  C6  UNL     1     -34.251  16.754  -5.396  1.00 20.00     0.015 C 
HETATM    7  C7  UNL     1     -35.648  15.464  -6.570  1.00 20.00    -0.002 C 
HETATM    8  C8  UNL     1     -35.903  14.961  -5.108  1.00 20.00    -0.021 C 
HETATM    9  C9  UNL     1     -33.719  16.827  -2.400  1.00 20.00     0.036 C 
HETATM   10  C10 UNL     1     -37.356  15.236  -4.679  1.00 20.00     0.020 C 
HETATM   11  C11 UNL     1     -35.612  13.467  -4.918  1.00 20.00     0.020 C 
ENDROOT
TORSDOF 0
ENDMDL
MODEL 8
REMARK VINA RESULT:      -4.1      1.411      3.372
REMARK  0 active torsions:
REMARK  status: ('A' for Active; 'I' for Inactive)
ROOT
HETATM    1  C1  UNL     1     -34.155  16.149  -5.394  1.00 20.00    -0.071 C 
HETATM    2  C2  UNL     1     -33.945  16.047  -6.711  1.00 20.00    -0.027 C 
HETATM    3  C3  UNL     1     -35.830  17.507  -4.191  1.00 20.00     0.009 C 
HETATM    4  C4  UNL     1     -35.884  16.458  -3.064  1.00 20.00     0.006 C 
HETATM    5  C5  UNL     1     -33.642  17.132  -3.331  1.00 20.00     0.014 C 
HETATM    6  C6  UNL     1     -34.360  17.450  -4.641  1.00 20.00     0.015 C 
HETATM    7  C7  UNL     1     -34.461  15.856  -3.079  1.00 20.00    -0.002 C 
HETATM    8  C8  UNL     1     -34.188  15.016  -4.373  1.00 20.00    -0.021 C 
HETATM    9  C9  UNL     1     -33.883  17.214  -7.639  1.00 20.00     0.036 C 
HETATM   10  C10 UNL     1     -32.835  14.287  -4.278  1.00 20.00     0.020 C 
HETATM   11  C11 UNL     1     -35.282  13.981  -4.670  1.00 20.00     0.020 C 
ENDROOT
TORSDOF 0
ENDMDL
MODEL 9
REMARK VINA RESULT:      -4.1      1.420      3.296
REMARK  0 active torsions:
REMARK  status: ('A' for Active; 'I' for Inactive)
ROOT
HETATM    1  C1  UNL     1     -35.761  15.086  -5.903  1.00 20.00    -0.071 C 
HETATM    2  C2  UNL     1     -36.982  14.671  -6.260  1.00 20.00    -0.027 C 
HETATM    3  C3  UNL     1     -34.381  14.374  -3.984  1.00 20.00     0.009 C 
HETATM    4  C4  UNL     1     -33.099  14.645  -4.794  1.00 20.00     0.006 C 
HETATM    5  C5  UNL     1     -34.390  16.617  -4.781  1.00 20.00     0.014 C 
HETATM    6  C6  UNL     1     -35.344  15.460  -4.493  1.00 20.00     0.015 C 
HETATM    7  C7  UNL     1     -33.521  15.789  -5.743  1.00 20.00    -0.002 C 
HETATM    8  C8  UNL     1     -34.560  15.315  -6.815  1.00 20.00    -0.021 C 
HETATM    9  C9  UNL     1     -38.121  14.515  -5.309  1.00 20.00     0.036 C 
HETATM   10  C10 UNL     1     -34.826  16.424  -7.850  1.00 20.00     0.020 C 
HETATM   11  C11 UNL     1     -34.130  14.044  -7.560  1.00 20.00     0.020 C 
ENDROOT
TORSDOF 0
ENDMDL
