MODEL 1
REMARK VINA RESULT:      -4.6      0.000      0.000
REMARK  1 active torsions:
REMARK  status: ('A' for Active; 'I' for Inactive)
REMARK    1  A    between atoms: C2_2  and  C6_6 
ROOT
HETATM    1  C3  UNL     1     -33.073  15.551  -4.900  1.00 20.00     0.006 C 
HETATM    2  C4  UNL     1     -33.905  15.987  -6.113  1.00 20.00     0.006 C 
HETATM    3  C5  UNL     1     -34.915  14.083  -5.171  1.00 20.00     0.010 C 
HETATM    4  C6  UNL     1     -35.134  15.605  -3.373  1.00 20.00     0.025 C 
HETATM    5  C7  UNL     1     -34.069  14.723  -4.066  1.00 20.00    -0.005 C 
HETATM    6  C8  UNL     1     -35.304  15.439  -5.781  1.00 20.00    -0.006 C 
HETATM    7  C9  UNL     1     -35.947  16.193  -4.567  1.00 20.00    -0.036 C 
HETATM    8  C11 UNL     1     -37.437  15.808  -4.438  1.00 20.00     0.016 C 
HETATM    9  C12 UNL     1     -35.889  17.723  -4.718  1.00 20.00     0.016 C 
ENDROOT
BRANCH   4  10
HETATM   10  C2  UNL     1     -34.566  16.565  -2.376  1.00 20.00    -0.088 C 
HETATM   11  C1  UNL     1     -33.323  17.055  -2.491  1.00 20.00     0.014 C 
HETATM   12  C10 UNL     1     -35.466  16.946  -1.238  1.00 20.00     0.043 C 
ENDBRANCH   4  10
TORSDOF 1
ENDMDL
MODEL 2
REMARK VINA RESULT:      -4.5      1.397      3.019
REMARK  1 active torsions:
REMARK  status: ('A' for Active; 'I' for Inactive)
REMARK    1  A    between atoms: C2_2  and  C6_6 
ROOT
HETATM    1  C3  UNL     1     -34.130  16.420  -3.623  1.00 20.00     0.006 C 
HETATM    2  C4  UNL     1     -33.328  16.795  -4.875  1.00 20.00     0.006 C 
HETATM    3  C5  UNL     1     -32.999  14.506  -4.445  1.00 20.00     0.010 C 
HETATM    4  C6  UNL     1     -35.327  14.522  -4.867  1.00 20.00     0.025 C 
HETATM    5  C7  UNL     1     -34.313  14.896  -3.762  1.00 20.00    -0.005 C 
HETATM    6  C8  UNL     1     -33.230  15.458  -5.630  1.00 20.00    -0.006 C 
HETATM    7  C9  UNL     1     -34.625  14.998  -6.176  1.00 20.00    -0.036 C 
HETATM    8  C11 UNL     1     -34.446  13.812  -7.147  1.00 20.00     0.016 C 
HETATM    9  C12 UNL     1     -35.356  16.108  -6.952  1.00 20.00     0.016 C 
ENDROOT
BRANCH   4  10
HETATM   10  C2  UNL     1     -36.716  15.011  -4.602  1.00 20.00    -0.088 C 
HETATM   11  C1  UNL     1     -36.961  16.040  -3.777  1.00 20.00     0.014 C 
HETATM   12  C10 UNL     1     -37.820  14.284  -5.310  1.00 20.00     0.043 C 
ENDBRANCH   4  10
TORSDOF 1
ENDMDL
MODEL 3
REMARK VINA RESULT:      -4.3      0.169      1.028
REMARK  1 active torsions:
REMARK  status: ('A' for Active; 'I' for Inactive)
REMARK    1  A    between atoms: C2_2  and  C6_6 
ROOT
HETATM    1  C3  UNL     1     -33.093  15.699  -4.909  1.00 20.00     0.006 C 
HETATM    2  C4  UNL     1     -33.968  16.053  -6.119  1.00 20.00     0.006 C 
HETATM    3  C5  UNL     1     -34.766  14.043  -5.193  1.00 20.00     0.010 C 
HETATM    4  C6  UNL     1     -35.147  15.517  -3.382  1.00 20.00     0.025 C 
HETATM    5  C7  UNL     1     -33.994  14.761  -4.082  1.00 20.00    -0.005 C 
HETATM    6  C8  UNL     1     -35.299  15.354  -5.792  1.00 20.00    -0.006 C 
HETATM    7  C9  UNL     1     -36.020  16.024  -4.572  1.00 20.00    -0.036 C 
HETATM    8  C11 UNL     1     -37.459  15.480  -4.447  1.00 20.00     0.016 C 
HETATM    9  C12 UNL     1     -36.127  17.552  -4.709  1.00 20.00     0.016 C 
ENDROOT
BRANCH   4  10
HETATM   10  C2  UNL     1     -34.685  16.524  -2.376  1.00 20.00    -0.088 C 
HETATM   11  C1  UNL     1     -35.473  16.935  -1.371  1.00 20.00     0.014 C 
HETATM   12  C10 UNL     1     -33.293  17.049  -2.558  1.00 20.00     0.043 C 
ENDBRANCH   4  10
TORSDOF 1
ENDMDL
MODEL 4
REMARK VINA RESULT:      -4.3      1.075      3.612
REMARK  1 active torsions:
REMARK  status: ('A' for Active; 'I' for Inactive)
REMARK    1  A    between atoms: C2_2  and  C6_6 
ROOT
HETATM    1  C3  UNL     1     -35.884  17.585  -3.555  1.00 20.00     0.006 C 
HETATM    2  C4  UNL     1     -34.584  18.107  -4.182  1.00 20.00     0.006 C 
HETATM    3  C5  UNL     1     -34.024  16.709  -2.375  1.00 20.00     0.010 C 
HETATM    4  C6  UNL     1     -35.107  15.151  -3.788  1.00 20.00     0.025 C 
HETATM    5  C7  UNL     1     -35.435  16.309  -2.818  1.00 20.00    -0.005 C 
HETATM    6  C8  UNL     1     -33.565  17.016  -3.809  1.00 20.00    -0.006 C 
HETATM    7  C9  UNL     1     -33.856  15.672  -4.561  1.00 20.00    -0.036 C 
HETATM    8  C11 UNL     1     -32.672  14.698  -4.377  1.00 20.00     0.016 C 
HETATM    9  C12 UNL     1     -34.047  15.866  -6.075  1.00 20.00     0.016 C 
ENDROOT
BRANCH   4  10
HETATM   10  C2  UNL     1     -36.281  14.687  -4.592  1.00 20.00    -0.088 C 
HETATM   11  C1  UNL     1     -37.438  15.366  -4.615  1.00 20.00     0.014 C 
HETATM   12  C10 UNL     1     -36.091  13.419  -5.370  1.00 20.00     0.043 C 
ENDBRANCH   4  10
TORSDOF 1
ENDMDL
MODEL 5
REMARK VINA RESULT:      -4.3      1.261      2.026
REMARK  1 active torsions:
REMARK  status: ('A' for Active; 'I' for Inactive)
REMARK    1  A    between atoms: C2_2  and  C6_6 
ROOT
HETATM    1  C3  UNL     1     -34.997  13.814  -6.291  1.00 20.00     0.006 C 
HETATM    2  C4  UNL     1     -35.834  14.764  -7.157  1.00 20.00     0.006 C 
HETATM    3  C5  UNL     1     -37.162  14.043  -5.353  1.00 20.00     0.010 C 
HETATM    4  C6  UNL     1     -35.463  15.202  -4.184  1.00 20.00     0.025 C 
HETATM    5  C7  UNL     1     -35.703  13.865  -4.923  1.00 20.00    -0.005 C 
HETATM    6  C8  UNL     1     -36.862  15.320  -6.155  1.00 20.00    -0.006 C 
HETATM    7  C9  UNL     1     -36.186  16.248  -5.088  1.00 20.00    -0.036 C 
HETATM    8  C11 UNL     1     -37.268  16.995  -4.279  1.00 20.00     0.016 C 
HETATM    9  C12 UNL     1     -35.278  17.317  -5.719  1.00 20.00     0.016 C 
ENDROOT
BRANCH   4  10
HETATM   10  C2  UNL     1     -34.028  15.452  -3.839  1.00 20.00    -0.088 C 
HETATM   11  C1  UNL     1     -33.030  14.771  -4.421  1.00 20.00     0.014 C 
HETATM   12  C10 UNL     1     -33.771  16.506  -2.805  1.00 20.00     0.043 C 
ENDBRANCH   4  10
TORSDOF 1
ENDMDL
MODEL 6
REMARK VINA RESULT:      -4.3      1.094      2.132
REMARK  1 active torsions:
REMARK  status: ('A' for Active; 'I' for Inactive)
REMARK    1  A    between atoms: C2_2  and  C6_6 
ROOT
HETATM    1  C3  UNL     1     -34.162  18.128  -5.117  1.00 20.00     0.006 C 
HETATM    2  C4  UNL     1     -35.228  17.420  -5.962  1.00 20.00     0.006 C 
HETATM    3  C5  UNL     1     -33.322  16.044  -5.873  1.00 20.00     0.010 C 
HETATM    4  C6  UNL     1     -33.914  16.086  -3.583  1.00 20.00     0.025 C 
HETATM    5  C7  UNL     1     -33.248  16.974  -4.659  1.00 20.00    -0.005 C 
HETATM    6  C8  UNL     1     -34.854  15.935  -5.808  1.00 20.00    -0.006 C 
HETATM    7  C9  UNL     1     -35.103  15.425  -4.347  1.00 20.00    -0.036 C 
HETATM    8  C11 UNL     1     -34.978  13.887  -4.299  1.00 20.00     0.016 C 
HETATM    9  C12 UNL     1     -36.505  15.780  -3.823  1.00 20.00     0.016 C 
ENDROOT
BRANCH   4  10
HETATM   10  C2  UNL     1     -34.218  16.808  -2.309  1.00 20.00    -0.088 C 
HETATM   11  C1  UNL     1     -35.415  16.714  -1.709  1.00 20.00     0.014 C 
HETATM   12  C10 UNL     1     -33.110  17.644  -1.741  1.00 20.00     0.043 C 
ENDBRANCH   4  10
TORSDOF 1
ENDMDL
MODEL 7
REMARK VINA RESULT:      -4.3      1.430      3.662
REMARK  1 active torsions:
REMARK  status: ('A' for Active; 'I' for Inactive)
REMARK    1  A    between atoms: C2_2  and  C6_6 
ROOT
HETATM    1  C3  UNL     1     -32.885  15.467  -5.407  1.00 20.00     0.006 C 
HETATM    2  C4  UNL     1     -33.246  14.648  -4.161  1.00 20.00     0.006 C 
HETATM    3  C5  UNL     1     -34.241  16.770  -3.963  1.00 20.00     0.010 C 
HETATM    4  C6  UNL     1     -35.356  15.964  -5.887  1.00 20.00     0.025 C 
HETATM    5  C7  UNL     1     -33.989  16.542  -5.456  1.00 20.00    -0.005 C 
HETATM    6  C8  UNL     1     -34.566  15.291  -3.701  1.00 20.00    -0.006 C 
HETATM    7  C9  UNL     1     -35.730  15.009  -4.712  1.00 20.00    -0.036 C 
HETATM    8  C11 UNL     1     -37.080  15.429  -4.092  1.00 20.00     0.016 C 
HETATM    9  C12 UNL     1     -35.849  13.520  -5.083  1.00 20.00     0.016 C 
ENDROOT
BRANCH   4  10
HETATM   10  C2  UNL     1     -35.364  15.401  -7.274  1.00 20.00    -0.088 C 
HETATM   11  C1  UNL     1     -34.232  15.056  -7.905  1.00 20.00     0.014 C 
HETATM   12  C10 UNL     1     -36.709  15.247  -7.918  1.00 20.00     0.043 C 
ENDBRANCH   4  10
TORSDOF 1
ENDMDL
MODEL 8
REMARK VINA RESULT:      -4.2      1.289      3.057
REMARK  1 active torsions:
REMARK  status: ('A' for Active; 'I' for Inactive)
REMARK    1  A    between atoms: C2_2  and  C6_6 
ROOT
HETATM    1  C3  UNL     1     -34.259  14.622  -6.242  1.00 20.00     0.006 C 
HETATM    2  C4  UNL     1     -35.135  14.131  -5.083  1.00 20.00     0.006 C 
HETATM    3  C5  UNL     1     -32.947  14.443  -4.276  1.00 20.00     0.010 C 
HETATM    4  C6  UNL     1     -33.486  16.662  -4.892  1.00 20.00     0.025 C 
HETATM    5  C7  UNL     1     -33.081  15.313  -5.529  1.00 20.00    -0.005 C 
HETATM    6  C8  UNL     1     -34.404  14.683  -3.846  1.00 20.00    -0.006 C 
HETATM    7  C9  UNL     1     -34.490  16.246  -3.773  1.00 20.00    -0.036 C 
HETATM    8  C11 UNL     1     -33.990  16.737  -2.397  1.00 20.00     0.016 C 
HETATM    9  C12 UNL     1     -35.926  16.771  -3.943  1.00 20.00     0.016 C 
ENDROOT
BRANCH   4  10
HETATM   10  C2  UNL     1     -33.934  17.688  -5.885  1.00 20.00    -0.088 C 
HETATM   11  C1  UNL     1     -34.368  17.349  -7.108  1.00 20.00     0.014 C 
HETATM   12  C10 UNL     1     -33.869  19.117  -5.435  1.00 20.00     0.043 C 
ENDBRANCH   4  10
TORSDOF 1
ENDMDL
MODEL 9
REMARK VINA RESULT:      -4.1      0.925      2.910
REMARK  1 active torsions:
REMARK  status: ('A' for Active; 'I' for Inactive)
REMARK    1  A    between atoms: C2_2  and  C6_6 
ROOT
HETATM    1  C3  UNL     1     -37.173  15.673  -4.095  1.00 20.00     0.006 C 
HETATM    2  C4  UNL     1     -36.717  14.471  -4.932  1.00 20.00     0.006 C 
HETATM    3  C5  UNL     1     -36.241  16.434  -6.138  1.00 20.00     0.010 C 
HETATM    4  C6  UNL     1     -34.852  16.756  -4.251  1.00 20.00     0.025 C 
HETATM    5  C7  UNL     1     -36.339  16.838  -4.665  1.00 20.00    -0.005 C 
HETATM    6  C8  UNL     1     -35.608  15.071  -5.814  1.00 20.00    -0.006 C 
HETATM    7  C9  UNL     1     -34.348  15.467  -4.970  1.00 20.00    -0.036 C 
HETATM    8  C11 UNL     1     -33.170  15.805  -5.910  1.00 20.00     0.016 C 
HETATM    9  C12 UNL     1     -33.873  14.335  -4.043  1.00 20.00     0.016 C 
ENDROOT
BRANCH   4  10
HETATM   10  C2  UNL     1     -34.629  16.865  -2.776  1.00 20.00    -0.088 C 
HETATM   11  C1  UNL     1     -35.615  16.654  -1.892  1.00 20.00     0.014 C 
HETATM   12  C10 UNL     1     -33.239  17.223  -2.342  1.00 20.00     0.043 C 
ENDBRANCH   4  10
TORSDOF 1
ENDMDL
