MODEL 1
REMARK VINA RESULT:      -4.5      0.000      0.000
REMARK  1 active torsions:
REMARK  status: ('A' for Active; 'I' for Inactive)
REMARK    1  A    between atoms: C1_1  and  C2_2 
ROOT
HETATM    1  C1  UNL     1     -34.608   5.692   4.002  1.00 20.00     0.314 C 
HETATM    2  F3  UNL     1     -35.899   5.946   3.660  1.00 20.00    -0.228 F 
HETATM    3 CL5  UNL     1     -34.593   4.794   5.536  1.00 20.00    -0.085 Cl
ENDROOT
BRANCH   1   4
HETATM    4  C2  UNL     1     -33.859   7.002   4.142  1.00 20.00     0.314 C 
HETATM    5  F4  UNL     1     -32.661   6.907   3.508  1.00 20.00    -0.228 F 
HETATM    6 CL6  UNL     1     -33.569   7.379   5.855  1.00 20.00    -0.085 Cl
ENDBRANCH   1   4
TORSDOF 1
ENDMDL
MODEL 2
REMARK VINA RESULT:      -4.5      0.028      2.679
REMARK  1 active torsions:
REMARK  status: ('A' for Active; 'I' for Inactive)
REMARK    1  A    between atoms: C1_1  and  C2_2 
ROOT
HETATM    1  C1  UNL     1     -33.851   7.015   4.158  1.00 20.00     0.314 C 
HETATM    2  F3  UNL     1     -32.647   6.938   3.530  1.00 20.00    -0.228 F 
HETATM    3 CL5  UNL     1     -33.574   7.373   5.877  1.00 20.00    -0.085 Cl
ENDROOT
BRANCH   1   4
HETATM    4  C2  UNL     1     -34.586   5.700   3.997  1.00 20.00     0.314 C 
HETATM    5  F4  UNL     1     -35.872   5.944   3.631  1.00 20.00    -0.228 F 
HETATM    6 CL6  UNL     1     -34.592   4.794   5.526  1.00 20.00    -0.085 Cl
ENDBRANCH   1   4
TORSDOF 1
ENDMDL
MODEL 3
REMARK VINA RESULT:      -4.4      1.653      2.675
REMARK  1 active torsions:
REMARK  status: ('A' for Active; 'I' for Inactive)
REMARK    1  A    between atoms: C1_1  and  C2_2 
ROOT
HETATM    1  C1  UNL     1     -33.656   5.917   2.945  1.00 20.00     0.314 C 
HETATM    2  F3  UNL     1     -32.959   4.794   2.628  1.00 20.00    -0.228 F 
HETATM    3 CL5  UNL     1     -32.505   7.246   3.204  1.00 20.00    -0.085 Cl
ENDROOT
BRANCH   1   4
HETATM    4  C2  UNL     1     -34.473   5.665   4.196  1.00 20.00     0.314 C 
HETATM    5  F4  UNL     1     -35.793   5.813   3.910  1.00 20.00    -0.228 F 
HETATM    6 CL6  UNL     1     -34.035   6.821   5.474  1.00 20.00    -0.085 Cl
ENDBRANCH   1   4
TORSDOF 1
ENDMDL
MODEL 4
REMARK VINA RESULT:      -4.4      1.658      1.866
REMARK  1 active torsions:
REMARK  status: ('A' for Active; 'I' for Inactive)
REMARK    1  A    between atoms: C1_1  and  C2_2 
ROOT
HETATM    1  C1  UNL     1     -34.465   5.672   4.193  1.00 20.00     0.314 C 
HETATM    2  F3  UNL     1     -35.786   5.821   3.909  1.00 20.00    -0.228 F 
HETATM    3 CL5  UNL     1     -34.022   6.831   5.465  1.00 20.00    -0.085 Cl
ENDROOT
BRANCH   1   4
HETATM    4  C2  UNL     1     -33.650   5.916   2.939  1.00 20.00     0.314 C 
HETATM    5  F4  UNL     1     -32.950   4.793   2.629  1.00 20.00    -0.228 F 
HETATM    6 CL6  UNL     1     -32.504   7.251   3.186  1.00 20.00    -0.085 Cl
ENDBRANCH   1   4
TORSDOF 1
ENDMDL
MODEL 5
REMARK VINA RESULT:      -4.3      1.842      2.097
REMARK  1 active torsions:
REMARK  status: ('A' for Active; 'I' for Inactive)
REMARK    1  A    between atoms: C1_1  and  C2_2 
ROOT
HETATM    1  C1  UNL     1     -34.431   6.179   3.817  1.00 20.00     0.314 C 
HETATM    2  F3  UNL     1     -35.734   5.849   3.616  1.00 20.00    -0.228 F 
HETATM    3 CL5  UNL     1     -33.421   5.184   2.744  1.00 20.00    -0.085 Cl
ENDROOT
BRANCH   1   4
HETATM    4  C2  UNL     1     -34.069   5.937   5.268  1.00 20.00     0.314 C 
HETATM    5  F4  UNL     1     -35.108   5.325   5.896  1.00 20.00    -0.228 F 
HETATM    6 CL6  UNL     1     -33.729   7.473   6.094  1.00 20.00    -0.085 Cl
ENDBRANCH   1   4
TORSDOF 1
ENDMDL
MODEL 6
REMARK VINA RESULT:      -4.3      1.848      2.656
REMARK  1 active torsions:
REMARK  status: ('A' for Active; 'I' for Inactive)
REMARK    1  A    between atoms: C1_1  and  C2_2 
ROOT
HETATM    1  C1  UNL     1     -34.063   5.959   5.276  1.00 20.00     0.314 C 
HETATM    2  F3  UNL     1     -35.102   5.358   5.915  1.00 20.00    -0.228 F 
HETATM    3 CL5  UNL     1     -33.699   7.492   6.100  1.00 20.00    -0.085 Cl
ENDROOT
BRANCH   1   4
HETATM    4  C2  UNL     1     -34.437   6.206   3.829  1.00 20.00     0.314 C 
HETATM    5  F4  UNL     1     -35.730   5.838   3.629  1.00 20.00    -0.228 F 
HETATM    6 CL6  UNL     1     -33.401   5.256   2.742  1.00 20.00    -0.085 Cl
ENDBRANCH   1   4
TORSDOF 1
ENDMDL
MODEL 7
REMARK VINA RESULT:      -4.3      1.883      2.786
REMARK  1 active torsions:
REMARK  status: ('A' for Active; 'I' for Inactive)
REMARK    1  A    between atoms: C1_1  and  C2_2 
ROOT
HETATM    1  C1  UNL     1     -33.729   6.107   2.888  1.00 20.00     0.314 C 
HETATM    2  F3  UNL     1     -33.127   4.921   2.607  1.00 20.00    -0.228 F 
HETATM    3 CL5  UNL     1     -32.472   7.320   3.216  1.00 20.00    -0.085 Cl
ENDROOT
BRANCH   1   4
HETATM    4  C2  UNL     1     -34.635   5.937   4.091  1.00 20.00     0.314 C 
HETATM    5  F4  UNL     1     -34.284   6.833   5.051  1.00 20.00    -0.228 F 
HETATM    6 CL6  UNL     1     -34.485   4.297   4.762  1.00 20.00    -0.085 Cl
ENDBRANCH   1   4
TORSDOF 1
ENDMDL
MODEL 8
REMARK VINA RESULT:      -4.3      1.890      1.912
REMARK  1 active torsions:
REMARK  status: ('A' for Active; 'I' for Inactive)
REMARK    1  A    between atoms: C1_1  and  C2_2 
ROOT
HETATM    1  C1  UNL     1     -34.628   5.924   4.050  1.00 20.00     0.314 C 
HETATM    2  F3  UNL     1     -34.303   6.846   4.995  1.00 20.00    -0.228 F 
HETATM    3 CL5  UNL     1     -34.507   4.304   4.771  1.00 20.00    -0.085 Cl
ENDROOT
BRANCH   1   4
HETATM    4  C2  UNL     1     -33.684   6.057   2.872  1.00 20.00     0.314 C 
HETATM    5  F4  UNL     1     -33.061   4.869   2.657  1.00 20.00    -0.228 F 
HETATM    6 CL6  UNL     1     -32.452   7.296   3.193  1.00 20.00    -0.085 Cl
ENDBRANCH   1   4
TORSDOF 1
ENDMDL
MODEL 9
REMARK VINA RESULT:      -4.2      1.876      2.431
REMARK  1 active torsions:
REMARK  status: ('A' for Active; 'I' for Inactive)
REMARK    1  A    between atoms: C1_1  and  C2_2 
ROOT
HETATM    1  C1  UNL     1     -33.285   6.903   3.938  1.00 20.00     0.314 C 
HETATM    2  F3  UNL     1     -33.648   7.977   3.186  1.00 20.00    -0.228 F 
HETATM    3 CL5  UNL     1     -33.591   5.424   3.001  1.00 20.00    -0.085 Cl
ENDROOT
BRANCH   1   4
HETATM    4  C2  UNL     1     -34.085   6.897   5.224  1.00 20.00     0.314 C 
HETATM    5  F4  UNL     1     -33.316   7.378   6.236  1.00 20.00    -0.228 F 
HETATM    6 CL6  UNL     1     -34.599   5.246   5.635  1.00 20.00    -0.085 Cl
ENDBRANCH   1   4
TORSDOF 1
ENDMDL
