MODEL 1
REMARK VINA RESULT:      -6.8      0.000      0.000
REMARK  2 active torsions:
REMARK  status: ('A' for Active; 'I' for Inactive)
REMARK    1  A    between atoms: C3_3  and  C9_9 
REMARK    2  A    between atoms: C3_3  and  C10_10 
ROOT
HETATM    1  C3  UNL     1     -32.505   8.090   2.879  1.00 20.00     0.135 C 
HETATM    2  O11 UNL     1     -31.407   8.203   3.421  1.00 20.00    -0.297 OA
ENDROOT
BRANCH   1   3
HETATM    3  C9  UNL     1     -33.673   7.377   3.571  1.00 20.00     0.063 C 
HETATM    4  C4  UNL     1     -33.789   5.842   3.370  1.00 20.00     0.045 C 
HETATM    5  C1  UNL     1     -34.170   5.820   4.832  1.00 20.00    -0.088 C 
HETATM    6  C2  UNL     1     -34.794   4.924   5.598  1.00 20.00     0.014 C 
HETATM    7  C5  UNL     1     -33.576   7.181   5.109  1.00 20.00     0.045 C 
ENDBRANCH   1   3
BRANCH   1   8
HETATM    8  C10 UNL     1     -32.763   8.633   1.534  1.00 20.00     0.056 C 
HETATM    9  C7  UNL     1     -32.980  10.167   1.459  1.00 20.00     0.012 C 
HETATM   10  C6  UNL     1     -32.200  10.136   0.128  1.00 20.00     0.002 C 
HETATM   11  C8  UNL     1     -31.511   8.858   0.649  1.00 20.00     0.012 C 
ENDBRANCH   1   8
TORSDOF 2
ENDMDL
MODEL 2
REMARK VINA RESULT:      -6.0      1.190      4.964
REMARK  2 active torsions:
REMARK  status: ('A' for Active; 'I' for Inactive)
REMARK    1  A    between atoms: C3_3  and  C9_9 
REMARK    2  A    between atoms: C3_3  and  C10_10 
ROOT
HETATM    1  C3  UNL     1     -33.214   7.225   4.483  1.00 20.00     0.135 C 
HETATM    2  O11 UNL     1     -32.885   7.871   5.477  1.00 20.00    -0.297 OA
ENDROOT
BRANCH   1   3
HETATM    3  C9  UNL     1     -32.477   7.374   3.147  1.00 20.00     0.063 C 
HETATM    4  C4  UNL     1     -33.305   7.869   1.930  1.00 20.00     0.045 C 
HETATM    5  C1  UNL     1     -32.073   8.679   1.598  1.00 20.00    -0.088 C 
HETATM    6  C2  UNL     1     -31.643   9.267   0.481  1.00 20.00     0.014 C 
HETATM    7  C5  UNL     1     -31.513   8.583   2.997  1.00 20.00     0.045 C 
ENDBRANCH   1   3
BRANCH   1   8
HETATM    8  C10 UNL     1     -34.334   6.269   4.519  1.00 20.00     0.056 C 
HETATM    9  C7  UNL     1     -34.076   4.905   3.828  1.00 20.00     0.012 C 
HETATM   10  C6  UNL     1     -34.891   4.259   4.967  1.00 20.00     0.002 C 
HETATM   11  C8  UNL     1     -34.493   5.469   5.837  1.00 20.00     0.012 C 
ENDBRANCH   1   8
TORSDOF 2
ENDMDL
MODEL 3
REMARK VINA RESULT:      -5.8      1.295      5.026
REMARK  2 active torsions:
REMARK  status: ('A' for Active; 'I' for Inactive)
REMARK    1  A    between atoms: C3_3  and  C9_9 
REMARK    2  A    between atoms: C3_3  and  C10_10 
ROOT
HETATM    1  C3  UNL     1     -33.204   6.339   3.093  1.00 20.00     0.135 C 
HETATM    2  O11 UNL     1     -32.720   5.384   2.487  1.00 20.00    -0.297 OA
ENDROOT
BRANCH   1   3
HETATM    3  C9  UNL     1     -32.697   7.769   2.878  1.00 20.00     0.063 C 
HETATM    4  C4  UNL     1     -31.775   8.020   1.654  1.00 20.00     0.045 C 
HETATM    5  C1  UNL     1     -32.558   9.304   1.503  1.00 20.00    -0.088 C 
HETATM    6  C2  UNL     1     -32.318  10.447   0.861  1.00 20.00     0.014 C 
HETATM    7  C5  UNL     1     -33.716   8.811   2.339  1.00 20.00     0.045 C 
ENDBRANCH   1   3
BRANCH   1   8
HETATM    8  C10 UNL     1     -34.302   6.164   4.061  1.00 20.00     0.056 C 
HETATM    9  C7  UNL     1     -34.471   4.733   4.634  1.00 20.00     0.012 C 
HETATM   10  C6  UNL     1     -34.820   5.395   5.983  1.00 20.00     0.002 C 
HETATM   11  C8  UNL     1     -33.995   6.612   5.513  1.00 20.00     0.012 C 
ENDBRANCH   1   8
TORSDOF 2
ENDMDL
MODEL 4
REMARK VINA RESULT:      -5.2      0.777      4.764
REMARK  2 active torsions:
REMARK  status: ('A' for Active; 'I' for Inactive)
REMARK    1  A    between atoms: C3_3  and  C9_9 
REMARK    2  A    between atoms: C3_3  and  C10_10 
ROOT
HETATM    1  C3  UNL     1     -32.156   8.188   3.202  1.00 20.00     0.135 C 
HETATM    2  O11 UNL     1     -31.238   8.071   4.012  1.00 20.00    -0.297 OA
ENDROOT
BRANCH   1   3
HETATM    3  C9  UNL     1     -32.022   9.073   1.957  1.00 20.00     0.063 C 
HETATM    4  C4  UNL     1     -31.889   8.356   0.586  1.00 20.00     0.045 C 
HETATM    5  C1  UNL     1     -32.803   9.450   0.083  1.00 20.00    -0.088 C 
HETATM    6  C2  UNL     1     -33.075   9.923  -1.134  1.00 20.00     0.014 C 
HETATM    7  C5  UNL     1     -33.301   9.805   1.464  1.00 20.00     0.045 C 
ENDBRANCH   1   3
BRANCH   1   8
HETATM    8  C10 UNL     1     -33.437   7.481   3.377  1.00 20.00     0.056 C 
HETATM    9  C7  UNL     1     -33.421   5.967   3.046  1.00 20.00     0.012 C 
HETATM   10  C6  UNL     1     -34.377   5.771   4.241  1.00 20.00     0.002 C 
HETATM   11  C8  UNL     1     -33.783   7.068   4.831  1.00 20.00     0.012 C 
ENDBRANCH   1   8
TORSDOF 2
ENDMDL
MODEL 5
REMARK VINA RESULT:      -4.7     10.440     11.271
REMARK  2 active torsions:
REMARK  status: ('A' for Active; 'I' for Inactive)
REMARK    1  A    between atoms: C3_3  and  C9_9 
REMARK    2  A    between atoms: C3_3  and  C10_10 
ROOT
HETATM    1  C3  UNL     1     -35.905  16.268  -3.437  1.00 20.00     0.135 C 
HETATM    2  O11 UNL     1     -36.936  16.893  -3.196  1.00 20.00    -0.297 OA
ENDROOT
BRANCH   1   3
HETATM    3  C9  UNL     1     -34.676  16.361  -2.525  1.00 20.00     0.063 C 
HETATM    4  C4  UNL     1     -33.523  17.298  -2.978  1.00 20.00     0.045 C 
HETATM    5  C1  UNL     1     -33.439  17.671  -1.517  1.00 20.00    -0.088 C 
HETATM    6  C2  UNL     1     -32.489  18.243  -0.775  1.00 20.00     0.014 C 
HETATM    7  C5  UNL     1     -34.829  17.167  -1.206  1.00 20.00     0.045 C 
ENDBRANCH   1   3
BRANCH   1   8
HETATM    8  C10 UNL     1     -35.790  15.391  -4.616  1.00 20.00     0.056 C 
HETATM    9  C7  UNL     1     -34.948  14.104  -4.417  1.00 20.00     0.012 C 
HETATM   10  C6  UNL     1     -35.975  13.384  -5.315  1.00 20.00     0.002 C 
HETATM   11  C8  UNL     1     -36.996  14.453  -4.876  1.00 20.00     0.012 C 
ENDBRANCH   1   8
TORSDOF 2
ENDMDL
MODEL 6
REMARK VINA RESULT:      -4.7     10.732     11.760
REMARK  2 active torsions:
REMARK  status: ('A' for Active; 'I' for Inactive)
REMARK    1  A    between atoms: C3_3  and  C9_9 
REMARK    2  A    between atoms: C3_3  and  C10_10 
ROOT
HETATM    1  C3  UNL     1     -33.539  16.840  -4.032  1.00 20.00     0.135 C 
HETATM    2  O11 UNL     1     -33.354  18.021  -4.320  1.00 20.00    -0.297 OA
ENDROOT
BRANCH   1   3
HETATM    3  C9  UNL     1     -33.271  15.716  -5.040  1.00 20.00     0.063 C 
HETATM    4  C4  UNL     1     -34.180  14.459  -4.961  1.00 20.00     0.045 C 
HETATM    5  C1  UNL     1     -34.145  14.511  -6.471  1.00 20.00    -0.088 C 
HETATM    6  C2  UNL     1     -34.408  13.612  -7.420  1.00 20.00     0.014 C 
HETATM    7  C5  UNL     1     -33.712  15.958  -6.510  1.00 20.00     0.045 C 
ENDBRANCH   1   3
BRANCH   1   8
HETATM    8  C10 UNL     1     -34.028  16.435  -2.702  1.00 20.00     0.056 C 
HETATM    9  C7  UNL     1     -33.710  17.414  -1.543  1.00 20.00     0.012 C 
HETATM   10  C6  UNL     1     -35.105  17.076  -0.976  1.00 20.00     0.002 C 
HETATM   11  C8  UNL     1     -35.523  16.726  -2.419  1.00 20.00     0.012 C 
ENDBRANCH   1   8
TORSDOF 2
ENDMDL
MODEL 7
REMARK VINA RESULT:      -4.7     10.186     11.108
REMARK  2 active torsions:
REMARK  status: ('A' for Active; 'I' for Inactive)
REMARK    1  A    between atoms: C3_3  and  C9_9 
REMARK    2  A    between atoms: C3_3  and  C10_10 
ROOT
HETATM    1  C3  UNL     1     -33.885  16.495  -4.164  1.00 20.00     0.135 C 
HETATM    2  O11 UNL     1     -33.442  17.506  -4.707  1.00 20.00    -0.297 OA
ENDROOT
BRANCH   1   3
HETATM    3  C9  UNL     1     -34.038  16.401  -2.641  1.00 20.00     0.063 C 
HETATM    4  C4  UNL     1     -33.340  17.495  -1.788  1.00 20.00     0.045 C 
HETATM    5  C1  UNL     1     -34.597  17.447  -0.951  1.00 20.00    -0.088 C 
HETATM    6  C2  UNL     1     -34.881  17.843   0.290  1.00 20.00     0.014 C 
HETATM    7  C5  UNL     1     -35.416  16.795  -2.040  1.00 20.00     0.045 C 
ENDBRANCH   1   3
BRANCH   1   8
HETATM    8  C10 UNL     1     -34.297  15.315  -4.945  1.00 20.00     0.056 C 
HETATM    9  C7  UNL     1     -34.543  14.021  -4.128  1.00 20.00     0.012 C 
HETATM   10  C6  UNL     1     -35.720  13.731  -5.083  1.00 20.00     0.002 C 
HETATM   11  C8  UNL     1     -35.799  15.253  -5.325  1.00 20.00     0.012 C 
ENDBRANCH   1   8
TORSDOF 2
ENDMDL
MODEL 8
REMARK VINA RESULT:      -4.6     10.830     11.403
REMARK  2 active torsions:
REMARK  status: ('A' for Active; 'I' for Inactive)
REMARK    1  A    between atoms: C3_3  and  C9_9 
REMARK    2  A    between atoms: C3_3  and  C10_10 
ROOT
HETATM    1  C3  UNL     1     -33.005  18.587  -1.416  1.00 20.00     0.135 C 
HETATM    2  O11 UNL     1     -32.548  19.125  -2.423  1.00 20.00    -0.297 OA
ENDROOT
BRANCH   1   3
HETATM    3  C9  UNL     1     -32.809  19.193  -0.022  1.00 20.00     0.063 C 
HETATM    4  C4  UNL     1     -33.698  18.639   1.126  1.00 20.00     0.045 C 
HETATM    5  C1  UNL     1     -32.442  18.742   1.959  1.00 20.00    -0.088 C 
HETATM    6  C2  UNL     1     -32.221  18.775   3.274  1.00 20.00     0.014 C 
HETATM    7  C5  UNL     1     -31.528  18.786   0.757  1.00 20.00     0.045 C 
ENDBRANCH   1   3
BRANCH   1   8
HETATM    8  C10 UNL     1     -33.770  17.330  -1.491  1.00 20.00     0.056 C 
HETATM    9  C7  UNL     1     -35.284  17.480  -1.791  1.00 20.00     0.012 C 
HETATM   10  C6  UNL     1     -35.162  16.207  -2.654  1.00 20.00     0.002 C 
HETATM   11  C8  UNL     1     -33.671  16.562  -2.834  1.00 20.00     0.012 C 
ENDBRANCH   1   8
TORSDOF 2
ENDMDL
MODEL 9
REMARK VINA RESULT:      -4.6     10.682     11.202
REMARK  2 active torsions:
REMARK  status: ('A' for Active; 'I' for Inactive)
REMARK    1  A    between atoms: C3_3  and  C9_9 
REMARK    2  A    between atoms: C3_3  and  C10_10 
ROOT
HETATM    1  C3  UNL     1     -34.161  15.906  -4.775  1.00 20.00     0.135 C 
HETATM    2  O11 UNL     1     -33.207  16.562  -5.188  1.00 20.00    -0.297 OA
ENDROOT
BRANCH   1   3
HETATM    3  C9  UNL     1     -34.497  15.827  -3.281  1.00 20.00     0.063 C 
HETATM    4  C4  UNL     1     -33.721  16.774  -2.327  1.00 20.00     0.045 C 
HETATM    5  C1  UNL     1     -35.053  16.939  -1.633  1.00 20.00    -0.088 C 
HETATM    6  C2  UNL     1     -35.401  17.367  -0.419  1.00 20.00     0.014 C 
HETATM    7  C5  UNL     1     -35.845  16.449  -2.822  1.00 20.00     0.045 C 
ENDBRANCH   1   3
BRANCH   1   8
HETATM    8  C10 UNL     1     -35.040  15.158  -5.692  1.00 20.00     0.056 C 
HETATM    9  C7  UNL     1     -34.324  14.388  -6.831  1.00 20.00     0.012 C 
HETATM   10  C6  UNL     1     -35.370  13.272  -6.633  1.00 20.00     0.002 C 
HETATM   11  C8  UNL     1     -35.522  13.776  -5.183  1.00 20.00     0.012 C 
ENDBRANCH   1   8
TORSDOF 2
ENDMDL
