MODEL 1
REMARK VINA RESULT:      -6.4      0.000      0.000
REMARK  0 active torsions:
REMARK  status: ('A' for Active; 'I' for Inactive)
ROOT
HETATM    1  C1  UNL     1     -32.807   6.150   2.148  1.00 20.00     0.047 C 
HETATM    2  C2  UNL     1     -33.205   4.846   2.654  1.00 20.00     0.042 C 
HETATM    3  C3  UNL     1     -34.568   6.004   5.889  1.00 20.00     0.010 C 
HETATM    4  C4  UNL     1     -33.899   7.090   6.291  1.00 20.00     0.114 C 
HETATM    5  C5  UNL     1     -32.951   7.254   2.889  1.00 20.00     0.142 C 
HETATM    6  C6  UNL     1     -34.000   4.734   3.733  1.00 20.00     0.107 C 
HETATM    7  C7  UNL     1     -33.559   7.091   4.219  1.00 20.00     0.087 C 
HETATM    8  C8  UNL     1     -34.550   5.949   4.404  1.00 20.00     0.127 C 
HETATM    9  N9  UNL     1     -33.284   7.784   5.280  1.00 20.00    -0.262 NA
HETATM   10  F10 UNL     1     -32.486   8.464   2.546  1.00 20.00    -0.204 F 
HETATM   11  F11 UNL     1     -34.344   3.505   4.176  1.00 20.00    -0.210 F 
ENDROOT
TORSDOF 0
ENDMDL
MODEL 2
REMARK VINA RESULT:      -6.1      1.951      3.112
REMARK  0 active torsions:
REMARK  status: ('A' for Active; 'I' for Inactive)
ROOT
HETATM    1  C1  UNL     1     -34.266   4.262   4.258  1.00 20.00     0.047 C 
HETATM    2  C2  UNL     1     -34.424   5.031   5.482  1.00 20.00     0.042 C 
HETATM    3  C3  UNL     1     -32.941   8.182   4.244  1.00 20.00     0.010 C 
HETATM    4  C4  UNL     1     -32.004   7.905   3.331  1.00 20.00     0.114 C 
HETATM    5  C5  UNL     1     -33.661   4.785   3.186  1.00 20.00     0.142 C 
HETATM    6  C6  UNL     1     -34.256   6.365   5.490  1.00 20.00     0.107 C 
HETATM    7  C7  UNL     1     -33.197   6.177   3.293  1.00 20.00     0.087 C 
HETATM    8  C8  UNL     1     -33.965   7.105   4.227  1.00 20.00     0.127 C 
HETATM    9  N9  UNL     1     -32.150   6.684   2.722  1.00 20.00    -0.262 NA
HETATM   10  F10 UNL     1     -33.360   4.097   2.074  1.00 20.00    -0.204 F 
HETATM   11  F11 UNL     1     -34.408   7.044   6.649  1.00 20.00    -0.210 F 
ENDROOT
TORSDOF 0
ENDMDL
MODEL 3
REMARK VINA RESULT:      -5.9      1.627      3.956
REMARK  0 active torsions:
REMARK  status: ('A' for Active; 'I' for Inactive)
ROOT
HETATM    1  C1  UNL     1     -33.918   7.122   6.011  1.00 20.00     0.047 C 
HETATM    2  C2  UNL     1     -32.965   7.845   5.185  1.00 20.00     0.042 C 
HETATM    3  C3  UNL     1     -33.074   5.581   2.265  1.00 20.00     0.010 C 
HETATM    4  C4  UNL     1     -33.320   4.333   2.678  1.00 20.00     0.114 C 
HETATM    5  C5  UNL     1     -34.456   5.969   5.599  1.00 20.00     0.142 C 
HETATM    6  C6  UNL     1     -32.824   7.561   3.878  1.00 20.00     0.107 C 
HETATM    7  C7  UNL     1     -34.067   5.490   4.264  1.00 20.00     0.087 C 
HETATM    8  C8  UNL     1     -33.690   6.536   3.223  1.00 20.00     0.127 C 
HETATM    9  N9  UNL     1     -33.945   4.252   3.897  1.00 20.00    -0.262 NA
HETATM   10  F10 UNL     1     -35.234   5.181   6.357  1.00 20.00    -0.204 F 
HETATM   11  F11 UNL     1     -31.925   8.252   3.144  1.00 20.00    -0.210 F 
ENDROOT
TORSDOF 0
ENDMDL
MODEL 4
REMARK VINA RESULT:      -5.4      1.712      2.203
REMARK  0 active torsions:
REMARK  status: ('A' for Active; 'I' for Inactive)
ROOT
HETATM    1  C1  UNL     1     -32.540   7.760   3.636  1.00 20.00     0.047 C 
HETATM    2  C2  UNL     1     -32.333   6.631   2.744  1.00 20.00     0.042 C 
HETATM    3  C3  UNL     1     -34.655   4.289   4.413  1.00 20.00     0.010 C 
HETATM    4  C4  UNL     1     -34.691   4.556   5.723  1.00 20.00     0.114 C 
HETATM    5  C5  UNL     1     -33.339   7.660   4.704  1.00 20.00     0.142 C 
HETATM    6  C6  UNL     1     -33.153   5.566   2.770  1.00 20.00     0.107 C 
HETATM    7  C7  UNL     1     -34.022   6.373   4.910  1.00 20.00     0.087 C 
HETATM    8  C8  UNL     1     -34.341   5.540   3.675  1.00 20.00     0.127 C 
HETATM    9  N9  UNL     1     -34.322   5.836   6.051  1.00 20.00    -0.262 NA
HETATM   10  F10 UNL     1     -33.474   8.609   5.643  1.00 20.00    -0.204 F 
HETATM   11  F11 UNL     1     -32.926   4.535   1.928  1.00 20.00    -0.210 F 
ENDROOT
TORSDOF 0
ENDMDL
MODEL 5
REMARK VINA RESULT:      -5.4      1.997      3.147
REMARK  0 active torsions:
REMARK  status: ('A' for Active; 'I' for Inactive)
ROOT
HETATM    1  C1  UNL     1     -34.628   6.211   5.131  1.00 20.00     0.047 C 
HETATM    2  C2  UNL     1     -35.041   5.895   3.773  1.00 20.00     0.042 C 
HETATM    3  C3  UNL     1     -32.213   7.527   2.040  1.00 20.00     0.010 C 
HETATM    4  C4  UNL     1     -31.796   8.576   2.758  1.00 20.00     0.114 C 
HETATM    5  C5  UNL     1     -33.540   6.952   5.370  1.00 20.00     0.142 C 
HETATM    6  C6  UNL     1     -34.200   6.061   2.736  1.00 20.00     0.107 C 
HETATM    7  C7  UNL     1     -32.767   7.397   4.200  1.00 20.00     0.087 C 
HETATM    8  C8  UNL     1     -32.795   6.514   2.959  1.00 20.00     0.127 C 
HETATM    9  N9  UNL     1     -32.110   8.511   4.092  1.00 20.00    -0.262 NA
HETATM   10  F10 UNL     1     -33.175   7.395   6.582  1.00 20.00    -0.204 F 
HETATM   11  F11 UNL     1     -34.621   5.759   1.489  1.00 20.00    -0.210 F 
ENDROOT
TORSDOF 0
ENDMDL
MODEL 6
REMARK VINA RESULT:      -5.3      1.751      2.928
REMARK  0 active torsions:
REMARK  status: ('A' for Active; 'I' for Inactive)
ROOT
HETATM    1  C1  UNL     1     -34.528   5.206   5.435  1.00 20.00     0.047 C 
HETATM    2  C2  UNL     1     -34.371   4.410   4.229  1.00 20.00     0.042 C 
HETATM    3  C3  UNL     1     -32.640   6.973   2.205  1.00 20.00     0.010 C 
HETATM    4  C4  UNL     1     -33.057   8.189   2.574  1.00 20.00     0.114 C 
HETATM    5  C5  UNL     1     -34.130   6.483   5.479  1.00 20.00     0.142 C 
HETATM    6  C6  UNL     1     -33.559   4.810   3.234  1.00 20.00     0.107 C 
HETATM    7  C7  UNL     1     -33.498   7.027   4.267  1.00 20.00     0.087 C 
HETATM    8  C8  UNL     1     -32.744   6.054   3.368  1.00 20.00     0.127 C 
HETATM    9  N9  UNL     1     -33.574   8.250   3.843  1.00 20.00    -0.262 NA
HETATM   10  F10 UNL     1     -34.362   7.315   6.504  1.00 20.00    -0.204 F 
HETATM   11  F11 UNL     1     -33.443   4.045   2.127  1.00 20.00    -0.210 F 
ENDROOT
TORSDOF 0
ENDMDL
MODEL 7
REMARK VINA RESULT:      -4.5      0.915      3.004
REMARK  0 active torsions:
REMARK  status: ('A' for Active; 'I' for Inactive)
ROOT
HETATM    1  C1  UNL     1     -33.803   5.028   2.499  1.00 20.00     0.047 C 
HETATM    2  C2  UNL     1     -33.529   6.376   2.028  1.00 20.00     0.042 C 
HETATM    3  C3  UNL     1     -33.269   7.981   5.348  1.00 20.00     0.010 C 
HETATM    4  C4  UNL     1     -34.070   7.349   6.212  1.00 20.00     0.114 C 
HETATM    5  C5  UNL     1     -33.936   4.764   3.804  1.00 20.00     0.142 C 
HETATM    6  C6  UNL     1     -33.100   7.332   2.871  1.00 20.00     0.107 C 
HETATM    7  C7  UNL     1     -33.759   5.890   4.734  1.00 20.00     0.087 C 
HETATM    8  C8  UNL     1     -32.828   7.018   4.305  1.00 20.00     0.127 C 
HETATM    9  N9  UNL     1     -34.372   6.057   5.864  1.00 20.00    -0.262 NA
HETATM   10  F10 UNL     1     -34.319   3.580   4.303  1.00 20.00    -0.204 F 
HETATM   11  F11 UNL     1     -32.860   8.574   2.397  1.00 20.00    -0.210 F 
ENDROOT
TORSDOF 0
ENDMDL
MODEL 8
REMARK VINA RESULT:      -4.4     12.006     12.796
REMARK  0 active torsions:
REMARK  status: ('A' for Active; 'I' for Inactive)
ROOT
HETATM    1  C1  UNL     1     -34.079  15.690  -3.373  1.00 20.00     0.047 C 
HETATM    2  C2  UNL     1     -35.422  16.232  -3.503  1.00 20.00     0.042 C 
HETATM    3  C3  UNL     1     -36.599  13.923  -6.138  1.00 20.00     0.010 C 
HETATM    4  C4  UNL     1     -35.567  13.565  -6.911  1.00 20.00     0.114 C 
HETATM    5  C5  UNL     1     -33.655  14.696  -4.160  1.00 20.00     0.142 C 
HETATM    6  C6  UNL     1     -36.374  15.571  -4.185  1.00 20.00     0.107 C 
HETATM    7  C7  UNL     1     -34.617  14.157  -5.133  1.00 20.00     0.087 C 
HETATM    8  C8  UNL     1     -36.096  14.227  -4.773  1.00 20.00     0.127 C 
HETATM    9  N9  UNL     1     -34.340  13.686  -6.309  1.00 20.00    -0.262 NA
HETATM   10  F10 UNL     1     -32.394  14.238  -4.190  1.00 20.00    -0.204 F 
HETATM   11  F11 UNL     1     -37.609  16.108  -4.287  1.00 20.00    -0.210 F 
ENDROOT
TORSDOF 0
ENDMDL
MODEL 9
REMARK VINA RESULT:      -4.3     12.177     12.832
REMARK  0 active torsions:
REMARK  status: ('A' for Active; 'I' for Inactive)
ROOT
HETATM    1  C1  UNL     1     -34.768  17.147  -2.370  1.00 20.00     0.047 C 
HETATM    2  C2  UNL     1     -35.437  16.900  -1.103  1.00 20.00     0.042 C 
HETATM    3  C3  UNL     1     -33.070  18.761   1.040  1.00 20.00     0.010 C 
HETATM    4  C4  UNL     1     -31.844  18.700   0.509  1.00 20.00     0.114 C 
HETATM    5  C5  UNL     1     -33.613  17.821  -2.423  1.00 20.00     0.142 C 
HETATM    6  C6  UNL     1     -35.101  17.586   0.004  1.00 20.00     0.107 C 
HETATM    7  C7  UNL     1     -33.076  18.327  -1.151  1.00 20.00     0.087 C 
HETATM    8  C8  UNL     1     -34.074  18.668  -0.051  1.00 20.00     0.127 C 
HETATM    9  N9  UNL     1     -31.823  18.449  -0.840  1.00 20.00    -0.262 NA
HETATM   10  F10 UNL     1     -32.873  17.971  -3.532  1.00 20.00    -0.204 F 
HETATM   11  F11 UNL     1     -35.744  17.325   1.163  1.00 20.00    -0.210 F 
ENDROOT
TORSDOF 0
ENDMDL
