MODEL 1
REMARK VINA RESULT:      -7.0      0.000      0.000
REMARK  0 active torsions:
REMARK  status: ('A' for Active; 'I' for Inactive)
ROOT
HETATM    1  C1  UNL     1     -34.569   5.212   5.451  1.00 20.00     0.047 C 
HETATM    2  C2  UNL     1     -34.157   4.447   4.285  1.00 20.00     0.042 C 
HETATM    3  C3  UNL     1     -32.403   7.186   2.530  1.00 20.00     0.010 C 
HETATM    4  C4  UNL     1     -31.884   8.029   3.427  1.00 20.00     0.114 C 
HETATM    5  C5  UNL     1     -34.209   6.493   5.600  1.00 20.00     0.142 C 
HETATM    6  C6  UNL     1     -33.677   5.059   3.188  1.00 20.00     0.107 C 
HETATM    7  C7  UNL     1     -33.413   7.093   4.519  1.00 20.00     0.087 C 
HETATM    8  C8  UNL     1     -33.614   6.548   3.111  1.00 20.00     0.127 C 
HETATM    9  N9  UNL     1     -32.496   8.002   4.653  1.00 20.00    -0.262 NA
HETATM   10  F10 UNL     1     -34.435   7.218   6.706  1.00 20.00    -0.204 F 
HETATM   11  F11 UNL     1     -33.302   4.312   2.126  1.00 20.00    -0.210 F 
ENDROOT
TORSDOF 0
ENDMDL
MODEL 2
REMARK VINA RESULT:      -6.3      0.966      1.168
REMARK  0 active torsions:
REMARK  status: ('A' for Active; 'I' for Inactive)
ROOT
HETATM    1  C1  UNL     1     -34.514   5.892   6.230  1.00 20.00     0.047 C 
HETATM    2  C2  UNL     1     -34.482   4.639   5.493  1.00 20.00     0.042 C 
HETATM    3  C3  UNL     1     -33.117   5.992   2.336  1.00 20.00     0.010 C 
HETATM    4  C4  UNL     1     -32.325   7.034   2.604  1.00 20.00     0.114 C 
HETATM    5  C5  UNL     1     -34.054   7.026   5.687  1.00 20.00     0.142 C 
HETATM    6  C6  UNL     1     -34.285   4.620   4.163  1.00 20.00     0.107 C 
HETATM    7  C7  UNL     1     -33.550   6.948   4.307  1.00 20.00     0.087 C 
HETATM    8  C8  UNL     1     -34.158   5.893   3.393  1.00 20.00     0.127 C 
HETATM    9  N9  UNL     1     -32.580   7.648   3.803  1.00 20.00    -0.262 NA
HETATM   10  F10 UNL     1     -33.927   8.185   6.349  1.00 20.00    -0.204 F 
HETATM   11  F11 UNL     1     -34.258   3.435   3.515  1.00 20.00    -0.210 F 
ENDROOT
TORSDOF 0
ENDMDL
MODEL 3
REMARK VINA RESULT:      -6.0      1.640      3.869
REMARK  0 active torsions:
REMARK  status: ('A' for Active; 'I' for Inactive)
ROOT
HETATM    1  C1  UNL     1     -32.416   8.102   3.934  1.00 20.00     0.047 C 
HETATM    2  C2  UNL     1     -32.964   7.946   5.271  1.00 20.00     0.042 C 
HETATM    3  C3  UNL     1     -34.725   4.751   4.681  1.00 20.00     0.010 C 
HETATM    4  C4  UNL     1     -34.062   4.040   3.765  1.00 20.00     0.114 C 
HETATM    5  C5  UNL     1     -32.604   7.166   2.995  1.00 20.00     0.142 C 
HETATM    6  C6  UNL     1     -33.917   7.034   5.529  1.00 20.00     0.107 C 
HETATM    7  C7  UNL     1     -33.414   5.997   3.371  1.00 20.00     0.087 C 
HETATM    8  C8  UNL     1     -34.489   6.198   4.432  1.00 20.00     0.127 C 
HETATM    9  N9  UNL     1     -33.260   4.784   2.938  1.00 20.00    -0.262 NA
HETATM   10  F10 UNL     1     -32.019   7.176   1.788  1.00 20.00    -0.204 F 
HETATM   11  F11 UNL     1     -34.398   6.917   6.786  1.00 20.00    -0.210 F 
ENDROOT
TORSDOF 0
ENDMDL
MODEL 4
REMARK VINA RESULT:      -5.7      1.564      4.057
REMARK  0 active torsions:
REMARK  status: ('A' for Active; 'I' for Inactive)
ROOT
HETATM    1  C1  UNL     1     -32.594   6.818   2.623  1.00 20.00     0.047 C 
HETATM    2  C2  UNL     1     -32.463   7.610   3.835  1.00 20.00     0.042 C 
HETATM    3  C3  UNL     1     -34.715   5.589   5.956  1.00 20.00     0.010 C 
HETATM    4  C4  UNL     1     -34.666   4.312   5.567  1.00 20.00     0.114 C 
HETATM    5  C5  UNL     1     -33.328   5.699   2.604  1.00 20.00     0.142 C 
HETATM    6  C6  UNL     1     -33.298   7.434   4.873  1.00 20.00     0.107 C 
HETATM    7  C7  UNL     1     -34.018   5.332   3.850  1.00 20.00     0.087 C 
HETATM    8  C8  UNL     1     -34.427   6.462   4.787  1.00 20.00     0.127 C 
HETATM    9  N9  UNL     1     -34.255   4.128   4.272  1.00 20.00    -0.262 NA
HETATM   10  F10 UNL     1     -33.386   4.848   1.568  1.00 20.00    -0.204 F 
HETATM   11  F11 UNL     1     -33.141   8.187   5.983  1.00 20.00    -0.210 F 
ENDROOT
TORSDOF 0
ENDMDL
MODEL 5
REMARK VINA RESULT:      -5.4      1.113      3.042
REMARK  0 active torsions:
REMARK  status: ('A' for Active; 'I' for Inactive)
ROOT
HETATM    1  C1  UNL     1     -34.305   4.876   4.064  1.00 20.00     0.047 C 
HETATM    2  C2  UNL     1     -34.581   5.882   5.078  1.00 20.00     0.042 C 
HETATM    3  C3  UNL     1     -32.354   8.511   3.743  1.00 20.00     0.010 C 
HETATM    4  C4  UNL     1     -32.284   8.401   2.413  1.00 20.00     0.114 C 
HETATM    5  C5  UNL     1     -33.494   5.139   3.032  1.00 20.00     0.142 C 
HETATM    6  C6  UNL     1     -33.814   6.980   5.194  1.00 20.00     0.107 C 
HETATM    7  C7  UNL     1     -32.874   6.473   2.994  1.00 20.00     0.087 C 
HETATM    8  C8  UNL     1     -32.615   7.168   4.324  1.00 20.00     0.127 C 
HETATM    9  N9  UNL     1     -32.584   7.155   1.929  1.00 20.00    -0.262 NA
HETATM   10  F10 UNL     1     -33.300   4.314   1.993  1.00 20.00    -0.204 F 
HETATM   11  F11 UNL     1     -34.105   7.892   6.147  1.00 20.00    -0.210 F 
ENDROOT
TORSDOF 0
ENDMDL
MODEL 6
REMARK VINA RESULT:      -5.4      1.966      3.074
REMARK  0 active torsions:
REMARK  status: ('A' for Active; 'I' for Inactive)
ROOT
HETATM    1  C1  UNL     1     -33.285   4.811   2.681  1.00 20.00     0.047 C 
HETATM    2  C2  UNL     1     -32.510   6.014   2.421  1.00 20.00     0.042 C 
HETATM    3  C3  UNL     1     -33.695   7.965   5.327  1.00 20.00     0.010 C 
HETATM    4  C4  UNL     1     -33.976   7.135   6.336  1.00 20.00     0.114 C 
HETATM    5  C5  UNL     1     -34.058   4.708   3.769  1.00 20.00     0.142 C 
HETATM    6  C6  UNL     1     -32.768   7.160   3.075  1.00 20.00     0.107 C 
HETATM    7  C7  UNL     1     -34.111   5.874   4.664  1.00 20.00     0.087 C 
HETATM    8  C8  UNL     1     -33.902   7.249   4.041  1.00 20.00     0.127 C 
HETATM    9  N9  UNL     1     -34.249   5.848   5.954  1.00 20.00    -0.262 NA
HETATM   10  F10 UNL     1     -34.691   3.586   4.144  1.00 20.00    -0.204 F 
HETATM   11  F11 UNL     1     -32.023   8.255   2.807  1.00 20.00    -0.210 F 
ENDROOT
TORSDOF 0
ENDMDL
MODEL 7
REMARK VINA RESULT:      -4.8      1.598      3.030
REMARK  0 active torsions:
REMARK  status: ('A' for Active; 'I' for Inactive)
ROOT
HETATM    1  C1  UNL     1     -32.129   8.168   2.779  1.00 20.00     0.047 C 
HETATM    2  C2  UNL     1     -33.075   7.400   1.985  1.00 20.00     0.042 C 
HETATM    3  C3  UNL     1     -34.637   5.555   4.779  1.00 20.00     0.010 C 
HETATM    4  C4  UNL     1     -34.614   6.311   5.881  1.00 20.00     0.114 C 
HETATM    5  C5  UNL     1     -32.112   8.075   4.114  1.00 20.00     0.142 C 
HETATM    6  C6  UNL     1     -33.742   6.360   2.514  1.00 20.00     0.107 C 
HETATM    7  C7  UNL     1     -33.066   7.140   4.731  1.00 20.00     0.087 C 
HETATM    8  C8  UNL     1     -33.483   5.922   3.917  1.00 20.00     0.127 C 
HETATM    9  N9  UNL     1     -33.648   7.283   5.882  1.00 20.00    -0.262 NA
HETATM   10  F10 UNL     1     -31.366   8.849   4.917  1.00 20.00    -0.204 F 
HETATM   11  F11 UNL     1     -34.615   5.673   1.744  1.00 20.00    -0.210 F 
ENDROOT
TORSDOF 0
ENDMDL
MODEL 8
REMARK VINA RESULT:      -4.4     12.275     13.226
REMARK  0 active torsions:
REMARK  status: ('A' for Active; 'I' for Inactive)
ROOT
HETATM    1  C1  UNL     1     -35.927  13.801  -7.151  1.00 20.00     0.047 C 
HETATM    2  C2  UNL     1     -36.887  14.215  -6.140  1.00 20.00     0.042 C 
HETATM    3  C3  UNL     1     -34.445  15.443  -3.654  1.00 20.00     0.010 C 
HETATM    4  C4  UNL     1     -33.367  15.916  -4.285  1.00 20.00     0.114 C 
HETATM    5  C5  UNL     1     -34.614  13.998  -6.978  1.00 20.00     0.142 C 
HETATM    6  C6  UNL     1     -36.494  14.519  -4.892  1.00 20.00     0.107 C 
HETATM    7  C7  UNL     1     -34.192  14.618  -5.713  1.00 20.00     0.087 C 
HETATM    8  C8  UNL     1     -35.064  14.378  -4.487  1.00 20.00     0.127 C 
HETATM    9  N9  UNL     1     -33.181  15.414  -5.547  1.00 20.00    -0.262 NA
HETATM   10  F10 UNL     1     -33.684  13.768  -7.918  1.00 20.00    -0.204 F 
HETATM   11  F11 UNL     1     -37.416  14.903  -3.983  1.00 20.00    -0.210 F 
ENDROOT
TORSDOF 0
ENDMDL
MODEL 9
REMARK VINA RESULT:      -4.4     12.305     12.924
REMARK  0 active torsions:
REMARK  status: ('A' for Active; 'I' for Inactive)
ROOT
HETATM    1  C1  UNL     1     -32.049  18.757   3.061  1.00 20.00     0.047 C 
HETATM    2  C2  UNL     1     -33.436  18.325   2.997  1.00 20.00     0.042 C 
HETATM    3  C3  UNL     1     -33.774  18.384  -0.682  1.00 20.00     0.010 C 
HETATM    4  C4  UNL     1     -32.595  18.100  -1.242  1.00 20.00     0.114 C 
HETATM    5  C5  UNL     1     -31.340  18.969   1.945  1.00 20.00     0.142 C 
HETATM    6  C6  UNL     1     -34.142  18.419   1.857  1.00 20.00     0.107 C 
HETATM    7  C7  UNL     1     -32.037  18.779   0.664  1.00 20.00     0.087 C 
HETATM    8  C8  UNL     1     -33.539  19.031   0.636  1.00 20.00     0.127 C 
HETATM    9  N9  UNL     1     -31.511  18.347  -0.440  1.00 20.00    -0.262 NA
HETATM   10  F10 UNL     1     -30.025  19.235   1.924  1.00 20.00    -0.204 F 
HETATM   11  F11 UNL     1     -35.427  18.003   1.838  1.00 20.00    -0.210 F 
ENDROOT
TORSDOF 0
ENDMDL
