MODEL 1
REMARK VINA RESULT:      -6.6      0.000      0.000
REMARK  1 active torsions:
REMARK  status: ('A' for Active; 'I' for Inactive)
REMARK    1  A    between atoms: C1_1  and  C4_4 
ROOT
HETATM    1  C2  UNL     1     -33.972   5.816   2.614  1.00 20.00     0.026 C 
HETATM    2  C3  UNL     1     -34.180   7.272   4.575  1.00 20.00     0.026 C 
HETATM    3  C4  UNL     1     -34.776   6.033   3.900  1.00 20.00     0.088 C 
HETATM    4  C5  UNL     1     -32.631   6.431   2.889  1.00 20.00     0.069 A 
HETATM    5  C6  UNL     1     -32.757   7.326   4.094  1.00 20.00     0.069 A 
HETATM    6  C7  UNL     1     -32.406   7.895   2.767  1.00 20.00     0.252 A 
HETATM    7  F10 UNL     1     -33.292   8.695   2.079  1.00 20.00    -0.205 F 
HETATM    8  F11 UNL     1     -31.143   8.389   2.534  1.00 20.00    -0.205 F 
ENDROOT
BRANCH   3   9
HETATM    9  C1  UNL     1     -34.570   4.835   4.812  1.00 20.00     0.177 C 
HETATM   10  O8  UNL     1     -34.365   3.737   4.223  1.00 20.00    -0.648 OA
HETATM   11  O9  UNL     1     -34.632   5.093   6.047  1.00 20.00    -0.648 OA
ENDBRANCH   3   9
TORSDOF 1
ENDMDL
MODEL 2
REMARK VINA RESULT:      -5.3      3.297      4.176
REMARK  1 active torsions:
REMARK  status: ('A' for Active; 'I' for Inactive)
REMARK    1  A    between atoms: C1_1  and  C4_4 
ROOT
HETATM    1  C2  UNL     1     -33.648   7.560   4.439  1.00 20.00     0.026 C 
HETATM    2  C3  UNL     1     -33.734   6.614   2.179  1.00 20.00     0.026 C 
HETATM    3  C4  UNL     1     -33.385   7.882   2.965  1.00 20.00     0.088 C 
HETATM    4  C5  UNL     1     -33.485   6.071   4.543  1.00 20.00     0.069 A 
HETATM    5  C6  UNL     1     -33.537   5.489   3.155  1.00 20.00     0.069 A 
HETATM    6  C7  UNL     1     -34.577   5.139   4.158  1.00 20.00     0.252 A 
HETATM    7  F10 UNL     1     -35.874   5.582   4.022  1.00 20.00    -0.205 F 
HETATM    8  F11 UNL     1     -34.630   3.871   4.691  1.00 20.00    -0.205 F 
ENDROOT
BRANCH   3   9
HETATM    9  C1  UNL     1     -31.903   8.173   2.786  1.00 20.00     0.177 C 
HETATM   10  O8  UNL     1     -31.252   8.330   3.856  1.00 20.00    -0.648 OA
HETATM   11  O9  UNL     1     -31.514   8.222   1.586  1.00 20.00    -0.648 OA
ENDBRANCH   3   9
TORSDOF 1
ENDMDL
MODEL 3
REMARK VINA RESULT:      -5.0      1.890      2.914
REMARK  1 active torsions:
REMARK  status: ('A' for Active; 'I' for Inactive)
REMARK    1  A    between atoms: C1_1  and  C4_4 
ROOT
HETATM    1  C2  UNL     1     -31.550   8.154   3.466  1.00 20.00     0.026 C 
HETATM    2  C3  UNL     1     -33.172   7.053   1.995  1.00 20.00     0.026 C 
HETATM    3  C4  UNL     1     -32.483   6.944   3.359  1.00 20.00     0.088 C 
HETATM    4  C5  UNL     1     -32.167   9.197   2.579  1.00 20.00     0.069 A 
HETATM    5  C6  UNL     1     -33.164   8.521   1.675  1.00 20.00     0.069 A 
HETATM    6  C7  UNL     1     -31.962   9.186   1.107  1.00 20.00     0.252 A 
HETATM    7  F10 UNL     1     -30.946   8.452   0.536  1.00 20.00    -0.205 F 
HETATM    8  F11 UNL     1     -32.089  10.347   0.378  1.00 20.00    -0.205 F 
ENDROOT
BRANCH   3   9
HETATM    9  C1  UNL     1     -33.539   7.044   4.447  1.00 20.00     0.177 C 
HETATM   10  O8  UNL     1     -33.164   7.609   5.512  1.00 20.00    -0.648 OA
HETATM   11  O9  UNL     1     -34.659   6.545   4.146  1.00 20.00    -0.648 OA
ENDBRANCH   3   9
TORSDOF 1
ENDMDL
MODEL 4
REMARK VINA RESULT:      -5.0     11.471     12.106
REMARK  1 active torsions:
REMARK  status: ('A' for Active; 'I' for Inactive)
REMARK    1  A    between atoms: C1_1  and  C4_4 
ROOT
HETATM    1  C2  UNL     1     -34.135  14.633  -5.172  1.00 20.00     0.026 C 
HETATM    2  C3  UNL     1     -36.038  16.054  -4.568  1.00 20.00     0.026 C 
HETATM    3  C4  UNL     1     -35.596  14.935  -5.516  1.00 20.00     0.088 C 
HETATM    4  C5  UNL     1     -33.986  15.035  -3.733  1.00 20.00     0.069 A 
HETATM    5  C6  UNL     1     -35.155  15.908  -3.361  1.00 20.00     0.069 A 
HETATM    6  C7  UNL     1     -33.772  16.452  -3.339  1.00 20.00     0.252 A 
HETATM    7  F10 UNL     1     -33.363  17.392  -4.260  1.00 20.00    -0.205 F 
HETATM    8  F11 UNL     1     -33.165  16.759  -2.143  1.00 20.00    -0.205 F 
ENDROOT
BRANCH   3   9
HETATM    9  C1  UNL     1     -36.431  13.697  -5.229  1.00 20.00     0.177 C 
HETATM   10  O8  UNL     1     -35.817  12.598  -5.327  1.00 20.00    -0.648 OA
HETATM   11  O9  UNL     1     -37.636  13.928  -4.930  1.00 20.00    -0.648 OA
ENDBRANCH   3   9
TORSDOF 1
ENDMDL
MODEL 5
REMARK VINA RESULT:      -4.7      1.191      1.983
REMARK  1 active torsions:
REMARK  status: ('A' for Active; 'I' for Inactive)
REMARK    1  A    between atoms: C1_1  and  C4_4 
ROOT
HETATM    1  C2  UNL     1     -33.563   7.256   4.653  1.00 20.00     0.026 C 
HETATM    2  C3  UNL     1     -32.683   5.637   3.037  1.00 20.00     0.026 C 
HETATM    3  C4  UNL     1     -33.431   5.757   4.369  1.00 20.00     0.088 C 
HETATM    4  C5  UNL     1     -33.526   7.911   3.302  1.00 20.00     0.069 A 
HETATM    5  C6  UNL     1     -32.986   6.916   2.309  1.00 20.00     0.069 A 
HETATM    6  C7  UNL     1     -32.242   8.170   2.599  1.00 20.00     0.252 A 
HETATM    7  F10 UNL     1     -31.043   8.146   3.275  1.00 20.00    -0.205 F 
HETATM    8  F11 UNL     1     -32.157   9.164   1.649  1.00 20.00    -0.205 F 
ENDROOT
BRANCH   3   9
HETATM    9  C1  UNL     1     -34.823   5.168   4.200  1.00 20.00     0.177 C 
HETATM   10  O8  UNL     1     -35.714   5.987   3.841  1.00 20.00    -0.648 OA
HETATM   11  O9  UNL     1     -34.907   3.932   4.444  1.00 20.00    -0.648 OA
ENDBRANCH   3   9
TORSDOF 1
ENDMDL
MODEL 6
REMARK VINA RESULT:      -4.7     11.569     12.322
REMARK  1 active torsions:
REMARK  status: ('A' for Active; 'I' for Inactive)
REMARK    1  A    between atoms: C1_1  and  C4_4 
ROOT
HETATM    1  C2  UNL     1     -33.898  15.586  -5.768  1.00 20.00     0.026 C 
HETATM    2  C3  UNL     1     -35.875  15.246  -4.360  1.00 20.00     0.026 C 
HETATM    3  C4  UNL     1     -35.311  14.994  -5.762  1.00 20.00     0.088 C 
HETATM    4  C5  UNL     1     -33.455  15.541  -4.334  1.00 20.00     0.069 A 
HETATM    5  C6  UNL     1     -34.669  15.332  -3.469  1.00 20.00     0.069 A 
HETATM    6  C7  UNL     1     -33.872  16.581  -3.358  1.00 20.00     0.252 A 
HETATM    7  F10 UNL     1     -34.381  17.790  -3.780  1.00 20.00    -0.205 F 
HETATM    8  F11 UNL     1     -33.115  16.826  -2.235  1.00 20.00    -0.205 F 
ENDROOT
BRANCH   3   9
HETATM    9  C1  UNL     1     -35.213  13.494  -5.985  1.00 20.00     0.177 C 
HETATM   10  O8  UNL     1     -34.370  13.132  -6.853  1.00 20.00    -0.648 OA
HETATM   11  O9  UNL     1     -35.991  12.800  -5.273  1.00 20.00    -0.648 OA
ENDBRANCH   3   9
TORSDOF 1
ENDMDL
MODEL 7
REMARK VINA RESULT:      -4.6      3.383      4.138
REMARK  1 active torsions:
REMARK  status: ('A' for Active; 'I' for Inactive)
REMARK    1  A    between atoms: C1_1  and  C4_4 
ROOT
HETATM    1  C2  UNL     1     -32.617   6.167   2.511  1.00 20.00     0.026 C 
HETATM    2  C3  UNL     1     -32.900   7.673   4.424  1.00 20.00     0.026 C 
HETATM    3  C4  UNL     1     -31.954   7.320   3.272  1.00 20.00     0.088 C 
HETATM    4  C5  UNL     1     -34.087   6.326   2.773  1.00 20.00     0.069 A 
HETATM    5  C6  UNL     1     -34.261   7.252   3.948  1.00 20.00     0.069 A 
HETATM    6  C7  UNL     1     -34.710   5.837   4.030  1.00 20.00     0.252 A 
HETATM    7  F10 UNL     1     -34.062   4.931   4.840  1.00 20.00    -0.205 F 
HETATM    8  F11 UNL     1     -36.053   5.535   4.070  1.00 20.00    -0.205 F 
ENDROOT
BRANCH   3   9
HETATM    9  C1  UNL     1     -31.847   8.519   2.345  1.00 20.00     0.177 C 
HETATM   10  O8  UNL     1     -31.719   8.243   1.119  1.00 20.00    -0.648 OA
HETATM   11  O9  UNL     1     -31.899   9.641   2.922  1.00 20.00    -0.648 OA
ENDBRANCH   3   9
TORSDOF 1
ENDMDL
MODEL 8
REMARK VINA RESULT:      -4.6     11.534     12.423
REMARK  1 active torsions:
REMARK  status: ('A' for Active; 'I' for Inactive)
REMARK    1  A    between atoms: C1_1  and  C4_4 
ROOT
HETATM    1  C2  UNL     1     -35.669  15.444  -3.891  1.00 20.00     0.026 C 
HETATM    2  C3  UNL     1     -33.649  14.352  -4.749  1.00 20.00     0.026 C 
HETATM    3  C4  UNL     1     -35.058  14.077  -4.213  1.00 20.00     0.088 C 
HETATM    4  C5  UNL     1     -34.962  16.407  -4.801  1.00 20.00     0.069 A 
HETATM    5  C6  UNL     1     -33.721  15.736  -5.328  1.00 20.00     0.069 A 
HETATM    6  C7  UNL     1     -33.617  16.945  -4.469  1.00 20.00     0.252 A 
HETATM    7  F10 UNL     1     -33.116  16.866  -3.189  1.00 20.00    -0.205 F 
HETATM    8  F11 UNL     1     -33.195  18.142  -5.002  1.00 20.00    -0.205 F 
ENDROOT
BRANCH   3   9
HETATM    9  C1  UNL     1     -35.878  13.422  -5.314  1.00 20.00     0.177 C 
HETATM   10  O8  UNL     1     -37.114  13.682  -5.292  1.00 20.00    -0.648 OA
HETATM   11  O9  UNL     1     -35.216  12.700  -6.109  1.00 20.00    -0.648 OA
ENDBRANCH   3   9
TORSDOF 1
ENDMDL
MODEL 9
REMARK VINA RESULT:      -4.4     11.794     12.817
REMARK  1 active torsions:
REMARK  status: ('A' for Active; 'I' for Inactive)
REMARK    1  A    between atoms: C1_1  and  C4_4 
ROOT
HETATM    1  C2  UNL     1     -33.348  14.519  -4.408  1.00 20.00     0.026 C 
HETATM    2  C3  UNL     1     -33.879  16.751  -5.270  1.00 20.00     0.026 C 
HETATM    3  C4  UNL     1     -33.239  15.412  -5.648  1.00 20.00     0.088 C 
HETATM    4  C5  UNL     1     -34.538  15.044  -3.658  1.00 20.00     0.069 A 
HETATM    5  C6  UNL     1     -34.865  16.415  -4.187  1.00 20.00     0.069 A 
HETATM    6  C7  UNL     1     -34.438  16.236  -2.775  1.00 20.00     0.252 A 
HETATM    7  F10 UNL     1     -33.216  16.696  -2.337  1.00 20.00    -0.205 F 
HETATM    8  F11 UNL     1     -35.336  16.419  -1.748  1.00 20.00    -0.205 F 
ENDROOT
BRANCH   3   9
HETATM    9  C1  UNL     1     -34.047  14.786  -6.772  1.00 20.00     0.177 C 
HETATM   10  O8  UNL     1     -34.479  15.594  -7.641  1.00 20.00    -0.648 OA
HETATM   11  O9  UNL     1     -34.185  13.533  -6.692  1.00 20.00    -0.648 OA
ENDBRANCH   3   9
TORSDOF 1
ENDMDL
