MODEL 1
REMARK VINA RESULT:      -5.3      0.000      0.000
REMARK  1 active torsions:
REMARK  status: ('A' for Active; 'I' for Inactive)
REMARK    1  A    between atoms: C3_3  and  C6_6 
ROOT
HETATM    1  C1  UNL     1     -32.793   7.942   4.101  1.00 20.00     0.068 A 
HETATM    2  C2  UNL     1     -33.150   6.329   2.391  1.00 20.00     0.126 A 
HETATM    3  C3  UNL     1     -32.604   7.539   2.784  1.00 20.00    -0.023 A 
HETATM    4  C4  UNL     1     -33.512   7.132   4.973  1.00 20.00     0.212 A 
HETATM    5  C5  UNL     1     -34.018   5.938   4.482  1.00 20.00     0.175 A 
HETATM    6  N7  UNL     1     -33.854   5.514   3.209  1.00 20.00    -0.244 NA
HETATM    7  O8  UNL     1     -33.685   7.507   6.187  1.00 20.00    -0.285 OA
HETATM    8 CL9  UNL     1     -34.933   4.818   5.430  1.00 20.00    -0.058 Cl
ENDROOT
BRANCH   3   9
HETATM    9  C6  UNL     1     -31.839   8.383   1.826  1.00 20.00     0.154 C 
HETATM   10 CL10 UNL     1     -32.777   9.820   1.360  1.00 20.00    -0.126 Cl
ENDBRANCH   3   9
TORSDOF 1
ENDMDL
MODEL 2
REMARK VINA RESULT:      -4.7      1.681      2.071
REMARK  1 active torsions:
REMARK  status: ('A' for Active; 'I' for Inactive)
REMARK    1  A    between atoms: C3_3  and  C6_6 
ROOT
HETATM    1  C1  UNL     1     -32.926   6.257   2.604  1.00 20.00     0.068 A 
HETATM    2  C2  UNL     1     -32.844   8.031   4.184  1.00 20.00     0.126 A 
HETATM    3  C3  UNL     1     -32.523   7.547   2.927  1.00 20.00    -0.023 A 
HETATM    4  C4  UNL     1     -33.628   5.500   3.535  1.00 20.00     0.212 A 
HETATM    5  C5  UNL     1     -33.901   6.076   4.766  1.00 20.00     0.175 A 
HETATM    6  N7  UNL     1     -33.525   7.327   5.116  1.00 20.00    -0.244 NA
HETATM    7  O8  UNL     1     -33.998   4.311   3.233  1.00 20.00    -0.285 OA
HETATM    8 CL9  UNL     1     -34.761   5.275   6.034  1.00 20.00    -0.058 Cl
ENDROOT
BRANCH   3   9
HETATM    9  C6  UNL     1     -31.770   8.382   1.952  1.00 20.00     0.154 C 
HETATM   10 CL10 UNL     1     -32.782   9.712   1.345  1.00 20.00    -0.126 Cl
ENDBRANCH   3   9
TORSDOF 1
ENDMDL
MODEL 3
REMARK VINA RESULT:      -4.7     11.364     12.132
REMARK  1 active torsions:
REMARK  status: ('A' for Active; 'I' for Inactive)
REMARK    1  A    between atoms: C3_3  and  C6_6 
ROOT
HETATM    1  C1  UNL     1     -34.687  14.774  -3.831  1.00 20.00     0.068 A 
HETATM    2  C2  UNL     1     -33.290  16.290  -5.016  1.00 20.00     0.126 A 
HETATM    3  C3  UNL     1     -33.902  15.921  -3.830  1.00 20.00    -0.023 A 
HETATM    4  C4  UNL     1     -34.834  14.042  -5.003  1.00 20.00     0.212 A 
HETATM    5  C5  UNL     1     -34.180  14.494  -6.138  1.00 20.00     0.175 A 
HETATM    6  N7  UNL     1     -33.409  15.603  -6.175  1.00 20.00    -0.244 NA
HETATM    7  O8  UNL     1     -35.559  12.984  -5.001  1.00 20.00    -0.285 OA
HETATM    8 CL9  UNL     1     -34.257  13.703  -7.674  1.00 20.00    -0.058 Cl
ENDROOT
BRANCH   3   9
HETATM    9  C6  UNL     1     -33.724  16.728  -2.592  1.00 20.00     0.154 C 
HETATM   10 CL10 UNL     1     -35.185  16.664  -1.580  1.00 20.00    -0.126 Cl
ENDBRANCH   3   9
TORSDOF 1
ENDMDL
MODEL 4
REMARK VINA RESULT:      -4.1     11.549     11.847
REMARK  1 active torsions:
REMARK  status: ('A' for Active; 'I' for Inactive)
REMARK    1  A    between atoms: C3_3  and  C6_6 
ROOT
HETATM    1  C1  UNL     1     -33.347  17.239  -2.099  1.00 20.00     0.068 A 
HETATM    2  C2  UNL     1     -35.503  16.983  -1.131  1.00 20.00     0.126 A 
HETATM    3  C3  UNL     1     -34.633  16.718  -2.175  1.00 20.00    -0.023 A 
HETATM    4  C4  UNL     1     -32.975  17.999  -0.996  1.00 20.00     0.212 A 
HETATM    5  C5  UNL     1     -33.920  18.207  -0.003  1.00 20.00     0.175 A 
HETATM    6  N7  UNL     1     -35.179  17.717  -0.043  1.00 20.00    -0.244 NA
HETATM    7  O8  UNL     1     -31.788  18.479  -0.929  1.00 20.00    -0.285 OA
HETATM    8 CL9  UNL     1     -33.624  19.127   1.430  1.00 20.00    -0.058 Cl
ENDROOT
BRANCH   3   9
HETATM    9  C6  UNL     1     -35.061  15.899  -3.342  1.00 20.00     0.154 C 
HETATM   10 CL10 UNL     1     -33.678  15.036  -4.051  1.00 20.00    -0.126 Cl
ENDBRANCH   3   9
TORSDOF 1
ENDMDL
MODEL 5
REMARK VINA RESULT:      -4.1     11.487     11.777
REMARK  1 active torsions:
REMARK  status: ('A' for Active; 'I' for Inactive)
REMARK    1  A    between atoms: C3_3  and  C6_6 
ROOT
HETATM    1  C1  UNL     1     -33.920  15.307  -3.752  1.00 20.00     0.068 A 
HETATM    2  C2  UNL     1     -35.829  16.492  -2.972  1.00 20.00     0.126 A 
HETATM    3  C3  UNL     1     -34.460  16.286  -2.925  1.00 20.00    -0.023 A 
HETATM    4  C4  UNL     1     -34.755  14.574  -4.588  1.00 20.00     0.212 A 
HETATM    5  C5  UNL     1     -36.112  14.857  -4.561  1.00 20.00     0.175 A 
HETATM    6  N7  UNL     1     -36.672  15.800  -3.771  1.00 20.00    -0.244 NA
HETATM    7  O8  UNL     1     -34.254  13.672  -5.348  1.00 20.00    -0.285 OA
HETATM    8 CL9  UNL     1     -37.285  14.040  -5.534  1.00 20.00    -0.058 Cl
ENDROOT
BRANCH   3   9
HETATM    9  C6  UNL     1     -33.594  17.088  -2.019  1.00 20.00     0.154 C 
HETATM   10 CL10 UNL     1     -34.464  17.517  -0.529  1.00 20.00    -0.126 Cl
ENDBRANCH   3   9
TORSDOF 1
ENDMDL
MODEL 6
REMARK VINA RESULT:      -4.1      1.574      3.995
REMARK  1 active torsions:
REMARK  status: ('A' for Active; 'I' for Inactive)
REMARK    1  A    between atoms: C3_3  and  C6_6 
ROOT
HETATM    1  C1  UNL     1     -32.948   7.334   4.556  1.00 20.00     0.068 A 
HETATM    2  C2  UNL     1     -34.047   6.322   2.707  1.00 20.00     0.126 A 
HETATM    3  C3  UNL     1     -33.915   6.458   4.079  1.00 20.00    -0.023 A 
HETATM    4  C4  UNL     1     -32.153   8.038   3.659  1.00 20.00     0.212 A 
HETATM    5  C5  UNL     1     -32.363   7.832   2.305  1.00 20.00     0.175 A 
HETATM    6  N7  UNL     1     -33.294   6.990   1.804  1.00 20.00    -0.244 NA
HETATM    7  O8  UNL     1     -31.261   8.845   4.104  1.00 20.00    -0.285 OA
HETATM    8 CL9  UNL     1     -31.463   8.625   1.060  1.00 20.00    -0.058 Cl
ENDROOT
BRANCH   3   9
HETATM    9  C6  UNL     1     -34.783   5.690   5.012  1.00 20.00     0.154 C 
HETATM   10 CL10 UNL     1     -34.400   3.954   4.948  1.00 20.00    -0.126 Cl
ENDBRANCH   3   9
TORSDOF 1
ENDMDL
MODEL 7
REMARK VINA RESULT:      -4.0     11.579     12.633
REMARK  1 active torsions:
REMARK  status: ('A' for Active; 'I' for Inactive)
REMARK    1  A    between atoms: C3_3  and  C6_6 
ROOT
HETATM    1  C1  UNL     1     -33.640  16.725  -5.041  1.00 20.00     0.068 A 
HETATM    2  C2  UNL     1     -34.117  14.697  -3.895  1.00 20.00     0.126 A 
HETATM    3  C3  UNL     1     -33.813  16.047  -3.840  1.00 20.00    -0.023 A 
HETATM    4  C4  UNL     1     -33.774  16.042  -6.244  1.00 20.00     0.212 A 
HETATM    5  C5  UNL     1     -34.081  14.691  -6.192  1.00 20.00     0.175 A 
HETATM    6  N7  UNL     1     -34.257  13.999  -5.045  1.00 20.00    -0.244 NA
HETATM    7  O8  UNL     1     -33.613  16.671  -7.349  1.00 20.00    -0.285 OA
HETATM    8 CL9  UNL     1     -34.283  13.696  -7.591  1.00 20.00    -0.058 Cl
ENDROOT
BRANCH   3   9
HETATM    9  C6  UNL     1     -33.676  16.750  -2.535  1.00 20.00     0.154 C 
HETATM   10 CL10 UNL     1     -35.198  16.684  -1.619  1.00 20.00    -0.126 Cl
ENDBRANCH   3   9
TORSDOF 1
ENDMDL
MODEL 8
REMARK VINA RESULT:      -3.9     11.817     12.106
REMARK  1 active torsions:
REMARK  status: ('A' for Active; 'I' for Inactive)
REMARK    1  A    between atoms: C3_3  and  C6_6 
ROOT
HETATM    1  C1  UNL     1     -34.259  18.256   0.373  1.00 20.00     0.068 A 
HETATM    2  C2  UNL     1     -32.616  18.023  -1.330  1.00 20.00     0.126 A 
HETATM    3  C3  UNL     1     -33.940  17.918  -0.937  1.00 20.00    -0.023 A 
HETATM    4  C4  UNL     1     -33.258  18.683   1.238  1.00 20.00     0.212 A 
HETATM    5  C5  UNL     1     -31.964  18.754   0.748  1.00 20.00     0.175 A 
HETATM    6  N7  UNL     1     -31.616  18.434  -0.518  1.00 20.00    -0.244 NA
HETATM    7  O8  UNL     1     -33.556  18.993   2.446  1.00 20.00    -0.285 OA
HETATM    8 CL9  UNL     1     -30.605  19.263   1.689  1.00 20.00    -0.058 Cl
ENDROOT
BRANCH   3   9
HETATM    9  C6  UNL     1     -34.988  17.459  -1.888  1.00 20.00     0.154 C 
HETATM   10 CL10 UNL     1     -34.400  16.095  -2.866  1.00 20.00    -0.126 Cl
ENDBRANCH   3   9
TORSDOF 1
ENDMDL
MODEL 9
REMARK VINA RESULT:      -3.9     11.318     12.240
REMARK  1 active torsions:
REMARK  status: ('A' for Active; 'I' for Inactive)
REMARK    1  A    between atoms: C3_3  and  C6_6 
ROOT
HETATM    1  C1  UNL     1     -37.113  14.163  -5.091  1.00 20.00     0.068 A 
HETATM    2  C2  UNL     1     -36.479  15.999  -3.720  1.00 20.00     0.126 A 
HETATM    3  C3  UNL     1     -37.474  15.309  -4.393  1.00 20.00    -0.023 A 
HETATM    4  C4  UNL     1     -35.787  13.746  -5.095  1.00 20.00     0.212 A 
HETATM    5  C5  UNL     1     -34.866  14.505  -4.389  1.00 20.00     0.175 A 
HETATM    6  N7  UNL     1     -35.179  15.624  -3.699  1.00 20.00    -0.244 NA
HETATM    7  O8  UNL     1     -35.459  12.688  -5.740  1.00 20.00    -0.285 OA
HETATM    8 CL9  UNL     1     -33.182  14.128  -4.291  1.00 20.00    -0.058 Cl
ENDROOT
BRANCH   3   9
HETATM    9  C6  UNL     1     -38.884  15.782  -4.370  1.00 20.00     0.154 C 
HETATM   10 CL10 UNL     1     -39.854  14.941  -5.601  1.00 20.00    -0.126 Cl
ENDBRANCH   3   9
TORSDOF 1
ENDMDL
