MODEL 1
REMARK VINA RESULT:      -5.4      0.000      0.000
REMARK  1 active torsions:
REMARK  status: ('A' for Active; 'I' for Inactive)
REMARK    1  A    between atoms: C3_3  and  C6_6 
ROOT
HETATM    1  C1  UNL     1     -33.138   6.956   2.397  1.00 20.00     0.055 A 
HETATM    2  C2  UNL     1     -31.646   8.439   3.508  1.00 20.00     0.160 A 
HETATM    3  C3  UNL     1     -33.757   6.714   3.618  1.00 20.00    -0.001 A 
HETATM    4  C4  UNL     1     -32.061   7.834   2.332  1.00 20.00     0.134 A 
HETATM    5  C5  UNL     1     -33.266   7.368   4.736  1.00 20.00     0.133 A 
HETATM    6  N7  UNL     1     -32.223   8.228   4.712  1.00 20.00    -0.245 NA
HETATM    7  F8  UNL     1     -31.445   8.085   1.171  1.00 20.00    -0.205 F 
HETATM    8 CL9  UNL     1     -33.945   7.150   6.301  1.00 20.00    -0.062 Cl
ENDROOT
BRANCH   3   9
HETATM    9  C6  UNL     1     -34.911   5.773   3.681  1.00 20.00     0.156 C 
HETATM   10 CL10 UNL     1     -34.420   4.221   4.395  1.00 20.00    -0.125 Cl
ENDBRANCH   3   9
TORSDOF 1
ENDMDL
MODEL 2
REMARK VINA RESULT:      -5.4      3.154      4.299
REMARK  1 active torsions:
REMARK  status: ('A' for Active; 'I' for Inactive)
REMARK    1  A    between atoms: C3_3  and  C6_6 
ROOT
HETATM    1  C1  UNL     1     -33.749   7.094   4.760  1.00 20.00     0.055 A 
HETATM    2  C2  UNL     1     -34.566   4.963   5.433  1.00 20.00     0.160 A 
HETATM    3  C3  UNL     1     -33.343   6.525   3.558  1.00 20.00    -0.001 A 
HETATM    4  C4  UNL     1     -34.373   6.305   5.721  1.00 20.00     0.134 A 
HETATM    5  C5  UNL     1     -33.581   5.174   3.367  1.00 20.00     0.133 A 
HETATM    6  N7  UNL     1     -34.184   4.375   4.276  1.00 20.00    -0.245 NA
HETATM    7  F8  UNL     1     -34.773   6.825   6.887  1.00 20.00    -0.205 F 
HETATM    8 CL9  UNL     1     -33.125   4.355   1.925  1.00 20.00    -0.062 Cl
ENDROOT
BRANCH   3   9
HETATM    9  C6  UNL     1     -32.677   7.375   2.532  1.00 20.00     0.156 C 
HETATM   10 CL10 UNL     1     -31.404   8.373   3.272  1.00 20.00    -0.125 Cl
ENDBRANCH   3   9
TORSDOF 1
ENDMDL
MODEL 3
REMARK VINA RESULT:      -4.6      2.622      3.399
REMARK  1 active torsions:
REMARK  status: ('A' for Active; 'I' for Inactive)
REMARK    1  A    between atoms: C3_3  and  C6_6 
ROOT
HETATM    1  C1  UNL     1     -32.726   6.035   2.686  1.00 20.00     0.055 A 
HETATM    2  C2  UNL     1     -34.161   4.570   3.891  1.00 20.00     0.160 A 
HETATM    3  C3  UNL     1     -32.867   6.966   3.710  1.00 20.00    -0.001 A 
HETATM    4  C4  UNL     1     -33.382   4.812   2.771  1.00 20.00     0.134 A 
HETATM    5  C5  UNL     1     -33.670   6.628   4.787  1.00 20.00     0.133 A 
HETATM    6  N7  UNL     1     -34.322   5.450   4.905  1.00 20.00    -0.245 NA
HETATM    7  F8  UNL     1     -33.264   3.898   1.801  1.00 20.00    -0.205 F 
HETATM    8 CL9  UNL     1     -33.925   7.694   6.113  1.00 20.00    -0.062 Cl
ENDROOT
BRANCH   3   9
HETATM    9  C6  UNL     1     -32.161   8.275   3.614  1.00 20.00     0.156 C 
HETATM   10 CL10 UNL     1     -31.910   8.732   1.914  1.00 20.00    -0.125 Cl
ENDBRANCH   3   9
TORSDOF 1
ENDMDL
MODEL 4
REMARK VINA RESULT:      -4.5      2.961      3.508
REMARK  1 active torsions:
REMARK  status: ('A' for Active; 'I' for Inactive)
REMARK    1  A    between atoms: C3_3  and  C6_6 
ROOT
HETATM    1  C1  UNL     1     -34.436   5.595   4.362  1.00 20.00     0.055 A 
HETATM    2  C2  UNL     1     -33.729   7.186   5.984  1.00 20.00     0.160 A 
HETATM    3  C3  UNL     1     -33.645   6.247   3.423  1.00 20.00    -0.001 A 
HETATM    4  C4  UNL     1     -34.485   6.067   5.670  1.00 20.00     0.134 A 
HETATM    5  C5  UNL     1     -32.928   7.358   3.837  1.00 20.00     0.133 A 
HETATM    6  N7  UNL     1     -32.950   7.845   5.098  1.00 20.00    -0.245 NA
HETATM    7  F8  UNL     1     -35.238   5.461   6.595  1.00 20.00    -0.205 F 
HETATM    8 CL9  UNL     1     -31.917   8.249   2.770  1.00 20.00    -0.062 Cl
ENDROOT
BRANCH   3   9
HETATM    9  C6  UNL     1     -33.597   5.737   2.024  1.00 20.00     0.156 C 
HETATM   10 CL10 UNL     1     -32.813   4.142   1.963  1.00 20.00    -0.125 Cl
ENDBRANCH   3   9
TORSDOF 1
ENDMDL
MODEL 5
REMARK VINA RESULT:      -4.4      2.961      3.661
REMARK  1 active torsions:
REMARK  status: ('A' for Active; 'I' for Inactive)
REMARK    1  A    between atoms: C3_3  and  C6_6 
ROOT
HETATM    1  C1  UNL     1     -33.881   6.091   3.252  1.00 20.00     0.055 A 
HETATM    2  C2  UNL     1     -34.318   6.304   5.581  1.00 20.00     0.160 A 
HETATM    3  C3  UNL     1     -32.963   7.130   3.360  1.00 20.00    -0.001 A 
HETATM    4  C4  UNL     1     -34.576   5.664   4.378  1.00 20.00     0.134 A 
HETATM    5  C5  UNL     1     -32.778   7.704   4.607  1.00 20.00     0.133 A 
HETATM    6  N7  UNL     1     -33.434   7.317   5.724  1.00 20.00    -0.245 NA
HETATM    7  F8  UNL     1     -35.465   4.668   4.304  1.00 20.00    -0.205 F 
HETATM    8 CL9  UNL     1     -31.674   8.997   4.869  1.00 20.00    -0.062 Cl
ENDROOT
BRANCH   3   9
HETATM    9  C6  UNL     1     -32.221   7.582   2.150  1.00 20.00     0.156 C 
HETATM   10 CL10 UNL     1     -32.757   9.202   1.651  1.00 20.00    -0.125 Cl
ENDBRANCH   3   9
TORSDOF 1
ENDMDL
MODEL 6
REMARK VINA RESULT:      -4.2     11.334     11.855
REMARK  1 active torsions:
REMARK  status: ('A' for Active; 'I' for Inactive)
REMARK    1  A    between atoms: C3_3  and  C6_6 
ROOT
HETATM    1  C1  UNL     1     -36.372  15.546  -3.929  1.00 20.00     0.055 A 
HETATM    2  C2  UNL     1     -36.286  13.593  -5.284  1.00 20.00     0.160 A 
HETATM    3  C3  UNL     1     -34.997  15.444  -3.747  1.00 20.00    -0.001 A 
HETATM    4  C4  UNL     1     -37.037  14.607  -4.710  1.00 20.00     0.134 A 
HETATM    5  C5  UNL     1     -34.338  14.393  -4.363  1.00 20.00     0.133 A 
HETATM    6  N7  UNL     1     -34.950  13.461  -5.130  1.00 20.00    -0.245 NA
HETATM    7  F8  UNL     1     -38.359  14.680  -4.901  1.00 20.00    -0.205 F 
HETATM    8 CL9  UNL     1     -32.641  14.157  -4.214  1.00 20.00    -0.062 Cl
ENDROOT
BRANCH   3   9
HETATM    9  C6  UNL     1     -34.291  16.454  -2.910  1.00 20.00     0.156 C 
HETATM   10 CL10 UNL     1     -35.179  16.753  -1.400  1.00 20.00    -0.125 Cl
ENDBRANCH   3   9
TORSDOF 1
ENDMDL
MODEL 7
REMARK VINA RESULT:      -3.9     11.742     12.264
REMARK  1 active torsions:
REMARK  status: ('A' for Active; 'I' for Inactive)
REMARK    1  A    between atoms: C3_3  and  C6_6 
ROOT
HETATM    1  C1  UNL     1     -34.858  14.966  -3.882  1.00 20.00     0.055 A 
HETATM    2  C2  UNL     1     -33.036  16.214  -4.766  1.00 20.00     0.160 A 
HETATM    3  C3  UNL     1     -35.020  14.376  -5.131  1.00 20.00    -0.001 A 
HETATM    4  C4  UNL     1     -33.850  15.904  -3.687  1.00 20.00     0.134 A 
HETATM    5  C5  UNL     1     -34.155  14.755  -6.144  1.00 20.00     0.133 A 
HETATM    6  N7  UNL     1     -33.163  15.662  -5.993  1.00 20.00    -0.245 NA
HETATM    7  F8  UNL     1     -33.671  16.488  -2.497  1.00 20.00    -0.205 F 
HETATM    8 CL9  UNL     1     -34.254  14.099  -7.731  1.00 20.00    -0.062 Cl
ENDROOT
BRANCH   3   9
HETATM    9  C6  UNL     1     -36.101  13.371  -5.333  1.00 20.00     0.156 C 
HETATM   10 CL10 UNL     1     -37.688  14.165  -5.433  1.00 20.00    -0.125 Cl
ENDBRANCH   3   9
TORSDOF 1
ENDMDL
MODEL 8
REMARK VINA RESULT:      -3.8      2.037      2.612
REMARK  1 active torsions:
REMARK  status: ('A' for Active; 'I' for Inactive)
REMARK    1  A    between atoms: C3_3  and  C6_6 
ROOT
HETATM    1  C1  UNL     1     -33.199   7.512   5.130  1.00 20.00     0.055 A 
HETATM    2  C2  UNL     1     -31.815   8.256   3.344  1.00 20.00     0.160 A 
HETATM    3  C3  UNL     1     -33.818   6.635   4.245  1.00 20.00    -0.001 A 
HETATM    4  C4  UNL     1     -32.178   8.341   4.679  1.00 20.00     0.134 A 
HETATM    5  C5  UNL     1     -33.383   6.627   2.930  1.00 20.00     0.133 A 
HETATM    6  N7  UNL     1     -32.394   7.417   2.455  1.00 20.00    -0.245 NA
HETATM    7  F8  UNL     1     -31.565   9.194   5.508  1.00 20.00    -0.205 F 
HETATM    8 CL9  UNL     1     -34.069   5.591   1.741  1.00 20.00    -0.062 Cl
ENDROOT
BRANCH   3   9
HETATM    9  C6  UNL     1     -34.911   5.749   4.735  1.00 20.00     0.156 C 
HETATM   10 CL10 UNL     1     -34.366   4.058   4.804  1.00 20.00    -0.125 Cl
ENDBRANCH   3   9
TORSDOF 1
ENDMDL
MODEL 9
REMARK VINA RESULT:      -3.8     11.842     12.076
REMARK  1 active torsions:
REMARK  status: ('A' for Active; 'I' for Inactive)
REMARK    1  A    between atoms: C3_3  and  C6_6 
ROOT
HETATM    1  C1  UNL     1     -31.521  18.646   0.437  1.00 20.00     0.055 A 
HETATM    2  C2  UNL     1     -32.440  18.569   2.630  1.00 20.00     0.160 A 
HETATM    3  C3  UNL     1     -32.813  18.591  -0.074  1.00 20.00    -0.001 A 
HETATM    4  C4  UNL     1     -31.322  18.636   1.813  1.00 20.00     0.134 A 
HETATM    5  C5  UNL     1     -33.864  18.526   0.827  1.00 20.00     0.133 A 
HETATM    6  N7  UNL     1     -33.710  18.514   2.170  1.00 20.00    -0.245 NA
HETATM    7  F8  UNL     1     -30.090  18.687   2.333  1.00 20.00    -0.205 F 
HETATM    8 CL9  UNL     1     -35.505  18.451   0.319  1.00 20.00    -0.062 Cl
ENDROOT
BRANCH   3   9
HETATM    9  C6  UNL     1     -33.020  18.603  -1.549  1.00 20.00     0.156 C 
HETATM   10 CL10 UNL     1     -33.477  16.988  -2.135  1.00 20.00    -0.125 Cl
ENDBRANCH   3   9
TORSDOF 1
ENDMDL
