MODEL 1
REMARK VINA RESULT:      -5.0      0.000      0.000
REMARK  2 active torsions:
REMARK  status: ('A' for Active; 'I' for Inactive)
REMARK    1  A    between atoms: C4_4  and  O9_9 
REMARK    2  A    between atoms: C7_7  and  O9_9 
ROOT
HETATM    1  C1  UNL     1     -34.060   6.489   5.340  1.00 20.00     0.155 C 
HETATM    2  C2  UNL     1     -34.714   5.115   5.562  1.00 20.00     0.084 C 
HETATM    3  C3  UNL     1     -34.442   4.827   4.068  1.00 20.00     0.047 C 
HETATM    4  C4  UNL     1     -34.073   6.311   3.810  1.00 20.00     0.191 C 
HETATM    5  O8  UNL     1     -33.677   7.367   6.083  1.00 20.00    -0.295 OA
ENDROOT
BRANCH   4   6
HETATM    6  O9  UNL     1     -32.801   6.554   3.190  1.00 20.00    -0.374 OA
BRANCH   6   7
HETATM    7  C7  UNL     1     -32.614   7.936   2.943  1.00 20.00     0.114 C 
HETATM    8  C5  UNL     1     -31.352   8.404   3.653  1.00 20.00     0.039 C 
HETATM    9  C6  UNL     1     -32.539   8.171   1.441  1.00 20.00     0.039 C 
ENDBRANCH   6   7
ENDBRANCH   4   6
TORSDOF 2
ENDMDL
MODEL 2
REMARK VINA RESULT:      -5.0      1.589      2.409
REMARK  2 active torsions:
REMARK  status: ('A' for Active; 'I' for Inactive)
REMARK    1  A    between atoms: C4_4  and  O9_9 
REMARK    2  A    between atoms: C7_7  and  O9_9 
ROOT
HETATM    1  C1  UNL     1     -33.410   5.201   3.142  1.00 20.00     0.155 C 
HETATM    2  C2  UNL     1     -34.499   5.086   4.222  1.00 20.00     0.084 C 
HETATM    3  C3  UNL     1     -34.511   6.631   4.268  1.00 20.00     0.047 C 
HETATM    4  C4  UNL     1     -33.219   6.705   3.414  1.00 20.00     0.191 C 
HETATM    5  O8  UNL     1     -32.906   4.412   2.371  1.00 20.00    -0.295 OA
ENDROOT
BRANCH   4   6
HETATM    6  O9  UNL     1     -33.281   7.517   2.231  1.00 20.00    -0.374 OA
BRANCH   6   7
HETATM    7  C7  UNL     1     -32.076   8.239   2.049  1.00 20.00     0.114 C 
HETATM    8  C5  UNL     1     -32.387   9.572   1.387  1.00 20.00     0.039 C 
HETATM    9  C6  UNL     1     -31.392   8.421   3.396  1.00 20.00     0.039 C 
ENDBRANCH   6   7
ENDBRANCH   4   6
TORSDOF 2
ENDMDL
MODEL 3
REMARK VINA RESULT:      -4.9      1.606      2.132
REMARK  2 active torsions:
REMARK  status: ('A' for Active; 'I' for Inactive)
REMARK    1  A    between atoms: C4_4  and  O9_9 
REMARK    2  A    between atoms: C7_7  and  O9_9 
ROOT
HETATM    1  C1  UNL     1     -33.392   5.186   3.117  1.00 20.00     0.155 C 
HETATM    2  C2  UNL     1     -34.499   5.045   4.176  1.00 20.00     0.084 C 
HETATM    3  C3  UNL     1     -34.552   6.590   4.217  1.00 20.00     0.047 C 
HETATM    4  C4  UNL     1     -33.245   6.694   3.389  1.00 20.00     0.191 C 
HETATM    5  O8  UNL     1     -32.852   4.409   2.359  1.00 20.00    -0.295 OA
ENDROOT
BRANCH   4   6
HETATM    6  O9  UNL     1     -33.303   7.502   2.204  1.00 20.00    -0.374 OA
BRANCH   6   7
HETATM    7  C7  UNL     1     -32.386   8.578   2.278  1.00 20.00     0.114 C 
HETATM    8  C5  UNL     1     -31.378   8.302   3.384  1.00 20.00     0.039 C 
HETATM    9  C6  UNL     1     -31.709   8.754   0.926  1.00 20.00     0.039 C 
ENDBRANCH   6   7
ENDBRANCH   4   6
TORSDOF 2
ENDMDL
MODEL 4
REMARK VINA RESULT:      -4.5      1.332      1.726
REMARK  2 active torsions:
REMARK  status: ('A' for Active; 'I' for Inactive)
REMARK    1  A    between atoms: C4_4  and  O9_9 
REMARK    2  A    between atoms: C7_7  and  O9_9 
ROOT
HETATM    1  C1  UNL     1     -33.689   7.063   4.582  1.00 20.00     0.155 C 
HETATM    2  C2  UNL     1     -34.152   5.645   4.208  1.00 20.00     0.084 C 
HETATM    3  C3  UNL     1     -33.817   6.003   2.742  1.00 20.00     0.047 C 
HETATM    4  C4  UNL     1     -33.650   7.501   3.106  1.00 20.00     0.191 C 
HETATM    5  O8  UNL     1     -33.444   7.616   5.633  1.00 20.00    -0.295 OA
ENDROOT
BRANCH   4   6
HETATM    6  O9  UNL     1     -32.413   8.119   2.720  1.00 20.00    -0.374 OA
BRANCH   6   7
HETATM    7  C7  UNL     1     -32.543   8.777   1.473  1.00 20.00     0.114 C 
HETATM    8  C5  UNL     1     -32.826  10.252   1.713  1.00 20.00     0.039 C 
HETATM    9  C6  UNL     1     -31.273   8.569   0.662  1.00 20.00     0.039 C 
ENDBRANCH   6   7
ENDBRANCH   4   6
TORSDOF 2
ENDMDL
MODEL 5
REMARK VINA RESULT:      -4.5      1.877      2.589
REMARK  2 active torsions:
REMARK  status: ('A' for Active; 'I' for Inactive)
REMARK    1  A    between atoms: C4_4  and  O9_9 
REMARK    2  A    between atoms: C7_7  and  O9_9 
ROOT
HETATM    1  C1  UNL     1     -33.258   5.869   3.109  1.00 20.00     0.155 C 
HETATM    2  C2  UNL     1     -34.048   5.957   4.426  1.00 20.00     0.084 C 
HETATM    3  C3  UNL     1     -33.906   7.493   4.322  1.00 20.00     0.047 C 
HETATM    4  C4  UNL     1     -32.867   7.357   3.178  1.00 20.00     0.191 C 
HETATM    5  O8  UNL     1     -33.037   4.975   2.321  1.00 20.00    -0.295 OA
ENDROOT
BRANCH   4   6
HETATM    6  O9  UNL     1     -33.146   8.084   1.972  1.00 20.00    -0.374 OA
BRANCH   6   7
HETATM    7  C7  UNL     1     -32.149   9.059   1.725  1.00 20.00     0.114 C 
HETATM    8  C5  UNL     1     -31.238   8.572   0.609  1.00 20.00     0.039 C 
HETATM    9  C6  UNL     1     -32.817  10.381   1.375  1.00 20.00     0.039 C 
ENDBRANCH   6   7
ENDBRANCH   4   6
TORSDOF 2
ENDMDL
MODEL 6
REMARK VINA RESULT:      -4.5      1.261      3.920
REMARK  2 active torsions:
REMARK  status: ('A' for Active; 'I' for Inactive)
REMARK    1  A    between atoms: C4_4  and  O9_9 
REMARK    2  A    between atoms: C7_7  and  O9_9 
ROOT
HETATM    1  C1  UNL     1     -31.770   8.235   3.118  1.00 20.00     0.155 C 
HETATM    2  C2  UNL     1     -31.760   8.875   1.720  1.00 20.00     0.084 C 
HETATM    3  C3  UNL     1     -33.033   8.052   1.415  1.00 20.00     0.047 C 
HETATM    4  C4  UNL     1     -32.841   7.209   2.702  1.00 20.00     0.191 C 
HETATM    5  O8  UNL     1     -31.172   8.458   4.148  1.00 20.00    -0.295 OA
ENDROOT
BRANCH   4   6
HETATM    6  O9  UNL     1     -33.961   7.148   3.598  1.00 20.00    -0.374 OA
BRANCH   6   7
HETATM    7  C7  UNL     1     -34.450   5.824   3.710  1.00 20.00     0.114 C 
HETATM    8  C5  UNL     1     -33.468   4.870   3.046  1.00 20.00     0.039 C 
HETATM    9  C6  UNL     1     -34.657   5.489   5.180  1.00 20.00     0.039 C 
ENDBRANCH   6   7
ENDBRANCH   4   6
TORSDOF 2
ENDMDL
MODEL 7
REMARK VINA RESULT:      -4.2      1.184      4.176
REMARK  2 active torsions:
REMARK  status: ('A' for Active; 'I' for Inactive)
REMARK    1  A    between atoms: C4_4  and  O9_9 
REMARK    2  A    between atoms: C7_7  and  O9_9 
ROOT
HETATM    1  C1  UNL     1     -32.695   8.244   1.988  1.00 20.00     0.155 C 
HETATM    2  C2  UNL     1     -31.368   8.849   2.480  1.00 20.00     0.084 C 
HETATM    3  C3  UNL     1     -31.548   8.009   3.765  1.00 20.00     0.047 C 
HETATM    4  C4  UNL     1     -33.009   7.660   3.378  1.00 20.00     0.191 C 
HETATM    5  O8  UNL     1     -33.265   8.229   0.918  1.00 20.00    -0.295 OA
ENDROOT
BRANCH   4   6
HETATM    6  O9  UNL     1     -33.347   6.265   3.354  1.00 20.00    -0.374 OA
BRANCH   6   7
HETATM    7  C7  UNL     1     -34.394   5.981   4.265  1.00 20.00     0.114 C 
HETATM    8  C5  UNL     1     -34.491   4.476   4.462  1.00 20.00     0.039 C 
HETATM    9  C6  UNL     1     -34.129   6.708   5.575  1.00 20.00     0.039 C 
ENDBRANCH   6   7
ENDBRANCH   4   6
TORSDOF 2
ENDMDL
MODEL 8
REMARK VINA RESULT:      -4.2     11.767     12.752
REMARK  2 active torsions:
REMARK  status: ('A' for Active; 'I' for Inactive)
REMARK    1  A    between atoms: C4_4  and  O9_9 
REMARK    2  A    between atoms: C7_7  and  O9_9 
ROOT
HETATM    1  C1  UNL     1     -35.431  13.405  -6.067  1.00 20.00     0.155 C 
HETATM    2  C2  UNL     1     -35.304  13.234  -7.590  1.00 20.00     0.084 C 
HETATM    3  C3  UNL     1     -34.178  14.291  -7.540  1.00 20.00     0.047 C 
HETATM    4  C4  UNL     1     -34.535  14.657  -6.076  1.00 20.00     0.191 C 
HETATM    5  O8  UNL     1     -36.008  12.787  -5.198  1.00 20.00    -0.295 OA
ENDROOT
BRANCH   4   6
HETATM    6  O9  UNL     1     -33.461  14.604  -5.125  1.00 20.00    -0.374 OA
BRANCH   6   7
HETATM    7  C7  UNL     1     -33.435  15.772  -4.323  1.00 20.00     0.114 C 
HETATM    8  C5  UNL     1     -33.525  16.997  -5.220  1.00 20.00     0.039 C 
HETATM    9  C6  UNL     1     -34.580  15.717  -3.323  1.00 20.00     0.039 C 
ENDBRANCH   6   7
ENDBRANCH   4   6
TORSDOF 2
ENDMDL
MODEL 9
REMARK VINA RESULT:      -4.1      2.010      4.643
REMARK  2 active torsions:
REMARK  status: ('A' for Active; 'I' for Inactive)
REMARK    1  A    between atoms: C4_4  and  O9_9 
REMARK    2  A    between atoms: C7_7  and  O9_9 
ROOT
HETATM    1  C1  UNL     1     -31.771   8.957   0.766  1.00 20.00     0.155 C 
HETATM    2  C2  UNL     1     -32.494  10.293   0.523  1.00 20.00     0.084 C 
HETATM    3  C3  UNL     1     -33.254  10.037   1.844  1.00 20.00     0.047 C 
HETATM    4  C4  UNL     1     -32.740   8.575   1.900  1.00 20.00     0.191 C 
HETATM    5  O8  UNL     1     -30.808   8.420   0.262  1.00 20.00    -0.295 OA
ENDROOT
BRANCH   4   6
HETATM    6  O9  UNL     1     -32.081   8.176   3.112  1.00 20.00    -0.374 OA
BRANCH   6   7
HETATM    7  C7  UNL     1     -32.701   7.033   3.674  1.00 20.00     0.114 C 
HETATM    8  C5  UNL     1     -33.523   7.454   4.883  1.00 20.00     0.039 C 
HETATM    9  C6  UNL     1     -33.557   6.355   2.614  1.00 20.00     0.039 C 
ENDBRANCH   6   7
ENDBRANCH   4   6
TORSDOF 2
ENDMDL
