MODEL 1
REMARK VINA RESULT:      -4.9      0.000      0.000
REMARK  0 active torsions:
REMARK  status: ('A' for Active; 'I' for Inactive)
ROOT
HETATM    1  C1  UNL     1     -32.034   7.967   2.369  1.00 20.00     0.013 C 
HETATM    2  C2  UNL     1     -32.846   7.256   2.895  1.00 20.00    -0.107 C 
HETATM    3  C3  UNL     1     -33.974   6.766   5.031  1.00 20.00     0.048 C 
HETATM    4  C4  UNL     1     -33.378   4.913   3.442  1.00 20.00     0.048 C 
HETATM    5  C5  UNL     1     -34.748   5.728   5.837  1.00 20.00     0.169 C 
HETATM    6  C6  UNL     1     -34.186   3.981   4.341  1.00 20.00     0.169 C 
HETATM    7  C7  UNL     1     -33.848   6.379   3.542  1.00 20.00     0.023 C 
HETATM    8  C8  UNL     1     -35.191   6.571   2.814  1.00 20.00     0.029 C 
HETATM    9  O9  UNL     1     -34.163   4.435   5.692  1.00 20.00    -0.391 OA
ENDROOT
TORSDOF 0
ENDMDL
MODEL 2
REMARK VINA RESULT:      -4.1     11.987     12.723
REMARK  0 active torsions:
REMARK  status: ('A' for Active; 'I' for Inactive)
ROOT
HETATM    1  C1  UNL     1     -33.897  16.720  -2.311  1.00 20.00     0.013 C 
HETATM    2  C2  UNL     1     -34.551  16.241  -3.197  1.00 20.00    -0.107 C 
HETATM    3  C3  UNL     1     -36.854  15.765  -3.936  1.00 20.00     0.048 C 
HETATM    4  C4  UNL     1     -34.988  14.159  -4.441  1.00 20.00     0.048 C 
HETATM    5  C5  UNL     1     -37.733  14.918  -4.849  1.00 20.00     0.169 C 
HETATM    6  C6  UNL     1     -35.975  13.404  -5.326  1.00 20.00     0.169 C 
HETATM    7  C7  UNL     1     -35.356  15.650  -4.290  1.00 20.00     0.023 C 
HETATM    8  C8  UNL     1     -35.042  16.422  -5.584  1.00 20.00     0.029 C 
HETATM    9  O9  UNL     1     -37.308  13.556  -4.842  1.00 20.00    -0.391 OA
ENDROOT
TORSDOF 0
ENDMDL
MODEL 3
REMARK VINA RESULT:      -4.0      1.518      2.913
REMARK  0 active torsions:
REMARK  status: ('A' for Active; 'I' for Inactive)
ROOT
HETATM    1  C1  UNL     1     -32.696   9.875   1.005  1.00 20.00     0.013 C 
HETATM    2  C2  UNL     1     -32.674   8.971   1.796  1.00 20.00    -0.107 C 
HETATM    3  C3  UNL     1     -32.807   6.520   2.019  1.00 20.00     0.048 C 
HETATM    4  C4  UNL     1     -33.820   8.022   3.760  1.00 20.00     0.048 C 
HETATM    5  C5  UNL     1     -33.095   5.356   2.961  1.00 20.00     0.169 C 
HETATM    6  C6  UNL     1     -34.050   6.770   4.602  1.00 20.00     0.169 C 
HETATM    7  C7  UNL     1     -32.647   7.858   2.772  1.00 20.00     0.023 C 
HETATM    8  C8  UNL     1     -31.299   7.908   3.514  1.00 20.00     0.029 C 
HETATM    9  O9  UNL     1     -34.238   5.628   3.769  1.00 20.00    -0.391 OA
ENDROOT
TORSDOF 0
ENDMDL
MODEL 4
REMARK VINA RESULT:      -3.9     12.174     12.740
REMARK  0 active torsions:
REMARK  status: ('A' for Active; 'I' for Inactive)
ROOT
HETATM    1  C1  UNL     1     -35.198  17.020  -1.158  1.00 20.00     0.013 C 
HETATM    2  C2  UNL     1     -35.130  16.603  -2.282  1.00 20.00    -0.107 C 
HETATM    3  C3  UNL     1     -36.284  15.217  -3.963  1.00 20.00     0.048 C 
HETATM    4  C4  UNL     1     -33.775  15.224  -3.811  1.00 20.00     0.048 C 
HETATM    5  C5  UNL     1     -36.131  14.407  -5.246  1.00 20.00     0.169 C 
HETATM    6  C6  UNL     1     -33.768  14.413  -5.104  1.00 20.00     0.169 C 
HETATM    7  C7  UNL     1     -35.045  16.089  -3.669  1.00 20.00     0.023 C 
HETATM    8  C8  UNL     1     -34.990  17.297  -4.621  1.00 20.00     0.029 C 
HETATM    9  O9  UNL     1     -34.945  13.616  -5.208  1.00 20.00    -0.391 OA
ENDROOT
TORSDOF 0
ENDMDL
MODEL 5
REMARK VINA RESULT:      -3.9     12.133     13.096
REMARK  0 active torsions:
REMARK  status: ('A' for Active; 'I' for Inactive)
ROOT
HETATM    1  C1  UNL     1     -33.679  17.015  -2.296  1.00 20.00     0.013 C 
HETATM    2  C2  UNL     1     -33.737  16.235  -3.207  1.00 20.00    -0.107 C 
HETATM    3  C3  UNL     1     -33.677  16.041  -5.664  1.00 20.00     0.048 C 
HETATM    4  C4  UNL     1     -35.174  14.555  -4.297  1.00 20.00     0.048 C 
HETATM    5  C5  UNL     1     -34.043  15.179  -6.868  1.00 20.00     0.169 C 
HETATM    6  C6  UNL     1     -35.453  13.779  -5.580  1.00 20.00     0.169 C 
HETATM    7  C7  UNL     1     -33.809  15.274  -4.331  1.00 20.00     0.023 C 
HETATM    8  C8  UNL     1     -32.658  14.264  -4.168  1.00 20.00     0.029 C 
HETATM    9  O9  UNL     1     -35.351  14.630  -6.719  1.00 20.00    -0.391 OA
ENDROOT
TORSDOF 0
ENDMDL
MODEL 6
REMARK VINA RESULT:      -3.8     12.188     13.145
REMARK  0 active torsions:
REMARK  status: ('A' for Active; 'I' for Inactive)
ROOT
HETATM    1  C1  UNL     1     -33.697  16.639  -2.645  1.00 20.00     0.013 C 
HETATM    2  C2  UNL     1     -34.173  16.153  -3.635  1.00 20.00    -0.107 C 
HETATM    3  C3  UNL     1     -35.370  14.181  -4.503  1.00 20.00     0.048 C 
HETATM    4  C4  UNL     1     -33.648  15.357  -5.907  1.00 20.00     0.048 C 
HETATM    5  C5  UNL     1     -35.720  13.367  -5.745  1.00 20.00     0.169 C 
HETATM    6  C6  UNL     1     -34.098  14.474  -7.068  1.00 20.00     0.169 C 
HETATM    7  C7  UNL     1     -34.760  15.555  -4.855  1.00 20.00     0.023 C 
HETATM    8  C8  UNL     1     -35.844  16.513  -5.382  1.00 20.00     0.029 C 
HETATM    9  O9  UNL     1     -34.582  13.221  -6.592  1.00 20.00    -0.391 OA
ENDROOT
TORSDOF 0
ENDMDL
MODEL 7
REMARK VINA RESULT:      -3.7     12.236     13.072
REMARK  0 active torsions:
REMARK  status: ('A' for Active; 'I' for Inactive)
ROOT
HETATM    1  C1  UNL     1     -34.673  15.482  -3.445  1.00 20.00     0.013 C 
HETATM    2  C2  UNL     1     -34.577  16.426  -2.708  1.00 20.00    -0.107 C 
HETATM    3  C3  UNL     1     -32.966  17.864  -1.519  1.00 20.00     0.048 C 
HETATM    4  C4  UNL     1     -35.170  17.265  -0.469  1.00 20.00     0.048 C 
HETATM    5  C5  UNL     1     -32.763  18.839  -0.364  1.00 20.00     0.169 C 
HETATM    6  C6  UNL     1     -34.839  18.276   0.626  1.00 20.00     0.169 C 
HETATM    7  C7  UNL     1     -34.459  17.589  -1.799  1.00 20.00     0.023 C 
HETATM    8  C8  UNL     1     -35.116  18.799  -2.488  1.00 20.00     0.029 C 
HETATM    9  O9  UNL     1     -33.429  18.380   0.810  1.00 20.00    -0.391 OA
ENDROOT
TORSDOF 0
ENDMDL
MODEL 8
REMARK VINA RESULT:      -3.7     12.307     13.351
REMARK  0 active torsions:
REMARK  status: ('A' for Active; 'I' for Inactive)
ROOT
HETATM    1  C1  UNL     1     -35.164  16.995  -1.136  1.00 20.00     0.013 C 
HETATM    2  C2  UNL     1     -35.090  16.608  -2.271  1.00 20.00    -0.107 C 
HETATM    3  C3  UNL     1     -33.963  14.991  -3.751  1.00 20.00     0.048 C 
HETATM    4  C4  UNL     1     -34.541  17.295  -4.573  1.00 20.00     0.048 C 
HETATM    5  C5  UNL     1     -33.585  14.652  -5.189  1.00 20.00     0.169 C 
HETATM    6  C6  UNL     1     -34.130  16.822  -5.964  1.00 20.00     0.169 C 
HETATM    7  C7  UNL     1     -35.000  16.131  -3.670  1.00 20.00     0.023 C 
HETATM    8  C8  UNL     1     -36.393  15.630  -4.093  1.00 20.00     0.029 C 
HETATM    9  O9  UNL     1     -33.126  15.812  -5.880  1.00 20.00    -0.391 OA
ENDROOT
TORSDOF 0
ENDMDL
MODEL 9
REMARK VINA RESULT:      -3.7     12.151     13.217
REMARK  0 active torsions:
REMARK  status: ('A' for Active; 'I' for Inactive)
ROOT
HETATM    1  C1  UNL     1     -37.991  15.043  -4.477  1.00 20.00     0.013 C 
HETATM    2  C2  UNL     1     -36.831  15.306  -4.308  1.00 20.00    -0.107 C 
HETATM    3  C3  UNL     1     -34.951  16.648  -5.170  1.00 20.00     0.048 C 
HETATM    4  C4  UNL     1     -34.564  14.343  -4.244  1.00 20.00     0.048 C 
HETATM    5  C5  UNL     1     -33.435  16.803  -5.220  1.00 20.00     0.169 C 
HETATM    6  C6  UNL     1     -33.069  14.633  -4.348  1.00 20.00     0.169 C 
HETATM    7  C7  UNL     1     -35.402  15.631  -4.100  1.00 20.00     0.023 C 
HETATM    8  C8  UNL     1     -35.249  16.224  -2.687  1.00 20.00     0.029 C 
HETATM    9  O9  UNL     1     -32.802  15.540  -5.415  1.00 20.00    -0.391 OA
ENDROOT
TORSDOF 0
ENDMDL
