MODEL 1
REMARK VINA RESULT:      -5.8      0.000      0.000
REMARK  2 active torsions:
REMARK  status: ('A' for Active; 'I' for Inactive)
REMARK    1  A    between atoms: C8_8  and  O11_11 
REMARK    2  A    between atoms: C9_9  and  O11_11 
ROOT
HETATM    1  C1  UNL     1     -33.371   7.520   5.655  1.00 20.00     0.092 C 
HETATM    2  C2  UNL     1     -34.441   5.652   4.851  1.00 20.00     0.027 C 
HETATM    3  C3  UNL     1     -34.869   4.401   5.088  1.00 20.00     0.040 C 
HETATM    4  C4  UNL     1     -32.873   7.972   4.310  1.00 20.00     0.079 C 
HETATM    5  C5  UNL     1     -34.342   6.173   3.442  1.00 20.00     0.090 C 
HETATM    6  C8  UNL     1     -33.012   6.887   3.258  1.00 20.00     0.132 C 
HETATM    7  N10 UNL     1     -34.091   6.470   5.899  1.00 20.00    -0.270 NA
ENDROOT
BRANCH   6   8
HETATM    8  O11 UNL     1     -32.957   7.485   1.969  1.00 20.00    -0.380 OA
BRANCH   8   9
HETATM    9  C9  UNL     1     -32.166   8.664   1.979  1.00 20.00     0.122 A 
HETATM   10  C6  UNL     1     -31.517   9.037   0.677  1.00 20.00     0.034 A 
HETATM   11  C7  UNL     1     -32.695   9.820   1.179  1.00 20.00     0.034 A 
ENDBRANCH   8   9
ENDBRANCH   6   8
TORSDOF 2
ENDMDL
MODEL 2
REMARK VINA RESULT:      -5.2      0.865      1.933
REMARK  2 active torsions:
REMARK  status: ('A' for Active; 'I' for Inactive)
REMARK    1  A    between atoms: C8_8  and  O11_11 
REMARK    2  A    between atoms: C9_9  and  O11_11 
ROOT
HETATM    1  C1  UNL     1     -34.417   5.276   3.891  1.00 20.00     0.092 C 
HETATM    2  C2  UNL     1     -33.683   6.975   5.254  1.00 20.00     0.027 C 
HETATM    3  C3  UNL     1     -33.882   7.702   6.364  1.00 20.00     0.040 C 
HETATM    4  C4  UNL     1     -33.812   5.847   2.637  1.00 20.00     0.079 C 
HETATM    5  C5  UNL     1     -32.728   7.447   4.190  1.00 20.00     0.090 C 
HETATM    6  C8  UNL     1     -33.374   7.288   2.822  1.00 20.00     0.132 C 
HETATM    7  N10 UNL     1     -34.350   5.785   5.081  1.00 20.00    -0.270 NA
ENDROOT
BRANCH   6   8
HETATM    8  O11 UNL     1     -32.439   7.619   1.803  1.00 20.00    -0.380 OA
BRANCH   8   9
HETATM    9  C9  UNL     1     -32.134   9.006   1.813  1.00 20.00     0.122 A 
HETATM   10  C6  UNL     1     -31.864   9.635   0.476  1.00 20.00     0.034 A 
HETATM   11  C7  UNL     1     -33.157   9.912   1.188  1.00 20.00     0.034 A 
ENDBRANCH   8   9
ENDBRANCH   6   8
TORSDOF 2
ENDMDL
MODEL 3
REMARK VINA RESULT:      -4.5      1.899      4.641
REMARK  2 active torsions:
REMARK  status: ('A' for Active; 'I' for Inactive)
REMARK    1  A    between atoms: C8_8  and  O11_11 
REMARK    2  A    between atoms: C9_9  and  O11_11 
ROOT
HETATM    1  C1  UNL     1     -31.457   8.395   3.779  1.00 20.00     0.092 C 
HETATM    2  C2  UNL     1     -32.327   8.555   1.658  1.00 20.00     0.027 C 
HETATM    3  C3  UNL     1     -32.421   9.266   0.523  1.00 20.00     0.040 C 
HETATM    4  C4  UNL     1     -32.589   7.565   4.320  1.00 20.00     0.079 C 
HETATM    5  C5  UNL     1     -33.299   7.443   1.948  1.00 20.00     0.090 C 
HETATM    6  C8  UNL     1     -33.784   7.555   3.385  1.00 20.00     0.132 C 
HETATM    7  N10 UNL     1     -31.335   8.838   2.566  1.00 20.00    -0.270 NA
ENDROOT
BRANCH   6   8
HETATM    8  O11 UNL     1     -34.610   6.444   3.706  1.00 20.00    -0.380 OA
BRANCH   8   9
HETATM    9  C9  UNL     1     -33.939   5.530   4.560  1.00 20.00     0.122 A 
HETATM   10  C6  UNL     1     -34.782   4.859   5.607  1.00 20.00     0.034 A 
HETATM   11  C7  UNL     1     -34.319   4.084   4.408  1.00 20.00     0.034 A 
ENDBRANCH   8   9
ENDBRANCH   6   8
TORSDOF 2
ENDMDL
MODEL 4
REMARK VINA RESULT:      -4.2     11.274     12.072
REMARK  2 active torsions:
REMARK  status: ('A' for Active; 'I' for Inactive)
REMARK    1  A    between atoms: C8_8  and  O11_11 
REMARK    2  A    between atoms: C9_9  and  O11_11 
ROOT
HETATM    1  C1  UNL     1     -33.415  17.741  -4.623  1.00 20.00     0.092 C 
HETATM    2  C2  UNL     1     -34.336  16.903  -2.692  1.00 20.00     0.027 C 
HETATM    3  C3  UNL     1     -34.519  17.045  -1.369  1.00 20.00     0.040 C 
HETATM    4  C4  UNL     1     -33.271  16.400  -5.290  1.00 20.00     0.079 C 
HETATM    5  C5  UNL     1     -34.601  15.582  -3.364  1.00 20.00     0.090 C 
HETATM    6  C8  UNL     1     -33.456  15.256  -4.310  1.00 20.00     0.132 C 
HETATM    7  N10 UNL     1     -33.908  17.969  -3.446  1.00 20.00    -0.270 NA
ENDROOT
BRANCH   6   8
HETATM    8  O11 UNL     1     -33.751  14.070  -5.037  1.00 20.00    -0.380 OA
BRANCH   8   9
HETATM    9  C9  UNL     1     -34.693  14.318  -6.071  1.00 20.00     0.122 A 
HETATM   10  C6  UNL     1     -34.771  13.284  -7.158  1.00 20.00     0.034 A 
HETATM   11  C7  UNL     1     -35.865  13.381  -6.134  1.00 20.00     0.034 A 
ENDBRANCH   8   9
ENDBRANCH   6   8
TORSDOF 2
ENDMDL
MODEL 5
REMARK VINA RESULT:      -4.2     11.177     11.860
REMARK  2 active torsions:
REMARK  status: ('A' for Active; 'I' for Inactive)
REMARK    1  A    between atoms: C8_8  and  O11_11 
REMARK    2  A    between atoms: C9_9  and  O11_11 
ROOT
HETATM    1  C1  UNL     1     -35.574  13.664  -4.943  1.00 20.00     0.092 C 
HETATM    2  C2  UNL     1     -37.635  14.678  -4.873  1.00 20.00     0.027 C 
HETATM    3  C3  UNL     1     -38.879  14.750  -5.372  1.00 20.00     0.040 C 
HETATM    4  C4  UNL     1     -34.821  14.869  -4.445  1.00 20.00     0.079 C 
HETATM    5  C5  UNL     1     -37.083  15.795  -4.028  1.00 20.00     0.090 C 
HETATM    6  C8  UNL     1     -35.670  16.126  -4.484  1.00 20.00     0.132 C 
HETATM    7  N10 UNL     1     -36.853  13.576  -5.129  1.00 20.00    -0.270 NA
ENDROOT
BRANCH   6   8
HETATM    8  O11 UNL     1     -35.096  17.097  -3.619  1.00 20.00    -0.380 OA
BRANCH   8   9
HETATM    9  C9  UNL     1     -34.580  16.498  -2.440  1.00 20.00     0.122 A 
HETATM   10  C6  UNL     1     -33.748  17.384  -1.556  1.00 20.00     0.034 A 
HETATM   11  C7  UNL     1     -35.141  17.004  -1.142  1.00 20.00     0.034 A 
ENDBRANCH   8   9
ENDBRANCH   6   8
TORSDOF 2
ENDMDL
MODEL 6
REMARK VINA RESULT:      -4.2     11.081     11.604
REMARK  2 active torsions:
REMARK  status: ('A' for Active; 'I' for Inactive)
REMARK    1  A    between atoms: C8_8  and  O11_11 
REMARK    2  A    between atoms: C9_9  and  O11_11 
ROOT
HETATM    1  C1  UNL     1     -33.434  14.381  -4.546  1.00 20.00     0.092 C 
HETATM    2  C2  UNL     1     -35.718  14.325  -4.788  1.00 20.00     0.027 C 
HETATM    3  C3  UNL     1     -36.772  13.884  -5.493  1.00 20.00     0.040 C 
HETATM    4  C4  UNL     1     -33.409  15.723  -3.866  1.00 20.00     0.079 C 
HETATM    5  C5  UNL     1     -35.874  15.456  -3.806  1.00 20.00     0.090 C 
HETATM    6  C8  UNL     1     -34.736  16.448  -3.992  1.00 20.00     0.132 C 
HETATM    7  N10 UNL     1     -34.485  13.743  -4.957  1.00 20.00    -0.270 NA
ENDROOT
BRANCH   6   8
HETATM    8  O11 UNL     1     -34.806  17.458  -2.993  1.00 20.00    -0.380 OA
BRANCH   8   9
HETATM    9  C9  UNL     1     -34.406  16.959  -1.725  1.00 20.00     0.122 A 
HETATM   10  C6  UNL     1     -34.037  17.988  -0.695  1.00 20.00     0.034 A 
HETATM   11  C7  UNL     1     -35.336  17.245  -0.581  1.00 20.00     0.034 A 
ENDBRANCH   8   9
ENDBRANCH   6   8
TORSDOF 2
ENDMDL
MODEL 7
REMARK VINA RESULT:      -4.0     11.129     12.286
REMARK  2 active torsions:
REMARK  status: ('A' for Active; 'I' for Inactive)
REMARK    1  A    between atoms: C8_8  and  O11_11 
REMARK    2  A    between atoms: C9_9  and  O11_11 
ROOT
HETATM    1  C1  UNL     1     -34.952  13.809  -4.693  1.00 20.00     0.092 C 
HETATM    2  C2  UNL     1     -34.253  14.781  -6.654  1.00 20.00     0.027 C 
HETATM    3  C3  UNL     1     -33.824  14.608  -7.914  1.00 20.00     0.040 C 
HETATM    4  C4  UNL     1     -34.477  14.934  -3.815  1.00 20.00     0.079 C 
HETATM    5  C5  UNL     1     -34.082  16.108  -5.963  1.00 20.00     0.090 C 
HETATM    6  C8  UNL     1     -33.552  15.882  -4.556  1.00 20.00     0.132 C 
HETATM    7  N10 UNL     1     -34.857  13.744  -5.984  1.00 20.00    -0.270 NA
ENDROOT
BRANCH   6   8
HETATM    8  O11 UNL     1     -33.498  17.117  -3.854  1.00 20.00    -0.380 OA
BRANCH   8   9
HETATM    9  C9  UNL     1     -33.578  16.917  -2.450  1.00 20.00     0.122 A 
HETATM   10  C6  UNL     1     -32.909  17.955  -1.594  1.00 20.00     0.034 A 
HETATM   11  C7  UNL     1     -34.407  17.912  -1.688  1.00 20.00     0.034 A 
ENDBRANCH   8   9
ENDBRANCH   6   8
TORSDOF 2
ENDMDL
MODEL 8
REMARK VINA RESULT:      -4.0     11.421     12.332
REMARK  2 active torsions:
REMARK  status: ('A' for Active; 'I' for Inactive)
REMARK    1  A    between atoms: C8_8  and  O11_11 
REMARK    2  A    between atoms: C9_9  and  O11_11 
ROOT
HETATM    1  C1  UNL     1     -33.318  18.594  -4.085  1.00 20.00     0.092 C 
HETATM    2  C2  UNL     1     -33.006  18.218  -1.839  1.00 20.00     0.027 C 
HETATM    3  C3  UNL     1     -32.286  18.478  -0.736  1.00 20.00     0.040 C 
HETATM    4  C4  UNL     1     -33.947  17.253  -4.353  1.00 20.00     0.079 C 
HETATM    5  C5  UNL     1     -33.939  17.037  -1.883  1.00 20.00     0.090 C 
HETATM    6  C8  UNL     1     -33.751  16.292  -3.196  1.00 20.00     0.132 C 
HETATM    7  N10 UNL     1     -32.899  19.034  -2.940  1.00 20.00    -0.270 NA
ENDROOT
BRANCH   6   8
HETATM    8  O11 UNL     1     -34.708  15.245  -3.300  1.00 20.00    -0.380 OA
BRANCH   8   9
HETATM    9  C9  UNL     1     -35.243  15.162  -4.613  1.00 20.00     0.122 A 
HETATM   10  C6  UNL     1     -35.666  13.795  -5.071  1.00 20.00     0.034 A 
HETATM   11  C7  UNL     1     -36.702  14.821  -4.710  1.00 20.00     0.034 A 
ENDBRANCH   8   9
ENDBRANCH   6   8
TORSDOF 2
ENDMDL
MODEL 9
REMARK VINA RESULT:      -4.0     11.231     12.122
REMARK  2 active torsions:
REMARK  status: ('A' for Active; 'I' for Inactive)
REMARK    1  A    between atoms: C8_8  and  O11_11 
REMARK    2  A    between atoms: C9_9  and  O11_11 
ROOT
HETATM    1  C1  UNL     1     -33.355  16.006  -6.262  1.00 20.00     0.092 C 
HETATM    2  C2  UNL     1     -34.726  14.185  -5.968  1.00 20.00     0.027 C 
HETATM    3  C3  UNL     1     -35.599  13.324  -6.515  1.00 20.00     0.040 C 
HETATM    4  C4  UNL     1     -33.451  16.471  -4.834  1.00 20.00     0.079 C 
HETATM    5  C5  UNL     1     -34.607  14.307  -4.472  1.00 20.00     0.090 C 
HETATM    6  C8  UNL     1     -34.574  15.778  -4.084  1.00 20.00     0.132 C 
HETATM    7  N10 UNL     1     -33.928  14.962  -6.774  1.00 20.00    -0.270 NA
ENDROOT
BRANCH   6   8
HETATM    8  O11 UNL     1     -34.343  15.906  -2.688  1.00 20.00    -0.380 OA
BRANCH   8   9
HETATM    9  C9  UNL     1     -34.358  17.267  -2.284  1.00 20.00     0.122 A 
HETATM   10  C6  UNL     1     -34.576  17.522  -0.819  1.00 20.00     0.034 A 
HETATM   11  C7  UNL     1     -33.213  17.712  -1.420  1.00 20.00     0.034 A 
ENDBRANCH   8   9
ENDBRANCH   6   8
TORSDOF 2
ENDMDL
