MODEL 1
REMARK VINA RESULT:      -4.3      0.000      0.000
REMARK  0 active torsions:
REMARK  status: ('A' for Active; 'I' for Inactive)
ROOT
HETATM    1  C1  UNL     1     -33.058   5.595   2.923  1.00 20.00     0.029 C 
HETATM    2  C2  UNL     1     -34.558   7.114   3.317  1.00 20.00     0.029 C 
HETATM    3  C3  UNL     1     -32.464   7.964   2.031  1.00 20.00     0.179 A 
HETATM    4  C4  UNL     1     -32.158   7.736   4.072  1.00 20.00     0.179 A 
HETATM    5  C5  UNL     1     -34.465   5.584   3.589  1.00 20.00     0.059 C 
HETATM    6  C6  UNL     1     -33.072   7.091   3.077  1.00 20.00     0.005 A 
HETATM    7  O7  UNL     1     -31.590   8.575   3.024  1.00 20.00    -0.389 OA
HETATM    8 BR8  UNL     1     -34.485   5.077   5.467  1.00 20.00    -0.091 Br
ENDROOT
TORSDOF 0
ENDMDL
MODEL 2
REMARK VINA RESULT:      -3.8      2.748      3.493
REMARK  0 active torsions:
REMARK  status: ('A' for Active; 'I' for Inactive)
ROOT
HETATM    1  C1  UNL     1     -34.301   7.458   3.205  1.00 20.00     0.029 C 
HETATM    2  C2  UNL     1     -32.926   5.781   3.103  1.00 20.00     0.029 C 
HETATM    3  C3  UNL     1     -35.134   5.298   4.390  1.00 20.00     0.179 A 
HETATM    4  C4  UNL     1     -33.741   6.374   5.492  1.00 20.00     0.179 A 
HETATM    5  C5  UNL     1     -32.918   7.227   2.528  1.00 20.00     0.059 C 
HETATM    6  C6  UNL     1     -34.025   6.230   4.028  1.00 20.00     0.005 A 
HETATM    7  O7  UNL     1     -34.830   5.457   5.805  1.00 20.00    -0.389 OA
HETATM    8 BR8  UNL     1     -31.481   8.366   3.177  1.00 20.00    -0.091 Br
ENDROOT
TORSDOF 0
ENDMDL
MODEL 3
REMARK VINA RESULT:      -3.7     11.255     12.059
REMARK  0 active torsions:
REMARK  status: ('A' for Active; 'I' for Inactive)
ROOT
HETATM    1  C1  UNL     1     -34.614  16.054  -5.516  1.00 20.00     0.029 C 
HETATM    2  C2  UNL     1     -33.089  14.775  -4.647  1.00 20.00     0.029 C 
HETATM    3  C3  UNL     1     -34.468  13.675  -6.559  1.00 20.00     0.179 A 
HETATM    4  C4  UNL     1     -35.460  13.731  -4.736  1.00 20.00     0.179 A 
HETATM    5  C5  UNL     1     -33.527  16.251  -4.419  1.00 20.00     0.059 C 
HETATM    6  C6  UNL     1     -34.395  14.572  -5.368  1.00 20.00     0.005 A 
HETATM    7  O7  UNL     1     -35.501  12.875  -5.915  1.00 20.00    -0.389 OA
HETATM    8 BR8  UNL     1     -34.211  16.644  -2.641  1.00 20.00    -0.091 Br
ENDROOT
TORSDOF 0
ENDMDL
MODEL 4
REMARK VINA RESULT:      -3.7      2.847      3.591
REMARK  0 active torsions:
REMARK  status: ('A' for Active; 'I' for Inactive)
ROOT
HETATM    1  C1  UNL     1     -32.661   5.986   2.849  1.00 20.00     0.029 C 
HETATM    2  C2  UNL     1     -33.133   7.491   4.342  1.00 20.00     0.029 C 
HETATM    3  C3  UNL     1     -34.357   5.219   4.666  1.00 20.00     0.179 A 
HETATM    4  C4  UNL     1     -35.194   6.419   3.192  1.00 20.00     0.179 A 
HETATM    5  C5  UNL     1     -32.170   7.439   3.120  1.00 20.00     0.059 C 
HETATM    6  C6  UNL     1     -33.818   6.281   3.766  1.00 20.00     0.005 A 
HETATM    7  O7  UNL     1     -35.685   5.380   4.089  1.00 20.00    -0.389 OA
HETATM    8 BR8  UNL     1     -32.559   8.718   1.708  1.00 20.00    -0.091 Br
ENDROOT
TORSDOF 0
ENDMDL
MODEL 5
REMARK VINA RESULT:      -3.5      2.015      2.637
REMARK  0 active torsions:
REMARK  status: ('A' for Active; 'I' for Inactive)
ROOT
HETATM    1  C1  UNL     1     -31.422   8.337   3.165  1.00 20.00     0.029 C 
HETATM    2  C2  UNL     1     -32.876   7.199   2.023  1.00 20.00     0.029 C 
HETATM    3  C3  UNL     1     -31.605   9.014   0.661  1.00 20.00     0.179 A 
HETATM    4  C4  UNL     1     -33.131   9.773   1.848  1.00 20.00     0.179 A 
HETATM    5  C5  UNL     1     -32.370   7.146   3.494  1.00 20.00     0.059 C 
HETATM    6  C6  UNL     1     -32.250   8.564   1.930  1.00 20.00     0.005 A 
HETATM    7  O7  UNL     1     -32.479  10.178   0.608  1.00 20.00    -0.389 OA
HETATM    8 BR8  UNL     1     -33.719   7.514   4.846  1.00 20.00    -0.091 Br
ENDROOT
TORSDOF 0
ENDMDL
MODEL 6
REMARK VINA RESULT:      -3.4     11.083     11.988
REMARK  0 active torsions:
REMARK  status: ('A' for Active; 'I' for Inactive)
ROOT
HETATM    1  C1  UNL     1     -34.494  15.462  -5.653  1.00 20.00     0.029 C 
HETATM    2  C2  UNL     1     -34.279  14.076  -3.996  1.00 20.00     0.029 C 
HETATM    3  C3  UNL     1     -36.033  13.370  -5.782  1.00 20.00     0.179 A 
HETATM    4  C4  UNL     1     -36.713  14.831  -4.472  1.00 20.00     0.179 A 
HETATM    5  C5  UNL     1     -33.574  15.404  -4.399  1.00 20.00     0.059 C 
HETATM    6  C6  UNL     1     -35.361  14.434  -4.980  1.00 20.00     0.005 A 
HETATM    7  O7  UNL     1     -37.334  13.778  -5.268  1.00 20.00    -0.389 OA
HETATM    8 BR8  UNL     1     -33.798  16.872  -3.142  1.00 20.00    -0.091 Br
ENDROOT
TORSDOF 0
ENDMDL
MODEL 7
REMARK VINA RESULT:      -3.4     11.078     12.151
REMARK  0 active torsions:
REMARK  status: ('A' for Active; 'I' for Inactive)
ROOT
HETATM    1  C1  UNL     1     -36.394  15.751  -3.726  1.00 20.00     0.029 C 
HETATM    2  C2  UNL     1     -35.139  16.052  -5.472  1.00 20.00     0.029 C 
HETATM    3  C3  UNL     1     -36.721  13.993  -5.615  1.00 20.00     0.179 A 
HETATM    4  C4  UNL     1     -35.030  13.671  -4.454  1.00 20.00     0.179 A 
HETATM    5  C5  UNL     1     -35.352  16.831  -4.141  1.00 20.00     0.059 C 
HETATM    6  C6  UNL     1     -35.828  14.885  -4.818  1.00 20.00     0.005 A 
HETATM    7  O7  UNL     1     -35.922  12.832  -5.245  1.00 20.00    -0.389 OA
HETATM    8 BR8  UNL     1     -33.785  16.950  -2.994  1.00 20.00    -0.091 Br
ENDROOT
TORSDOF 0
ENDMDL
MODEL 8
REMARK VINA RESULT:      -3.4      3.129      4.127
REMARK  0 active torsions:
REMARK  status: ('A' for Active; 'I' for Inactive)
ROOT
HETATM    1  C1  UNL     1     -31.247   8.495   1.014  1.00 20.00     0.029 C 
HETATM    2  C2  UNL     1     -32.487  10.005   1.961  1.00 20.00     0.029 C 
HETATM    3  C3  UNL     1     -31.510   8.227   3.588  1.00 20.00     0.179 A 
HETATM    4  C4  UNL     1     -33.151   7.559   2.505  1.00 20.00     0.179 A 
HETATM    5  C5  UNL     1     -31.995   9.762   0.504  1.00 20.00     0.059 C 
HETATM    6  C6  UNL     1     -32.088   8.585   2.259  1.00 20.00     0.005 A 
HETATM    7  O7  UNL     1     -32.560   7.239   3.798  1.00 20.00    -0.389 OA
HETATM    8 BR8  UNL     1     -33.401   9.423  -0.797  1.00 20.00    -0.091 Br
ENDROOT
TORSDOF 0
ENDMDL
MODEL 9
REMARK VINA RESULT:      -3.2     11.762     12.351
REMARK  0 active torsions:
REMARK  status: ('A' for Active; 'I' for Inactive)
ROOT
HETATM    1  C1  UNL     1     -33.054  14.982  -4.381  1.00 20.00     0.029 C 
HETATM    2  C2  UNL     1     -33.571  16.960  -5.111  1.00 20.00     0.029 C 
HETATM    3  C3  UNL     1     -33.729  16.680  -2.530  1.00 20.00     0.179 A 
HETATM    4  C4  UNL     1     -35.343  15.877  -3.560  1.00 20.00     0.179 A 
HETATM    5  C5  UNL     1     -33.067  15.651  -5.787  1.00 20.00     0.059 C 
HETATM    6  C6  UNL     1     -33.907  16.126  -3.904  1.00 20.00     0.005 A 
HETATM    7  O7  UNL     1     -35.131  16.429  -2.227  1.00 20.00    -0.389 OA
HETATM    8 BR8  UNL     1     -34.298  14.857  -7.067  1.00 20.00    -0.091 Br
ENDROOT
TORSDOF 0
ENDMDL
