MODEL 1
REMARK VINA RESULT:      -4.9      0.000      0.000
REMARK  0 active torsions:
REMARK  status: ('A' for Active; 'I' for Inactive)
ROOT
HETATM    1  C1  UNL     1     -33.267   6.397   2.366  1.00 20.00     0.006 A 
HETATM    2  C2  UNL     1     -33.817   6.133   3.547  1.00 20.00    -0.008 A 
HETATM    3  C3  UNL     1     -33.234   7.160   4.411  1.00 20.00     0.038 A 
HETATM    4  C4  UNL     1     -32.375   7.588   2.446  1.00 20.00     0.177 A 
HETATM    5  C5  UNL     1     -34.753   5.107   4.055  1.00 20.00     0.310 C 
HETATM    6  C6  UNL     1     -33.552   7.142   5.880  1.00 20.00     0.089 C 
HETATM    7  C7  UNL     1     -34.759   6.250   6.189  1.00 20.00     0.276 C 
HETATM    8  N8  UNL     1     -32.418   8.016   3.866  1.00 20.00    -0.290 NA
HETATM    9  N9  UNL     1     -34.674   4.947   5.515  1.00 20.00     0.087 N 
HETATM   10  H19 UNL     1     -35.446   4.357   5.824  1.00 20.00     0.316 HD
ENDROOT
TORSDOF 0
ENDMDL
MODEL 2
REMARK VINA RESULT:      -4.8      0.896      3.743
REMARK  0 active torsions:
REMARK  status: ('A' for Active; 'I' for Inactive)
ROOT
HETATM    1  C1  UNL     1     -33.924   6.806   5.950  1.00 20.00     0.006 A 
HETATM    2  C2  UNL     1     -33.303   7.274   4.871  1.00 20.00    -0.008 A 
HETATM    3  C3  UNL     1     -33.785   6.386   3.812  1.00 20.00     0.038 A 
HETATM    4  C4  UNL     1     -34.817   5.665   5.600  1.00 20.00     0.177 A 
HETATM    5  C5  UNL     1     -32.330   8.357   4.616  1.00 20.00     0.310 C 
HETATM    6  C6  UNL     1     -33.233   6.543   2.422  1.00 20.00     0.089 C 
HETATM    7  C7  UNL     1     -32.505   7.880   2.249  1.00 20.00     0.276 C 
HETATM    8  N8  UNL     1     -34.640   5.461   4.141  1.00 20.00    -0.290 NA
HETATM    9  N9  UNL     1     -31.587   8.163   3.362  1.00 20.00     0.087 N 
HETATM   10  H19 UNL     1     -31.060   9.010   3.156  1.00 20.00     0.316 HD
ENDROOT
TORSDOF 0
ENDMDL
MODEL 3
REMARK VINA RESULT:      -4.7      1.019      2.148
REMARK  0 active torsions:
REMARK  status: ('A' for Active; 'I' for Inactive)
ROOT
HETATM    1  C1  UNL     1     -32.837   8.003   4.707  1.00 20.00     0.006 A 
HETATM    2  C2  UNL     1     -33.454   6.826   4.748  1.00 20.00    -0.008 A 
HETATM    3  C3  UNL     1     -33.128   6.246   3.444  1.00 20.00     0.038 A 
HETATM    4  C4  UNL     1     -32.095   8.174   3.425  1.00 20.00     0.177 A 
HETATM    5  C5  UNL     1     -34.311   6.133   5.732  1.00 20.00     0.310 C 
HETATM    6  C6  UNL     1     -33.728   4.921   3.066  1.00 20.00     0.089 C 
HETATM    7  C7  UNL     1     -34.309   4.193   4.283  1.00 20.00     0.276 C 
HETATM    8  N8  UNL     1     -32.367   6.940   2.648  1.00 20.00    -0.290 NA
HETATM    9  N9  UNL     1     -35.133   5.078   5.119  1.00 20.00     0.087 N 
HETATM   10  H19 UNL     1     -35.572   4.530   5.858  1.00 20.00     0.316 HD
ENDROOT
TORSDOF 0
ENDMDL
MODEL 4
REMARK VINA RESULT:      -4.6      1.066      3.152
REMARK  0 active torsions:
REMARK  status: ('A' for Active; 'I' for Inactive)
ROOT
HETATM    1  C1  UNL     1     -34.626   5.118   4.206  1.00 20.00     0.006 A 
HETATM    2  C2  UNL     1     -33.793   6.031   3.714  1.00 20.00    -0.008 A 
HETATM    3  C3  UNL     1     -33.515   6.874   4.878  1.00 20.00     0.038 A 
HETATM    4  C4  UNL     1     -34.857   5.336   5.662  1.00 20.00     0.177 A 
HETATM    5  C5  UNL     1     -33.221   6.307   2.380  1.00 20.00     0.310 C 
HETATM    6  C6  UNL     1     -32.658   8.097   4.703  1.00 20.00     0.089 C 
HETATM    7  C7  UNL     1     -31.891   8.067   3.377  1.00 20.00     0.276 C 
HETATM    8  N8  UNL     1     -34.072   6.546   6.008  1.00 20.00    -0.290 NA
HETATM    9  N9  UNL     1     -32.750   7.694   2.245  1.00 20.00     0.087 N 
HETATM   10  H19 UNL     1     -32.221   7.781   1.378  1.00 20.00     0.316 HD
ENDROOT
TORSDOF 0
ENDMDL
MODEL 5
REMARK VINA RESULT:      -4.1     11.865     13.132
REMARK  0 active torsions:
REMARK  status: ('A' for Active; 'I' for Inactive)
ROOT
HETATM    1  C1  UNL     1     -34.411  14.007  -7.549  1.00 20.00     0.006 A 
HETATM    2  C2  UNL     1     -34.083  14.728  -6.481  1.00 20.00    -0.008 A 
HETATM    3  C3  UNL     1     -34.787  14.039  -5.399  1.00 20.00     0.038 A 
HETATM    4  C4  UNL     1     -35.277  12.854  -7.171  1.00 20.00     0.177 A 
HETATM    5  C5  UNL     1     -33.275  15.944  -6.254  1.00 20.00     0.310 C 
HETATM    6  C6  UNL     1     -34.733  14.616  -4.012  1.00 20.00     0.089 C 
HETATM    7  C7  UNL     1     -33.619  15.659  -3.874  1.00 20.00     0.276 C 
HETATM    8  N8  UNL     1     -35.475  12.977  -5.706  1.00 20.00    -0.290 NA
HETATM    9  N9  UNL     1     -33.612  16.616  -4.990  1.00 20.00     0.087 N 
HETATM   10  H19 UNL     1     -32.920  17.341  -4.806  1.00 20.00     0.316 HD
ENDROOT
TORSDOF 0
ENDMDL
MODEL 6
REMARK VINA RESULT:      -3.9     12.103     12.633
REMARK  0 active torsions:
REMARK  status: ('A' for Active; 'I' for Inactive)
ROOT
HETATM    1  C1  UNL     1     -33.689  18.542   0.582  1.00 20.00     0.006 A 
HETATM    2  C2  UNL     1     -34.302  17.840  -0.366  1.00 20.00    -0.008 A 
HETATM    3  C3  UNL     1     -33.284  17.759  -1.415  1.00 20.00     0.038 A 
HETATM    4  C4  UNL     1     -32.294  18.881   0.180  1.00 20.00     0.177 A 
HETATM    5  C5  UNL     1     -35.648  17.249  -0.519  1.00 20.00     0.310 C 
HETATM    6  C6  UNL     1     -33.634  17.098  -2.719  1.00 20.00     0.089 C 
HETATM    7  C7  UNL     1     -34.916  16.267  -2.608  1.00 20.00     0.276 C 
HETATM    8  N8  UNL     1     -32.130  18.315  -1.182  1.00 20.00    -0.290 NA
HETATM    9  N9  UNL     1     -35.995  16.997  -1.926  1.00 20.00     0.087 N 
HETATM   10  H19 UNL     1     -36.850  16.443  -1.961  1.00 20.00     0.316 HD
ENDROOT
TORSDOF 0
ENDMDL
MODEL 7
REMARK VINA RESULT:      -3.9     12.239     12.548
REMARK  0 active torsions:
REMARK  status: ('A' for Active; 'I' for Inactive)
ROOT
HETATM    1  C1  UNL     1     -33.689  16.642  -2.720  1.00 20.00     0.006 A 
HETATM    2  C2  UNL     1     -33.848  15.781  -3.722  1.00 20.00    -0.008 A 
HETATM    3  C3  UNL     1     -35.297  15.581  -3.748  1.00 20.00     0.038 A 
HETATM    4  C4  UNL     1     -35.004  17.022  -2.130  1.00 20.00     0.177 A 
HETATM    5  C5  UNL     1     -32.933  15.080  -4.646  1.00 20.00     0.310 C 
HETATM    6  C6  UNL     1     -35.877  14.585  -4.713  1.00 20.00     0.089 C 
HETATM    7  C7  UNL     1     -34.870  14.194  -5.799  1.00 20.00     0.276 C 
HETATM    8  N8  UNL     1     -36.015  16.246  -2.888  1.00 20.00    -0.290 NA
HETATM    9  N9  UNL     1     -33.545  13.882  -5.242  1.00 20.00     0.087 N 
HETATM   10  H19 UNL     1     -32.940  13.538  -5.987  1.00 20.00     0.316 HD
ENDROOT
TORSDOF 0
ENDMDL
MODEL 8
REMARK VINA RESULT:      -3.8     11.872     12.261
REMARK  0 active torsions:
REMARK  status: ('A' for Active; 'I' for Inactive)
ROOT
HETATM    1  C1  UNL     1     -34.917  16.858  -1.644  1.00 20.00     0.006 A 
HETATM    2  C2  UNL     1     -34.908  17.457  -0.456  1.00 20.00    -0.008 A 
HETATM    3  C3  UNL     1     -33.581  18.072  -0.415  1.00 20.00     0.038 A 
HETATM    4  C4  UNL     1     -33.642  17.105  -2.375  1.00 20.00     0.177 A 
HETATM    5  C5  UNL     1     -35.864  17.557   0.666  1.00 20.00     0.310 C 
HETATM    6  C6  UNL     1     -33.148  18.787   0.834  1.00 20.00     0.089 C 
HETATM    7  C7  UNL     1     -34.334  19.084   1.758  1.00 20.00     0.276 C 
HETATM    8  N8  UNL     1     -32.813  17.922  -1.456  1.00 20.00    -0.290 NA
HETATM    9  N9  UNL     1     -35.209  17.915   1.933  1.00 20.00     0.087 N 
HETATM   10  H19 UNL     1     -35.925  18.132   2.626  1.00 20.00     0.316 HD
ENDROOT
TORSDOF 0
ENDMDL
MODEL 9
REMARK VINA RESULT:      -3.7     12.671     13.138
REMARK  0 active torsions:
REMARK  status: ('A' for Active; 'I' for Inactive)
ROOT
HETATM    1  C1  UNL     1     -36.581  15.572  -4.069  1.00 20.00     0.006 A 
HETATM    2  C2  UNL     1     -35.673  15.017  -4.867  1.00 20.00    -0.008 A 
HETATM    3  C3  UNL     1     -36.474  14.096  -5.675  1.00 20.00     0.038 A 
HETATM    4  C4  UNL     1     -37.945  15.053  -4.371  1.00 20.00     0.177 A 
HETATM    5  C5  UNL     1     -34.208  15.141  -5.022  1.00 20.00     0.310 C 
HETATM    6  C6  UNL     1     -35.778  13.201  -6.662  1.00 20.00     0.089 C 
HETATM    7  C7  UNL     1     -34.344  13.664  -6.936  1.00 20.00     0.276 C 
HETATM    8  N8  UNL     1     -37.757  14.062  -5.458  1.00 20.00    -0.290 NA
HETATM    9  N9  UNL     1     -33.614  13.978  -5.699  1.00 20.00     0.087 N 
HETATM   10  H19 UNL     1     -32.643  14.188  -5.926  1.00 20.00     0.316 HD
ENDROOT
TORSDOF 0
ENDMDL
