MODEL 1
REMARK VINA RESULT:      -4.1      0.000      0.000
REMARK  0 active torsions:
REMARK  status: ('A' for Active; 'I' for Inactive)
ROOT
HETATM    1  C1  UNL     1     -34.791   6.173   3.489  1.00 20.00     0.050 C 
HETATM    2  C2  UNL     1     -33.708   5.159   3.177  1.00 20.00     0.171 C 
HETATM    3  C3  UNL     1     -34.014   7.306   4.120  1.00 20.00     0.128 C 
HETATM    4  C4  UNL     1     -32.698   7.259   3.361  1.00 20.00     0.235 C 
HETATM    5  O5  UNL     1     -32.492   5.892   2.971  1.00 20.00    -0.369 OA
HETATM    6 CL6  UNL     1     -33.725   6.960   5.855  1.00 20.00    -0.121 Cl
HETATM    7 CL7  UNL     1     -32.781   8.245   1.873  1.00 20.00    -0.094 Cl
ENDROOT
TORSDOF 0
ENDMDL
MODEL 2
REMARK VINA RESULT:      -3.7      1.104      2.759
REMARK  0 active torsions:
REMARK  status: ('A' for Active; 'I' for Inactive)
ROOT
HETATM    1  C1  UNL     1     -32.631   5.862   2.962  1.00 20.00     0.050 C 
HETATM    2  C2  UNL     1     -34.108   5.593   2.752  1.00 20.00     0.171 C 
HETATM    3  C3  UNL     1     -32.612   7.320   3.363  1.00 20.00     0.128 C 
HETATM    4  C4  UNL     1     -33.907   7.456   4.149  1.00 20.00     0.235 C 
HETATM    5  O5  UNL     1     -34.826   6.496   3.606  1.00 20.00    -0.369 OA
HETATM    6 CL6  UNL     1     -32.677   8.359   1.904  1.00 20.00    -0.121 Cl
HETATM    7 CL7  UNL     1     -33.655   7.057   5.873  1.00 20.00    -0.094 Cl
ENDROOT
TORSDOF 0
ENDMDL
MODEL 3
REMARK VINA RESULT:      -3.5      2.063      2.573
REMARK  0 active torsions:
REMARK  status: ('A' for Active; 'I' for Inactive)
ROOT
HETATM    1  C1  UNL     1     -35.219   6.107   3.571  1.00 20.00     0.050 C 
HETATM    2  C2  UNL     1     -33.962   6.605   2.886  1.00 20.00     0.171 C 
HETATM    3  C3  UNL     1     -34.677   5.437   4.814  1.00 20.00     0.128 C 
HETATM    4  C4  UNL     1     -33.476   6.306   5.153  1.00 20.00     0.235 C 
HETATM    5  O5  UNL     1     -32.988   6.842   3.913  1.00 20.00    -0.369 OA
HETATM    6 CL6  UNL     1     -34.131   3.774   4.427  1.00 20.00    -0.121 Cl
HETATM    7 CL7  UNL     1     -33.952   7.679   6.193  1.00 20.00    -0.094 Cl
ENDROOT
TORSDOF 0
ENDMDL
MODEL 4
REMARK VINA RESULT:      -3.2      1.854      2.897
REMARK  0 active torsions:
REMARK  status: ('A' for Active; 'I' for Inactive)
ROOT
HETATM    1  C1  UNL     1     -33.211   4.801   3.601  1.00 20.00     0.050 C 
HETATM    2  C2  UNL     1     -34.398   4.279   4.386  1.00 20.00     0.171 C 
HETATM    3  C3  UNL     1     -33.634   6.211   3.256  1.00 20.00     0.128 C 
HETATM    4  C4  UNL     1     -34.444   6.614   4.478  1.00 20.00     0.235 C 
HETATM    5  O5  UNL     1     -35.021   5.411   5.010  1.00 20.00    -0.369 OA
HETATM    6 CL6  UNL     1     -34.691   6.198   1.808  1.00 20.00    -0.121 Cl
HETATM    7 CL7  UNL     1     -33.392   7.319   5.739  1.00 20.00    -0.094 Cl
ENDROOT
TORSDOF 0
ENDMDL
MODEL 5
REMARK VINA RESULT:      -3.2      9.643     10.207
REMARK  0 active torsions:
REMARK  status: ('A' for Active; 'I' for Inactive)
ROOT
HETATM    1  C1  UNL     1     -41.300   6.501   0.241  1.00 20.00     0.050 C 
HETATM    2  C2  UNL     1     -41.896   7.569  -0.656  1.00 20.00     0.171 C 
HETATM    3  C3  UNL     1     -42.501   5.648   0.585  1.00 20.00     0.128 C 
HETATM    4  C4  UNL     1     -43.325   5.719  -0.690  1.00 20.00     0.235 C 
HETATM    5  O5  UNL     1     -43.038   6.987  -1.301  1.00 20.00    -0.369 OA
HETATM    6 CL6  UNL     1     -43.413   6.391   1.938  1.00 20.00    -0.121 Cl
HETATM    7 CL7  UNL     1     -42.840   4.438  -1.838  1.00 20.00    -0.094 Cl
ENDROOT
TORSDOF 0
ENDMDL
MODEL 6
REMARK VINA RESULT:      -3.2      2.204      2.451
REMARK  0 active torsions:
REMARK  status: ('A' for Active; 'I' for Inactive)
ROOT
HETATM    1  C1  UNL     1     -34.248   5.091   4.715  1.00 20.00     0.050 C 
HETATM    2  C2  UNL     1     -34.275   6.101   5.845  1.00 20.00     0.171 C 
HETATM    3  C3  UNL     1     -34.543   5.943   3.501  1.00 20.00     0.128 C 
HETATM    4  C4  UNL     1     -33.866   7.257   3.855  1.00 20.00     0.235 C 
HETATM    5  O5  UNL     1     -33.896   7.367   5.286  1.00 20.00    -0.369 OA
HETATM    6 CL6  UNL     1     -36.310   6.196   3.343  1.00 20.00    -0.121 Cl
HETATM    7 CL7  UNL     1     -32.153   7.254   3.343  1.00 20.00    -0.094 Cl
ENDROOT
TORSDOF 0
ENDMDL
MODEL 7
REMARK VINA RESULT:      -3.2     11.703     12.540
REMARK  0 active torsions:
REMARK  status: ('A' for Active; 'I' for Inactive)
ROOT
HETATM    1  C1  UNL     1     -34.760  14.582  -7.217  1.00 20.00     0.050 C 
HETATM    2  C2  UNL     1     -35.006  13.086  -7.214  1.00 20.00     0.171 C 
HETATM    3  C3  UNL     1     -35.710  15.077  -6.149  1.00 20.00     0.128 C 
HETATM    4  C4  UNL     1     -35.696  13.934  -5.147  1.00 20.00     0.235 C 
HETATM    5  O5  UNL     1     -35.435  12.733  -5.891  1.00 20.00    -0.369 OA
HETATM    6 CL6  UNL     1     -37.357  15.264  -6.831  1.00 20.00    -0.121 Cl
HETATM    7 CL7  UNL     1     -34.375  14.138  -3.960  1.00 20.00    -0.094 Cl
ENDROOT
TORSDOF 0
ENDMDL
MODEL 8
REMARK VINA RESULT:      -3.1      2.244      2.817
REMARK  0 active torsions:
REMARK  status: ('A' for Active; 'I' for Inactive)
ROOT
HETATM    1  C1  UNL     1     -33.041   6.819   3.755  1.00 20.00     0.050 C 
HETATM    2  C2  UNL     1     -34.362   6.987   3.028  1.00 20.00     0.171 C 
HETATM    3  C3  UNL     1     -33.469   6.281   5.101  1.00 20.00     0.128 C 
HETATM    4  C4  UNL     1     -34.674   5.427   4.741  1.00 20.00     0.235 C 
HETATM    5  O5  UNL     1     -35.268   6.018   3.575  1.00 20.00    -0.369 OA
HETATM    6 CL6  UNL     1     -33.978   7.628   6.168  1.00 20.00    -0.121 Cl
HETATM    7 CL7  UNL     1     -34.177   3.763   4.318  1.00 20.00    -0.094 Cl
ENDROOT
TORSDOF 0
ENDMDL
MODEL 9
REMARK VINA RESULT:      -3.1     11.356     12.142
REMARK  0 active torsions:
REMARK  status: ('A' for Active; 'I' for Inactive)
ROOT
HETATM    1  C1  UNL     1     -33.592  15.412  -5.514  1.00 20.00     0.050 C 
HETATM    2  C2  UNL     1     -33.222  14.386  -4.460  1.00 20.00     0.171 C 
HETATM    3  C3  UNL     1     -34.800  14.788  -6.176  1.00 20.00     0.128 C 
HETATM    4  C4  UNL     1     -35.472  14.072  -5.015  1.00 20.00     0.235 C 
HETATM    5  O5  UNL     1     -34.431  13.704  -4.096  1.00 20.00    -0.369 OA
HETATM    6 CL6  UNL     1     -34.279  13.592  -7.405  1.00 20.00    -0.121 Cl
HETATM    7 CL7  UNL     1     -36.598  15.161  -4.155  1.00 20.00    -0.094 Cl
ENDROOT
TORSDOF 0
ENDMDL
