MODEL 1
REMARK VINA RESULT:      -5.6      0.000      0.000
REMARK  0 active torsions:
REMARK  status: ('A' for Active; 'I' for Inactive)
ROOT
HETATM    1  C1  UNL     1     -32.180   8.294   3.674  1.00 20.00     0.057 A 
HETATM    2  C2  UNL     1     -33.461   7.251   5.631  1.00 20.00     0.008 A 
HETATM    3  C3  UNL     1     -34.546   5.492   3.696  1.00 20.00     0.143 A 
HETATM    4  C4  UNL     1     -33.058   7.424   4.379  1.00 20.00    -0.005 A 
HETATM    5  C5  UNL     1     -32.264   7.885   2.394  1.00 20.00     0.127 A 
HETATM    6  C6  UNL     1     -33.586   6.546   3.346  1.00 20.00     0.085 A 
HETATM    7  C7  UNL     1     -34.444   6.174   5.998  1.00 20.00     0.176 A 
HETATM    8  N8  UNL     1     -34.941   5.317   4.903  1.00 20.00    -0.296 NA
HETATM    9  N9  UNL     1     -33.120   6.811   2.158  1.00 20.00    -0.235 NA
HETATM   10 CL10 UNL     1     -31.398   8.602   1.107  1.00 20.00    -0.062 Cl
ENDROOT
TORSDOF 0
ENDMDL
MODEL 2
REMARK VINA RESULT:      -5.5      1.086      1.896
REMARK  0 active torsions:
REMARK  status: ('A' for Active; 'I' for Inactive)
ROOT
HETATM    1  C1  UNL     1     -33.076   6.490   2.169  1.00 20.00     0.057 A 
HETATM    2  C2  UNL     1     -34.366   5.135   3.917  1.00 20.00     0.008 A 
HETATM    3  C3  UNL     1     -33.672   7.211   5.714  1.00 20.00     0.143 A 
HETATM    4  C4  UNL     1     -33.644   6.133   3.423  1.00 20.00    -0.005 A 
HETATM    5  C5  UNL     1     -32.459   7.664   2.405  1.00 20.00     0.127 A 
HETATM    6  C6  UNL     1     -33.261   7.224   4.305  1.00 20.00     0.085 A 
HETATM    7  C7  UNL     1     -34.791   5.114   5.360  1.00 20.00     0.176 A 
HETATM    8  N8  UNL     1     -34.370   6.252   6.201  1.00 20.00    -0.296 NA
HETATM    9  N9  UNL     1     -32.555   8.143   3.710  1.00 20.00    -0.235 NA
HETATM   10 CL10 UNL     1     -31.604   8.545   1.218  1.00 20.00    -0.062 Cl
ENDROOT
TORSDOF 0
ENDMDL
MODEL 3
REMARK VINA RESULT:      -4.3     11.379     12.234
REMARK  0 active torsions:
REMARK  status: ('A' for Active; 'I' for Inactive)
ROOT
HETATM    1  C1  UNL     1     -33.302  16.275  -4.962  1.00 20.00     0.057 A 
HETATM    2  C2  UNL     1     -33.885  14.663  -6.864  1.00 20.00     0.008 A 
HETATM    3  C3  UNL     1     -35.602  13.418  -4.988  1.00 20.00     0.143 A 
HETATM    4  C4  UNL     1     -33.918  15.191  -5.648  1.00 20.00    -0.005 A 
HETATM    5  C5  UNL     1     -33.818  16.218  -3.719  1.00 20.00     0.127 A 
HETATM    6  C6  UNL     1     -34.785  14.589  -4.647  1.00 20.00     0.085 A 
HETATM    7  C7  UNL     1     -34.718  13.463  -7.222  1.00 20.00     0.176 A 
HETATM    8  N8  UNL     1     -35.576  12.901  -6.160  1.00 20.00    -0.296 NA
HETATM    9  N9  UNL     1     -34.734  15.192  -3.492  1.00 20.00    -0.235 NA
HETATM   10 CL10 UNL     1     -33.409  17.306  -2.468  1.00 20.00    -0.062 Cl
ENDROOT
TORSDOF 0
ENDMDL
MODEL 4
REMARK VINA RESULT:      -4.1     11.545     11.960
REMARK  0 active torsions:
REMARK  status: ('A' for Active; 'I' for Inactive)
ROOT
HETATM    1  C1  UNL     1     -33.579  16.861  -2.731  1.00 20.00     0.057 A 
HETATM    2  C2  UNL     1     -32.398  18.276  -0.952  1.00 20.00     0.008 A 
HETATM    3  C3  UNL     1     -34.817  18.065   0.504  1.00 20.00     0.143 A 
HETATM    4  C4  UNL     1     -33.375  17.581  -1.521  1.00 20.00    -0.005 A 
HETATM    5  C5  UNL     1     -34.840  16.402  -2.636  1.00 20.00     0.127 A 
HETATM    6  C6  UNL     1     -34.638  17.443  -0.814  1.00 20.00     0.085 A 
HETATM    7  C7  UNL     1     -32.573  18.917   0.397  1.00 20.00     0.176 A 
HETATM    8  N8  UNL     1     -33.879  18.738   1.061  1.00 20.00    -0.296 NA
HETATM    9  N9  UNL     1     -35.520  16.741  -1.468  1.00 20.00    -0.235 NA
HETATM   10 CL10 UNL     1     -35.603  15.461  -3.841  1.00 20.00    -0.062 Cl
ENDROOT
TORSDOF 0
ENDMDL
MODEL 5
REMARK VINA RESULT:      -4.0     11.601     11.857
REMARK  0 active torsions:
REMARK  status: ('A' for Active; 'I' for Inactive)
ROOT
HETATM    1  C1  UNL     1     -33.868  15.656  -3.433  1.00 20.00     0.057 A 
HETATM    2  C2  UNL     1     -35.012  13.977  -4.992  1.00 20.00     0.008 A 
HETATM    3  C3  UNL     1     -37.432  15.183  -4.151  1.00 20.00     0.143 A 
HETATM    4  C4  UNL     1     -34.909  14.971  -4.119  1.00 20.00    -0.005 A 
HETATM    5  C5  UNL     1     -34.509  16.575  -2.687  1.00 20.00     0.127 A 
HETATM    6  C6  UNL     1     -36.123  15.624  -3.655  1.00 20.00     0.085 A 
HETATM    7  C7  UNL     1     -36.349  13.519  -5.505  1.00 20.00     0.176 A 
HETATM    8  N8  UNL     1     -37.542  14.224  -4.994  1.00 20.00    -0.296 NA
HETATM    9  N9  UNL     1     -35.898  16.583  -2.801  1.00 20.00    -0.235 NA
HETATM   10 CL10 UNL     1     -33.719  17.682  -1.653  1.00 20.00    -0.062 Cl
ENDROOT
TORSDOF 0
ENDMDL
MODEL 6
REMARK VINA RESULT:      -4.0     11.669     11.886
REMARK  0 active torsions:
REMARK  status: ('A' for Active; 'I' for Inactive)
ROOT
HETATM    1  C1  UNL     1     -35.545  16.351  -2.749  1.00 20.00     0.057 A 
HETATM    2  C2  UNL     1     -36.651  14.822  -4.480  1.00 20.00     0.008 A 
HETATM    3  C3  UNL     1     -34.014  14.264  -5.346  1.00 20.00     0.143 A 
HETATM    4  C4  UNL     1     -35.670  15.434  -3.829  1.00 20.00    -0.005 A 
HETATM    5  C5  UNL     1     -34.218  16.541  -2.626  1.00 20.00     0.127 A 
HETATM    6  C6  UNL     1     -34.296  15.181  -4.235  1.00 20.00     0.085 A 
HETATM    7  C7  UNL     1     -36.370  13.882  -5.620  1.00 20.00     0.176 A 
HETATM    8  N8  UNL     1     -34.955  13.669  -5.981  1.00 20.00    -0.296 NA
HETATM    9  N9  UNL     1     -33.421  15.835  -3.525  1.00 20.00    -0.235 NA
HETATM   10 CL10 UNL     1     -33.508  17.570  -1.461  1.00 20.00    -0.062 Cl
ENDROOT
TORSDOF 0
ENDMDL
MODEL 7
REMARK VINA RESULT:      -4.0      2.625      4.230
REMARK  0 active torsions:
REMARK  status: ('A' for Active; 'I' for Inactive)
ROOT
HETATM    1  C1  UNL     1     -34.269   5.924   3.491  1.00 20.00     0.057 A 
HETATM    2  C2  UNL     1     -33.005   7.319   1.755  1.00 20.00     0.008 A 
HETATM    3  C3  UNL     1     -31.780   8.573   3.978  1.00 20.00     0.143 A 
HETATM    4  C4  UNL     1     -33.375   6.893   2.955  1.00 20.00    -0.005 A 
HETATM    5  C5  UNL     1     -34.127   6.043   4.825  1.00 20.00     0.127 A 
HETATM    6  C6  UNL     1     -32.775   7.505   4.131  1.00 20.00     0.085 A 
HETATM    7  C7  UNL     1     -31.987   8.414   1.589  1.00 20.00     0.176 A 
HETATM    8  N8  UNL     1     -31.417   8.991   2.822  1.00 20.00    -0.296 NA
HETATM    9  N9  UNL     1     -33.215   7.006   5.252  1.00 20.00    -0.235 NA
HETATM   10 CL10 UNL     1     -34.985   5.099   5.961  1.00 20.00    -0.062 Cl
ENDROOT
TORSDOF 0
ENDMDL
MODEL 8
REMARK VINA RESULT:      -4.0     11.703     12.117
REMARK  0 active torsions:
REMARK  status: ('A' for Active; 'I' for Inactive)
ROOT
HETATM    1  C1  UNL     1     -33.406  17.076  -2.112  1.00 20.00     0.057 A 
HETATM    2  C2  UNL     1     -33.407  15.947  -4.411  1.00 20.00     0.008 A 
HETATM    3  C3  UNL     1     -36.188  15.608  -3.998  1.00 20.00     0.143 A 
HETATM    4  C4  UNL     1     -33.899  16.411  -3.270  1.00 20.00    -0.005 A 
HETATM    5  C5  UNL     1     -34.494  17.244  -1.336  1.00 20.00     0.127 A 
HETATM    6  C6  UNL     1     -35.322  16.262  -3.009  1.00 20.00     0.085 A 
HETATM    7  C7  UNL     1     -34.287  15.275  -5.429  1.00 20.00     0.176 A 
HETATM    8  N8  UNL     1     -35.721  15.156  -5.103  1.00 20.00    -0.296 NA
HETATM    9  N9  UNL     1     -35.689  16.755  -1.859  1.00 20.00    -0.235 NA
HETATM   10 CL10 UNL     1     -34.463  18.000   0.195  1.00 20.00    -0.062 Cl
ENDROOT
TORSDOF 0
ENDMDL
MODEL 9
REMARK VINA RESULT:      -4.0     11.065     11.693
REMARK  0 active torsions:
REMARK  status: ('A' for Active; 'I' for Inactive)
ROOT
HETATM    1  C1  UNL     1     -34.382  15.450  -3.659  1.00 20.00     0.057 A 
HETATM    2  C2  UNL     1     -36.875  16.017  -3.807  1.00 20.00     0.008 A 
HETATM    3  C3  UNL     1     -37.076  13.714  -5.441  1.00 20.00     0.143 A 
HETATM    4  C4  UNL     1     -35.752  15.346  -4.027  1.00 20.00    -0.005 A 
HETATM    5  C5  UNL     1     -33.795  14.398  -4.260  1.00 20.00     0.127 A 
HETATM    6  C6  UNL     1     -35.801  14.154  -4.861  1.00 20.00     0.085 A 
HETATM    7  C7  UNL     1     -38.185  15.573  -4.398  1.00 20.00     0.176 A 
HETATM    8  N8  UNL     1     -38.165  14.356  -5.233  1.00 20.00    -0.296 NA
HETATM    9  N9  UNL     1     -34.641  13.580  -5.007  1.00 20.00    -0.235 NA
HETATM   10 CL10 UNL     1     -32.127  14.045  -4.145  1.00 20.00    -0.062 Cl
ENDROOT
TORSDOF 0
ENDMDL
