MODEL 1
REMARK VINA RESULT:      -6.2      0.000      0.000
REMARK  2 active torsions:
REMARK  status: ('A' for Active; 'I' for Inactive)
REMARK    1  A    between atoms: C7_7  and  O10_10 
REMARK    2  A    between atoms: C8_8  and  O10_10 
ROOT
HETATM    1  C1  UNL     1     -33.275   5.973   2.695  1.00 20.00     0.024 C 
HETATM    2  C2  UNL     1     -34.138   5.469   3.588  1.00 20.00     0.118 C 
HETATM    3  C3  UNL     1     -33.803   7.093   5.137  1.00 20.00     0.188 C 
HETATM    4  C4  UNL     1     -32.573   7.613   4.439  1.00 20.00     0.127 C 
HETATM    5  C7  UNL     1     -32.568   7.263   2.955  1.00 20.00     0.154 C 
HETATM    6  N9  UNL     1     -34.508   6.074   4.760  1.00 20.00    -0.237 NA
HETATM    7  F11 UNL     1     -34.168   7.703   6.274  1.00 20.00    -0.189 F 
ENDROOT
BRANCH   5   8
HETATM    8  O10 UNL     1     -33.210   8.305   2.225  1.00 20.00    -0.376 OA
BRANCH   8   9
HETATM    9  C8  UNL     1     -32.300   8.974   1.364  1.00 20.00     0.122 A 
HETATM   10  C5  UNL     1     -32.841   9.394   0.027  1.00 20.00     0.034 A 
HETATM   11  C6  UNL     1     -32.591  10.421   1.093  1.00 20.00     0.034 A 
ENDBRANCH   8   9
ENDBRANCH   5   8
TORSDOF 2
ENDMDL
MODEL 2
REMARK VINA RESULT:      -5.9      1.848      2.433
REMARK  2 active torsions:
REMARK  status: ('A' for Active; 'I' for Inactive)
REMARK    1  A    between atoms: C7_7  and  O10_10 
REMARK    2  A    between atoms: C8_8  and  O10_10 
ROOT
HETATM    1  C1  UNL     1     -33.784   7.555   5.074  1.00 20.00     0.024 C 
HETATM    2  C2  UNL     1     -34.075   6.602   5.969  1.00 20.00     0.118 C 
HETATM    3  C3  UNL     1     -34.404   4.966   4.431  1.00 20.00     0.188 C 
HETATM    4  C4  UNL     1     -34.444   5.945   3.285  1.00 20.00     0.127 C 
HETATM    5  C7  UNL     1     -33.710   7.240   3.615  1.00 20.00     0.154 C 
HETATM    6  N9  UNL     1     -34.269   5.276   5.682  1.00 20.00    -0.237 NA
HETATM    7  F11 UNL     1     -34.575   3.669   4.137  1.00 20.00    -0.189 F 
ENDROOT
BRANCH   5   8
HETATM    8  O10 UNL     1     -32.343   7.115   3.231  1.00 20.00    -0.376 OA
BRANCH   8   9
HETATM    9  C8  UNL     1     -31.822   8.348   2.756  1.00 20.00     0.122 A 
HETATM   10  C5  UNL     1     -31.475   8.401   1.296  1.00 20.00     0.034 A 
HETATM   11  C6  UNL     1     -32.697   9.110   1.803  1.00 20.00     0.034 A 
ENDBRANCH   8   9
ENDBRANCH   5   8
TORSDOF 2
ENDMDL
MODEL 3
REMARK VINA RESULT:      -4.4     10.240     10.887
REMARK  2 active torsions:
REMARK  status: ('A' for Active; 'I' for Inactive)
REMARK    1  A    between atoms: C7_7  and  O10_10 
REMARK    2  A    between atoms: C8_8  and  O10_10 
ROOT
HETATM    1  C1  UNL     1     -36.078  15.356  -4.291  1.00 20.00     0.024 C 
HETATM    2  C2  UNL     1     -35.704  14.161  -4.768  1.00 20.00     0.118 C 
HETATM    3  C3  UNL     1     -33.513  14.399  -4.230  1.00 20.00     0.188 C 
HETATM    4  C4  UNL     1     -33.660  15.875  -3.961  1.00 20.00     0.127 C 
HETATM    5  C7  UNL     1     -35.095  16.251  -3.608  1.00 20.00     0.154 C 
HETATM    6  N9  UNL     1     -34.455  13.611  -4.640  1.00 20.00    -0.237 NA
HETATM    7  F11 UNL     1     -32.290  13.868  -4.084  1.00 20.00    -0.189 F 
ENDROOT
BRANCH   5   8
HETATM    8  O10 UNL     1     -35.272  16.153  -2.198  1.00 20.00    -0.376 OA
BRANCH   8   9
HETATM    9  C8  UNL     1     -35.287  17.435  -1.586  1.00 20.00     0.122 A 
HETATM   10  C5  UNL     1     -35.463  17.454  -0.094  1.00 20.00     0.034 A 
HETATM   11  C6  UNL     1     -34.121  17.754  -0.696  1.00 20.00     0.034 A 
ENDBRANCH   8   9
ENDBRANCH   5   8
TORSDOF 2
ENDMDL
MODEL 4
REMARK VINA RESULT:      -4.1     10.568     11.470
REMARK  2 active torsions:
REMARK  status: ('A' for Active; 'I' for Inactive)
REMARK    1  A    between atoms: C7_7  and  O10_10 
REMARK    2  A    between atoms: C8_8  and  O10_10 
ROOT
HETATM    1  C1  UNL     1     -33.271  15.893  -5.867  1.00 20.00     0.024 C 
HETATM    2  C2  UNL     1     -34.068  15.296  -6.765  1.00 20.00     0.118 C 
HETATM    3  C3  UNL     1     -35.137  13.984  -5.255  1.00 20.00     0.188 C 
HETATM    4  C4  UNL     1     -34.128  14.273  -4.173  1.00 20.00     0.127 C 
HETATM    5  C7  UNL     1     -33.401  15.593  -4.409  1.00 20.00     0.154 C 
HETATM    6  N9  UNL     1     -35.088  14.431  -6.469  1.00 20.00    -0.237 NA
HETATM    7  F11 UNL     1     -36.142  13.150  -4.949  1.00 20.00    -0.189 F 
ENDROOT
BRANCH   5   8
HETATM    8  O10 UNL     1     -34.122  16.645  -3.776  1.00 20.00    -0.376 OA
BRANCH   8   9
HETATM    9  C8  UNL     1     -33.983  16.594  -2.363  1.00 20.00     0.122 A 
HETATM   10  C5  UNL     1     -34.140  17.898  -1.634  1.00 20.00     0.034 A 
HETATM   11  C6  UNL     1     -35.227  16.865  -1.568  1.00 20.00     0.034 A 
ENDBRANCH   8   9
ENDBRANCH   5   8
TORSDOF 2
ENDMDL
MODEL 5
REMARK VINA RESULT:      -4.1     10.893     11.546
REMARK  2 active torsions:
REMARK  status: ('A' for Active; 'I' for Inactive)
REMARK    1  A    between atoms: C7_7  and  O10_10 
REMARK    2  A    between atoms: C8_8  and  O10_10 
ROOT
HETATM    1  C1  UNL     1     -37.886  16.259  -4.250  1.00 20.00     0.024 C 
HETATM    2  C2  UNL     1     -38.514  15.149  -4.662  1.00 20.00     0.118 C 
HETATM    3  C3  UNL     1     -36.615  14.000  -5.133  1.00 20.00     0.188 C 
HETATM    4  C4  UNL     1     -35.754  15.234  -5.042  1.00 20.00     0.127 C 
HETATM    5  C7  UNL     1     -36.395  16.315  -4.178  1.00 20.00     0.154 C 
HETATM    6  N9  UNL     1     -37.902  13.969  -4.993  1.00 20.00    -0.237 NA
HETATM    7  F11 UNL     1     -36.003  12.846  -5.439  1.00 20.00    -0.189 F 
ENDROOT
BRANCH   5   8
HETATM    8  O10 UNL     1     -35.983  16.139  -2.825  1.00 20.00    -0.376 OA
BRANCH   8   9
HETATM    9  C8  UNL     1     -35.281  17.277  -2.344  1.00 20.00     0.122 A 
HETATM   10  C5  UNL     1     -34.887  17.247  -0.895  1.00 20.00     0.034 A 
HETATM   11  C6  UNL     1     -33.847  17.051  -1.959  1.00 20.00     0.034 A 
ENDBRANCH   8   9
ENDBRANCH   5   8
TORSDOF 2
ENDMDL
MODEL 6
REMARK VINA RESULT:      -4.0      3.272      5.059
REMARK  2 active torsions:
REMARK  status: ('A' for Active; 'I' for Inactive)
REMARK    1  A    between atoms: C7_7  and  O10_10 
REMARK    2  A    between atoms: C8_8  and  O10_10 
ROOT
HETATM    1  C1  UNL     1     -32.438   9.833   2.344  1.00 20.00     0.024 C 
HETATM    2  C2  UNL     1     -32.721  10.636   1.310  1.00 20.00     0.118 C 
HETATM    3  C3  UNL     1     -32.372   9.058  -0.282  1.00 20.00     0.188 C 
HETATM    4  C4  UNL     1     -31.700   8.118   0.687  1.00 20.00     0.127 C 
HETATM    5  C7  UNL     1     -32.121   8.388   2.128  1.00 20.00     0.154 C 
HETATM    6  N9  UNL     1     -32.813  10.242   0.001  1.00 20.00    -0.237 NA
HETATM    7  F11 UNL     1     -32.474   8.654  -1.557  1.00 20.00    -0.189 F 
ENDROOT
BRANCH   5   8
HETATM    8  O10 UNL     1     -33.270   7.605   2.435  1.00 20.00    -0.376 OA
BRANCH   8   9
HETATM    9  C8  UNL     1     -32.948   6.530   3.307  1.00 20.00     0.122 A 
HETATM   10  C5  UNL     1     -34.111   5.758   3.863  1.00 20.00     0.034 A 
HETATM   11  C6  UNL     1     -33.250   5.152   2.793  1.00 20.00     0.034 A 
ENDBRANCH   8   9
ENDBRANCH   5   8
TORSDOF 2
ENDMDL
MODEL 7
REMARK VINA RESULT:      -3.9      2.467      4.402
REMARK  2 active torsions:
REMARK  status: ('A' for Active; 'I' for Inactive)
REMARK    1  A    between atoms: C7_7  and  O10_10 
REMARK    2  A    between atoms: C8_8  and  O10_10 
ROOT
HETATM    1  C1  UNL     1     -33.752   8.074   2.171  1.00 20.00     0.024 C 
HETATM    2  C2  UNL     1     -32.650   8.598   1.617  1.00 20.00     0.118 C 
HETATM    3  C3  UNL     1     -31.305   8.176   3.395  1.00 20.00     0.188 C 
HETATM    4  C4  UNL     1     -32.470   7.866   4.301  1.00 20.00     0.127 C 
HETATM    5  C7  UNL     1     -33.701   7.427   3.516  1.00 20.00     0.154 C 
HETATM    6  N9  UNL     1     -31.392   8.551   2.159  1.00 20.00    -0.237 NA
HETATM    7  F11 UNL     1     -30.077   8.109   3.930  1.00 20.00    -0.189 F 
ENDROOT
BRANCH   5   8
HETATM    8  O10 UNL     1     -33.674   6.011   3.355  1.00 20.00    -0.376 OA
BRANCH   8   9
HETATM    9  C8  UNL     1     -34.736   5.388   4.063  1.00 20.00     0.122 A 
HETATM   10  C5  UNL     1     -34.390   4.125   4.800  1.00 20.00     0.034 A 
HETATM   11  C6  UNL     1     -34.626   5.398   5.560  1.00 20.00     0.034 A 
ENDBRANCH   8   9
ENDBRANCH   5   8
TORSDOF 2
ENDMDL
MODEL 8
REMARK VINA RESULT:      -3.9     10.803     11.672
REMARK  2 active torsions:
REMARK  status: ('A' for Active; 'I' for Inactive)
REMARK    1  A    between atoms: C7_7  and  O10_10 
REMARK    2  A    between atoms: C8_8  and  O10_10 
ROOT
HETATM    1  C1  UNL     1     -34.709  17.976  -3.608  1.00 20.00     0.024 C 
HETATM    2  C2  UNL     1     -33.740  18.899  -3.529  1.00 20.00     0.118 C 
HETATM    3  C3  UNL     1     -32.878  18.127  -1.577  1.00 20.00     0.188 C 
HETATM    4  C4  UNL     1     -34.072  17.246  -1.309  1.00 20.00     0.127 C 
HETATM    5  C7  UNL     1     -34.816  16.887  -2.590  1.00 20.00     0.154 C 
HETATM    6  N9  UNL     1     -32.742  18.922  -2.591  1.00 20.00    -0.237 NA
HETATM    7  F11 UNL     1     -31.898  18.128  -0.662  1.00 20.00    -0.189 F 
ENDROOT
BRANCH   5   8
HETATM    8  O10 UNL     1     -34.270  15.686  -3.129  1.00 20.00    -0.376 OA
BRANCH   8   9
HETATM    9  C8  UNL     1     -34.818  15.394  -4.406  1.00 20.00     0.122 A 
HETATM   10  C5  UNL     1     -33.994  14.503  -5.292  1.00 20.00     0.034 A 
HETATM   11  C6  UNL     1     -35.233  13.969  -4.634  1.00 20.00     0.034 A 
ENDBRANCH   8   9
ENDBRANCH   5   8
TORSDOF 2
ENDMDL
MODEL 9
REMARK VINA RESULT:      -3.9     11.266     12.081
REMARK  2 active torsions:
REMARK  status: ('A' for Active; 'I' for Inactive)
REMARK    1  A    between atoms: C7_7  and  O10_10 
REMARK    2  A    between atoms: C8_8  and  O10_10 
ROOT
HETATM    1  C1  UNL     1     -34.355  14.925  -3.895  1.00 20.00     0.024 C 
HETATM    2  C2  UNL     1     -33.257  14.836  -4.658  1.00 20.00     0.118 C 
HETATM    3  C3  UNL     1     -33.873  16.477  -6.098  1.00 20.00     0.188 C 
HETATM    4  C4  UNL     1     -35.292  16.498  -5.590  1.00 20.00     0.127 C 
HETATM    5  C7  UNL     1     -35.396  15.962  -4.166  1.00 20.00     0.154 C 
HETATM    6  N9  UNL     1     -32.938  15.680  -5.690  1.00 20.00    -0.237 NA
HETATM    7  F11 UNL     1     -33.567  17.321  -7.095  1.00 20.00    -0.189 F 
ENDROOT
BRANCH   5   8
HETATM    8  O10 UNL     1     -35.236  17.039  -3.247  1.00 20.00    -0.376 OA
BRANCH   8   9
HETATM    9  C8  UNL     1     -34.834  16.574  -1.966  1.00 20.00     0.122 A 
HETATM   10  C5  UNL     1     -34.020  17.529  -1.141  1.00 20.00     0.034 A 
HETATM   11  C6  UNL     1     -35.455  17.267  -0.788  1.00 20.00     0.034 A 
ENDBRANCH   8   9
ENDBRANCH   5   8
TORSDOF 2
ENDMDL
