MODEL 1
REMARK VINA RESULT:      -4.7      0.000      0.000
REMARK  0 active torsions:
REMARK  status: ('A' for Active; 'I' for Inactive)
ROOT
HETATM    1  C1  UNL     1     -33.325   7.539   5.995  1.00 20.00     0.012 C 
HETATM    2  C2  UNL     1     -33.914   7.025   5.084  1.00 20.00    -0.110 C 
HETATM    3  C3  UNL     1     -35.244   5.069   4.376  1.00 20.00     0.045 C 
HETATM    4  C4  UNL     1     -34.094   4.099   4.195  1.00 20.00     0.169 C 
HETATM    5  C5  UNL     1     -33.685   5.969   2.862  1.00 20.00     0.184 C 
HETATM    6  C6  UNL     1     -34.638   6.395   3.968  1.00 20.00     0.090 C 
HETATM    7  O7  UNL     1     -33.262   4.628   3.155  1.00 20.00    -0.390 OA
ENDROOT
TORSDOF 0
ENDMDL
MODEL 2
REMARK VINA RESULT:      -4.4      1.490      2.021
REMARK  0 active torsions:
REMARK  status: ('A' for Active; 'I' for Inactive)
ROOT
HETATM    1  C1  UNL     1     -32.232   7.328   3.036  1.00 20.00     0.012 C 
HETATM    2  C2  UNL     1     -33.253   7.159   3.643  1.00 20.00    -0.110 C 
HETATM    3  C3  UNL     1     -34.240   6.450   5.793  1.00 20.00     0.045 C 
HETATM    4  C4  UNL     1     -34.094   4.955   5.598  1.00 20.00     0.169 C 
HETATM    5  C5  UNL     1     -35.315   5.807   3.803  1.00 20.00     0.184 C 
HETATM    6  C6  UNL     1     -34.505   6.952   4.389  1.00 20.00     0.090 C 
HETATM    7  O7  UNL     1     -34.893   4.602   4.461  1.00 20.00    -0.390 OA
ENDROOT
TORSDOF 0
ENDMDL
MODEL 3
REMARK VINA RESULT:      -4.3      3.125      3.948
REMARK  0 active torsions:
REMARK  status: ('A' for Active; 'I' for Inactive)
ROOT
HETATM    1  C1  UNL     1     -32.879  10.172   1.145  1.00 20.00     0.012 C 
HETATM    2  C2  UNL     1     -32.436   9.168   1.630  1.00 20.00    -0.110 C 
HETATM    3  C3  UNL     1     -32.972   6.894   2.430  1.00 20.00     0.045 C 
HETATM    4  C4  UNL     1     -33.575   7.287   3.763  1.00 20.00     0.169 C 
HETATM    5  C5  UNL     1     -31.420   8.172   3.651  1.00 20.00     0.184 C 
HETATM    6  C6  UNL     1     -31.892   7.936   2.225  1.00 20.00     0.090 C 
HETATM    7  O7  UNL     1     -32.538   7.926   4.519  1.00 20.00    -0.390 OA
ENDROOT
TORSDOF 0
ENDMDL
MODEL 4
REMARK VINA RESULT:      -4.2      1.663      3.012
REMARK  0 active torsions:
REMARK  status: ('A' for Active; 'I' for Inactive)
ROOT
HETATM    1  C1  UNL     1     -34.133   3.861   4.457  1.00 20.00     0.012 C 
HETATM    2  C2  UNL     1     -34.374   5.036   4.449  1.00 20.00    -0.110 C 
HETATM    3  C3  UNL     1     -34.097   7.154   3.209  1.00 20.00     0.045 C 
HETATM    4  C4  UNL     1     -32.664   7.438   3.615  1.00 20.00     0.169 C 
HETATM    5  C5  UNL     1     -33.936   7.202   5.555  1.00 20.00     0.184 C 
HETATM    6  C6  UNL     1     -34.670   6.478   4.437  1.00 20.00     0.090 C 
HETATM    7  O7  UNL     1     -32.659   7.607   5.038  1.00 20.00    -0.390 OA
ENDROOT
TORSDOF 0
ENDMDL
MODEL 5
REMARK VINA RESULT:      -4.1      2.242      3.187
REMARK  0 active torsions:
REMARK  status: ('A' for Active; 'I' for Inactive)
ROOT
HETATM    1  C1  UNL     1     -32.562   9.139   1.359  1.00 20.00     0.012 C 
HETATM    2  C2  UNL     1     -32.437   8.258   2.164  1.00 20.00    -0.110 C 
HETATM    3  C3  UNL     1     -32.997   5.916   2.709  1.00 20.00     0.045 C 
HETATM    4  C4  UNL     1     -34.421   6.151   3.170  1.00 20.00     0.169 C 
HETATM    5  C5  UNL     1     -33.011   7.503   4.445  1.00 20.00     0.184 C 
HETATM    6  C6  UNL     1     -32.284   7.177   3.151  1.00 20.00     0.090 C 
HETATM    7  O7  UNL     1     -34.353   7.003   4.321  1.00 20.00    -0.390 OA
ENDROOT
TORSDOF 0
ENDMDL
MODEL 6
REMARK VINA RESULT:      -3.8      4.086      5.093
REMARK  0 active torsions:
REMARK  status: ('A' for Active; 'I' for Inactive)
ROOT
HETATM    1  C1  UNL     1     -33.192   7.139   2.982  1.00 20.00     0.012 C 
HETATM    2  C2  UNL     1     -32.630   8.047   2.436  1.00 20.00    -0.110 C 
HETATM    3  C3  UNL     1     -32.922  10.195   1.252  1.00 20.00     0.045 C 
HETATM    4  C4  UNL     1     -33.336   9.629  -0.091  1.00 20.00     0.169 C 
HETATM    5  C5  UNL     1     -31.271   8.707   0.480  1.00 20.00     0.184 C 
HETATM    6  C6  UNL     1     -31.940   9.163   1.767  1.00 20.00     0.090 C 
HETATM    7  O7  UNL     1     -32.232   8.856  -0.578  1.00 20.00    -0.390 OA
ENDROOT
TORSDOF 0
ENDMDL
MODEL 7
REMARK VINA RESULT:      -3.4     12.174     12.616
REMARK  0 active torsions:
REMARK  status: ('A' for Active; 'I' for Inactive)
ROOT
HETATM    1  C1  UNL     1     -33.989  16.950  -1.925  1.00 20.00     0.012 C 
HETATM    2  C2  UNL     1     -33.826  16.480  -3.017  1.00 20.00    -0.110 C 
HETATM    3  C3  UNL     1     -34.943  15.713  -5.081  1.00 20.00     0.045 C 
HETATM    4  C4  UNL     1     -35.427  14.373  -4.562  1.00 20.00     0.169 C 
HETATM    5  C5  UNL     1     -33.115  14.474  -4.272  1.00 20.00     0.184 C 
HETATM    6  C6  UNL     1     -33.627  15.903  -4.356  1.00 20.00     0.090 C 
HETATM    7  O7  UNL     1     -34.261  13.609  -4.228  1.00 20.00    -0.390 OA
ENDROOT
TORSDOF 0
ENDMDL
MODEL 8
REMARK VINA RESULT:      -3.3     12.311     12.887
REMARK  0 active torsions:
REMARK  status: ('A' for Active; 'I' for Inactive)
ROOT
HETATM    1  C1  UNL     1     -34.365  16.946  -1.607  1.00 20.00     0.012 C 
HETATM    2  C2  UNL     1     -34.622  16.444  -2.666  1.00 20.00    -0.110 C 
HETATM    3  C3  UNL     1     -34.430  14.404  -4.043  1.00 20.00     0.045 C 
HETATM    4  C4  UNL     1     -32.984  14.579  -4.462  1.00 20.00     0.169 C 
HETATM    5  C5  UNL     1     -34.161  16.491  -5.094  1.00 20.00     0.184 C 
HETATM    6  C6  UNL     1     -34.936  15.828  -3.966  1.00 20.00     0.090 C 
HETATM    7  O7  UNL     1     -32.915  15.790  -5.226  1.00 20.00    -0.390 OA
ENDROOT
TORSDOF 0
ENDMDL
MODEL 9
REMARK VINA RESULT:      -3.3     12.790     13.276
REMARK  0 active torsions:
REMARK  status: ('A' for Active; 'I' for Inactive)
ROOT
HETATM    1  C1  UNL     1     -33.538  17.315  -1.778  1.00 20.00     0.012 C 
HETATM    2  C2  UNL     1     -34.010  16.558  -2.580  1.00 20.00    -0.110 C 
HETATM    3  C3  UNL     1     -33.520  14.775  -4.217  1.00 20.00     0.045 C 
HETATM    4  C4  UNL     1     -33.011  15.663  -5.335  1.00 20.00     0.169 C 
HETATM    5  C5  UNL     1     -35.157  16.374  -4.761  1.00 20.00     0.184 C 
HETATM    6  C6  UNL     1     -34.587  15.628  -3.565  1.00 20.00     0.090 C 
HETATM    7  O7  UNL     1     -34.100  16.510  -5.725  1.00 20.00    -0.390 OA
ENDROOT
TORSDOF 0
ENDMDL
