MODEL 1
REMARK VINA RESULT:      -3.4      0.000      0.000
REMARK  2 active torsions:
REMARK  status: ('A' for Active; 'I' for Inactive)
REMARK    1  A    between atoms: C7_7  and  P9_9 
REMARK    2  A    between atoms: C8_8  and  P9_9 
ROOT
HETATM    1  P9  UNL     1     -35.769  16.051  -5.364  1.00 20.00    -0.001 P 
HETATM    2 CL10 UNL     1     -37.312  15.082  -4.335  1.00 20.00    -0.094 Cl
ENDROOT
BRANCH   1   3
HETATM    3  C7  UNL     1     -35.587  14.858  -6.810  1.00 20.00    -0.014 C 
HETATM    4  C1  UNL     1     -35.642  13.418  -6.279  1.00 20.00     0.021 C 
HETATM    5  C2  UNL     1     -36.739  15.093  -7.799  1.00 20.00     0.021 C 
HETATM    6  C3  UNL     1     -34.242  15.102  -7.511  1.00 20.00     0.021 C 
ENDBRANCH   1   3
BRANCH   1   7
HETATM    7  C8  UNL     1     -34.317  15.505  -4.397  1.00 20.00    -0.014 C 
HETATM    8  C4  UNL     1     -33.044  15.775  -5.210  1.00 20.00     0.021 C 
HETATM    9  C5  UNL     1     -34.271  16.294  -3.079  1.00 20.00     0.021 C 
HETATM   10  C6  UNL     1     -34.436  14.003  -4.099  1.00 20.00     0.021 C 
ENDBRANCH   1   7
TORSDOF 2
ENDMDL
MODEL 2
REMARK VINA RESULT:      -3.4      2.028      2.345
REMARK  2 active torsions:
REMARK  status: ('A' for Active; 'I' for Inactive)
REMARK    1  A    between atoms: C7_7  and  P9_9 
REMARK    2  A    between atoms: C8_8  and  P9_9 
ROOT
HETATM    1  P9  UNL     1     -34.744  14.578  -4.521  1.00 20.00    -0.001 P 
HETATM    2 CL10 UNL     1     -32.705  14.186  -4.259  1.00 20.00    -0.094 Cl
ENDROOT
BRANCH   1   3
HETATM    3  C7  UNL     1     -34.754  14.843  -6.385  1.00 20.00    -0.014 C 
HETATM    4  C1  UNL     1     -34.610  13.483  -7.083  1.00 20.00     0.021 C 
HETATM    5  C2  UNL     1     -36.084  15.497  -6.789  1.00 20.00     0.021 C 
HETATM    6  C3  UNL     1     -33.584  15.756  -6.781  1.00 20.00     0.021 C 
ENDBRANCH   1   3
BRANCH   1   7
HETATM    7  C8  UNL     1     -34.823  16.332  -4.013  1.00 20.00    -0.014 C 
HETATM    8  C4  UNL     1     -36.121  16.951  -4.552  1.00 20.00     0.021 C 
HETATM    9  C5  UNL     1     -34.810  16.408  -2.478  1.00 20.00     0.021 C 
HETATM   10  C6  UNL     1     -33.611  17.086  -4.581  1.00 20.00     0.021 C 
ENDBRANCH   1   7
TORSDOF 2
ENDMDL
MODEL 3
REMARK VINA RESULT:      -3.3      2.065      3.743
REMARK  2 active torsions:
REMARK  status: ('A' for Active; 'I' for Inactive)
REMARK    1  A    between atoms: C7_7  and  P9_9 
REMARK    2  A    between atoms: C8_8  and  P9_9 
ROOT
HETATM    1  P9  UNL     1     -33.580  15.522  -5.422  1.00 20.00    -0.001 P 
HETATM    2 CL10 UNL     1     -32.700  14.097  -4.168  1.00 20.00    -0.094 Cl
ENDROOT
BRANCH   1   3
HETATM    3  C7  UNL     1     -34.556  16.485  -4.131  1.00 20.00    -0.014 C 
HETATM    4  C1  UNL     1     -33.687  16.664  -2.879  1.00 20.00     0.021 C 
HETATM    5  C2  UNL     1     -34.926  17.860  -4.709  1.00 20.00     0.021 C 
HETATM    6  C3  UNL     1     -35.834  15.712  -3.771  1.00 20.00     0.021 C 
ENDBRANCH   1   3
BRANCH   1   7
HETATM    7  C8  UNL     1     -34.965  14.555  -6.121  1.00 20.00    -0.014 C 
HETATM    8  C4  UNL     1     -34.433  13.672  -7.259  1.00 20.00     0.021 C 
HETATM    9  C5  UNL     1     -35.565  13.673  -5.016  1.00 20.00     0.021 C 
HETATM   10  C6  UNL     1     -36.037  15.512  -6.662  1.00 20.00     0.021 C 
ENDBRANCH   1   7
TORSDOF 2
ENDMDL
MODEL 4
REMARK VINA RESULT:      -3.3      2.057      3.788
REMARK  2 active torsions:
REMARK  status: ('A' for Active; 'I' for Inactive)
REMARK    1  A    between atoms: C7_7  and  P9_9 
REMARK    2  A    between atoms: C8_8  and  P9_9 
ROOT
HETATM    1  P9  UNL     1     -33.585  15.553  -5.429  1.00 20.00    -0.001 P 
HETATM    2 CL10 UNL     1     -32.706  14.121  -4.181  1.00 20.00    -0.094 Cl
ENDROOT
BRANCH   1   3
HETATM    3  C7  UNL     1     -34.571  16.502  -4.136  1.00 20.00    -0.014 C 
HETATM    4  C1  UNL     1     -33.710  16.670  -2.876  1.00 20.00     0.021 C 
HETATM    5  C2  UNL     1     -34.939  17.882  -4.703  1.00 20.00     0.021 C 
HETATM    6  C3  UNL     1     -35.849  15.724  -3.791  1.00 20.00     0.021 C 
ENDBRANCH   1   3
BRANCH   1   7
HETATM    7  C8  UNL     1     -34.962  14.586  -6.143  1.00 20.00    -0.014 C 
HETATM    8  C4  UNL     1     -36.028  15.553  -6.676  1.00 20.00     0.021 C 
HETATM    9  C5  UNL     1     -34.421  13.722  -7.292  1.00 20.00     0.021 C 
HETATM   10  C6  UNL     1     -35.572  13.685  -5.058  1.00 20.00     0.021 C 
ENDBRANCH   1   7
TORSDOF 2
ENDMDL
MODEL 5
REMARK VINA RESULT:      -2.6     24.440     25.874
REMARK  2 active torsions:
REMARK  status: ('A' for Active; 'I' for Inactive)
REMARK    1  A    between atoms: C7_7  and  P9_9 
REMARK    2  A    between atoms: C8_8  and  P9_9 
ROOT
HETATM    1  P9  UNL     1     -27.111  -2.993  12.247  1.00 20.00    -0.001 P 
HETATM    2 CL10 UNL     1     -27.920  -4.127  10.685  1.00 20.00    -0.094 Cl
ENDROOT
BRANCH   1   3
HETATM    3  C7  UNL     1     -27.770  -1.300  11.751  1.00 20.00    -0.014 C 
HETATM    4  C1  UNL     1     -27.821  -1.214  10.219  1.00 20.00     0.021 C 
HETATM    5  C2  UNL     1     -29.182  -1.125  12.330  1.00 20.00     0.021 C 
HETATM    6  C3  UNL     1     -26.843  -0.207  12.303  1.00 20.00     0.021 C 
ENDBRANCH   1   3
BRANCH   1   7
HETATM    7  C8  UNL     1     -25.393  -2.781  11.661  1.00 20.00    -0.014 C 
HETATM    8  C4  UNL     1     -24.813  -1.495  12.267  1.00 20.00     0.021 C 
HETATM    9  C5  UNL     1     -24.560  -3.990  12.113  1.00 20.00     0.021 C 
HETATM   10  C6  UNL     1     -25.382  -2.686  10.128  1.00 20.00     0.021 C 
ENDBRANCH   1   7
TORSDOF 2
ENDMDL
MODEL 6
REMARK VINA RESULT:      -2.3     24.172     25.383
REMARK  2 active torsions:
REMARK  status: ('A' for Active; 'I' for Inactive)
REMARK    1  A    between atoms: C7_7  and  P9_9 
REMARK    2  A    between atoms: C8_8  and  P9_9 
ROOT
HETATM    1  P9  UNL     1     -27.580  -2.804  12.090  1.00 20.00    -0.001 P 
HETATM    2 CL10 UNL     1     -26.302  -3.365  10.530  1.00 20.00    -0.094 Cl
ENDROOT
BRANCH   1   3
HETATM    3  C7  UNL     1     -29.203  -3.446  11.383  1.00 20.00    -0.014 C 
HETATM    4  C1  UNL     1     -29.002  -3.784   9.899  1.00 20.00     0.021 C 
HETATM    5  C2  UNL     1     -29.617  -4.709  12.154  1.00 20.00     0.021 C 
HETATM    6  C3  UNL     1     -30.288  -2.369  11.529  1.00 20.00     0.021 C 
ENDBRANCH   1   3
BRANCH   1   7
HETATM    7  C8  UNL     1     -27.820  -1.031  11.714  1.00 20.00    -0.014 C 
HETATM    8  C4  UNL     1     -29.145  -0.564  12.332  1.00 20.00     0.021 C 
HETATM    9  C5  UNL     1     -26.655  -0.231  12.317  1.00 20.00     0.021 C 
HETATM   10  C6  UNL     1     -27.856  -0.830  10.192  1.00 20.00     0.021 C 
ENDBRANCH   1   7
TORSDOF 2
ENDMDL
MODEL 7
REMARK VINA RESULT:      -2.2     23.987     25.547
REMARK  2 active torsions:
REMARK  status: ('A' for Active; 'I' for Inactive)
REMARK    1  A    between atoms: C7_7  and  P9_9 
REMARK    2  A    between atoms: C8_8  and  P9_9 
ROOT
HETATM    1  P9  UNL     1     -27.430  -1.858  12.332  1.00 20.00    -0.001 P 
HETATM    2 CL10 UNL     1     -26.927   0.164  12.141  1.00 20.00    -0.094 Cl
ENDROOT
BRANCH   1   3
HETATM    3  C7  UNL     1     -25.883  -2.617  11.574  1.00 20.00    -0.014 C 
HETATM    4  C1  UNL     1     -24.650  -1.872  12.103  1.00 20.00     0.021 C 
HETATM    5  C2  UNL     1     -25.807  -4.099  11.974  1.00 20.00     0.021 C 
HETATM    6  C3  UNL     1     -25.947  -2.495  10.044  1.00 20.00     0.021 C 
ENDBRANCH   1   3
BRANCH   1   7
HETATM    7  C8  UNL     1     -28.547  -2.069  10.900  1.00 20.00    -0.014 C 
HETATM    8  C4  UNL     1     -28.230  -3.404  10.212  1.00 20.00     0.021 C 
HETATM    9  C5  UNL     1     -30.000  -2.072  11.398  1.00 20.00     0.021 C 
HETATM   10  C6  UNL     1     -28.338  -0.912   9.912  1.00 20.00     0.021 C 
ENDBRANCH   1   7
TORSDOF 2
ENDMDL
MODEL 8
REMARK VINA RESULT:      -2.2     24.990     25.919
REMARK  2 active torsions:
REMARK  status: ('A' for Active; 'I' for Inactive)
REMARK    1  A    between atoms: C7_7  and  P9_9 
REMARK    2  A    between atoms: C8_8  and  P9_9 
ROOT
HETATM    1  P9  UNL     1     -28.397  -1.962  12.154  1.00 20.00    -0.001 P 
HETATM    2 CL10 UNL     1     -28.764  -0.632  10.581  1.00 20.00    -0.094 Cl
ENDROOT
BRANCH   1   3
HETATM    3  C7  UNL     1     -26.625  -2.436  11.729  1.00 20.00    -0.014 C 
HETATM    4  C1  UNL     1     -26.474  -2.489  10.202  1.00 20.00     0.021 C 
HETATM    5  C2  UNL     1     -25.673  -1.379  12.310  1.00 20.00     0.021 C 
HETATM    6  C3  UNL     1     -26.302  -3.812  12.331  1.00 20.00     0.021 C 
ENDBRANCH   1   3
BRANCH   1   7
HETATM    7  C8  UNL     1     -29.222  -3.469  11.528  1.00 20.00    -0.014 C 
HETATM    8  C4  UNL     1     -30.729  -3.363  11.800  1.00 20.00     0.021 C 
HETATM    9  C5  UNL     1     -28.973  -3.581  10.016  1.00 20.00     0.021 C 
HETATM   10  C6  UNL     1     -28.649  -4.702  12.242  1.00 20.00     0.021 C 
ENDBRANCH   1   7
TORSDOF 2
ENDMDL
