MODEL 1
REMARK VINA RESULT:      -6.0      0.000      0.000
REMARK  0 active torsions:
REMARK  status: ('A' for Active; 'I' for Inactive)
ROOT
HETATM    1  C1  UNL     1     -34.718   5.415   5.967  1.00 20.00     0.002 C 
HETATM    2  C2  UNL     1     -34.715   4.744   4.806  1.00 20.00     0.028 C 
HETATM    3  C3  UNL     1     -34.031   6.683   6.137  1.00 20.00    -0.003 C 
HETATM    4  C4  UNL     1     -33.631   7.406   5.077  1.00 20.00    -0.011 C 
HETATM    5  C5  UNL     1     -32.635   5.811   2.147  1.00 20.00     0.132 C 
HETATM    6  C6  UNL     1     -32.883   7.026   2.644  1.00 20.00     0.020 C 
HETATM    7  C7  UNL     1     -33.982   5.411   3.712  1.00 20.00     0.046 C 
HETATM    8  C8  UNL     1     -33.937   6.937   3.690  1.00 20.00     0.102 C 
HETATM    9  N9  UNL     1     -33.312   4.803   2.780  1.00 20.00    -0.263 NA
HETATM   10 BR10 UNL     1     -32.211   8.637   2.080  1.00 20.00    -0.053 Br
ENDROOT
TORSDOF 0
ENDMDL
MODEL 2
REMARK VINA RESULT:      -4.5     12.471     13.036
REMARK  0 active torsions:
REMARK  status: ('A' for Active; 'I' for Inactive)
ROOT
HETATM    1  C1  UNL     1     -34.153  17.730  -1.653  1.00 20.00     0.002 C 
HETATM    2  C2  UNL     1     -32.894  18.193  -1.679  1.00 20.00     0.028 C 
HETATM    3  C3  UNL     1     -34.891  17.546  -0.416  1.00 20.00    -0.003 C 
HETATM    4  C4  UNL     1     -34.484  18.120   0.729  1.00 20.00    -0.011 C 
HETATM    5  C5  UNL     1     -31.090  18.597   1.340  1.00 20.00     0.132 C 
HETATM    6  C6  UNL     1     -32.294  18.887   1.841  1.00 20.00     0.020 C 
HETATM    7  C7  UNL     1     -32.333  18.525  -0.355  1.00 20.00     0.046 C 
HETATM    8  C8  UNL     1     -33.283  19.011   0.737  1.00 20.00     0.102 C 
HETATM    9  N9  UNL     1     -31.088  18.384  -0.012  1.00 20.00    -0.263 NA
HETATM   10 BR10 UNL     1     -32.733  19.263   3.583  1.00 20.00    -0.053 Br
ENDROOT
TORSDOF 0
ENDMDL
MODEL 3
REMARK VINA RESULT:      -4.3      1.784      2.466
REMARK  0 active torsions:
REMARK  status: ('A' for Active; 'I' for Inactive)
ROOT
HETATM    1  C1  UNL     1     -34.804   5.740   4.901  1.00 20.00     0.002 C 
HETATM    2  C2  UNL     1     -33.776   6.357   5.502  1.00 20.00     0.028 C 
HETATM    3  C3  UNL     1     -35.090   5.900   3.486  1.00 20.00    -0.003 C 
HETATM    4  C4  UNL     1     -34.172   6.406   2.643  1.00 20.00    -0.011 C 
HETATM    5  C5  UNL     1     -31.907   8.805   3.755  1.00 20.00     0.132 C 
HETATM    6  C6  UNL     1     -32.184   8.039   2.697  1.00 20.00     0.020 C 
HETATM    7  C7  UNL     1     -32.946   7.186   4.606  1.00 20.00     0.046 C 
HETATM    8  C8  UNL     1     -32.810   6.766   3.145  1.00 20.00     0.102 C 
HETATM    9  N9  UNL     1     -32.355   8.292   4.944  1.00 20.00    -0.263 NA
HETATM   10 BR10 UNL     1     -31.748   8.339   0.940  1.00 20.00    -0.053 Br
ENDROOT
TORSDOF 0
ENDMDL
MODEL 4
REMARK VINA RESULT:      -4.3     12.510     13.355
REMARK  0 active torsions:
REMARK  status: ('A' for Active; 'I' for Inactive)
ROOT
HETATM    1  C1  UNL     1     -34.416  17.846  -0.105  1.00 20.00     0.002 C 
HETATM    2  C2  UNL     1     -33.386  18.519  -0.640  1.00 20.00     0.028 C 
HETATM    3  C3  UNL     1     -35.319  17.038  -0.906  1.00 20.00    -0.003 C 
HETATM    4  C4  UNL     1     -34.995  16.661  -2.155  1.00 20.00    -0.011 C 
HETATM    5  C5  UNL     1     -33.043  18.734  -4.158  1.00 20.00     0.132 C 
HETATM    6  C6  UNL     1     -33.585  17.514  -4.131  1.00 20.00     0.020 C 
HETATM    7  C7  UNL     1     -33.231  18.350  -2.098  1.00 20.00     0.046 C 
HETATM    8  C8  UNL     1     -33.663  17.027  -2.728  1.00 20.00     0.102 C 
HETATM    9  N9  UNL     1     -32.803  19.263  -2.917  1.00 20.00    -0.263 NA
HETATM   10 BR10 UNL     1     -34.037  16.447  -5.553  1.00 20.00    -0.053 Br
ENDROOT
TORSDOF 0
ENDMDL
MODEL 5
REMARK VINA RESULT:      -4.2     12.373     12.972
REMARK  0 active torsions:
REMARK  status: ('A' for Active; 'I' for Inactive)
ROOT
HETATM    1  C1  UNL     1     -33.525  18.141  -0.448  1.00 20.00     0.002 C 
HETATM    2  C2  UNL     1     -32.829  18.106  -1.595  1.00 20.00     0.028 C 
HETATM    3  C3  UNL     1     -34.896  17.670  -0.354  1.00 20.00    -0.003 C 
HETATM    4  C4  UNL     1     -35.431  16.890  -1.308  1.00 20.00    -0.011 C 
HETATM    5  C5  UNL     1     -34.447  17.257  -4.627  1.00 20.00     0.132 C 
HETATM    6  C6  UNL     1     -35.185  16.474  -3.836  1.00 20.00     0.020 C 
HETATM    7  C7  UNL     1     -33.558  17.528  -2.740  1.00 20.00     0.046 C 
HETATM    8  C8  UNL     1     -34.599  16.444  -2.468  1.00 20.00     0.102 C 
HETATM    9  N9  UNL     1     -33.431  17.905  -3.976  1.00 20.00    -0.263 NA
HETATM   10 BR10 UNL     1     -36.613  15.420  -4.302  1.00 20.00    -0.053 Br
ENDROOT
TORSDOF 0
ENDMDL
MODEL 6
REMARK VINA RESULT:      -4.1     12.030     12.662
REMARK  0 active torsions:
REMARK  status: ('A' for Active; 'I' for Inactive)
ROOT
HETATM    1  C1  UNL     1     -35.309  13.502  -6.363  1.00 20.00     0.002 C 
HETATM    2  C2  UNL     1     -36.348  13.710  -5.540  1.00 20.00     0.028 C 
HETATM    3  C3  UNL     1     -34.060  14.233  -6.242  1.00 20.00    -0.003 C 
HETATM    4  C4  UNL     1     -33.758  14.916  -5.125  1.00 20.00    -0.011 C 
HETATM    5  C5  UNL     1     -36.282  16.409  -3.248  1.00 20.00     0.132 C 
HETATM    6  C6  UNL     1     -34.971  16.155  -3.223  1.00 20.00     0.020 C 
HETATM    7  C7  UNL     1     -36.108  14.719  -4.490  1.00 20.00     0.046 C 
HETATM    8  C8  UNL     1     -34.688  14.890  -3.954  1.00 20.00     0.102 C 
HETATM    9  N9  UNL     1     -37.004  15.529  -4.011  1.00 20.00    -0.263 NA
HETATM   10 BR10 UNL     1     -33.661  17.062  -2.314  1.00 20.00    -0.053 Br
ENDROOT
TORSDOF 0
ENDMDL
MODEL 7
REMARK VINA RESULT:      -4.0     12.433     12.814
REMARK  0 active torsions:
REMARK  status: ('A' for Active; 'I' for Inactive)
ROOT
HETATM    1  C1  UNL     1     -34.861  16.642  -2.417  1.00 20.00     0.002 C 
HETATM    2  C2  UNL     1     -33.668  16.429  -2.993  1.00 20.00     0.028 C 
HETATM    3  C3  UNL     1     -36.111  16.262  -3.051  1.00 20.00    -0.003 C 
HETATM    4  C4  UNL     1     -36.135  15.399  -4.082  1.00 20.00    -0.011 C 
HETATM    5  C5  UNL     1     -33.491  15.300  -6.344  1.00 20.00     0.132 C 
HETATM    6  C6  UNL     1     -34.620  14.663  -6.027  1.00 20.00     0.020 C 
HETATM    7  C7  UNL     1     -33.729  15.754  -4.304  1.00 20.00     0.046 C 
HETATM    8  C8  UNL     1     -34.867  14.770  -4.564  1.00 20.00     0.102 C 
HETATM    9  N9  UNL     1     -32.917  15.968  -5.295  1.00 20.00    -0.263 NA
HETATM   10 BR10 UNL     1     -35.684  13.638  -7.116  1.00 20.00    -0.053 Br
ENDROOT
TORSDOF 0
ENDMDL
MODEL 8
REMARK VINA RESULT:      -4.0     12.289     12.667
REMARK  0 active torsions:
REMARK  status: ('A' for Active; 'I' for Inactive)
ROOT
HETATM    1  C1  UNL     1     -34.806  16.609  -2.584  1.00 20.00     0.002 C 
HETATM    2  C2  UNL     1     -36.086  16.497  -2.969  1.00 20.00     0.028 C 
HETATM    3  C3  UNL     1     -33.732  15.869  -3.223  1.00 20.00    -0.003 C 
HETATM    4  C4  UNL     1     -33.904  15.289  -4.423  1.00 20.00    -0.011 C 
HETATM    5  C5  UNL     1     -37.020  14.024  -5.325  1.00 20.00     0.132 C 
HETATM    6  C6  UNL     1     -35.801  14.255  -5.821  1.00 20.00     0.020 C 
HETATM    7  C7  UNL     1     -36.308  15.586  -4.109  1.00 20.00     0.046 C 
HETATM    8  C8  UNL     1     -35.201  15.441  -5.151  1.00 20.00     0.102 C 
HETATM    9  N9  UNL     1     -37.358  14.841  -4.279  1.00 20.00    -0.263 NA
HETATM   10 BR10 UNL     1     -34.974  13.413  -7.225  1.00 20.00    -0.053 Br
ENDROOT
TORSDOF 0
ENDMDL
MODEL 9
REMARK VINA RESULT:      -4.0     12.356     12.936
REMARK  0 active torsions:
REMARK  status: ('A' for Active; 'I' for Inactive)
ROOT
HETATM    1  C1  UNL     1     -33.320  17.200  -2.134  1.00 20.00     0.002 C 
HETATM    2  C2  UNL     1     -32.746  18.018  -1.239  1.00 20.00     0.028 C 
HETATM    3  C3  UNL     1     -34.656  16.662  -1.954  1.00 20.00    -0.003 C 
HETATM    4  C4  UNL     1     -35.507  17.195  -1.060  1.00 20.00    -0.011 C 
HETATM    5  C5  UNL     1     -34.298  18.589   1.892  1.00 20.00     0.132 C 
HETATM    6  C6  UNL     1     -35.423  18.446   1.187  1.00 20.00     0.020 C 
HETATM    7  C7  UNL     1     -33.592  18.346  -0.075  1.00 20.00     0.046 C 
HETATM    8  C8  UNL     1     -35.106  18.396  -0.266  1.00 20.00     0.102 C 
HETATM    9  N9  UNL     1     -33.158  18.544   1.134  1.00 20.00    -0.263 NA
HETATM   10 BR10 UNL     1     -37.152  18.469   1.801  1.00 20.00    -0.053 Br
ENDROOT
TORSDOF 0
ENDMDL
