MODEL 1
REMARK VINA RESULT:      -5.1      0.000      0.000
REMARK  2 active torsions:
REMARK  status: ('A' for Active; 'I' for Inactive)
REMARK    1  A    between atoms: C7_7  and  O10_10 
REMARK    2  A    between atoms: C8_8  and  O10_10 
ROOT
HETATM    1  C1  UNL     1     -33.573   5.807   3.278  1.00 20.00     0.155 C 
HETATM    2  C2  UNL     1     -34.360   5.837   4.599  1.00 20.00     0.084 C 
HETATM    3  C3  UNL     1     -33.819   7.271   4.803  1.00 20.00     0.047 C 
HETATM    4  C7  UNL     1     -33.295   7.321   3.344  1.00 20.00     0.191 C 
HETATM    5  O9  UNL     1     -33.279   4.930   2.495  1.00 20.00    -0.295 OA
ENDROOT
BRANCH   4   6
HETATM    6  O10 UNL     1     -31.930   7.657   3.176  1.00 20.00    -0.373 OA
BRANCH   6   7
HETATM    7  C8  UNL     1     -31.786   8.811   2.332  1.00 20.00     0.122 C 
HETATM    8  C5  UNL     1     -31.426   8.525   0.855  1.00 20.00     0.032 C 
HETATM    9  C4  UNL     1     -32.374   9.676   0.468  1.00 20.00     0.005 C 
HETATM   10  C6  UNL     1     -33.099   9.438   1.806  1.00 20.00     0.032 C 
ENDBRANCH   6   7
ENDBRANCH   4   6
TORSDOF 2
ENDMDL
MODEL 2
REMARK VINA RESULT:      -5.1      0.753      1.229
REMARK  2 active torsions:
REMARK  status: ('A' for Active; 'I' for Inactive)
REMARK    1  A    between atoms: C7_7  and  O10_10 
REMARK    2  A    between atoms: C8_8  and  O10_10 
ROOT
HETATM    1  C1  UNL     1     -33.985   5.854   4.109  1.00 20.00     0.155 C 
HETATM    2  C2  UNL     1     -34.264   6.007   5.614  1.00 20.00     0.084 C 
HETATM    3  C3  UNL     1     -33.684   7.436   5.501  1.00 20.00     0.047 C 
HETATM    4  C7  UNL     1     -33.699   7.360   3.951  1.00 20.00     0.191 C 
HETATM    5  O9  UNL     1     -33.983   4.912   3.346  1.00 20.00    -0.295 OA
ENDROOT
BRANCH   4   6
HETATM    6  O10 UNL     1     -32.477   7.641   3.295  1.00 20.00    -0.373 OA
BRANCH   6   7
HETATM    7  C8  UNL     1     -32.712   8.194   1.989  1.00 20.00     0.122 C 
HETATM    8  C5  UNL     1     -33.002   9.713   1.942  1.00 20.00     0.032 C 
HETATM    9  C4  UNL     1     -32.163   9.768   0.651  1.00 20.00     0.005 C 
HETATM   10  C6  UNL     1     -31.454   8.490   1.138  1.00 20.00     0.032 C 
ENDBRANCH   6   7
ENDBRANCH   4   6
TORSDOF 2
ENDMDL
MODEL 3
REMARK VINA RESULT:      -5.0      1.118      4.463
REMARK  2 active torsions:
REMARK  status: ('A' for Active; 'I' for Inactive)
REMARK    1  A    between atoms: C7_7  and  O10_10 
REMARK    2  A    between atoms: C8_8  and  O10_10 
ROOT
HETATM    1  C1  UNL     1     -31.793   8.284   2.916  1.00 20.00     0.155 C 
HETATM    2  C2  UNL     1     -31.756   9.034   1.574  1.00 20.00     0.084 C 
HETATM    3  C3  UNL     1     -33.004   8.217   1.166  1.00 20.00     0.047 C 
HETATM    4  C7  UNL     1     -33.193   7.710   2.620  1.00 20.00     0.191 C 
HETATM    5  O9  UNL     1     -31.019   8.179   3.843  1.00 20.00    -0.295 OA
ENDROOT
BRANCH   4   6
HETATM    6  O10 UNL     1     -33.280   6.308   2.792  1.00 20.00    -0.373 OA
BRANCH   6   7
HETATM    7  C8  UNL     1     -34.322   5.969   3.723  1.00 20.00     0.122 C 
HETATM    8  C5  UNL     1     -34.288   4.524   4.276  1.00 20.00     0.032 C 
HETATM    9  C4  UNL     1     -34.718   5.104   5.637  1.00 20.00     0.005 C 
HETATM   10  C6  UNL     1     -34.113   6.445   5.180  1.00 20.00     0.032 C 
ENDBRANCH   6   7
ENDBRANCH   4   6
TORSDOF 2
ENDMDL
MODEL 4
REMARK VINA RESULT:      -5.0      1.598      4.273
REMARK  2 active torsions:
REMARK  status: ('A' for Active; 'I' for Inactive)
REMARK    1  A    between atoms: C7_7  and  O10_10 
REMARK    2  A    between atoms: C8_8  and  O10_10 
ROOT
HETATM    1  C1  UNL     1     -32.544   8.389   1.882  1.00 20.00     0.155 C 
HETATM    2  C2  UNL     1     -31.261   8.880   2.574  1.00 20.00     0.084 C 
HETATM    3  C3  UNL     1     -31.682   8.029   3.794  1.00 20.00     0.047 C 
HETATM    4  C7  UNL     1     -32.789   7.324   2.968  1.00 20.00     0.191 C 
HETATM    5  O9  UNL     1     -33.136   8.719   0.876  1.00 20.00    -0.295 OA
ENDROOT
BRANCH   4   6
HETATM    6  O10 UNL     1     -34.097   7.356   3.511  1.00 20.00    -0.373 OA
BRANCH   6   7
HETATM    7  C8  UNL     1     -34.630   6.027   3.640  1.00 20.00     0.122 C 
HETATM    8  C5  UNL     1     -33.666   4.875   3.271  1.00 20.00     0.032 C 
HETATM    9  C4  UNL     1     -34.260   4.085   4.453  1.00 20.00     0.005 C 
HETATM   10  C6  UNL     1     -34.653   5.440   5.072  1.00 20.00     0.032 C 
ENDBRANCH   6   7
ENDBRANCH   4   6
TORSDOF 2
ENDMDL
MODEL 5
REMARK VINA RESULT:      -4.9      1.525      2.227
REMARK  2 active torsions:
REMARK  status: ('A' for Active; 'I' for Inactive)
REMARK    1  A    between atoms: C7_7  and  O10_10 
REMARK    2  A    between atoms: C8_8  and  O10_10 
ROOT
HETATM    1  C1  UNL     1     -33.915   6.713   5.507  1.00 20.00     0.155 C 
HETATM    2  C2  UNL     1     -34.754   5.427   5.590  1.00 20.00     0.084 C 
HETATM    3  C3  UNL     1     -34.659   5.352   4.048  1.00 20.00     0.047 C 
HETATM    4  C7  UNL     1     -33.575   6.461   4.024  1.00 20.00     0.191 C 
HETATM    5  O9  UNL     1     -33.636   7.587   6.298  1.00 20.00    -0.295 OA
ENDROOT
BRANCH   4   6
HETATM    6  O10 UNL     1     -33.829   7.573   3.186  1.00 20.00    -0.373 OA
BRANCH   6   7
HETATM    7  C8  UNL     1     -32.825   7.685   2.164  1.00 20.00     0.122 C 
HETATM    8  C5  UNL     1     -33.039   8.816   1.130  1.00 20.00     0.032 C 
HETATM    9  C4  UNL     1     -31.516   9.048   1.165  1.00 20.00     0.005 C 
HETATM   10  C6  UNL     1     -31.520   8.412   2.568  1.00 20.00     0.032 C 
ENDBRANCH   6   7
ENDBRANCH   4   6
TORSDOF 2
ENDMDL
MODEL 6
REMARK VINA RESULT:      -4.4      1.306      4.249
REMARK  2 active torsions:
REMARK  status: ('A' for Active; 'I' for Inactive)
REMARK    1  A    between atoms: C7_7  and  O10_10 
REMARK    2  A    between atoms: C8_8  and  O10_10 
ROOT
HETATM    1  C1  UNL     1     -31.745   8.973   0.918  1.00 20.00     0.155 C 
HETATM    2  C2  UNL     1     -32.435  10.339   0.757  1.00 20.00     0.084 C 
HETATM    3  C3  UNL     1     -33.466   9.859   1.805  1.00 20.00     0.047 C 
HETATM    4  C7  UNL     1     -32.586   8.633   2.165  1.00 20.00     0.191 C 
HETATM    5  O9  UNL     1     -30.882   8.390   0.300  1.00 20.00    -0.295 OA
ENDROOT
BRANCH   4   6
HETATM    6  O10 UNL     1     -33.214   7.366   2.098  1.00 20.00    -0.373 OA
BRANCH   6   7
HETATM    7  C8  UNL     1     -33.164   6.702   3.372  1.00 20.00     0.122 C 
HETATM    8  C5  UNL     1     -33.119   7.626   4.613  1.00 20.00     0.032 C 
HETATM    9  C4  UNL     1     -34.049   6.620   5.317  1.00 20.00     0.005 C 
HETATM   10  C6  UNL     1     -34.513   6.174   3.917  1.00 20.00     0.032 C 
ENDBRANCH   6   7
ENDBRANCH   4   6
TORSDOF 2
ENDMDL
MODEL 7
REMARK VINA RESULT:      -4.2     10.435     11.150
REMARK  2 active torsions:
REMARK  status: ('A' for Active; 'I' for Inactive)
REMARK    1  A    between atoms: C7_7  and  O10_10 
REMARK    2  A    between atoms: C8_8  and  O10_10 
ROOT
HETATM    1  C1  UNL     1     -35.193  13.542  -5.783  1.00 20.00     0.155 C 
HETATM    2  C2  UNL     1     -34.590  13.682  -7.192  1.00 20.00     0.084 C 
HETATM    3  C3  UNL     1     -33.987  15.026  -6.719  1.00 20.00     0.047 C 
HETATM    4  C7  UNL     1     -34.346  14.711  -5.244  1.00 20.00     0.191 C 
HETATM    5  O9  UNL     1     -36.020  12.803  -5.293  1.00 20.00    -0.295 OA
ENDROOT
BRANCH   4   6
HETATM    6  O10 UNL     1     -35.102  15.691  -4.557  1.00 20.00    -0.373 OA
BRANCH   6   7
HETATM    7  C8  UNL     1     -34.710  15.767  -3.176  1.00 20.00     0.122 C 
HETATM    8  C5  UNL     1     -33.552  16.743  -2.857  1.00 20.00     0.032 C 
HETATM    9  C4  UNL     1     -34.304  17.109  -1.563  1.00 20.00     0.005 C 
HETATM   10  C6  UNL     1     -35.596  16.647  -2.263  1.00 20.00     0.032 C 
ENDBRANCH   6   7
ENDBRANCH   4   6
TORSDOF 2
ENDMDL
MODEL 8
REMARK VINA RESULT:      -4.1     10.550     11.471
REMARK  2 active torsions:
REMARK  status: ('A' for Active; 'I' for Inactive)
REMARK    1  A    between atoms: C7_7  and  O10_10 
REMARK    2  A    between atoms: C8_8  and  O10_10 
ROOT
HETATM    1  C1  UNL     1     -35.262  13.527  -5.896  1.00 20.00     0.155 C 
HETATM    2  C2  UNL     1     -34.639  13.415  -7.298  1.00 20.00     0.084 C 
HETATM    3  C3  UNL     1     -34.299  14.919  -7.187  1.00 20.00     0.047 C 
HETATM    4  C7  UNL     1     -34.654  14.927  -5.677  1.00 20.00     0.191 C 
HETATM    5  O9  UNL     1     -35.965  12.800  -5.228  1.00 20.00    -0.295 OA
ENDROOT
BRANCH   4   6
HETATM    6  O10 UNL     1     -35.596  15.896  -5.256  1.00 20.00    -0.373 OA
BRANCH   6   7
HETATM    7  C8  UNL     1     -35.056  16.712  -4.203  1.00 20.00     0.122 C 
HETATM    8  C5  UNL     1     -35.515  16.352  -2.770  1.00 20.00     0.032 C 
HETATM    9  C4  UNL     1     -34.079  16.661  -2.302  1.00 20.00     0.005 C 
HETATM   10  C6  UNL     1     -33.620  16.366  -3.743  1.00 20.00     0.032 C 
ENDBRANCH   6   7
ENDBRANCH   4   6
TORSDOF 2
ENDMDL
MODEL 9
REMARK VINA RESULT:      -4.0     10.510     11.364
REMARK  2 active torsions:
REMARK  status: ('A' for Active; 'I' for Inactive)
REMARK    1  A    between atoms: C7_7  and  O10_10 
REMARK    2  A    between atoms: C8_8  and  O10_10 
ROOT
HETATM    1  C1  UNL     1     -36.047  13.805  -5.662  1.00 20.00     0.155 C 
HETATM    2  C2  UNL     1     -36.682  14.336  -6.959  1.00 20.00     0.084 C 
HETATM    3  C3  UNL     1     -36.595  15.749  -6.337  1.00 20.00     0.047 C 
HETATM    4  C7  UNL     1     -35.690  15.228  -5.189  1.00 20.00     0.191 C 
HETATM    5  O9  UNL     1     -35.894  12.698  -5.192  1.00 20.00    -0.295 OA
ENDROOT
BRANCH   4   6
HETATM    6  O10 UNL     1     -36.120  15.513  -3.870  1.00 20.00    -0.373 OA
BRANCH   6   7
HETATM    7  C8  UNL     1     -35.355  16.591  -3.304  1.00 20.00     0.122 C 
HETATM    8  C5  UNL     1     -35.435  16.737  -1.765  1.00 20.00     0.032 C 
HETATM    9  C4  UNL     1     -33.936  17.095  -1.787  1.00 20.00     0.005 C 
HETATM   10  C6  UNL     1     -33.842  16.327  -3.119  1.00 20.00     0.032 C 
ENDBRANCH   6   7
ENDBRANCH   4   6
TORSDOF 2
ENDMDL
