MODEL 1
REMARK VINA RESULT:      -5.3      0.000      0.000
REMARK  1 active torsions:
REMARK  status: ('A' for Active; 'I' for Inactive)
REMARK    1  A    between atoms: C1_1  and  C2_2 
ROOT
HETATM    1  C2  UNL     1     -34.408   5.801   3.925  1.00 20.00     0.285 C 
HETATM    2  F3  UNL     1     -35.637   5.920   3.351  1.00 20.00    -0.204 F 
HETATM    3 CL6  UNL     1     -34.572   4.816   5.410  1.00 20.00    -0.063 Cl
HETATM    4 CL7  UNL     1     -33.344   4.907   2.798  1.00 20.00    -0.063 Cl
ENDROOT
BRANCH   1   5
HETATM    5  C1  UNL     1     -33.850   7.195   4.235  1.00 20.00     0.249 C 
HETATM    6 CL4  UNL     1     -32.313   7.499   3.364  1.00 20.00    -0.102 Cl
HETATM    7 CL5  UNL     1     -33.522   7.400   5.985  1.00 20.00    -0.102 Cl
ENDBRANCH   1   5
TORSDOF 1
ENDMDL
MODEL 2
REMARK VINA RESULT:      -5.1      0.864      2.103
REMARK  1 active torsions:
REMARK  status: ('A' for Active; 'I' for Inactive)
REMARK    1  A    between atoms: C1_1  and  C2_2 
ROOT
HETATM    1  C2  UNL     1     -34.568   5.808   4.207  1.00 20.00     0.285 C 
HETATM    2  F3  UNL     1     -35.883   6.000   3.910  1.00 20.00    -0.204 F 
HETATM    3 CL6  UNL     1     -34.137   6.884   5.570  1.00 20.00    -0.063 Cl
HETATM    4 CL7  UNL     1     -34.357   4.120   4.763  1.00 20.00    -0.063 Cl
ENDROOT
BRANCH   1   5
HETATM    5  C1  UNL     1     -33.715   6.101   2.968  1.00 20.00     0.249 C 
HETATM    6 CL4  UNL     1     -32.836   4.641   2.412  1.00 20.00    -0.102 Cl
HETATM    7 CL5  UNL     1     -32.490   7.368   3.296  1.00 20.00    -0.102 Cl
ENDBRANCH   1   5
TORSDOF 1
ENDMDL
MODEL 3
REMARK VINA RESULT:      -4.8      0.909      2.408
REMARK  1 active torsions:
REMARK  status: ('A' for Active; 'I' for Inactive)
REMARK    1  A    between atoms: C1_1  and  C2_2 
ROOT
HETATM    1  C2  UNL     1     -33.869   6.102   3.080  1.00 20.00     0.285 C 
HETATM    2  F3  UNL     1     -34.809   6.199   2.099  1.00 20.00    -0.204 F 
HETATM    3 CL6  UNL     1     -32.882   4.642   2.770  1.00 20.00    -0.063 Cl
HETATM    4 CL7  UNL     1     -32.785   7.522   2.964  1.00 20.00    -0.063 Cl
ENDROOT
BRANCH   1   5
HETATM    5  C1  UNL     1     -34.560   6.034   4.446  1.00 20.00     0.249 C 
HETATM    6 CL4  UNL     1     -33.788   7.136   5.631  1.00 20.00    -0.102 Cl
HETATM    7 CL5  UNL     1     -34.496   4.381   5.136  1.00 20.00    -0.102 Cl
ENDBRANCH   1   5
TORSDOF 1
ENDMDL
MODEL 4
REMARK VINA RESULT:      -4.6      0.922      3.301
REMARK  1 active torsions:
REMARK  status: ('A' for Active; 'I' for Inactive)
REMARK    1  A    between atoms: C1_1  and  C2_2 
ROOT
HETATM    1  C2  UNL     1     -33.728   7.089   4.074  1.00 20.00     0.285 C 
HETATM    2  F3  UNL     1     -34.615   8.027   3.644  1.00 20.00    -0.204 F 
HETATM    3 CL6  UNL     1     -32.144   7.420   3.310  1.00 20.00    -0.063 Cl
HETATM    4 CL7  UNL     1     -33.524   7.274   5.843  1.00 20.00    -0.063 Cl
ENDROOT
BRANCH   1   5
HETATM    5  C1  UNL     1     -34.244   5.691   3.713  1.00 20.00     0.249 C 
HETATM    6 CL4  UNL     1     -34.552   4.704   5.176  1.00 20.00    -0.102 Cl
HETATM    7 CL5  UNL     1     -33.067   4.794   2.702  1.00 20.00    -0.102 Cl
ENDBRANCH   1   5
TORSDOF 1
ENDMDL
MODEL 5
REMARK VINA RESULT:      -4.6      0.886      2.319
REMARK  1 active torsions:
REMARK  status: ('A' for Active; 'I' for Inactive)
REMARK    1  A    between atoms: C1_1  and  C2_2 
ROOT
HETATM    1  C2  UNL     1     -34.227   6.082   4.420  1.00 20.00     0.285 C 
HETATM    2  F3  UNL     1     -35.332   6.495   3.739  1.00 20.00    -0.204 F 
HETATM    3 CL6  UNL     1     -34.009   7.149   5.840  1.00 20.00    -0.063 Cl
HETATM    4 CL7  UNL     1     -34.526   4.426   5.028  1.00 20.00    -0.063 Cl
ENDROOT
BRANCH   1   5
HETATM    5  C1  UNL     1     -33.007   6.128   3.492  1.00 20.00     0.249 C 
HETATM    6 CL4  UNL     1     -33.020   7.591   2.456  1.00 20.00    -0.102 Cl
HETATM    7 CL5  UNL     1     -32.953   4.704   2.404  1.00 20.00    -0.102 Cl
ENDBRANCH   1   5
TORSDOF 1
ENDMDL
MODEL 6
REMARK VINA RESULT:      -4.4      0.757      2.398
REMARK  1 active torsions:
REMARK  status: ('A' for Active; 'I' for Inactive)
REMARK    1  A    between atoms: C1_1  and  C2_2 
ROOT
HETATM    1  C2  UNL     1     -33.795   6.120   3.466  1.00 20.00     0.285 C 
HETATM    2  F3  UNL     1     -35.121   6.140   3.156  1.00 20.00    -0.204 F 
HETATM    3 CL6  UNL     1     -33.027   4.779   2.563  1.00 20.00    -0.063 Cl
HETATM    4 CL7  UNL     1     -33.060   7.648   2.893  1.00 20.00    -0.063 Cl
ENDROOT
BRANCH   1   5
HETATM    5  C1  UNL     1     -33.625   5.948   4.979  1.00 20.00     0.249 C 
HETATM    6 CL4  UNL     1     -34.842   4.819   5.655  1.00 20.00    -0.102 Cl
HETATM    7 CL5  UNL     1     -33.806   7.507   5.844  1.00 20.00    -0.102 Cl
ENDBRANCH   1   5
TORSDOF 1
ENDMDL
MODEL 7
REMARK VINA RESULT:      -4.4      0.625      1.645
REMARK  1 active torsions:
REMARK  status: ('A' for Active; 'I' for Inactive)
REMARK    1  A    between atoms: C1_1  and  C2_2 
ROOT
HETATM    1  C2  UNL     1     -34.057   5.578   3.754  1.00 20.00     0.285 C 
HETATM    2  F3  UNL     1     -35.181   6.048   3.145  1.00 20.00    -0.204 F 
HETATM    3 CL6  UNL     1     -34.551   4.544   5.128  1.00 20.00    -0.063 Cl
HETATM    4 CL7  UNL     1     -33.175   4.545   2.588  1.00 20.00    -0.063 Cl
ENDROOT
BRANCH   1   5
HETATM    5  C1  UNL     1     -33.196   6.758   4.220  1.00 20.00     0.249 C 
HETATM    6 CL4  UNL     1     -33.841   7.492   5.722  1.00 20.00    -0.102 Cl
HETATM    7 CL5  UNL     1     -33.124   8.052   2.982  1.00 20.00    -0.102 Cl
ENDBRANCH   1   5
TORSDOF 1
ENDMDL
MODEL 8
REMARK VINA RESULT:      -4.3      1.352      1.752
REMARK  1 active torsions:
REMARK  status: ('A' for Active; 'I' for Inactive)
REMARK    1  A    between atoms: C1_1  and  C2_2 
ROOT
HETATM    1  C2  UNL     1     -34.370   5.854   4.062  1.00 20.00     0.285 C 
HETATM    2  F3  UNL     1     -33.612   5.144   3.182  1.00 20.00    -0.204 F 
HETATM    3 CL6  UNL     1     -36.025   5.994   3.393  1.00 20.00    -0.063 Cl
HETATM    4 CL7  UNL     1     -34.481   4.925   5.588  1.00 20.00    -0.063 Cl
ENDROOT
BRANCH   1   5
HETATM    5  C1  UNL     1     -33.738   7.232   4.289  1.00 20.00     0.249 C 
HETATM    6 CL4  UNL     1     -32.222   7.424   3.352  1.00 20.00    -0.102 Cl
HETATM    7 CL5  UNL     1     -33.335   7.497   6.015  1.00 20.00    -0.102 Cl
ENDBRANCH   1   5
TORSDOF 1
ENDMDL
MODEL 9
REMARK VINA RESULT:      -4.2      1.451      2.607
REMARK  1 active torsions:
REMARK  status: ('A' for Active; 'I' for Inactive)
REMARK    1  A    between atoms: C1_1  and  C2_2 
ROOT
HETATM    1  C2  UNL     1     -33.632   6.034   3.297  1.00 20.00     0.285 C 
HETATM    2  F3  UNL     1     -33.037   4.810   3.242  1.00 20.00    -0.204 F 
HETATM    3 CL6  UNL     1     -32.359   7.285   3.164  1.00 20.00    -0.063 Cl
HETATM    4 CL7  UNL     1     -34.706   6.202   1.876  1.00 20.00    -0.063 Cl
ENDROOT
BRANCH   1   5
HETATM    5  C1  UNL     1     -34.413   6.164   4.609  1.00 20.00     0.249 C 
HETATM    6 CL4  UNL     1     -33.624   7.315   5.735  1.00 20.00    -0.102 Cl
HETATM    7 CL5  UNL     1     -34.543   4.592   5.459  1.00 20.00    -0.102 Cl
ENDBRANCH   1   5
TORSDOF 1
ENDMDL
