MODEL 1
REMARK VINA RESULT:      -5.6      0.000      0.000
REMARK  0 active torsions:
REMARK  status: ('A' for Active; 'I' for Inactive)
ROOT
HETATM    1  C1  UNL     1     -33.141   7.587   3.479  1.00 20.00     0.124 C 
HETATM    2  C2  UNL     1     -33.930   5.537   3.710  1.00 20.00     0.044 C 
HETATM    3  C3  UNL     1     -34.482   4.419   4.506  1.00 20.00     0.057 C 
HETATM    4  C4  UNL     1     -34.735   5.161   5.831  1.00 20.00     0.007 C 
HETATM    5  C5  UNL     1     -34.018   6.525   5.722  1.00 20.00     0.016 C 
HETATM    6  C6  UNL     1     -34.184   6.884   4.264  1.00 20.00     0.077 C 
HETATM    7  N7  UNL     1     -32.604   6.845   2.561  1.00 20.00    -0.166 NA
HETATM    8  N8  UNL     1     -33.116   5.507   2.708  1.00 20.00    -0.159 NA
ENDROOT
TORSDOF 0
ENDMDL
MODEL 2
REMARK VINA RESULT:      -5.3      1.884      3.317
REMARK  0 active torsions:
REMARK  status: ('A' for Active; 'I' for Inactive)
ROOT
HETATM    1  C1  UNL     1     -34.750   4.651   4.706  1.00 20.00     0.124 C 
HETATM    2  C2  UNL     1     -33.913   6.690   4.568  1.00 20.00     0.044 C 
HETATM    3  C3  UNL     1     -33.086   7.736   3.925  1.00 20.00     0.057 C 
HETATM    4  C4  UNL     1     -32.763   7.016   2.604  1.00 20.00     0.007 C 
HETATM    5  C5  UNL     1     -33.188   5.541   2.784  1.00 20.00     0.016 C 
HETATM    6  C6  UNL     1     -34.418   5.644   3.655  1.00 20.00     0.077 C 
HETATM    7  N7  UNL     1     -34.658   5.129   5.908  1.00 20.00    -0.166 NA
HETATM    8  N8  UNL     1     -34.113   6.459   5.823  1.00 20.00    -0.159 NA
ENDROOT
TORSDOF 0
ENDMDL
MODEL 3
REMARK VINA RESULT:      -5.2      1.111      1.692
REMARK  0 active torsions:
REMARK  status: ('A' for Active; 'I' for Inactive)
ROOT
HETATM    1  C1  UNL     1     -33.097   6.039   2.583  1.00 20.00     0.124 C 
HETATM    2  C2  UNL     1     -34.192   5.521   4.430  1.00 20.00     0.044 C 
HETATM    3  C3  UNL     1     -34.588   5.752   5.837  1.00 20.00     0.057 C 
HETATM    4  C4  UNL     1     -34.011   7.166   6.026  1.00 20.00     0.007 C 
HETATM    5  C5  UNL     1     -33.097   7.441   4.810  1.00 20.00     0.016 C 
HETATM    6  C6  UNL     1     -33.810   6.736   3.680  1.00 20.00     0.077 C 
HETATM    7  N7  UNL     1     -33.248   4.751   2.612  1.00 20.00    -0.166 NA
HETATM    8  N8  UNL     1     -33.961   4.409   3.815  1.00 20.00    -0.159 NA
ENDROOT
TORSDOF 0
ENDMDL
MODEL 4
REMARK VINA RESULT:      -4.8      1.059      1.922
REMARK  0 active torsions:
REMARK  status: ('A' for Active; 'I' for Inactive)
ROOT
HETATM    1  C1  UNL     1     -33.422   6.153   2.401  1.00 20.00     0.124 C 
HETATM    2  C2  UNL     1     -33.269   7.017   4.428  1.00 20.00     0.044 C 
HETATM    3  C3  UNL     1     -33.707   7.170   5.833  1.00 20.00     0.057 C 
HETATM    4  C4  UNL     1     -34.717   6.010   5.903  1.00 20.00     0.007 C 
HETATM    5  C5  UNL     1     -34.953   5.536   4.451  1.00 20.00     0.016 C 
HETATM    6  C6  UNL     1     -33.598   5.717   3.808  1.00 20.00     0.077 C 
HETATM    7  N7  UNL     1     -32.905   7.337   2.294  1.00 20.00    -0.166 NA
HETATM    8  N8  UNL     1     -32.804   7.905   3.613  1.00 20.00    -0.159 NA
ENDROOT
TORSDOF 0
ENDMDL
MODEL 5
REMARK VINA RESULT:      -4.3      1.715      2.837
REMARK  0 active torsions:
REMARK  status: ('A' for Active; 'I' for Inactive)
ROOT
HETATM    1  C1  UNL     1     -34.473   6.117   5.836  1.00 20.00     0.124 C 
HETATM    2  C2  UNL     1     -33.678   5.326   3.933  1.00 20.00     0.044 C 
HETATM    3  C3  UNL     1     -33.173   5.477   2.551  1.00 20.00     0.057 C 
HETATM    4  C4  UNL     1     -33.028   7.009   2.508  1.00 20.00     0.007 C 
HETATM    5  C5  UNL     1     -33.752   7.561   3.756  1.00 20.00     0.016 C 
HETATM    6  C6  UNL     1     -33.482   6.505   4.803  1.00 20.00     0.077 C 
HETATM    7  N7  UNL     1     -34.931   4.915   5.680  1.00 20.00    -0.166 NA
HETATM    8  N8  UNL     1     -34.415   4.394   4.440  1.00 20.00    -0.159 NA
ENDROOT
TORSDOF 0
ENDMDL
MODEL 6
REMARK VINA RESULT:      -4.2     11.958     12.889
REMARK  0 active torsions:
REMARK  status: ('A' for Active; 'I' for Inactive)
ROOT
HETATM    1  C1  UNL     1     -34.505  13.587  -7.153  1.00 20.00     0.124 C 
HETATM    2  C2  UNL     1     -35.046  14.148  -5.086  1.00 20.00     0.044 C 
HETATM    3  C3  UNL     1     -34.831  14.882  -3.820  1.00 20.00     0.057 C 
HETATM    4  C4  UNL     1     -33.703  15.827  -4.272  1.00 20.00     0.007 C 
HETATM    5  C5  UNL     1     -33.209  15.308  -5.642  1.00 20.00     0.016 C 
HETATM    6  C6  UNL     1     -34.473  14.791  -6.287  1.00 20.00     0.077 C 
HETATM    7  N7  UNL     1     -35.146  12.592  -6.623  1.00 20.00    -0.166 NA
HETATM    8  N8  UNL     1     -35.501  12.954  -5.274  1.00 20.00    -0.159 NA
ENDROOT
TORSDOF 0
ENDMDL
MODEL 7
REMARK VINA RESULT:      -4.2     12.055     13.580
REMARK  0 active torsions:
REMARK  status: ('A' for Active; 'I' for Inactive)
ROOT
HETATM    1  C1  UNL     1     -35.553  14.002  -4.742  1.00 20.00     0.124 C 
HETATM    2  C2  UNL     1     -34.512  13.759  -6.675  1.00 20.00     0.044 C 
HETATM    3  C3  UNL     1     -33.899  14.279  -7.917  1.00 20.00     0.057 C 
HETATM    4  C4  UNL     1     -33.900  15.782  -7.581  1.00 20.00     0.007 C 
HETATM    5  C5  UNL     1     -34.787  15.958  -6.328  1.00 20.00     0.016 C 
HETATM    6  C6  UNL     1     -34.513  14.701  -5.536  1.00 20.00     0.077 C 
HETATM    7  N7  UNL     1     -35.875  12.844  -5.228  1.00 20.00    -0.166 NA
HETATM    8  N8  UNL     1     -35.199  12.681  -6.489  1.00 20.00    -0.159 NA
ENDROOT
TORSDOF 0
ENDMDL
MODEL 8
REMARK VINA RESULT:      -4.0      9.446      9.682
REMARK  0 active torsions:
REMARK  status: ('A' for Active; 'I' for Inactive)
ROOT
HETATM    1  C1  UNL     1     -41.182   8.290  -0.984  1.00 20.00     0.124 C 
HETATM    2  C2  UNL     1     -42.842   7.106  -0.136  1.00 20.00     0.044 C 
HETATM    3  C3  UNL     1     -43.415   5.885   0.472  1.00 20.00     0.057 C 
HETATM    4  C4  UNL     1     -42.111   5.118   0.757  1.00 20.00     0.007 C 
HETATM    5  C5  UNL     1     -40.984   5.859   0.003  1.00 20.00     0.016 C 
HETATM    6  C6  UNL     1     -41.398   7.308   0.105  1.00 20.00     0.077 C 
HETATM    7  N7  UNL     1     -42.284   8.693  -1.537  1.00 20.00    -0.166 NA
HETATM    8  N8  UNL     1     -43.370   7.923  -0.987  1.00 20.00    -0.159 NA
ENDROOT
TORSDOF 0
ENDMDL
MODEL 9
REMARK VINA RESULT:      -4.0     12.778     13.192
REMARK  0 active torsions:
REMARK  status: ('A' for Active; 'I' for Inactive)
ROOT
HETATM    1  C1  UNL     1     -32.122  19.171   1.382  1.00 20.00     0.124 C 
HETATM    2  C2  UNL     1     -32.372  18.322  -0.642  1.00 20.00     0.044 C 
HETATM    3  C3  UNL     1     -33.150  17.639  -1.698  1.00 20.00     0.057 C 
HETATM    4  C4  UNL     1     -34.540  17.668  -1.038  1.00 20.00     0.007 C 
HETATM    5  C5  UNL     1     -34.326  18.088   0.434  1.00 20.00     0.016 C 
HETATM    6  C6  UNL     1     -33.179  19.067   0.347  1.00 20.00     0.077 C 
HETATM    7  N7  UNL     1     -30.959  18.776   0.967  1.00 20.00    -0.166 NA
HETATM    8  N8  UNL     1     -31.117  18.221  -0.353  1.00 20.00    -0.159 NA
ENDROOT
TORSDOF 0
ENDMDL
