MODEL 1
REMARK VINA RESULT:      -5.8      0.000      0.000
REMARK  1 active torsions:
REMARK  status: ('A' for Active; 'I' for Inactive)
REMARK    1  A    between atoms: C5_5  and  C7_7 
ROOT
HETATM    1  C1  UNL     1     -32.845   7.915   4.226  1.00 20.00     0.071 A 
HETATM    2  C2  UNL     1     -33.803   5.556   3.243  1.00 20.00     0.126 A 
HETATM    3  C3  UNL     1     -34.087   5.882   4.560  1.00 20.00    -0.006 A 
HETATM    4  C4  UNL     1     -33.595   7.085   5.052  1.00 20.00     0.125 A 
HETATM    5  C5  UNL     1     -32.617   7.497   2.924  1.00 20.00     0.051 A 
HETATM    6  C6  UNL     1     -34.891   4.971   5.417  1.00 20.00     0.053 C 
HETATM    7  N8  UNL     1     -33.078   6.335   2.410  1.00 20.00    -0.264 NA
HETATM    8  F9  UNL     1     -33.839   7.454   6.318  1.00 20.00    -0.205 F 
ENDROOT
BRANCH   5   9
HETATM    9  C7  UNL     1     -31.816   8.363   2.009  1.00 20.00     0.173 C 
HETATM   10 CL10 UNL     1     -32.799   9.713   1.401  1.00 20.00    -0.124 Cl
ENDBRANCH   5   9
TORSDOF 1
ENDMDL
MODEL 2
REMARK VINA RESULT:      -5.3      1.697      2.093
REMARK  1 active torsions:
REMARK  status: ('A' for Active; 'I' for Inactive)
REMARK    1  A    between atoms: C5_5  and  C7_7 
ROOT
HETATM    1  C1  UNL     1     -32.960   6.146   2.651  1.00 20.00     0.071 A 
HETATM    2  C2  UNL     1     -33.605   7.210   5.080  1.00 20.00     0.126 A 
HETATM    3  C3  UNL     1     -34.013   5.915   4.801  1.00 20.00    -0.006 A 
HETATM    4  C4  UNL     1     -33.681   5.381   3.562  1.00 20.00     0.125 A 
HETATM    5  C5  UNL     1     -32.599   7.431   3.026  1.00 20.00     0.051 A 
HETATM    6  C6  UNL     1     -34.783   5.126   5.799  1.00 20.00     0.053 C 
HETATM    7  N8  UNL     1     -32.903   7.984   4.221  1.00 20.00    -0.264 NA
HETATM    8  F9  UNL     1     -34.048   4.134   3.237  1.00 20.00    -0.205 F 
ENDROOT
BRANCH   5   9
HETATM    9  C7  UNL     1     -31.825   8.279   2.073  1.00 20.00     0.173 C 
HETATM   10 CL10 UNL     1     -32.847   9.575   1.413  1.00 20.00    -0.124 Cl
ENDBRANCH   5   9
TORSDOF 1
ENDMDL
MODEL 3
REMARK VINA RESULT:      -4.5      2.693      3.936
REMARK  1 active torsions:
REMARK  status: ('A' for Active; 'I' for Inactive)
REMARK    1  A    between atoms: C5_5  and  C7_7 
ROOT
HETATM    1  C1  UNL     1     -32.813   7.614   4.856  1.00 20.00     0.071 A 
HETATM    2  C2  UNL     1     -33.402   6.886   2.293  1.00 20.00     0.126 A 
HETATM    3  C3  UNL     1     -32.408   7.830   2.495  1.00 20.00    -0.006 A 
HETATM    4  C4  UNL     1     -32.115   8.196   3.804  1.00 20.00     0.125 A 
HETATM    5  C5  UNL     1     -33.789   6.679   4.548  1.00 20.00     0.051 A 
HETATM    6  C6  UNL     1     -31.682   8.433   1.346  1.00 20.00     0.053 C 
HETATM    7  N8  UNL     1     -34.102   6.298   3.289  1.00 20.00    -0.264 NA
HETATM    8  F9  UNL     1     -31.163   9.104   4.061  1.00 20.00    -0.205 F 
ENDROOT
BRANCH   5   9
HETATM    9  C7  UNL     1     -34.558   6.035   5.653  1.00 20.00     0.173 C 
HETATM   10 CL10 UNL     1     -34.627   4.273   5.427  1.00 20.00    -0.124 Cl
ENDBRANCH   5   9
TORSDOF 1
ENDMDL
MODEL 4
REMARK VINA RESULT:      -4.3      3.014      4.308
REMARK  1 active torsions:
REMARK  status: ('A' for Active; 'I' for Inactive)
REMARK    1  A    between atoms: C5_5  and  C7_7 
ROOT
HETATM    1  C1  UNL     1     -33.909   6.716   3.525  1.00 20.00     0.071 A 
HETATM    2  C2  UNL     1     -31.802   8.446   3.637  1.00 20.00     0.126 A 
HETATM    3  C3  UNL     1     -32.239   8.024   2.392  1.00 20.00    -0.006 A 
HETATM    4  C4  UNL     1     -33.312   7.143   2.343  1.00 20.00     0.125 A 
HETATM    5  C5  UNL     1     -33.397   7.197   4.720  1.00 20.00     0.051 A 
HETATM    6  C6  UNL     1     -31.577   8.500   1.148  1.00 20.00     0.053 C 
HETATM    7  N8  UNL     1     -32.356   8.054   4.807  1.00 20.00    -0.264 NA
HETATM    8  F9  UNL     1     -33.779   6.701   1.167  1.00 20.00    -0.205 F 
ENDROOT
BRANCH   5   9
HETATM    9  C7  UNL     1     -34.013   6.759   6.007  1.00 20.00     0.173 C 
HETATM   10 CL10 UNL     1     -34.665   5.112   5.863  1.00 20.00    -0.124 Cl
ENDBRANCH   5   9
TORSDOF 1
ENDMDL
MODEL 5
REMARK VINA RESULT:      -4.3     11.393     12.156
REMARK  1 active torsions:
REMARK  status: ('A' for Active; 'I' for Inactive)
REMARK    1  A    between atoms: C5_5  and  C7_7 
ROOT
HETATM    1  C1  UNL     1     -34.780  14.853  -3.825  1.00 20.00     0.071 A 
HETATM    2  C2  UNL     1     -33.414  15.540  -6.084  1.00 20.00     0.126 A 
HETATM    3  C3  UNL     1     -34.266  14.449  -6.139  1.00 20.00    -0.006 A 
HETATM    4  C4  UNL     1     -34.958  14.105  -4.984  1.00 20.00     0.125 A 
HETATM    5  C5  UNL     1     -33.904  15.926  -3.873  1.00 20.00     0.051 A 
HETATM    6  C6  UNL     1     -34.432  13.672  -7.396  1.00 20.00     0.053 C 
HETATM    7  N8  UNL     1     -33.215  16.291  -4.977  1.00 20.00    -0.264 NA
HETATM    8  F9  UNL     1     -35.797  13.060  -4.978  1.00 20.00    -0.205 F 
ENDROOT
BRANCH   5   9
HETATM    9  C7  UNL     1     -33.690  16.750  -2.648  1.00 20.00     0.173 C 
HETATM   10 CL10 UNL     1     -35.122  16.697  -1.596  1.00 20.00    -0.124 Cl
ENDBRANCH   5   9
TORSDOF 1
ENDMDL
MODEL 6
REMARK VINA RESULT:      -4.1     11.617     11.788
REMARK  1 active torsions:
REMARK  status: ('A' for Active; 'I' for Inactive)
REMARK    1  A    between atoms: C5_5  and  C7_7 
ROOT
HETATM    1  C1  UNL     1     -33.487  16.938  -2.566  1.00 20.00     0.071 A 
HETATM    2  C2  UNL     1     -35.541  17.343  -0.816  1.00 20.00     0.126 A 
HETATM    3  C3  UNL     1     -34.284  17.814  -0.472  1.00 20.00    -0.006 A 
HETATM    4  C4  UNL     1     -33.243  17.603  -1.369  1.00 20.00     0.125 A 
HETATM    5  C5  UNL     1     -34.780  16.506  -2.815  1.00 20.00     0.051 A 
HETATM    6  C6  UNL     1     -34.058  18.521   0.816  1.00 20.00     0.053 C 
HETATM    7  N8  UNL     1     -35.817  16.692  -1.968  1.00 20.00    -0.264 NA
HETATM    8  F9  UNL     1     -32.006  18.037  -1.091  1.00 20.00    -0.205 F 
ENDROOT
BRANCH   5   9
HETATM    9  C7  UNL     1     -35.078  15.788  -4.089  1.00 20.00     0.173 C 
HETATM   10 CL10 UNL     1     -34.392  14.148  -4.062  1.00 20.00    -0.124 Cl
ENDBRANCH   5   9
TORSDOF 1
ENDMDL
MODEL 7
REMARK VINA RESULT:      -4.0     11.878     12.048
REMARK  1 active torsions:
REMARK  status: ('A' for Active; 'I' for Inactive)
REMARK    1  A    between atoms: C5_5  and  C7_7 
ROOT
HETATM    1  C1  UNL     1     -33.877  18.317   0.130  1.00 20.00     0.071 A 
HETATM    2  C2  UNL     1     -31.285  18.723   0.882  1.00 20.00     0.126 A 
HETATM    3  C3  UNL     1     -32.271  18.806   1.853  1.00 20.00    -0.006 A 
HETATM    4  C4  UNL     1     -33.588  18.598   1.461  1.00 20.00     0.125 A 
HETATM    5  C5  UNL     1     -32.819  18.256  -0.763  1.00 20.00     0.051 A 
HETATM    6  C6  UNL     1     -31.927  19.110   3.267  1.00 20.00     0.053 C 
HETATM    7  N8  UNL     1     -31.526  18.452  -0.420  1.00 20.00    -0.264 NA
HETATM    8  F9  UNL     1     -34.584  18.666   2.356  1.00 20.00    -0.205 F 
ENDROOT
BRANCH   5   9
HETATM    9  C7  UNL     1     -33.092  17.956  -2.199  1.00 20.00     0.173 C 
HETATM   10 CL10 UNL     1     -34.250  16.616  -2.352  1.00 20.00    -0.124 Cl
ENDBRANCH   5   9
TORSDOF 1
ENDMDL
MODEL 8
REMARK VINA RESULT:      -4.0     11.516     11.843
REMARK  1 active torsions:
REMARK  status: ('A' for Active; 'I' for Inactive)
REMARK    1  A    between atoms: C5_5  and  C7_7 
ROOT
HETATM    1  C1  UNL     1     -36.210  15.169  -4.203  1.00 20.00     0.071 A 
HETATM    2  C2  UNL     1     -33.501  15.141  -3.876  1.00 20.00     0.126 A 
HETATM    3  C3  UNL     1     -34.238  16.074  -3.165  1.00 20.00    -0.006 A 
HETATM    4  C4  UNL     1     -35.617  16.082  -3.338  1.00 20.00     0.125 A 
HETATM    5  C5  UNL     1     -35.384  14.275  -4.868  1.00 20.00     0.051 A 
HETATM    6  C6  UNL     1     -33.570  17.037  -2.249  1.00 20.00     0.053 C 
HETATM    7  N8  UNL     1     -34.040  14.238  -4.726  1.00 20.00    -0.264 NA
HETATM    8  F9  UNL     1     -36.381  16.962  -2.676  1.00 20.00    -0.205 F 
ENDROOT
BRANCH   5   9
HETATM    9  C7  UNL     1     -35.987  13.282  -5.803  1.00 20.00     0.173 C 
HETATM   10 CL10 UNL     1     -34.969  13.080  -7.247  1.00 20.00    -0.124 Cl
ENDBRANCH   5   9
TORSDOF 1
ENDMDL
MODEL 9
REMARK VINA RESULT:      -3.9     11.411     11.783
REMARK  1 active torsions:
REMARK  status: ('A' for Active; 'I' for Inactive)
REMARK    1  A    between atoms: C5_5  and  C7_7 
ROOT
HETATM    1  C1  UNL     1     -35.424  16.924  -1.227  1.00 20.00     0.071 A 
HETATM    2  C2  UNL     1     -32.894  17.843  -1.674  1.00 20.00     0.126 A 
HETATM    3  C3  UNL     1     -33.495  18.140  -0.461  1.00 20.00    -0.006 A 
HETATM    4  C4  UNL     1     -34.784  17.669  -0.242  1.00 20.00     0.125 A 
HETATM    5  C5  UNL     1     -34.736  16.682  -2.406  1.00 20.00     0.051 A 
HETATM    6  C6  UNL     1     -32.782  18.939   0.570  1.00 20.00     0.053 C 
HETATM    7  N8  UNL     1     -33.483  17.123  -2.655  1.00 20.00    -0.264 NA
HETATM    8  F9  UNL     1     -35.416  17.924   0.912  1.00 20.00    -0.205 F 
ENDROOT
BRANCH   5   9
HETATM    9  C7  UNL     1     -35.393  15.887  -3.485  1.00 20.00     0.173 C 
HETATM   10 CL10 UNL     1     -34.375  14.509  -3.958  1.00 20.00    -0.124 Cl
ENDBRANCH   5   9
TORSDOF 1
ENDMDL
