MODEL 1
REMARK VINA RESULT:      -6.3      0.000      0.000
REMARK  2 active torsions:
REMARK  status: ('A' for Active; 'I' for Inactive)
REMARK    1  A    between atoms: C7_7  and  O10_10 
REMARK    2  A    between atoms: C9_9  and  O10_10 
ROOT
HETATM    1  C1  UNL     1     -32.779   7.992   5.237  1.00 20.00     0.000 C 
HETATM    2  C2  UNL     1     -33.859   7.037   5.315  1.00 20.00     0.022 C 
HETATM    3  C3  UNL     1     -32.083   8.162   4.103  1.00 20.00     0.008 C 
HETATM    4  C4  UNL     1     -34.033   6.120   4.352  1.00 20.00     0.048 C 
HETATM    5  C7  UNL     1     -32.364   7.350   2.869  1.00 20.00     0.184 C 
HETATM    6  C8  UNL     1     -33.130   6.040   3.151  1.00 20.00     0.247 C 
HETATM    7  F11 UNL     1     -33.823   5.697   2.027  1.00 20.00    -0.240 F 
HETATM    8 CL12 UNL     1     -35.294   4.949   4.457  1.00 20.00    -0.086 Cl
ENDROOT
BRANCH   5   9
HETATM    9  O10 UNL     1     -33.122   8.179   1.987  1.00 20.00    -0.373 OA
BRANCH   9  10
HETATM   10  C9  UNL     1     -32.276   8.981   1.179  1.00 20.00     0.122 A 
HETATM   11  C5  UNL     1     -32.870   9.484  -0.106  1.00 20.00     0.034 A 
HETATM   12  C6  UNL     1     -32.666  10.424   1.045  1.00 20.00     0.034 A 
ENDBRANCH   9  10
ENDBRANCH   5   9
TORSDOF 2
ENDMDL
MODEL 2
REMARK VINA RESULT:      -4.8      1.768      2.492
REMARK  2 active torsions:
REMARK  status: ('A' for Active; 'I' for Inactive)
REMARK    1  A    between atoms: C7_7  and  O10_10 
REMARK    2  A    between atoms: C9_9  and  O10_10 
ROOT
HETATM    1  C1  UNL     1     -33.437   4.461   2.604  1.00 20.00     0.000 C 
HETATM    2  C2  UNL     1     -33.865   4.341   3.978  1.00 20.00     0.022 C 
HETATM    3  C3  UNL     1     -33.190   5.660   2.057  1.00 20.00     0.008 C 
HETATM    4  C4  UNL     1     -34.270   5.418   4.666  1.00 20.00     0.048 C 
HETATM    5  C7  UNL     1     -33.374   6.939   2.827  1.00 20.00     0.184 C 
HETATM    6  C8  UNL     1     -34.296   6.794   4.056  1.00 20.00     0.247 C 
HETATM    7  F11 UNL     1     -33.952   7.750   4.966  1.00 20.00    -0.240 F 
HETATM    8 CL12 UNL     1     -34.822   5.278   6.293  1.00 20.00    -0.086 Cl
ENDROOT
BRANCH   5   9
HETATM    9  O10 UNL     1     -32.076   7.369   3.238  1.00 20.00    -0.373 OA
BRANCH   9  10
HETATM   10  C9  UNL     1     -31.754   8.636   2.686  1.00 20.00     0.122 A 
HETATM   11  C5  UNL     1     -31.339   8.644   1.243  1.00 20.00     0.034 A 
HETATM   12  C6  UNL     1     -32.693   9.156   1.637  1.00 20.00     0.034 A 
ENDBRANCH   9  10
ENDBRANCH   5   9
TORSDOF 2
ENDMDL
MODEL 3
REMARK VINA RESULT:      -4.2     10.983     11.410
REMARK  2 active torsions:
REMARK  status: ('A' for Active; 'I' for Inactive)
REMARK    1  A    between atoms: C7_7  and  O10_10 
REMARK    2  A    between atoms: C9_9  and  O10_10 
ROOT
HETATM    1  C1  UNL     1     -34.578  18.547   2.222  1.00 20.00     0.000 C 
HETATM    2  C2  UNL     1     -33.193  18.437   2.618  1.00 20.00     0.022 C 
HETATM    3  C3  UNL     1     -34.924  18.663   0.931  1.00 20.00     0.008 C 
HETATM    4  C4  UNL     1     -32.209  18.701   1.746  1.00 20.00     0.048 C 
HETATM    5  C7  UNL     1     -33.896  18.718  -0.165  1.00 20.00     0.184 C 
HETATM    6  C8  UNL     1     -32.488  19.114   0.326  1.00 20.00     0.247 C 
HETATM    7  F11 UNL     1     -31.569  18.590  -0.535  1.00 20.00    -0.240 F 
HETATM    8 CL12 UNL     1     -30.554  18.614   2.221  1.00 20.00    -0.086 Cl
ENDROOT
BRANCH   5   9
HETATM    9  O10 UNL     1     -33.857  17.423  -0.766  1.00 20.00    -0.373 OA
BRANCH   9  10
HETATM   10  C9  UNL     1     -34.309  17.465  -2.110  1.00 20.00     0.122 A 
HETATM   11  C5  UNL     1     -33.731  16.432  -3.035  1.00 20.00     0.034 A 
HETATM   12  C6  UNL     1     -35.148  16.304  -2.560  1.00 20.00     0.034 A 
ENDBRANCH   9  10
ENDBRANCH   5   9
TORSDOF 2
ENDMDL
MODEL 4
REMARK VINA RESULT:      -4.1     11.232     12.107
REMARK  2 active torsions:
REMARK  status: ('A' for Active; 'I' for Inactive)
REMARK    1  A    between atoms: C7_7  and  O10_10 
REMARK    2  A    between atoms: C9_9  and  O10_10 
ROOT
HETATM    1  C1  UNL     1     -34.966  14.009  -4.615  1.00 20.00     0.000 C 
HETATM    2  C2  UNL     1     -35.657  14.567  -5.755  1.00 20.00     0.022 C 
HETATM    3  C3  UNL     1     -33.857  14.584  -4.126  1.00 20.00     0.008 C 
HETATM    4  C4  UNL     1     -35.080  15.515  -6.507  1.00 20.00     0.048 C 
HETATM    5  C7  UNL     1     -33.257  15.813  -4.751  1.00 20.00     0.184 C 
HETATM    6  C8  UNL     1     -33.705  16.047  -6.210  1.00 20.00     0.247 C 
HETATM    7  F11 UNL     1     -33.617  17.382  -6.476  1.00 20.00    -0.240 F 
HETATM    8 CL12 UNL     1     -35.880  16.157  -7.893  1.00 20.00    -0.086 Cl
ENDROOT
BRANCH   5   9
HETATM    9  O10 UNL     1     -33.639  16.923  -3.939  1.00 20.00    -0.373 OA
BRANCH   9  10
HETATM   10  C9  UNL     1     -33.598  16.591  -2.560  1.00 20.00     0.122 A 
HETATM   11  C5  UNL     1     -33.218  17.701  -1.622  1.00 20.00     0.034 A 
HETATM   12  C6  UNL     1     -34.642  17.236  -1.695  1.00 20.00     0.034 A 
ENDBRANCH   9  10
ENDBRANCH   5   9
TORSDOF 2
ENDMDL
MODEL 5
REMARK VINA RESULT:      -4.1     10.576     11.272
REMARK  2 active torsions:
REMARK  status: ('A' for Active; 'I' for Inactive)
REMARK    1  A    between atoms: C7_7  and  O10_10 
REMARK    2  A    between atoms: C9_9  and  O10_10 
ROOT
HETATM    1  C1  UNL     1     -33.918  14.385  -4.327  1.00 20.00     0.000 C 
HETATM    2  C2  UNL     1     -35.217  13.890  -4.719  1.00 20.00     0.022 C 
HETATM    3  C3  UNL     1     -33.778  15.591  -3.756  1.00 20.00     0.008 C 
HETATM    4  C4  UNL     1     -36.278  14.709  -4.761  1.00 20.00     0.048 C 
HETATM    5  C7  UNL     1     -34.952  16.501  -3.525  1.00 20.00     0.184 C 
HETATM    6  C8  UNL     1     -36.178  16.167  -4.402  1.00 20.00     0.247 C 
HETATM    7  F11 UNL     1     -37.298  16.600  -3.756  1.00 20.00    -0.240 F 
HETATM    8 CL12 UNL     1     -37.823  14.137  -5.269  1.00 20.00    -0.086 Cl
ENDROOT
BRANCH   5   9
HETATM    9  O10 UNL     1     -35.297  16.395  -2.143  1.00 20.00    -0.373 OA
BRANCH   9  10
HETATM   10  C9  UNL     1     -35.144  17.639  -1.477  1.00 20.00     0.122 A 
HETATM   11  C5  UNL     1     -35.082  17.583   0.023  1.00 20.00     0.034 A 
HETATM   12  C6  UNL     1     -33.838  17.852  -0.769  1.00 20.00     0.034 A 
ENDBRANCH   9  10
ENDBRANCH   5   9
TORSDOF 2
ENDMDL
MODEL 6
REMARK VINA RESULT:      -4.0      2.531      4.391
REMARK  2 active torsions:
REMARK  status: ('A' for Active; 'I' for Inactive)
REMARK    1  A    between atoms: C7_7  and  O10_10 
REMARK    2  A    between atoms: C9_9  and  O10_10 
ROOT
HETATM    1  C1  UNL     1     -31.739   8.403   4.514  1.00 20.00     0.000 C 
HETATM    2  C2  UNL     1     -31.203   8.590   3.186  1.00 20.00     0.022 C 
HETATM    3  C3  UNL     1     -32.922   7.801   4.707  1.00 20.00     0.008 C 
HETATM    4  C4  UNL     1     -31.974   8.402   2.104  1.00 20.00     0.048 C 
HETATM    5  C7  UNL     1     -33.765   7.320   3.559  1.00 20.00     0.184 C 
HETATM    6  C8  UNL     1     -33.416   7.987   2.212  1.00 20.00     0.247 C 
HETATM    7  F11 UNL     1     -33.766   7.135   1.206  1.00 20.00    -0.240 F 
HETATM    8 CL12 UNL     1     -31.355   8.664   0.517  1.00 20.00    -0.086 Cl
ENDROOT
BRANCH   5   9
HETATM    9  O10 UNL     1     -33.579   5.907   3.467  1.00 20.00    -0.373 OA
BRANCH   9  10
HETATM   10  C9  UNL     1     -34.663   5.205   4.055  1.00 20.00     0.122 A 
HETATM   11  C5  UNL     1     -34.333   3.878   4.675  1.00 20.00     0.034 A 
HETATM   12  C6  UNL     1     -34.623   5.062   5.548  1.00 20.00     0.034 A 
ENDBRANCH   9  10
ENDBRANCH   5   9
TORSDOF 2
ENDMDL
MODEL 7
REMARK VINA RESULT:      -4.0     10.714     11.849
REMARK  2 active torsions:
REMARK  status: ('A' for Active; 'I' for Inactive)
REMARK    1  A    between atoms: C7_7  and  O10_10 
REMARK    2  A    between atoms: C9_9  and  O10_10 
ROOT
HETATM    1  C1  UNL     1     -35.857  16.948  -6.161  1.00 20.00     0.000 C 
HETATM    2  C2  UNL     1     -35.212  15.870  -6.873  1.00 20.00     0.022 C 
HETATM    3  C3  UNL     1     -36.317  16.778  -4.912  1.00 20.00     0.008 C 
HETATM    4  C4  UNL     1     -35.279  14.612  -6.416  1.00 20.00     0.048 C 
HETATM    5  C7  UNL     1     -36.217  15.457  -4.202  1.00 20.00     0.184 C 
HETATM    6  C8  UNL     1     -36.014  14.257  -5.151  1.00 20.00     0.247 C 
HETATM    7  F11 UNL     1     -35.374  13.268  -4.463  1.00 20.00    -0.240 F 
HETATM    8 CL12 UNL     1     -34.548  13.312  -7.281  1.00 20.00    -0.086 Cl
ENDROOT
BRANCH   5   9
HETATM    9  O10 UNL     1     -35.119  15.553  -3.294  1.00 20.00    -0.373 OA
BRANCH   9  10
HETATM   10  C9  UNL     1     -35.021  16.856  -2.740  1.00 20.00     0.122 A 
HETATM   11  C5  UNL     1     -35.072  16.944  -1.242  1.00 20.00     0.034 A 
HETATM   12  C6  UNL     1     -33.771  17.148  -1.961  1.00 20.00     0.034 A 
ENDBRANCH   9  10
ENDBRANCH   5   9
TORSDOF 2
ENDMDL
MODEL 8
REMARK VINA RESULT:      -4.0     10.796     11.606
REMARK  2 active torsions:
REMARK  status: ('A' for Active; 'I' for Inactive)
REMARK    1  A    between atoms: C7_7  and  O10_10 
REMARK    2  A    between atoms: C9_9  and  O10_10 
ROOT
HETATM    1  C1  UNL     1     -33.553  14.355  -4.401  1.00 20.00     0.000 C 
HETATM    2  C2  UNL     1     -34.956  14.012  -4.390  1.00 20.00     0.022 C 
HETATM    3  C3  UNL     1     -33.145  15.600  -4.688  1.00 20.00     0.008 C 
HETATM    4  C4  UNL     1     -35.869  14.847  -4.907  1.00 20.00     0.048 C 
HETATM    5  C7  UNL     1     -34.116  16.693  -5.043  1.00 20.00     0.184 C 
HETATM    6  C8  UNL     1     -35.489  16.171  -5.515  1.00 20.00     0.247 C 
HETATM    7  F11 UNL     1     -36.426  17.127  -5.252  1.00 20.00    -0.240 F 
HETATM    8 CL12 UNL     1     -37.541  14.428  -4.937  1.00 20.00    -0.086 Cl
ENDROOT
BRANCH   5   9
HETATM    9  O10 UNL     1     -34.275  17.504  -3.879  1.00 20.00    -0.373 OA
BRANCH   9  10
HETATM   10  C9  UNL     1     -33.603  16.942  -2.763  1.00 20.00     0.122 A 
HETATM   11  C5  UNL     1     -33.143  17.910  -1.711  1.00 20.00     0.034 A 
HETATM   12  C6  UNL     1     -34.325  17.024  -1.449  1.00 20.00     0.034 A 
ENDBRANCH   9  10
ENDBRANCH   5   9
TORSDOF 2
ENDMDL
MODEL 9
REMARK VINA RESULT:      -4.0     10.780     11.282
REMARK  2 active torsions:
REMARK  status: ('A' for Active; 'I' for Inactive)
REMARK    1  A    between atoms: C7_7  and  O10_10 
REMARK    2  A    between atoms: C9_9  and  O10_10 
ROOT
HETATM    1  C1  UNL     1     -35.891  17.685   0.527  1.00 20.00     0.000 C 
HETATM    2  C2  UNL     1     -34.739  17.992   1.343  1.00 20.00     0.022 C 
HETATM    3  C3  UNL     1     -35.804  17.650  -0.811  1.00 20.00     0.008 C 
HETATM    4  C4  UNL     1     -33.625  18.495   0.792  1.00 20.00     0.048 C 
HETATM    5  C7  UNL     1     -34.521  17.957  -1.533  1.00 20.00     0.184 C 
HETATM    6  C8  UNL     1     -33.511  18.759  -0.685  1.00 20.00     0.247 C 
HETATM    7  F11 UNL     1     -32.255  18.489  -1.145  1.00 20.00    -0.240 F 
HETATM    8 CL12 UNL     1     -32.260  18.904   1.763  1.00 20.00    -0.086 Cl
ENDROOT
BRANCH   5   9
HETATM    9  O10 UNL     1     -33.950  16.707  -1.920  1.00 20.00    -0.373 OA
BRANCH   9  10
HETATM   10  C9  UNL     1     -34.017  16.523  -3.326  1.00 20.00     0.122 A 
HETATM   11  C5  UNL     1     -33.511  15.209  -3.846  1.00 20.00     0.034 A 
HETATM   12  C6  UNL     1     -34.985  15.482  -3.809  1.00 20.00     0.034 A 
ENDBRANCH   9  10
ENDBRANCH   5   9
TORSDOF 2
ENDMDL
