MODEL 1
REMARK VINA RESULT:      -5.8      0.000      0.000
REMARK  1 active torsions:
REMARK  status: ('A' for Active; 'I' for Inactive)
REMARK    1  A    between atoms: C4_4  and  C6_6 
ROOT
HETATM    1  C1  UNL     1     -33.654   5.745   3.443  1.00 20.00     0.070 A 
HETATM    2  C2  UNL     1     -33.323   7.599   4.895  1.00 20.00     0.129 A 
HETATM    3  C3  UNL     1     -34.484   5.774   5.672  1.00 20.00     0.170 A 
HETATM    4  C4  UNL     1     -33.130   7.015   3.653  1.00 20.00     0.027 A 
HETATM    5  C5  UNL     1     -34.345   5.105   4.466  1.00 20.00     0.190 A 
HETATM    6  N7  UNL     1     -33.988   7.009   5.913  1.00 20.00    -0.268 NA
HETATM    7  O8  UNL     1     -34.838   3.936   4.300  1.00 20.00    -0.287 OA
ENDROOT
BRANCH   4   8
HETATM    8  C6  UNL     1     -32.385   7.726   2.580  1.00 20.00     0.388 C 
HETATM    9  F9  UNL     1     -31.207   8.220   3.048  1.00 20.00    -0.209 F 
HETATM   10  F10 UNL     1     -33.092   8.793   2.121  1.00 20.00    -0.209 F 
ENDBRANCH   4   8
TORSDOF 1
ENDMDL
MODEL 2
REMARK VINA RESULT:      -5.3      1.609      1.995
REMARK  1 active torsions:
REMARK  status: ('A' for Active; 'I' for Inactive)
REMARK    1  A    between atoms: C4_4  and  C6_6 
ROOT
HETATM    1  C1  UNL     1     -33.361   7.392   4.549  1.00 20.00     0.070 A 
HETATM    2  C2  UNL     1     -33.473   5.729   2.853  1.00 20.00     0.129 A 
HETATM    3  C3  UNL     1     -34.510   5.333   4.865  1.00 20.00     0.170 A 
HETATM    4  C4  UNL     1     -33.030   6.976   3.265  1.00 20.00     0.027 A 
HETATM    5  C5  UNL     1     -34.115   6.562   5.371  1.00 20.00     0.190 A 
HETATM    6  N7  UNL     1     -34.207   4.894   3.622  1.00 20.00    -0.268 NA
HETATM    7  O8  UNL     1     -34.434   6.920   6.557  1.00 20.00    -0.287 OA
ENDROOT
BRANCH   4   8
HETATM    8  C6  UNL     1     -32.226   7.841   2.361  1.00 20.00     0.388 C 
HETATM    9  F9  UNL     1     -31.124   8.321   2.998  1.00 20.00    -0.209 F 
HETATM   10  F10 UNL     1     -32.941   8.926   1.962  1.00 20.00    -0.209 F 
ENDBRANCH   4   8
TORSDOF 1
ENDMDL
MODEL 3
REMARK VINA RESULT:      -5.1      3.188      3.778
REMARK  1 active torsions:
REMARK  status: ('A' for Active; 'I' for Inactive)
REMARK    1  A    between atoms: C4_4  and  C6_6 
ROOT
HETATM    1  C1  UNL     1     -33.429   6.380   3.129  1.00 20.00     0.070 A 
HETATM    2  C2  UNL     1     -33.655   6.867   5.446  1.00 20.00     0.129 A 
HETATM    3  C3  UNL     1     -32.331   8.226   4.151  1.00 20.00     0.170 A 
HETATM    4  C4  UNL     1     -33.976   6.060   4.366  1.00 20.00     0.027 A 
HETATM    5  C5  UNL     1     -32.590   7.483   3.011  1.00 20.00     0.190 A 
HETATM    6  N7  UNL     1     -32.845   7.945   5.370  1.00 20.00    -0.268 NA
HETATM    7  O8  UNL     1     -32.072   7.800   1.884  1.00 20.00    -0.287 OA
ENDROOT
BRANCH   4   8
HETATM    8  C6  UNL     1     -34.877   4.887   4.527  1.00 20.00     0.388 C 
HETATM    9  F9  UNL     1     -35.113   4.630   5.841  1.00 20.00    -0.209 F 
HETATM   10  F10 UNL     1     -34.311   3.763   4.012  1.00 20.00    -0.209 F 
ENDBRANCH   4   8
TORSDOF 1
ENDMDL
MODEL 4
REMARK VINA RESULT:      -5.0      3.041      3.804
REMARK  1 active torsions:
REMARK  status: ('A' for Active; 'I' for Inactive)
REMARK    1  A    between atoms: C4_4  and  C6_6 
ROOT
HETATM    1  C1  UNL     1     -33.262   6.830   2.801  1.00 20.00     0.070 A 
HETATM    2  C2  UNL     1     -33.362   7.229   5.143  1.00 20.00     0.129 A 
HETATM    3  C3  UNL     1     -31.885   8.446   3.873  1.00 20.00     0.170 A 
HETATM    4  C4  UNL     1     -33.821   6.531   4.038  1.00 20.00     0.027 A 
HETATM    5  C5  UNL     1     -32.274   7.804   2.708  1.00 20.00     0.190 A 
HETATM    6  N7  UNL     1     -32.406   8.182   5.093  1.00 20.00    -0.268 NA
HETATM    7  O8  UNL     1     -31.742   8.099   1.583  1.00 20.00    -0.287 OA
ENDROOT
BRANCH   4   8
HETATM    8  C6  UNL     1     -34.880   5.494   4.171  1.00 20.00     0.388 C 
HETATM    9  F9  UNL     1     -36.068   5.945   3.683  1.00 20.00    -0.209 F 
HETATM   10  F10 UNL     1     -35.096   5.184   5.477  1.00 20.00    -0.209 F 
ENDBRANCH   4   8
TORSDOF 1
ENDMDL
MODEL 5
REMARK VINA RESULT:      -5.0      3.334      4.130
REMARK  1 active torsions:
REMARK  status: ('A' for Active; 'I' for Inactive)
REMARK    1  A    between atoms: C4_4  and  C6_6 
ROOT
HETATM    1  C1  UNL     1     -33.029   7.333   4.567  1.00 20.00     0.070 A 
HETATM    2  C2  UNL     1     -34.336   5.810   3.292  1.00 20.00     0.129 A 
HETATM    3  C3  UNL     1     -32.767   7.097   2.215  1.00 20.00     0.170 A 
HETATM    4  C4  UNL     1     -34.025   6.365   4.523  1.00 20.00     0.027 A 
HETATM    5  C5  UNL     1     -32.383   7.713   3.396  1.00 20.00     0.190 A 
HETATM    6  N7  UNL     1     -33.731   6.152   2.133  1.00 20.00    -0.268 NA
HETATM    7  O8  UNL     1     -31.463   8.602   3.407  1.00 20.00    -0.287 OA
ENDROOT
BRANCH   4   8
HETATM    8  C6  UNL     1     -34.734   5.936   5.759  1.00 20.00     0.388 C 
HETATM    9  F9  UNL     1     -34.524   6.818   6.773  1.00 20.00    -0.209 F 
HETATM   10  F10 UNL     1     -34.271   4.735   6.195  1.00 20.00    -0.209 F 
ENDBRANCH   4   8
TORSDOF 1
ENDMDL
MODEL 6
REMARK VINA RESULT:      -4.6     11.776     11.978
REMARK  1 active torsions:
REMARK  status: ('A' for Active; 'I' for Inactive)
REMARK    1  A    between atoms: C4_4  and  C6_6 
ROOT
HETATM    1  C1  UNL     1     -36.492  15.230  -3.978  1.00 20.00     0.070 A 
HETATM    2  C2  UNL     1     -34.244  14.557  -4.364  1.00 20.00     0.129 A 
HETATM    3  C3  UNL     1     -35.940  13.417  -5.414  1.00 20.00     0.170 A 
HETATM    4  C4  UNL     1     -35.136  15.411  -3.734  1.00 20.00     0.027 A 
HETATM    5  C5  UNL     1     -36.911  14.216  -4.833  1.00 20.00     0.190 A 
HETATM    6  N7  UNL     1     -34.612  13.562  -5.201  1.00 20.00    -0.268 NA
HETATM    7  O8  UNL     1     -38.153  14.028  -5.075  1.00 20.00    -0.287 OA
ENDROOT
BRANCH   4   8
HETATM    8  C6  UNL     1     -34.655  16.486  -2.826  1.00 20.00     0.388 C 
HETATM    9  F9  UNL     1     -33.318  16.376  -2.604  1.00 20.00    -0.209 F 
HETATM   10  F10 UNL     1     -35.254  16.398  -1.608  1.00 20.00    -0.209 F 
ENDBRANCH   4   8
TORSDOF 1
ENDMDL
MODEL 7
REMARK VINA RESULT:      -4.5     11.749     12.222
REMARK  1 active torsions:
REMARK  status: ('A' for Active; 'I' for Inactive)
REMARK    1  A    between atoms: C4_4  and  C6_6 
ROOT
HETATM    1  C1  UNL     1     -34.988  14.832  -3.791  1.00 20.00     0.070 A 
HETATM    2  C2  UNL     1     -33.394  16.317  -4.745  1.00 20.00     0.129 A 
HETATM    3  C3  UNL     1     -34.043  14.467  -5.942  1.00 20.00     0.170 A 
HETATM    4  C4  UNL     1     -34.223  15.988  -3.685  1.00 20.00     0.027 A 
HETATM    5  C5  UNL     1     -34.902  14.051  -4.938  1.00 20.00     0.190 A 
HETATM    6  N7  UNL     1     -33.284  15.584  -5.875  1.00 20.00    -0.268 NA
HETATM    7  O8  UNL     1     -35.595  12.982  -5.062  1.00 20.00    -0.287 OA
ENDROOT
BRANCH   4   8
HETATM    8  C6  UNL     1     -34.293  16.846  -2.471  1.00 20.00     0.388 C 
HETATM    9  F9  UNL     1     -33.084  16.912  -1.851  1.00 20.00    -0.209 F 
HETATM   10  F10 UNL     1     -35.162  16.332  -1.560  1.00 20.00    -0.209 F 
ENDBRANCH   4   8
TORSDOF 1
ENDMDL
MODEL 8
REMARK VINA RESULT:      -4.5     11.762     12.029
REMARK  1 active torsions:
REMARK  status: ('A' for Active; 'I' for Inactive)
REMARK    1  A    between atoms: C4_4  and  C6_6 
ROOT
HETATM    1  C1  UNL     1     -34.980  14.498  -4.331  1.00 20.00     0.070 A 
HETATM    2  C2  UNL     1     -36.776  15.970  -3.816  1.00 20.00     0.129 A 
HETATM    3  C3  UNL     1     -37.183  14.150  -5.158  1.00 20.00     0.170 A 
HETATM    4  C4  UNL     1     -35.437  15.638  -3.681  1.00 20.00     0.027 A 
HETATM    5  C5  UNL     1     -35.864  13.734  -5.086  1.00 20.00     0.190 A 
HETATM    6  N7  UNL     1     -37.664  15.253  -4.539  1.00 20.00    -0.268 NA
HETATM    7  O8  UNL     1     -35.470  12.680  -5.695  1.00 20.00    -0.287 OA
ENDROOT
BRANCH   4   8
HETATM    8  C6  UNL     1     -34.518  16.477  -2.865  1.00 20.00     0.388 C 
HETATM    9  F9  UNL     1     -33.235  16.039  -2.972  1.00 20.00    -0.209 F 
HETATM   10  F10 UNL     1     -34.838  16.407  -1.545  1.00 20.00    -0.209 F 
ENDBRANCH   4   8
TORSDOF 1
ENDMDL
MODEL 9
REMARK VINA RESULT:      -4.3      2.374      2.857
REMARK  1 active torsions:
REMARK  status: ('A' for Active; 'I' for Inactive)
REMARK    1  A    between atoms: C4_4  and  C6_6 
ROOT
HETATM    1  C1  UNL     1     -33.357   7.611   1.817  1.00 20.00     0.070 A 
HETATM    2  C2  UNL     1     -31.572   8.880   2.744  1.00 20.00     0.129 A 
HETATM    3  C3  UNL     1     -32.604   7.298   4.051  1.00 20.00     0.170 A 
HETATM    4  C4  UNL     1     -32.391   8.599   1.662  1.00 20.00     0.027 A 
HETATM    5  C5  UNL     1     -33.472   6.943   3.031  1.00 20.00     0.190 A 
HETATM    6  N7  UNL     1     -31.653   8.253   3.938  1.00 20.00    -0.268 NA
HETATM    7  O8  UNL     1     -34.352   6.029   3.200  1.00 20.00    -0.287 OA
ENDROOT
BRANCH   4   8
HETATM    8  C6  UNL     1     -32.241   9.332   0.376  1.00 20.00     0.388 C 
HETATM    9  F9  UNL     1     -32.302  10.677   0.572  1.00 20.00    -0.209 F 
HETATM   10  F10 UNL     1     -33.251   9.024  -0.480  1.00 20.00    -0.209 F 
ENDBRANCH   4   8
TORSDOF 1
ENDMDL
