MODEL 1
REMARK VINA RESULT:      -4.6      0.000      0.000
REMARK  1 active torsions:
REMARK  status: ('A' for Active; 'I' for Inactive)
REMARK    1  A    between atoms: C6_6  and  C8_8 
ROOT
HETATM    1  C1  UNL     1     -32.163  18.231  -0.472  1.00 20.00     0.099 C 
HETATM    2  C2  UNL     1     -33.502  16.997  -2.105  1.00 20.00     0.031 A 
HETATM    3  C3  UNL     1     -34.604  18.200  -0.324  1.00 20.00     0.046 A 
HETATM    4  C4  UNL     1     -35.913  16.978  -1.946  1.00 20.00     0.032 A 
HETATM    5  C5  UNL     1     -33.433  17.805  -0.971  1.00 20.00     0.046 A 
HETATM    6  C6  UNL     1     -34.742  16.584  -2.593  1.00 20.00    -0.041 A 
HETATM    7  C7  UNL     1     -35.845  17.787  -0.811  1.00 20.00     0.036 A 
HETATM    8  N9  UNL     1     -31.132  18.576  -0.067  1.00 20.00    -0.191 NA
HETATM    9 CL10 UNL     1     -37.290  18.276  -0.016  1.00 20.00    -0.084 Cl
ENDROOT
BRANCH   6  10
HETATM   10  C8  UNL     1     -34.815  15.720  -3.807  1.00 20.00     0.153 C 
HETATM   11 CL11 UNL     1     -33.233  14.987  -4.152  1.00 20.00    -0.126 Cl
ENDBRANCH   6  10
TORSDOF 1
ENDMDL
MODEL 2
REMARK VINA RESULT:      -4.5      3.487      5.420
REMARK  1 active torsions:
REMARK  status: ('A' for Active; 'I' for Inactive)
REMARK    1  A    between atoms: C6_6  and  C8_8 
ROOT
HETATM    1  C1  UNL     1     -35.434  13.855  -5.033  1.00 20.00     0.099 C 
HETATM    2  C2  UNL     1     -34.497  15.527  -3.515  1.00 20.00     0.031 A 
HETATM    3  C3  UNL     1     -34.652  16.013  -5.876  1.00 20.00     0.046 A 
HETATM    4  C4  UNL     1     -33.730  17.656  -4.364  1.00 20.00     0.032 A 
HETATM    5  C5  UNL     1     -34.856  15.142  -4.806  1.00 20.00     0.046 A 
HETATM    6  C6  UNL     1     -33.934  16.785  -3.294  1.00 20.00    -0.041 A 
HETATM    7  C7  UNL     1     -34.089  17.271  -5.655  1.00 20.00     0.036 A 
HETATM    8  N9  UNL     1     -35.904  12.810  -5.217  1.00 20.00    -0.191 NA
HETATM    9 CL10 UNL     1     -33.841  18.348  -6.974  1.00 20.00    -0.084 Cl
ENDROOT
BRANCH   6  10
HETATM   10  C8  UNL     1     -33.551  17.198  -1.912  1.00 20.00     0.153 C 
HETATM   11 CL11 UNL     1     -34.956  17.129  -0.825  1.00 20.00    -0.126 Cl
ENDBRANCH   6  10
TORSDOF 1
ENDMDL
MODEL 3
REMARK VINA RESULT:      -4.4      2.978      3.981
REMARK  1 active torsions:
REMARK  status: ('A' for Active; 'I' for Inactive)
REMARK    1  A    between atoms: C6_6  and  C8_8 
ROOT
HETATM    1  C1  UNL     1     -34.577  16.300  -2.726  1.00 20.00     0.099 C 
HETATM    2  C2  UNL     1     -33.205  17.669  -1.235  1.00 20.00     0.031 A 
HETATM    3  C3  UNL     1     -35.499  17.191  -0.643  1.00 20.00     0.046 A 
HETATM    4  C4  UNL     1     -34.130  18.541   0.821  1.00 20.00     0.032 A 
HETATM    5  C5  UNL     1     -34.426  17.060  -1.525  1.00 20.00     0.046 A 
HETATM    6  C6  UNL     1     -33.057  18.409  -0.061  1.00 20.00    -0.041 A 
HETATM    7  C7  UNL     1     -35.351  17.932   0.530  1.00 20.00     0.036 A 
HETATM    8  N9  UNL     1     -34.700  15.683  -3.701  1.00 20.00    -0.191 NA
HETATM    9 CL10 UNL     1     -36.672  18.092   1.621  1.00 20.00    -0.084 Cl
ENDROOT
BRANCH   6  10
HETATM   10  C8  UNL     1     -31.751  19.059   0.250  1.00 20.00     0.153 C 
HETATM   11 CL11 UNL     1     -31.125  18.492   1.815  1.00 20.00    -0.126 Cl
ENDBRANCH   6  10
TORSDOF 1
ENDMDL
MODEL 4
REMARK VINA RESULT:      -4.3      3.518      5.573
REMARK  1 active torsions:
REMARK  status: ('A' for Active; 'I' for Inactive)
REMARK    1  A    between atoms: C6_6  and  C8_8 
ROOT
HETATM    1  C1  UNL     1     -37.534  14.652  -4.683  1.00 20.00     0.099 C 
HETATM    2  C2  UNL     1     -36.292  16.297  -3.367  1.00 20.00     0.031 A 
HETATM    3  C3  UNL     1     -35.103  14.503  -4.464  1.00 20.00     0.046 A 
HETATM    4  C4  UNL     1     -33.889  16.136  -3.161  1.00 20.00     0.032 A 
HETATM    5  C5  UNL     1     -36.299  15.154  -4.166  1.00 20.00     0.046 A 
HETATM    6  C6  UNL     1     -35.086  16.788  -2.864  1.00 20.00    -0.041 A 
HETATM    7  C7  UNL     1     -33.897  14.994  -3.961  1.00 20.00     0.036 A 
HETATM    8  N9  UNL     1     -38.536  14.244  -5.102  1.00 20.00    -0.191 NA
HETATM    9 CL10 UNL     1     -32.419  14.192  -4.330  1.00 20.00    -0.084 Cl
ENDROOT
BRANCH   6  10
HETATM   10  C8  UNL     1     -35.078  18.012  -2.010  1.00 20.00     0.153 C 
HETATM   11 CL11 UNL     1     -34.096  17.751  -0.551  1.00 20.00    -0.126 Cl
ENDBRANCH   6  10
TORSDOF 1
ENDMDL
MODEL 5
REMARK VINA RESULT:      -4.3      3.482      4.683
REMARK  1 active torsions:
REMARK  status: ('A' for Active; 'I' for Inactive)
REMARK    1  A    between atoms: C6_6  and  C8_8 
ROOT
HETATM    1  C1  UNL     1     -35.642  13.794  -4.914  1.00 20.00     0.099 C 
HETATM    2  C2  UNL     1     -34.605  15.471  -3.466  1.00 20.00     0.031 A 
HETATM    3  C3  UNL     1     -36.908  15.740  -4.144  1.00 20.00     0.046 A 
HETATM    4  C4  UNL     1     -35.870  17.387  -2.712  1.00 20.00     0.032 A 
HETATM    5  C5  UNL     1     -35.719  15.012  -4.169  1.00 20.00     0.046 A 
HETATM    6  C6  UNL     1     -34.681  16.659  -2.738  1.00 20.00    -0.041 A 
HETATM    7  C7  UNL     1     -36.984  16.928  -3.415  1.00 20.00     0.036 A 
HETATM    8  N9  UNL     1     -35.580  12.806  -5.518  1.00 20.00    -0.191 NA
HETATM    9 CL10 UNL     1     -38.452  17.826  -3.381  1.00 20.00    -0.084 Cl
ENDROOT
BRANCH   6  10
HETATM   10  C8  UNL     1     -33.490  17.148  -1.985  1.00 20.00     0.153 C 
HETATM   11 CL11 UNL     1     -33.979  17.858  -0.429  1.00 20.00    -0.126 Cl
ENDBRANCH   6  10
TORSDOF 1
ENDMDL
MODEL 6
REMARK VINA RESULT:      -4.3      2.665      3.335
REMARK  1 active torsions:
REMARK  status: ('A' for Active; 'I' for Inactive)
REMARK    1  A    between atoms: C6_6  and  C8_8 
ROOT
HETATM    1  C1  UNL     1     -36.859  18.265   0.182  1.00 20.00     0.099 C 
HETATM    2  C2  UNL     1     -35.832  17.032  -1.664  1.00 20.00     0.031 A 
HETATM    3  C3  UNL     1     -34.437  18.302  -0.155  1.00 20.00     0.046 A 
HETATM    4  C4  UNL     1     -33.437  17.078  -1.982  1.00 20.00     0.032 A 
HETATM    5  C5  UNL     1     -35.700  17.864  -0.552  1.00 20.00     0.046 A 
HETATM    6  C6  UNL     1     -34.700  16.639  -2.379  1.00 20.00    -0.041 A 
HETATM    7  C7  UNL     1     -33.304  17.909  -0.870  1.00 20.00     0.036 A 
HETATM    8  N9  UNL     1     -37.799  18.591   0.778  1.00 20.00    -0.191 NA
HETATM    9 CL10 UNL     1     -31.745  18.447  -0.379  1.00 20.00    -0.084 Cl
ENDROOT
BRANCH   6  10
HETATM   10  C8  UNL     1     -34.841  15.748  -3.567  1.00 20.00     0.153 C 
HETATM   11 CL11 UNL     1     -33.249  15.183  -4.121  1.00 20.00    -0.126 Cl
ENDBRANCH   6  10
TORSDOF 1
ENDMDL
MODEL 7
REMARK VINA RESULT:      -4.2      2.974      3.755
REMARK  1 active torsions:
REMARK  status: ('A' for Active; 'I' for Inactive)
REMARK    1  A    between atoms: C6_6  and  C8_8 
ROOT
HETATM    1  C1  UNL     1     -36.012  18.211   1.345  1.00 20.00     0.099 C 
HETATM    2  C2  UNL     1     -34.733  17.739  -0.685  1.00 20.00     0.031 A 
HETATM    3  C3  UNL     1     -33.612  18.669   1.243  1.00 20.00     0.046 A 
HETATM    4  C4  UNL     1     -32.361  18.196  -0.770  1.00 20.00     0.032 A 
HETATM    5  C5  UNL     1     -34.775  18.207   0.628  1.00 20.00     0.046 A 
HETATM    6  C6  UNL     1     -33.525  17.734  -1.384  1.00 20.00    -0.041 A 
HETATM    7  C7  UNL     1     -32.404  18.664   0.544  1.00 20.00     0.036 A 
HETATM    8  N9  UNL     1     -37.016  18.214   1.928  1.00 20.00    -0.191 NA
HETATM    9 CL10 UNL     1     -30.967  19.231   1.302  1.00 20.00    -0.084 Cl
ENDROOT
BRANCH   6  10
HETATM   10  C8  UNL     1     -33.479  17.232  -2.789  1.00 20.00     0.153 C 
HETATM   11 CL11 UNL     1     -34.632  15.898  -3.016  1.00 20.00    -0.126 Cl
ENDBRANCH   6  10
TORSDOF 1
ENDMDL
MODEL 8
REMARK VINA RESULT:      -4.2      3.103      4.446
REMARK  1 active torsions:
REMARK  status: ('A' for Active; 'I' for Inactive)
REMARK    1  A    between atoms: C6_6  and  C8_8 
ROOT
HETATM    1  C1  UNL     1     -36.461  18.245   1.594  1.00 20.00     0.099 C 
HETATM    2  C2  UNL     1     -34.147  18.619   0.897  1.00 20.00     0.031 A 
HETATM    3  C3  UNL     1     -35.609  17.283  -0.487  1.00 20.00     0.046 A 
HETATM    4  C4  UNL     1     -33.321  17.663  -1.163  1.00 20.00     0.032 A 
HETATM    5  C5  UNL     1     -35.397  18.047   0.660  1.00 20.00     0.046 A 
HETATM    6  C6  UNL     1     -33.109  18.427  -0.016  1.00 20.00    -0.041 A 
HETATM    7  C7  UNL     1     -34.571  17.091  -1.399  1.00 20.00     0.036 A 
HETATM    8  N9  UNL     1     -37.325  18.405   2.352  1.00 20.00    -0.191 NA
HETATM    9 CL10 UNL     1     -34.832  16.151  -2.817  1.00 20.00    -0.084 Cl
ENDROOT
BRANCH   6  10
HETATM   10  C8  UNL     1     -31.772  19.040   0.236  1.00 20.00     0.153 C 
HETATM   11 CL11 UNL     1     -31.106  18.477   1.785  1.00 20.00    -0.126 Cl
ENDBRANCH   6  10
TORSDOF 1
ENDMDL
MODEL 9
REMARK VINA RESULT:      -4.2      0.902      3.510
REMARK  1 active torsions:
REMARK  status: ('A' for Active; 'I' for Inactive)
REMARK    1  A    between atoms: C6_6  and  C8_8 
ROOT
HETATM    1  C1  UNL     1     -32.114  18.226  -0.446  1.00 20.00     0.099 C 
HETATM    2  C2  UNL     1     -34.553  18.230  -0.260  1.00 20.00     0.031 A 
HETATM    3  C3  UNL     1     -33.494  17.008  -2.056  1.00 20.00     0.046 A 
HETATM    4  C4  UNL     1     -35.902  17.019  -1.859  1.00 20.00     0.032 A 
HETATM    5  C5  UNL     1     -33.398  17.818  -0.925  1.00 20.00     0.046 A 
HETATM    6  C6  UNL     1     -35.806  17.830  -0.728  1.00 20.00    -0.041 A 
HETATM    7  C7  UNL     1     -34.747  16.608  -2.523  1.00 20.00     0.036 A 
HETATM    8  N9  UNL     1     -31.072  18.557  -0.057  1.00 20.00    -0.191 NA
HETATM    9 CL10 UNL     1     -34.868  15.605  -3.917  1.00 20.00    -0.084 Cl
ENDROOT
BRANCH   6  10
HETATM   10  C8  UNL     1     -37.041  18.269  -0.016  1.00 20.00     0.153 C 
HETATM   11 CL11 UNL     1     -36.790  18.253   1.744  1.00 20.00    -0.126 Cl
ENDBRANCH   6  10
TORSDOF 1
ENDMDL
