MODEL 1
REMARK VINA RESULT:      -5.3      0.000      0.000
REMARK  2 active torsions:
REMARK  status: ('A' for Active; 'I' for Inactive)
REMARK    1  A    between atoms: C1_1  and  C3_3 
REMARK    2  A    between atoms: C1_1  and  C5_5 
ROOT
HETATM    1  C2  UNL     1     -33.656   5.427   3.093  1.00 20.00     0.098 A 
HETATM    2  C3  UNL     1     -33.826   6.901   3.397  1.00 20.00     0.134 A 
HETATM    3  C4  UNL     1     -34.708   5.886   4.033  1.00 20.00     0.255 A 
HETATM    4  F7  UNL     1     -36.037   5.801   3.687  1.00 20.00    -0.205 F 
HETATM    5  F8  UNL     1     -34.614   5.602   5.376  1.00 20.00    -0.205 F 
ENDROOT
BRANCH   2   6
HETATM    6  C1  UNL     1     -32.809   7.586   4.201  1.00 20.00     0.146 C 
HETATM    7  O6  UNL     1     -32.947   7.694   5.418  1.00 20.00    -0.297 OA
BRANCH   6   8
HETATM    8  C5  UNL     1     -31.626   8.124   3.430  1.00 20.00     0.164 C 
HETATM    9 BR9  UNL     1     -32.198   8.788   1.702  1.00 20.00    -0.089 Br
ENDBRANCH   6   8
ENDBRANCH   2   6
TORSDOF 2
ENDMDL
MODEL 2
REMARK VINA RESULT:      -5.3      1.702      1.912
REMARK  2 active torsions:
REMARK  status: ('A' for Active; 'I' for Inactive)
REMARK    1  A    between atoms: C1_1  and  C3_3 
REMARK    2  A    between atoms: C1_1  and  C5_5 
ROOT
HETATM    1  C2  UNL     1     -35.440   5.949   3.805  1.00 20.00     0.098 A 
HETATM    2  C3  UNL     1     -34.087   6.465   4.251  1.00 20.00     0.134 A 
HETATM    3  C4  UNL     1     -34.596   5.151   4.727  1.00 20.00     0.255 A 
HETATM    4  F7  UNL     1     -34.967   4.981   6.041  1.00 20.00    -0.205 F 
HETATM    5  F8  UNL     1     -34.026   3.971   4.306  1.00 20.00    -0.205 F 
ENDROOT
BRANCH   2   6
HETATM    6  C1  UNL     1     -32.986   6.511   3.283  1.00 20.00     0.146 C 
HETATM    7  O6  UNL     1     -32.796   5.572   2.512  1.00 20.00    -0.297 OA
BRANCH   6   8
HETATM    8  C5  UNL     1     -32.144   7.764   3.317  1.00 20.00     0.164 C 
HETATM    9 BR9  UNL     1     -32.298   8.722   1.640  1.00 20.00    -0.089 Br
ENDBRANCH   6   8
ENDBRANCH   2   6
TORSDOF 2
ENDMDL
MODEL 3
REMARK VINA RESULT:      -5.2      1.119      1.159
REMARK  2 active torsions:
REMARK  status: ('A' for Active; 'I' for Inactive)
REMARK    1  A    between atoms: C1_1  and  C3_3 
REMARK    2  A    between atoms: C1_1  and  C5_5 
ROOT
HETATM    1  C2  UNL     1     -33.311   5.347   2.923  1.00 20.00     0.098 A 
HETATM    2  C3  UNL     1     -33.494   6.818   2.609  1.00 20.00     0.134 A 
HETATM    3  C4  UNL     1     -34.251   6.175   3.717  1.00 20.00     0.255 A 
HETATM    4  F7  UNL     1     -35.609   5.981   3.613  1.00 20.00    -0.205 F 
HETATM    5  F8  UNL     1     -33.978   6.472   5.033  1.00 20.00    -0.205 F 
ENDROOT
BRANCH   2   6
HETATM    6  C1  UNL     1     -32.408   7.754   2.918  1.00 20.00     0.146 C 
HETATM    7  O6  UNL     1     -32.104   7.990   4.086  1.00 20.00    -0.297 OA
BRANCH   6   8
HETATM    8  C5  UNL     1     -31.727   8.374   1.721  1.00 20.00     0.164 C 
HETATM    9 BR9  UNL     1     -32.689   9.955   1.146  1.00 20.00    -0.089 Br
ENDBRANCH   6   8
ENDBRANCH   2   6
TORSDOF 2
ENDMDL
MODEL 4
REMARK VINA RESULT:      -4.9      3.921      4.533
REMARK  2 active torsions:
REMARK  status: ('A' for Active; 'I' for Inactive)
REMARK    1  A    between atoms: C1_1  and  C3_3 
REMARK    2  A    between atoms: C1_1  and  C5_5 
ROOT
HETATM    1  C2  UNL     1     -32.506  10.158   1.418  1.00 20.00     0.098 A 
HETATM    2  C3  UNL     1     -32.982   8.737   1.639  1.00 20.00     0.134 A 
HETATM    3  C4  UNL     1     -32.183   9.095   0.436  1.00 20.00     0.255 A 
HETATM    4  F7  UNL     1     -32.764   9.098  -0.811  1.00 20.00    -0.205 F 
HETATM    5  F8  UNL     1     -30.887   8.656   0.285  1.00 20.00    -0.205 F 
ENDROOT
BRANCH   2   6
HETATM    6  C1  UNL     1     -32.371   7.937   2.706  1.00 20.00     0.146 C 
HETATM    7  O6  UNL     1     -31.391   8.360   3.316  1.00 20.00    -0.297 OA
BRANCH   6   8
HETATM    8  C5  UNL     1     -33.029   6.605   2.975  1.00 20.00     0.164 C 
HETATM    9 BR9  UNL     1     -34.044   6.679   4.624  1.00 20.00    -0.089 Br
ENDBRANCH   6   8
ENDBRANCH   2   6
TORSDOF 2
ENDMDL
MODEL 5
REMARK VINA RESULT:      -4.8      2.867      3.458
REMARK  2 active torsions:
REMARK  status: ('A' for Active; 'I' for Inactive)
REMARK    1  A    between atoms: C1_1  and  C3_3 
REMARK    2  A    between atoms: C1_1  and  C5_5 
ROOT
HETATM    1  C2  UNL     1     -31.816   8.016   3.742  1.00 20.00     0.098 A 
HETATM    2  C3  UNL     1     -33.325   7.923   3.823  1.00 20.00     0.134 A 
HETATM    3  C4  UNL     1     -32.590   7.373   2.653  1.00 20.00     0.255 A 
HETATM    4  F7  UNL     1     -32.691   7.975   1.420  1.00 20.00    -0.205 F 
HETATM    5  F8  UNL     1     -32.500   6.016   2.442  1.00 20.00    -0.205 F 
ENDROOT
BRANCH   2   6
HETATM    6  C1  UNL     1     -33.934   7.009   4.795  1.00 20.00     0.146 C 
HETATM    7  O6  UNL     1     -33.640   7.084   5.987  1.00 20.00    -0.297 OA
BRANCH   6   8
HETATM    8  C5  UNL     1     -34.911   6.010   4.223  1.00 20.00     0.164 C 
HETATM    9 BR9  UNL     1     -34.304   4.203   4.571  1.00 20.00    -0.089 Br
ENDBRANCH   6   8
ENDBRANCH   2   6
TORSDOF 2
ENDMDL
MODEL 6
REMARK VINA RESULT:      -4.8      1.685      1.973
REMARK  2 active torsions:
REMARK  status: ('A' for Active; 'I' for Inactive)
REMARK    1  A    between atoms: C1_1  and  C3_3 
REMARK    2  A    between atoms: C1_1  and  C5_5 
ROOT
HETATM    1  C2  UNL     1     -35.435   5.540   3.967  1.00 20.00     0.098 A 
HETATM    2  C3  UNL     1     -34.411   5.880   5.030  1.00 20.00     0.134 A 
HETATM    3  C4  UNL     1     -34.170   4.772   4.067  1.00 20.00     0.255 A 
HETATM    4  F7  UNL     1     -34.181   3.464   4.493  1.00 20.00    -0.205 F 
HETATM    5  F8  UNL     1     -33.211   4.877   3.086  1.00 20.00    -0.205 F 
ENDROOT
BRANCH   2   6
HETATM    6  C1  UNL     1     -33.645   7.125   4.911  1.00 20.00     0.146 C 
HETATM    7  O6  UNL     1     -33.142   7.643   5.907  1.00 20.00    -0.297 OA
BRANCH   6   8
HETATM    8  C5  UNL     1     -33.535   7.690   3.515  1.00 20.00     0.164 C 
HETATM    9 BR9  UNL     1     -31.696   8.161   3.125  1.00 20.00    -0.089 Br
ENDBRANCH   6   8
ENDBRANCH   2   6
TORSDOF 2
ENDMDL
MODEL 7
REMARK VINA RESULT:      -4.7      2.045      2.389
REMARK  2 active torsions:
REMARK  status: ('A' for Active; 'I' for Inactive)
REMARK    1  A    between atoms: C1_1  and  C3_3 
REMARK    2  A    between atoms: C1_1  and  C5_5 
ROOT
HETATM    1  C2  UNL     1     -34.316   4.606   5.274  1.00 20.00     0.098 A 
HETATM    2  C3  UNL     1     -34.667   5.714   4.303  1.00 20.00     0.134 A 
HETATM    3  C4  UNL     1     -34.282   6.024   5.705  1.00 20.00     0.255 A 
HETATM    4  F7  UNL     1     -35.215   6.506   6.595  1.00 20.00    -0.205 F 
HETATM    5  F8  UNL     1     -33.083   6.636   5.997  1.00 20.00    -0.205 F 
ENDROOT
BRANCH   2   6
HETATM    6  C1  UNL     1     -33.741   6.024   3.209  1.00 20.00     0.146 C 
HETATM    7  O6  UNL     1     -33.150   5.121   2.619  1.00 20.00    -0.297 OA
BRANCH   6   8
HETATM    8  C5  UNL     1     -33.586   7.491   2.886  1.00 20.00     0.164 C 
HETATM    9 BR9  UNL     1     -31.746   8.043   3.140  1.00 20.00    -0.089 Br
ENDBRANCH   6   8
ENDBRANCH   2   6
TORSDOF 2
ENDMDL
MODEL 8
REMARK VINA RESULT:      -4.7      3.490      4.142
REMARK  2 active torsions:
REMARK  status: ('A' for Active; 'I' for Inactive)
REMARK    1  A    between atoms: C1_1  and  C3_3 
REMARK    2  A    between atoms: C1_1  and  C5_5 
ROOT
HETATM    1  C2  UNL     1     -31.678   8.126   3.682  1.00 20.00     0.098 A 
HETATM    2  C3  UNL     1     -33.092   7.769   3.273  1.00 20.00     0.134 A 
HETATM    3  C4  UNL     1     -32.159   8.410   2.309  1.00 20.00     0.255 A 
HETATM    4  F7  UNL     1     -32.364   9.707   1.896  1.00 20.00    -0.205 F 
HETATM    5  F8  UNL     1     -31.653   7.713   1.235  1.00 20.00    -0.205 F 
ENDROOT
BRANCH   2   6
HETATM    6  C1  UNL     1     -33.452   6.357   3.106  1.00 20.00     0.146 C 
HETATM    7  O6  UNL     1     -32.678   5.579   2.550  1.00 20.00    -0.297 OA
BRANCH   6   8
HETATM    8  C5  UNL     1     -34.801   5.962   3.658  1.00 20.00     0.164 C 
HETATM    9 BR9  UNL     1     -34.601   5.162   5.411  1.00 20.00    -0.089 Br
ENDBRANCH   6   8
ENDBRANCH   2   6
TORSDOF 2
ENDMDL
MODEL 9
REMARK VINA RESULT:      -4.5      3.163      3.841
REMARK  2 active torsions:
REMARK  status: ('A' for Active; 'I' for Inactive)
REMARK    1  A    between atoms: C1_1  and  C3_3 
REMARK    2  A    between atoms: C1_1  and  C5_5 
ROOT
HETATM    1  C2  UNL     1     -33.159   8.186   2.557  1.00 20.00     0.098 A 
HETATM    2  C3  UNL     1     -32.540   6.804   2.577  1.00 20.00     0.134 A 
HETATM    3  C4  UNL     1     -32.189   7.810   3.613  1.00 20.00     0.255 A 
HETATM    4  F7  UNL     1     -30.935   8.375   3.642  1.00 20.00    -0.205 F 
HETATM    5  F8  UNL     1     -32.602   7.663   4.918  1.00 20.00    -0.205 F 
ENDROOT
BRANCH   2   6
HETATM    6  C1  UNL     1     -33.375   5.652   2.934  1.00 20.00     0.146 C 
HETATM    7  O6  UNL     1     -33.021   4.512   2.638  1.00 20.00    -0.297 OA
BRANCH   6   8
HETATM    8  C5  UNL     1     -34.654   5.980   3.666  1.00 20.00     0.164 C 
HETATM    9 BR9  UNL     1     -34.696   5.076   5.379  1.00 20.00    -0.089 Br
ENDBRANCH   6   8
ENDBRANCH   2   6
TORSDOF 2
ENDMDL
