MODEL 1
REMARK VINA RESULT:      -5.4      0.000      0.000
REMARK  2 active torsions:
REMARK  status: ('A' for Active; 'I' for Inactive)
REMARK    1  A    between atoms: C1_1  and  C4_4 
REMARK    2  A    between atoms: C4_4  and  C5_5 
ROOT
HETATM    1  C2  UNL     1     -35.451   5.740   4.107  1.00 20.00     0.027 A 
HETATM    2  C3  UNL     1     -34.486   4.751   4.688  1.00 20.00     0.027 A 
HETATM    3  C4  UNL     1     -33.968   6.047   4.098  1.00 20.00     0.110 A 
ENDROOT
BRANCH   3   4
HETATM    4  C1  UNL     1     -33.487   7.075   5.052  1.00 20.00     0.249 C 
HETATM    5  O6  UNL     1     -34.040   7.319   6.118  1.00 20.00    -0.306 OA
ENDBRANCH   3   4
BRANCH   3   6
HETATM    6  C5  UNL     1     -33.259   5.958   2.769  1.00 20.00     0.401 C 
HETATM    7  F7  UNL     1     -32.355   6.950   2.642  1.00 20.00    -0.170 F 
HETATM    8  F8  UNL     1     -32.611   4.782   2.649  1.00 20.00    -0.170 F 
HETATM    9  F9  UNL     1     -34.137   6.059   1.751  1.00 20.00    -0.170 F 
ENDBRANCH   3   6
TORSDOF 2
ENDMDL
MODEL 2
REMARK VINA RESULT:      -5.4      0.010      1.260
REMARK  2 active torsions:
REMARK  status: ('A' for Active; 'I' for Inactive)
REMARK    1  A    between atoms: C1_1  and  C4_4 
REMARK    2  A    between atoms: C4_4  and  C5_5 
ROOT
HETATM    1  C2  UNL     1     -35.459   5.754   4.099  1.00 20.00     0.027 A 
HETATM    2  C3  UNL     1     -34.503   4.758   4.680  1.00 20.00     0.027 A 
HETATM    3  C4  UNL     1     -33.974   6.051   4.094  1.00 20.00     0.110 A 
ENDROOT
BRANCH   3   4
HETATM    4  C1  UNL     1     -33.490   7.074   5.052  1.00 20.00     0.249 C 
HETATM    5  O6  UNL     1     -34.045   7.319   6.118  1.00 20.00    -0.306 OA
ENDBRANCH   3   4
BRANCH   3   6
HETATM    6  C5  UNL     1     -33.262   5.961   2.768  1.00 20.00     0.401 C 
HETATM    7  F7  UNL     1     -32.611   4.785   2.653  1.00 20.00    -0.170 F 
HETATM    8  F8  UNL     1     -34.136   6.058   1.747  1.00 20.00    -0.170 F 
HETATM    9  F9  UNL     1     -32.358   6.953   2.642  1.00 20.00    -0.170 F 
ENDBRANCH   3   6
TORSDOF 2
ENDMDL
MODEL 3
REMARK VINA RESULT:      -5.2      2.314      2.931
REMARK  2 active torsions:
REMARK  status: ('A' for Active; 'I' for Inactive)
REMARK    1  A    between atoms: C1_1  and  C4_4 
REMARK    2  A    between atoms: C4_4  and  C5_5 
ROOT
HETATM    1  C2  UNL     1     -32.923   5.122   2.750  1.00 20.00     0.027 A 
HETATM    2  C3  UNL     1     -34.033   5.871   2.077  1.00 20.00     0.027 A 
HETATM    3  C4  UNL     1     -33.744   6.117   3.543  1.00 20.00     0.110 A 
ENDROOT
BRANCH   3   4
HETATM    4  C1  UNL     1     -33.091   7.401   3.894  1.00 20.00     0.249 C 
HETATM    5  O6  UNL     1     -31.941   7.683   3.576  1.00 20.00    -0.306 OA
ENDBRANCH   3   4
BRANCH   3   6
HETATM    6  C5  UNL     1     -34.728   5.553   4.539  1.00 20.00     0.401 C 
HETATM    7  F7  UNL     1     -34.601   6.163   5.735  1.00 20.00    -0.170 F 
HETATM    8  F8  UNL     1     -35.994   5.727   4.111  1.00 20.00    -0.170 F 
HETATM    9  F9  UNL     1     -34.523   4.233   4.718  1.00 20.00    -0.170 F 
ENDBRANCH   3   6
TORSDOF 2
ENDMDL
MODEL 4
REMARK VINA RESULT:      -5.2      1.894      2.633
REMARK  2 active torsions:
REMARK  status: ('A' for Active; 'I' for Inactive)
REMARK    1  A    between atoms: C1_1  and  C4_4 
REMARK    2  A    between atoms: C4_4  and  C5_5 
ROOT
HETATM    1  C2  UNL     1     -32.777   5.846   2.970  1.00 20.00     0.027 A 
HETATM    2  C3  UNL     1     -33.851   6.826   2.609  1.00 20.00     0.027 A 
HETATM    3  C4  UNL     1     -33.758   6.305   4.028  1.00 20.00     0.110 A 
ENDROOT
BRANCH   3   4
HETATM    4  C1  UNL     1     -33.247   7.243   5.056  1.00 20.00     0.249 C 
HETATM    5  O6  UNL     1     -33.907   7.614   6.021  1.00 20.00    -0.306 OA
ENDBRANCH   3   4
BRANCH   3   6
HETATM    6  C5  UNL     1     -34.808   5.314   4.464  1.00 20.00     0.401 C 
HETATM    7  F7  UNL     1     -34.503   4.073   4.034  1.00 20.00    -0.170 F 
HETATM    8  F8  UNL     1     -34.905   5.279   5.808  1.00 20.00    -0.170 F 
HETATM    9  F9  UNL     1     -36.015   5.646   3.965  1.00 20.00    -0.170 F 
ENDBRANCH   3   6
TORSDOF 2
ENDMDL
MODEL 5
REMARK VINA RESULT:      -5.1      1.345      2.483
REMARK  2 active torsions:
REMARK  status: ('A' for Active; 'I' for Inactive)
REMARK    1  A    between atoms: C1_1  and  C4_4 
REMARK    2  A    between atoms: C4_4  and  C5_5 
ROOT
HETATM    1  C2  UNL     1     -31.911   7.470   3.308  1.00 20.00     0.027 A 
HETATM    2  C3  UNL     1     -33.081   8.094   2.610  1.00 20.00     0.027 A 
HETATM    3  C4  UNL     1     -33.307   6.942   3.566  1.00 20.00     0.110 A 
ENDROOT
BRANCH   3   4
HETATM    4  C1  UNL     1     -33.917   7.267   4.878  1.00 20.00     0.249 C 
HETATM    5  O6  UNL     1     -33.294   7.263   5.934  1.00 20.00    -0.306 OA
ENDBRANCH   3   4
BRANCH   3   6
HETATM    6  C5  UNL     1     -33.656   5.606   2.959  1.00 20.00     0.401 C 
HETATM    7  F7  UNL     1     -34.319   4.836   3.846  1.00 20.00    -0.170 F 
HETATM    8  F8  UNL     1     -34.438   5.763   1.873  1.00 20.00    -0.170 F 
HETATM    9  F9  UNL     1     -32.542   4.946   2.582  1.00 20.00    -0.170 F 
ENDBRANCH   3   6
TORSDOF 2
ENDMDL
MODEL 6
REMARK VINA RESULT:      -5.1      1.069      1.549
REMARK  2 active torsions:
REMARK  status: ('A' for Active; 'I' for Inactive)
REMARK    1  A    between atoms: C1_1  and  C4_4 
REMARK    2  A    between atoms: C4_4  and  C5_5 
ROOT
HETATM    1  C2  UNL     1     -35.316   5.950   3.786  1.00 20.00     0.027 A 
HETATM    2  C3  UNL     1     -34.290   4.871   3.959  1.00 20.00     0.027 A 
HETATM    3  C4  UNL     1     -33.954   6.296   4.351  1.00 20.00     0.110 A 
ENDROOT
BRANCH   3   4
HETATM    4  C1  UNL     1     -33.884   6.595   5.801  1.00 20.00     0.249 C 
HETATM    5  O6  UNL     1     -34.071   7.711   6.272  1.00 20.00    -0.306 OA
ENDBRANCH   3   4
BRANCH   3   6
HETATM    6  C5  UNL     1     -33.010   7.050   3.448  1.00 20.00     0.401 C 
HETATM    7  F7  UNL     1     -33.681   7.945   2.694  1.00 20.00    -0.170 F 
HETATM    8  F8  UNL     1     -32.088   7.717   4.170  1.00 20.00    -0.170 F 
HETATM    9  F9  UNL     1     -32.363   6.205   2.620  1.00 20.00    -0.170 F 
ENDBRANCH   3   6
TORSDOF 2
ENDMDL
MODEL 7
REMARK VINA RESULT:      -5.1      2.470      3.046
REMARK  2 active torsions:
REMARK  status: ('A' for Active; 'I' for Inactive)
REMARK    1  A    between atoms: C1_1  and  C4_4 
REMARK    2  A    between atoms: C4_4  and  C5_5 
ROOT
HETATM    1  C2  UNL     1     -34.439   4.811   4.425  1.00 20.00     0.027 A 
HETATM    2  C3  UNL     1     -35.390   5.755   3.754  1.00 20.00     0.027 A 
HETATM    3  C4  UNL     1     -33.985   6.216   4.086  1.00 20.00     0.110 A 
ENDROOT
BRANCH   3   4
HETATM    4  C1  UNL     1     -33.041   6.362   2.953  1.00 20.00     0.249 C 
HETATM    5  O6  UNL     1     -32.798   7.433   2.408  1.00 20.00    -0.306 OA
ENDBRANCH   3   4
BRANCH   3   6
HETATM    6  C5  UNL     1     -33.835   7.183   5.234  1.00 20.00     0.401 C 
HETATM    7  F7  UNL     1     -34.524   8.318   4.996  1.00 20.00    -0.170 F 
HETATM    8  F8  UNL     1     -34.299   6.643   6.378  1.00 20.00    -0.170 F 
HETATM    9  F9  UNL     1     -32.541   7.510   5.418  1.00 20.00    -0.170 F 
ENDBRANCH   3   6
TORSDOF 2
ENDMDL
MODEL 8
REMARK VINA RESULT:      -5.1      2.459      3.008
REMARK  2 active torsions:
REMARK  status: ('A' for Active; 'I' for Inactive)
REMARK    1  A    between atoms: C1_1  and  C4_4 
REMARK    2  A    between atoms: C4_4  and  C5_5 
ROOT
HETATM    1  C2  UNL     1     -34.442   4.806   4.463  1.00 20.00     0.027 A 
HETATM    2  C3  UNL     1     -35.404   5.734   3.787  1.00 20.00     0.027 A 
HETATM    3  C4  UNL     1     -33.998   6.206   4.095  1.00 20.00     0.110 A 
ENDROOT
BRANCH   3   4
HETATM    4  C1  UNL     1     -33.067   6.338   2.949  1.00 20.00     0.249 C 
HETATM    5  O6  UNL     1     -32.779   7.411   2.431  1.00 20.00    -0.306 OA
ENDBRANCH   3   4
BRANCH   3   6
HETATM    6  C5  UNL     1     -33.840   7.193   5.226  1.00 20.00     0.401 C 
HETATM    7  F7  UNL     1     -34.315   6.679   6.379  1.00 20.00    -0.170 F 
HETATM    8  F8  UNL     1     -32.542   7.506   5.410  1.00 20.00    -0.170 F 
HETATM    9  F9  UNL     1     -34.513   8.331   4.965  1.00 20.00    -0.170 F 
ENDBRANCH   3   6
TORSDOF 2
ENDMDL
MODEL 9
REMARK VINA RESULT:      -4.9      1.358      2.000
REMARK  2 active torsions:
REMARK  status: ('A' for Active; 'I' for Inactive)
REMARK    1  A    between atoms: C1_1  and  C4_4 
REMARK    2  A    between atoms: C4_4  and  C5_5 
ROOT
HETATM    1  C2  UNL     1     -33.328   6.909   5.203  1.00 20.00     0.027 A 
HETATM    2  C3  UNL     1     -34.522   7.491   4.509  1.00 20.00     0.027 A 
HETATM    3  C4  UNL     1     -34.017   6.119   4.110  1.00 20.00     0.110 A 
ENDROOT
BRANCH   3   4
HETATM    4  C1  UNL     1     -34.832   4.955   4.533  1.00 20.00     0.249 C 
HETATM    5  O6  UNL     1     -34.396   3.810   4.593  1.00 20.00    -0.306 OA
ENDBRANCH   3   4
BRANCH   3   6
HETATM    6  C5  UNL     1     -33.300   6.011   2.787  1.00 20.00     0.401 C 
HETATM    7  F7  UNL     1     -32.430   7.029   2.631  1.00 20.00    -0.170 F 
HETATM    8  F8  UNL     1     -32.611   4.855   2.709  1.00 20.00    -0.170 F 
HETATM    9  F9  UNL     1     -34.176   6.048   1.763  1.00 20.00    -0.170 F 
ENDBRANCH   3   6
TORSDOF 2
ENDMDL
