MODEL 1
REMARK VINA RESULT:      -5.6      0.000      0.000
REMARK  0 active torsions:
REMARK  status: ('A' for Active; 'I' for Inactive)
ROOT
HETATM    1  C1  UNL     1     -34.453   6.156   5.940  1.00 20.00     0.032 A 
HETATM    2  C2  UNL     1     -33.294   7.532   4.140  1.00 20.00     0.037 A 
HETATM    3  C3  UNL     1     -32.804   6.344   2.059  1.00 20.00     0.003 A 
HETATM    4  C4  UNL     1     -34.812   4.864   5.849  1.00 20.00     0.118 A 
HETATM    5  C5  UNL     1     -33.848   6.451   4.685  1.00 20.00    -0.008 A 
HETATM    6  C6  UNL     1     -32.760   7.470   2.794  1.00 20.00     0.031 A 
HETATM    7  C7  UNL     1     -33.932   5.182   3.939  1.00 20.00     0.048 A 
HETATM    8  C8  UNL     1     -33.400   5.048   2.543  1.00 20.00     0.088 A 
HETATM    9  N9  UNL     1     -34.509   4.242   4.645  1.00 20.00    -0.264 NA
HETATM   10 CL10 UNL     1     -32.054   8.909   2.146  1.00 20.00    -0.085 Cl
ENDROOT
TORSDOF 0
ENDMDL
MODEL 2
REMARK VINA RESULT:      -5.5      1.048      2.069
REMARK  0 active torsions:
REMARK  status: ('A' for Active; 'I' for Inactive)
ROOT
HETATM    1  C1  UNL     1     -34.464   4.585   3.968  1.00 20.00     0.032 A 
HETATM    2  C2  UNL     1     -33.109   6.365   2.753  1.00 20.00     0.037 A 
HETATM    3  C3  UNL     1     -32.455   8.295   4.106  1.00 20.00     0.003 A 
HETATM    4  C4  UNL     1     -34.841   4.612   5.257  1.00 20.00     0.118 A 
HETATM    5  C5  UNL     1     -33.738   5.796   3.780  1.00 20.00    -0.008 A 
HETATM    6  C6  UNL     1     -32.455   7.647   2.927  1.00 20.00     0.031 A 
HETATM    7  C7  UNL     1     -33.779   6.448   5.102  1.00 20.00     0.048 A 
HETATM    8  C8  UNL     1     -33.123   7.773   5.351  1.00 20.00     0.088 A 
HETATM    9  N9  UNL     1     -34.441   5.732   5.975  1.00 20.00    -0.264 NA
HETATM   10 CL10 UNL     1     -31.658   8.330   1.554  1.00 20.00    -0.085 Cl
ENDROOT
TORSDOF 0
ENDMDL
MODEL 3
REMARK VINA RESULT:      -4.9      2.738      3.820
REMARK  0 active torsions:
REMARK  status: ('A' for Active; 'I' for Inactive)
ROOT
HETATM    1  C1  UNL     1     -31.759   8.639   3.864  1.00 20.00     0.032 A 
HETATM    2  C2  UNL     1     -33.307   7.049   5.112  1.00 20.00     0.037 A 
HETATM    3  C3  UNL     1     -34.575   5.499   3.709  1.00 20.00     0.003 A 
HETATM    4  C4  UNL     1     -31.582   8.698   2.533  1.00 20.00     0.118 A 
HETATM    5  C5  UNL     1     -32.714   7.599   4.053  1.00 20.00    -0.008 A 
HETATM    6  C6  UNL     1     -34.260   5.973   4.928  1.00 20.00     0.031 A 
HETATM    7  C7  UNL     1     -33.010   7.130   2.687  1.00 20.00     0.048 A 
HETATM    8  C8  UNL     1     -33.985   6.022   2.425  1.00 20.00     0.088 A 
HETATM    9  N9  UNL     1     -32.328   7.794   1.788  1.00 20.00    -0.264 NA
HETATM   10 CL10 UNL     1     -34.993   5.304   6.342  1.00 20.00    -0.085 Cl
ENDROOT
TORSDOF 0
ENDMDL
MODEL 4
REMARK VINA RESULT:      -4.6      2.794      4.308
REMARK  0 active torsions:
REMARK  status: ('A' for Active; 'I' for Inactive)
ROOT
HETATM    1  C1  UNL     1     -32.514   7.360   1.608  1.00 20.00     0.032 A 
HETATM    2  C2  UNL     1     -33.829   5.954   3.274  1.00 20.00     0.037 A 
HETATM    3  C3  UNL     1     -33.764   6.733   5.591  1.00 20.00     0.003 A 
HETATM    4  C4  UNL     1     -31.805   8.467   1.885  1.00 20.00     0.118 A 
HETATM    5  C5  UNL     1     -33.052   6.955   2.863  1.00 20.00    -0.008 A 
HETATM    6  C6  UNL     1     -34.190   5.846   4.673  1.00 20.00     0.031 A 
HETATM    7  C7  UNL     1     -32.549   7.964   3.812  1.00 20.00     0.048 A 
HETATM    8  C8  UNL     1     -32.883   7.914   5.273  1.00 20.00     0.088 A 
HETATM    9  N9  UNL     1     -31.805   8.862   3.216  1.00 20.00    -0.264 NA
HETATM   10 CL10 UNL     1     -35.201   4.524   5.139  1.00 20.00    -0.085 Cl
ENDROOT
TORSDOF 0
ENDMDL
MODEL 5
REMARK VINA RESULT:      -4.3     12.267     12.523
REMARK  0 active torsions:
REMARK  status: ('A' for Active; 'I' for Inactive)
ROOT
HETATM    1  C1  UNL     1     -36.467  13.803  -5.679  1.00 20.00     0.032 A 
HETATM    2  C2  UNL     1     -35.949  15.336  -3.713  1.00 20.00     0.037 A 
HETATM    3  C3  UNL     1     -33.592  15.918  -3.426  1.00 20.00     0.003 A 
HETATM    4  C4  UNL     1     -35.580  13.299  -6.552  1.00 20.00     0.118 A 
HETATM    5  C5  UNL     1     -35.685  14.587  -4.783  1.00 20.00    -0.008 A 
HETATM    6  C6  UNL     1     -34.871  16.015  -3.022  1.00 20.00     0.031 A 
HETATM    7  C7  UNL     1     -34.307  14.436  -5.283  1.00 20.00     0.048 A 
HETATM    8  C8  UNL     1     -33.145  15.110  -4.617  1.00 20.00     0.088 A 
HETATM    9  N9  UNL     1     -34.256  13.664  -6.339  1.00 20.00    -0.264 NA
HETATM   10 CL10 UNL     1     -35.282  16.970  -1.642  1.00 20.00    -0.085 Cl
ENDROOT
TORSDOF 0
ENDMDL
MODEL 6
REMARK VINA RESULT:      -4.3     12.325     12.732
REMARK  0 active torsions:
REMARK  status: ('A' for Active; 'I' for Inactive)
ROOT
HETATM    1  C1  UNL     1     -33.630  16.583  -3.239  1.00 20.00     0.032 A 
HETATM    2  C2  UNL     1     -32.753  17.882  -1.233  1.00 20.00     0.037 A 
HETATM    3  C3  UNL     1     -34.372  18.272   0.557  1.00 20.00     0.003 A 
HETATM    4  C4  UNL     1     -34.876  16.103  -3.396  1.00 20.00     0.118 A 
HETATM    5  C5  UNL     1     -33.649  17.223  -1.967  1.00 20.00    -0.008 A 
HETATM    6  C6  UNL     1     -33.131  18.418   0.059  1.00 20.00     0.031 A 
HETATM    7  C7  UNL     1     -35.027  17.025  -1.485  1.00 20.00     0.048 A 
HETATM    8  C8  UNL     1     -35.485  17.552  -0.158  1.00 20.00     0.088 A 
HETATM    9  N9  UNL     1     -35.751  16.355  -2.347  1.00 20.00    -0.264 NA
HETATM   10 CL10 UNL     1     -31.921  19.262   0.960  1.00 20.00    -0.085 Cl
ENDROOT
TORSDOF 0
ENDMDL
MODEL 7
REMARK VINA RESULT:      -4.3     11.944     13.454
REMARK  0 active torsions:
REMARK  status: ('A' for Active; 'I' for Inactive)
ROOT
HETATM    1  C1  UNL     1     -33.925  15.070  -7.748  1.00 20.00     0.032 A 
HETATM    2  C2  UNL     1     -33.604  16.664  -5.788  1.00 20.00     0.037 A 
HETATM    3  C3  UNL     1     -34.056  15.718  -3.579  1.00 20.00     0.003 A 
HETATM    4  C4  UNL     1     -34.310  13.785  -7.675  1.00 20.00     0.118 A 
HETATM    5  C5  UNL     1     -33.898  15.514  -6.395  1.00 20.00    -0.008 A 
HETATM    6  C6  UNL     1     -33.688  16.761  -4.345  1.00 20.00     0.031 A 
HETATM    7  C7  UNL     1     -34.308  14.330  -5.620  1.00 20.00     0.048 A 
HETATM    8  C8  UNL     1     -34.415  14.360  -4.124  1.00 20.00     0.088 A 
HETATM    9  N9  UNL     1     -34.552  13.303  -6.395  1.00 20.00    -0.264 NA
HETATM   10 CL10 UNL     1     -33.294  18.280  -3.622  1.00 20.00    -0.085 Cl
ENDROOT
TORSDOF 0
ENDMDL
MODEL 8
REMARK VINA RESULT:      -4.3     12.307     12.758
REMARK  0 active torsions:
REMARK  status: ('A' for Active; 'I' for Inactive)
ROOT
HETATM    1  C1  UNL     1     -35.577  16.207  -2.562  1.00 20.00     0.032 A 
HETATM    2  C2  UNL     1     -35.414  17.374  -0.306  1.00 20.00     0.037 A 
HETATM    3  C3  UNL     1     -33.291  18.501   0.145  1.00 20.00     0.003 A 
HETATM    4  C4  UNL     1     -34.621  16.158  -3.505  1.00 20.00     0.118 A 
HETATM    5  C5  UNL     1     -35.001  16.967  -1.505  1.00 20.00    -0.008 A 
HETATM    6  C6  UNL     1     -34.533  18.159   0.535  1.00 20.00     0.031 A 
HETATM    7  C7  UNL     1     -33.653  17.305  -1.998  1.00 20.00     0.048 A 
HETATM    8  C8  UNL     1     -32.690  18.114  -1.181  1.00 20.00     0.088 A 
HETATM    9  N9  UNL     1     -33.438  16.816  -3.194  1.00 20.00    -0.264 NA
HETATM   10 CL10 UNL     1     -35.131  18.655   2.078  1.00 20.00    -0.085 Cl
ENDROOT
TORSDOF 0
ENDMDL
MODEL 9
REMARK VINA RESULT:      -4.3     12.251     12.633
REMARK  0 active torsions:
REMARK  status: ('A' for Active; 'I' for Inactive)
ROOT
HETATM    1  C1  UNL     1     -36.107  17.872   1.126  1.00 20.00     0.032 A 
HETATM    2  C2  UNL     1     -35.210  16.957  -1.074  1.00 20.00     0.037 A 
HETATM    3  C3  UNL     1     -32.968  17.713  -1.691  1.00 20.00     0.003 A 
HETATM    4  C4  UNL     1     -35.471  18.713   1.958  1.00 20.00     0.118 A 
HETATM    5  C5  UNL     1     -35.194  17.668   0.053  1.00 20.00    -0.008 A 
HETATM    6  C6  UNL     1     -34.066  16.985  -1.963  1.00 20.00     0.031 A 
HETATM    7  C7  UNL     1     -34.024  18.489   0.416  1.00 20.00     0.048 A 
HETATM    8  C8  UNL     1     -32.807  18.564  -0.458  1.00 20.00     0.088 A 
HETATM    9  N9  UNL     1     -34.202  19.109   1.555  1.00 20.00    -0.264 NA
HETATM   10 CL10 UNL     1     -34.152  16.040  -3.407  1.00 20.00    -0.085 Cl
ENDROOT
TORSDOF 0
ENDMDL
