MODEL 1
REMARK VINA RESULT:      -4.4      0.000      0.000
REMARK  1 active torsions:
REMARK  status: ('A' for Active; 'I' for Inactive)
REMARK    1  A    between atoms: C1_1  and  C4_4 
ROOT
HETATM    1  C2  UNL     1     -35.023   5.599   4.257  1.00 20.00     0.038 C 
HETATM    2  C3  UNL     1     -34.316   6.038   5.526  1.00 20.00     0.169 C 
HETATM    3  C4  UNL     1     -33.513   7.314   3.754  1.00 20.00     0.190 C 
HETATM    4  C5  UNL     1     -34.040   6.003   3.162  1.00 20.00    -0.013 C 
HETATM    5  C6  UNL     1     -34.737   6.217   1.816  1.00 20.00     0.018 C 
HETATM    6  C7  UNL     1     -32.957   4.919   3.001  1.00 20.00     0.018 C 
HETATM    7  O9  UNL     1     -33.472   7.143   5.175  1.00 20.00    -0.378 OA
ENDROOT
BRANCH   3   8
HETATM    8  C1  UNL     1     -32.142   7.706   3.305  1.00 20.00     0.263 C 
HETATM    9  O8  UNL     1     -31.930   8.449   2.352  1.00 20.00    -0.304 OA
ENDBRANCH   3   8
TORSDOF 1
ENDMDL
MODEL 2
REMARK VINA RESULT:      -4.1      1.588      2.449
REMARK  1 active torsions:
REMARK  status: ('A' for Active; 'I' for Inactive)
REMARK    1  A    between atoms: C1_1  and  C4_4 
ROOT
HETATM    1  C2  UNL     1     -34.326   4.557   5.008  1.00 20.00     0.038 C 
HETATM    2  C3  UNL     1     -33.920   3.772   3.775  1.00 20.00     0.169 C 
HETATM    3  C4  UNL     1     -33.077   5.932   3.585  1.00 20.00     0.190 C 
HETATM    4  C5  UNL     1     -34.290   6.002   4.520  1.00 20.00    -0.013 C 
HETATM    5  C6  UNL     1     -34.076   6.990   5.668  1.00 20.00     0.018 C 
HETATM    6  C7  UNL     1     -35.606   6.347   3.797  1.00 20.00     0.018 C 
HETATM    7  O9  UNL     1     -33.088   4.633   2.984  1.00 20.00    -0.378 OA
ENDROOT
BRANCH   3   8
HETATM    8  C1  UNL     1     -33.067   6.942   2.482  1.00 20.00     0.263 C 
HETATM    9  O8  UNL     1     -32.485   8.018   2.557  1.00 20.00    -0.304 OA
ENDBRANCH   3   8
TORSDOF 1
ENDMDL
MODEL 3
REMARK VINA RESULT:      -4.1      1.337      2.855
REMARK  1 active torsions:
REMARK  status: ('A' for Active; 'I' for Inactive)
REMARK    1  A    between atoms: C1_1  and  C4_4 
ROOT
HETATM    1  C2  UNL     1     -33.353   5.624   2.551  1.00 20.00     0.038 C 
HETATM    2  C3  UNL     1     -32.883   7.066   2.580  1.00 20.00     0.169 C 
HETATM    3  C4  UNL     1     -33.291   6.378   4.765  1.00 20.00     0.190 C 
HETATM    4  C5  UNL     1     -34.147   5.497   3.848  1.00 20.00    -0.013 C 
HETATM    5  C6  UNL     1     -34.215   4.050   4.339  1.00 20.00     0.018 C 
HETATM    6  C7  UNL     1     -35.578   6.028   3.644  1.00 20.00     0.018 C 
HETATM    7  O9  UNL     1     -32.781   7.446   3.960  1.00 20.00    -0.378 OA
ENDROOT
BRANCH   3   8
HETATM    8  C1  UNL     1     -34.020   6.988   5.919  1.00 20.00     0.263 C 
HETATM    9  O8  UNL     1     -33.629   7.987   6.513  1.00 20.00    -0.304 OA
ENDBRANCH   3   8
TORSDOF 1
ENDMDL
MODEL 4
REMARK VINA RESULT:      -3.9     11.304     12.618
REMARK  1 active torsions:
REMARK  status: ('A' for Active; 'I' for Inactive)
REMARK    1  A    between atoms: C1_1  and  C4_4 
ROOT
HETATM    1  C2  UNL     1     -33.422  16.531  -5.372  1.00 20.00     0.038 C 
HETATM    2  C3  UNL     1     -33.704  15.936  -6.739  1.00 20.00     0.169 C 
HETATM    3  C4  UNL     1     -35.216  15.038  -5.215  1.00 20.00     0.190 C 
HETATM    4  C5  UNL     1     -33.983  15.481  -4.419  1.00 20.00    -0.013 C 
HETATM    5  C6  UNL     1     -34.358  16.080  -3.062  1.00 20.00     0.018 C 
HETATM    6  C7  UNL     1     -32.952  14.357  -4.207  1.00 20.00     0.018 C 
HETATM    7  O9  UNL     1     -34.863  15.100  -6.600  1.00 20.00    -0.378 OA
ENDROOT
BRANCH   3   8
HETATM    8  C1  UNL     1     -35.691  13.650  -4.929  1.00 20.00     0.263 C 
HETATM    9  O8  UNL     1     -35.611  12.729  -5.736  1.00 20.00    -0.304 OA
ENDBRANCH   3   8
TORSDOF 1
ENDMDL
MODEL 5
REMARK VINA RESULT:      -3.9     11.190     12.021
REMARK  1 active torsions:
REMARK  status: ('A' for Active; 'I' for Inactive)
REMARK    1  A    between atoms: C1_1  and  C4_4 
ROOT
HETATM    1  C2  UNL     1     -33.664  16.279  -3.363  1.00 20.00     0.038 C 
HETATM    2  C3  UNL     1     -35.111  16.734  -3.366  1.00 20.00     0.169 C 
HETATM    3  C4  UNL     1     -35.023  14.542  -4.145  1.00 20.00     0.190 C 
HETATM    4  C5  UNL     1     -33.651  15.171  -4.412  1.00 20.00    -0.013 C 
HETATM    5  C6  UNL     1     -32.508  14.179  -4.184  1.00 20.00     0.018 C 
HETATM    6  C7  UNL     1     -33.516  15.781  -5.820  1.00 20.00     0.018 C 
HETATM    7  O9  UNL     1     -35.903  15.607  -3.769  1.00 20.00    -0.378 OA
ENDROOT
BRANCH   3   8
HETATM    8  C1  UNL     1     -35.635  13.838  -5.312  1.00 20.00     0.263 C 
HETATM    9  O8  UNL     1     -35.870  12.634  -5.328  1.00 20.00    -0.304 OA
ENDBRANCH   3   8
TORSDOF 1
ENDMDL
MODEL 6
REMARK VINA RESULT:      -3.9     11.696     12.860
REMARK  1 active torsions:
REMARK  status: ('A' for Active; 'I' for Inactive)
REMARK    1  A    between atoms: C1_1  and  C4_4 
ROOT
HETATM    1  C2  UNL     1     -33.205  16.136  -5.425  1.00 20.00     0.038 C 
HETATM    2  C3  UNL     1     -33.143  15.112  -4.307  1.00 20.00     0.169 C 
HETATM    3  C4  UNL     1     -34.293  14.178  -6.101  1.00 20.00     0.190 C 
HETATM    4  C5  UNL     1     -34.432  15.700  -6.220  1.00 20.00    -0.013 C 
HETATM    5  C6  UNL     1     -34.371  16.172  -7.674  1.00 20.00     0.018 C 
HETATM    6  C7  UNL     1     -35.710  16.254  -5.563  1.00 20.00     0.018 C 
HETATM    7  O9  UNL     1     -33.745  13.909  -4.806  1.00 20.00    -0.378 OA
ENDROOT
BRANCH   3   8
HETATM    8  C1  UNL     1     -35.572  13.413  -6.220  1.00 20.00     0.263 C 
HETATM    9  O8  UNL     1     -36.019  12.702  -5.327  1.00 20.00    -0.304 OA
ENDBRANCH   3   8
TORSDOF 1
ENDMDL
MODEL 7
REMARK VINA RESULT:      -3.8     10.944     11.823
REMARK  1 active torsions:
REMARK  status: ('A' for Active; 'I' for Inactive)
REMARK    1  A    between atoms: C1_1  and  C4_4 
ROOT
HETATM    1  C2  UNL     1     -36.789  14.976  -4.421  1.00 20.00     0.038 C 
HETATM    2  C3  UNL     1     -36.495  13.813  -5.349  1.00 20.00     0.169 C 
HETATM    3  C4  UNL     1     -34.587  14.256  -4.093  1.00 20.00     0.190 C 
HETATM    4  C5  UNL     1     -35.404  15.552  -4.145  1.00 20.00    -0.013 C 
HETATM    5  C6  UNL     1     -35.354  16.318  -2.822  1.00 20.00     0.018 C 
HETATM    6  C7  UNL     1     -34.988  16.495  -5.290  1.00 20.00     0.018 C 
HETATM    7  O9  UNL     1     -35.169  13.358  -5.044  1.00 20.00    -0.378 OA
ENDROOT
BRANCH   3   8
HETATM    8  C1  UNL     1     -33.140  14.404  -4.434  1.00 20.00     0.263 C 
HETATM    9  O8  UNL     1     -32.285  13.581  -4.124  1.00 20.00    -0.304 OA
ENDBRANCH   3   8
TORSDOF 1
ENDMDL
MODEL 8
REMARK VINA RESULT:      -3.8     11.682     12.382
REMARK  1 active torsions:
REMARK  status: ('A' for Active; 'I' for Inactive)
REMARK    1  A    between atoms: C1_1  and  C4_4 
ROOT
HETATM    1  C2  UNL     1     -36.654  15.514  -3.837  1.00 20.00     0.038 C 
HETATM    2  C3  UNL     1     -37.895  15.008  -4.550  1.00 20.00     0.169 C 
HETATM    3  C4  UNL     1     -36.072  13.742  -5.250  1.00 20.00     0.190 C 
HETATM    4  C5  UNL     1     -35.526  15.093  -4.774  1.00 20.00    -0.013 C 
HETATM    5  C6  UNL     1     -34.193  14.948  -4.037  1.00 20.00     0.018 C 
HETATM    6  C7  UNL     1     -35.368  16.126  -5.905  1.00 20.00     0.018 C 
HETATM    7  O9  UNL     1     -37.495  13.873  -5.331  1.00 20.00    -0.378 OA
ENDROOT
BRANCH   3   8
HETATM    8  C1  UNL     1     -35.581  13.296  -6.590  1.00 20.00     0.263 C 
HETATM    9  O8  UNL     1     -35.053  12.207  -6.787  1.00 20.00    -0.304 OA
ENDBRANCH   3   8
TORSDOF 1
ENDMDL
MODEL 9
REMARK VINA RESULT:      -3.8     11.656     12.550
REMARK  1 active torsions:
REMARK  status: ('A' for Active; 'I' for Inactive)
REMARK    1  A    between atoms: C1_1  and  C4_4 
ROOT
HETATM    1  C2  UNL     1     -33.439  16.236  -4.741  1.00 20.00     0.038 C 
HETATM    2  C3  UNL     1     -32.887  14.853  -4.449  1.00 20.00     0.169 C 
HETATM    3  C4  UNL     1     -34.772  14.628  -5.796  1.00 20.00     0.190 C 
HETATM    4  C5  UNL     1     -34.907  15.960  -5.050  1.00 20.00    -0.013 C 
HETATM    5  C6  UNL     1     -35.524  17.052  -5.927  1.00 20.00     0.018 C 
HETATM    6  C7  UNL     1     -35.710  15.853  -3.740  1.00 20.00     0.018 C 
HETATM    7  O9  UNL     1     -33.687  13.918  -5.189  1.00 20.00    -0.378 OA
ENDROOT
BRANCH   3   8
HETATM    8  C1  UNL     1     -35.978  13.746  -5.743  1.00 20.00     0.263 C 
HETATM    9  O8  UNL     1     -35.985  12.644  -5.205  1.00 20.00    -0.304 OA
ENDBRANCH   3   8
TORSDOF 1
ENDMDL
