MODEL 1
REMARK VINA RESULT:      -3.6      0.000      0.000
REMARK  2 active torsions:
REMARK  status: ('A' for Active; 'I' for Inactive)
REMARK    1  A    between atoms: C1_1  and  O4_4 
REMARK    2  A    between atoms: C1_1  and  S5_5 
ROOT
HETATM    1  C1  UNL     1     -33.816   6.941   4.893  1.00 20.00     0.337 C 
HETATM    2  O3  UNL     1     -34.037   7.116   6.086  1.00 20.00    -0.251 OA
ENDROOT
BRANCH   1   3
HETATM    3  O4  UNL     1     -32.772   7.507   4.212  1.00 20.00    -0.317 OA
HETATM    4  C2  UNL     1     -32.681   7.178   2.822  1.00 20.00     0.214 C 
ENDBRANCH   1   3
BRANCH   1   5
HETATM    5  S5  UNL     1     -34.844   5.910   3.887  1.00 20.00     0.050 SA
HETATM    6 CL6  UNL     1     -34.264   4.061   4.506  1.00 20.00    -0.033 Cl
ENDBRANCH   1   5
TORSDOF 2
ENDMDL
MODEL 2
REMARK VINA RESULT:      -3.6      2.193      2.617
REMARK  2 active torsions:
REMARK  status: ('A' for Active; 'I' for Inactive)
REMARK    1  A    between atoms: C1_1  and  O4_4 
REMARK    2  A    between atoms: C1_1  and  S5_5 
ROOT
HETATM    1  C1  UNL     1     -34.514   5.288   4.795  1.00 20.00     0.337 C 
HETATM    2  O3  UNL     1     -34.845   4.108   4.755  1.00 20.00    -0.251 OA
ENDROOT
BRANCH   1   3
HETATM    3  O4  UNL     1     -34.507   6.047   5.933  1.00 20.00    -0.317 OA
HETATM    4  C2  UNL     1     -33.753   7.262   5.869  1.00 20.00     0.214 C 
ENDBRANCH   1   3
BRANCH   1   5
HETATM    5  S5  UNL     1     -33.994   6.169   3.351  1.00 20.00     0.050 SA
HETATM    6 CL6  UNL     1     -32.875   4.752   2.414  1.00 20.00    -0.033 Cl
ENDBRANCH   1   5
TORSDOF 2
ENDMDL
MODEL 3
REMARK VINA RESULT:      -3.5      2.172      2.423
REMARK  2 active torsions:
REMARK  status: ('A' for Active; 'I' for Inactive)
REMARK    1  A    between atoms: C1_1  and  O4_4 
REMARK    2  A    between atoms: C1_1  and  S5_5 
ROOT
HETATM    1  C1  UNL     1     -33.600   5.907   3.236  1.00 20.00     0.337 C 
HETATM    2  O3  UNL     1     -33.031   4.989   2.655  1.00 20.00    -0.251 OA
ENDROOT
BRANCH   1   3
HETATM    3  O4  UNL     1     -33.449   7.230   2.918  1.00 20.00    -0.317 OA
HETATM    4  C2  UNL     1     -32.111   7.736   2.970  1.00 20.00     0.214 C 
ENDBRANCH   1   3
BRANCH   1   5
HETATM    5  S5  UNL     1     -34.711   5.622   4.584  1.00 20.00     0.050 SA
HETATM    6 CL6  UNL     1     -34.028   6.974   5.941  1.00 20.00    -0.033 Cl
ENDBRANCH   1   5
TORSDOF 2
ENDMDL
MODEL 4
REMARK VINA RESULT:      -3.5      1.021      2.119
REMARK  2 active torsions:
REMARK  status: ('A' for Active; 'I' for Inactive)
REMARK    1  A    between atoms: C1_1  and  O4_4 
REMARK    2  A    between atoms: C1_1  and  S5_5 
ROOT
HETATM    1  C1  UNL     1     -33.427   6.756   3.642  1.00 20.00     0.337 C 
HETATM    2  O3  UNL     1     -32.816   6.712   2.580  1.00 20.00    -0.251 OA
ENDROOT
BRANCH   1   3
HETATM    3  O4  UNL     1     -33.022   7.474   4.734  1.00 20.00    -0.317 OA
HETATM    4  C2  UNL     1     -33.781   7.271   5.932  1.00 20.00     0.214 C 
ENDBRANCH   1   3
BRANCH   1   5
HETATM    5  S5  UNL     1     -34.942   5.876   3.893  1.00 20.00     0.050 SA
HETATM    6 CL6  UNL     1     -34.242   4.027   4.373  1.00 20.00    -0.033 Cl
ENDBRANCH   1   5
TORSDOF 2
ENDMDL
MODEL 5
REMARK VINA RESULT:      -3.4      2.448      2.826
REMARK  2 active torsions:
REMARK  status: ('A' for Active; 'I' for Inactive)
REMARK    1  A    between atoms: C1_1  and  O4_4 
REMARK    2  A    between atoms: C1_1  and  S5_5 
ROOT
HETATM    1  C1  UNL     1     -33.987   6.665   5.123  1.00 20.00     0.337 C 
HETATM    2  O3  UNL     1     -33.662   7.515   5.945  1.00 20.00    -0.251 OA
ENDROOT
BRANCH   1   3
HETATM    3  O4  UNL     1     -34.703   5.538   5.424  1.00 20.00    -0.317 OA
HETATM    4  C2  UNL     1     -34.485   4.412   4.567  1.00 20.00     0.214 C 
ENDBRANCH   1   3
BRANCH   1   5
HETATM    5  S5  UNL     1     -33.558   6.798   3.411  1.00 20.00     0.050 SA
HETATM    6 CL6  UNL     1     -31.886   7.951   3.518  1.00 20.00    -0.033 Cl
ENDBRANCH   1   5
TORSDOF 2
ENDMDL
MODEL 6
REMARK VINA RESULT:      -3.3      1.925      2.232
REMARK  2 active torsions:
REMARK  status: ('A' for Active; 'I' for Inactive)
REMARK    1  A    between atoms: C1_1  and  O4_4 
REMARK    2  A    between atoms: C1_1  and  S5_5 
ROOT
HETATM    1  C1  UNL     1     -33.273   7.041   3.877  1.00 20.00     0.337 C 
HETATM    2  O3  UNL     1     -32.415   7.783   3.411  1.00 20.00    -0.251 OA
ENDROOT
BRANCH   1   3
HETATM    3  O4  UNL     1     -33.921   6.070   3.162  1.00 20.00    -0.317 OA
HETATM    4  C2  UNL     1     -33.102   5.002   2.674  1.00 20.00     0.214 C 
ENDBRANCH   1   3
BRANCH   1   5
HETATM    5  S5  UNL     1     -33.786   7.140   5.568  1.00 20.00     0.050 SA
HETATM    6 CL6  UNL     1     -34.654   5.317   5.817  1.00 20.00    -0.033 Cl
ENDBRANCH   1   5
TORSDOF 2
ENDMDL
MODEL 7
REMARK VINA RESULT:      -3.3      2.730      2.730
REMARK  2 active torsions:
REMARK  status: ('A' for Active; 'I' for Inactive)
REMARK    1  A    between atoms: C1_1  and  O4_4 
REMARK    2  A    between atoms: C1_1  and  S5_5 
ROOT
HETATM    1  C1  UNL     1     -34.452   4.964   4.332  1.00 20.00     0.337 C 
HETATM    2  O3  UNL     1     -34.315   3.754   4.189  1.00 20.00    -0.251 OA
ENDROOT
BRANCH   1   3
HETATM    3  O4  UNL     1     -34.430   5.868   3.305  1.00 20.00    -0.317 OA
HETATM    4  C2  UNL     1     -33.175   6.018   2.632  1.00 20.00     0.214 C 
ENDBRANCH   1   3
BRANCH   1   5
HETATM    5  S5  UNL     1     -34.703   5.701   5.921  1.00 20.00     0.050 SA
HETATM    6 CL6  UNL     1     -33.545   7.366   5.763  1.00 20.00    -0.033 Cl
ENDBRANCH   1   5
TORSDOF 2
ENDMDL
MODEL 8
REMARK VINA RESULT:      -3.3      2.462      2.793
REMARK  2 active torsions:
REMARK  status: ('A' for Active; 'I' for Inactive)
REMARK    1  A    between atoms: C1_1  and  O4_4 
REMARK    2  A    between atoms: C1_1  and  S5_5 
ROOT
HETATM    1  C1  UNL     1     -32.505   7.803   3.121  1.00 20.00     0.337 C 
HETATM    2  O3  UNL     1     -31.523   8.195   3.741  1.00 20.00    -0.251 OA
ENDROOT
BRANCH   1   3
HETATM    3  O4  UNL     1     -32.753   8.097   1.807  1.00 20.00    -0.317 OA
HETATM    4  C2  UNL     1     -32.165   9.306   1.316  1.00 20.00     0.214 C 
ENDBRANCH   1   3
BRANCH   1   5
HETATM    5  S5  UNL     1     -33.745   6.784   3.867  1.00 20.00     0.050 SA
HETATM    6 CL6  UNL     1     -33.601   7.361   5.812  1.00 20.00    -0.033 Cl
ENDBRANCH   1   5
TORSDOF 2
ENDMDL
MODEL 9
REMARK VINA RESULT:      -3.2      2.841      3.359
REMARK  2 active torsions:
REMARK  status: ('A' for Active; 'I' for Inactive)
REMARK    1  A    between atoms: C1_1  and  O4_4 
REMARK    2  A    between atoms: C1_1  and  S5_5 
ROOT
HETATM    1  C1  UNL     1     -33.555   5.664   3.191  1.00 20.00     0.337 C 
HETATM    2  O3  UNL     1     -32.928   4.854   2.518  1.00 20.00    -0.251 OA
ENDROOT
BRANCH   1   3
HETATM    3  O4  UNL     1     -34.723   5.381   3.847  1.00 20.00    -0.317 OA
HETATM    4  C2  UNL     1     -34.630   4.412   4.897  1.00 20.00     0.214 C 
ENDBRANCH   1   3
BRANCH   1   5
HETATM    5  S5  UNL     1     -33.011   7.335   3.401  1.00 20.00     0.050 SA
HETATM    6 CL6  UNL     1     -33.265   7.578   5.404  1.00 20.00    -0.033 Cl
ENDBRANCH   1   5
TORSDOF 2
ENDMDL
