MODEL 1
REMARK VINA RESULT:      -4.3      0.000      0.000
REMARK  1 active torsions:
REMARK  status: ('A' for Active; 'I' for Inactive)
REMARK    1  A    between atoms: C2_2  and  C4_4 
ROOT
HETATM    1  C1  UNL     1     -34.320   5.747   3.741  1.00 20.00     0.026 A 
HETATM    2  C2  UNL     1     -33.558   6.839   3.804  1.00 20.00     0.068 A 
HETATM    3  C3  UNL     1     -34.758   5.501   5.131  1.00 20.00     0.203 A 
HETATM    4  N5  UNL     1     -33.452   7.332   5.081  1.00 20.00    -0.159 NA
HETATM    5  N6  UNL     1     -34.115   6.610   5.880  1.00 20.00    -0.189 NA
ENDROOT
BRANCH   2   6
HETATM    6  C4  UNL     1     -32.863   7.517   2.681  1.00 20.00     0.175 C 
HETATM    7 CL7  UNL     1     -31.442   8.324   3.353  1.00 20.00    -0.124 Cl
ENDBRANCH   2   6
TORSDOF 1
ENDMDL
MODEL 2
REMARK VINA RESULT:      -4.3      1.337      1.464
REMARK  1 active torsions:
REMARK  status: ('A' for Active; 'I' for Inactive)
REMARK    1  A    between atoms: C2_2  and  C4_4 
ROOT
HETATM    1  C1  UNL     1     -33.639   7.147   5.113  1.00 20.00     0.026 A 
HETATM    2  C2  UNL     1     -33.603   6.804   3.825  1.00 20.00     0.068 A 
HETATM    3  C3  UNL     1     -34.468   6.110   5.765  1.00 20.00     0.203 A 
HETATM    4  N5  UNL     1     -34.314   5.660   3.566  1.00 20.00    -0.159 NA
HETATM    5  N6  UNL     1     -34.829   5.219   4.634  1.00 20.00    -0.189 NA
ENDROOT
BRANCH   2   6
HETATM    6  C4  UNL     1     -32.902   7.514   2.725  1.00 20.00     0.175 C 
HETATM    7 CL7  UNL     1     -31.470   8.280   3.422  1.00 20.00    -0.124 Cl
ENDBRANCH   2   6
TORSDOF 1
ENDMDL
MODEL 3
REMARK VINA RESULT:      -4.1      1.075      1.202
REMARK  1 active torsions:
REMARK  status: ('A' for Active; 'I' for Inactive)
REMARK    1  A    between atoms: C2_2  and  C4_4 
ROOT
HETATM    1  C1  UNL     1     -33.592   6.276   2.904  1.00 20.00     0.026 A 
HETATM    2  C2  UNL     1     -32.949   7.190   3.631  1.00 20.00     0.068 A 
HETATM    3  C3  UNL     1     -34.597   5.693   3.818  1.00 20.00     0.203 A 
HETATM    4  N5  UNL     1     -33.423   7.267   4.916  1.00 20.00    -0.159 NA
HETATM    5  N6  UNL     1     -34.362   6.437   5.081  1.00 20.00    -0.189 NA
ENDROOT
BRANCH   2   6
HETATM    6  C4  UNL     1     -31.837   8.069   3.190  1.00 20.00     0.175 C 
HETATM    7 CL7  UNL     1     -32.220   8.623   1.556  1.00 20.00    -0.124 Cl
ENDBRANCH   2   6
TORSDOF 1
ENDMDL
MODEL 4
REMARK VINA RESULT:      -4.0      2.149      3.059
REMARK  1 active torsions:
REMARK  status: ('A' for Active; 'I' for Inactive)
REMARK    1  A    between atoms: C2_2  and  C4_4 
ROOT
HETATM    1  C1  UNL     1     -33.273   6.693   2.601  1.00 20.00     0.026 A 
HETATM    2  C2  UNL     1     -33.846   6.541   3.795  1.00 20.00     0.068 A 
HETATM    3  C3  UNL     1     -32.187   7.673   2.815  1.00 20.00     0.203 A 
HETATM    4  N5  UNL     1     -33.254   7.313   4.764  1.00 20.00    -0.159 NA
HETATM    5  N6  UNL     1     -32.302   7.980   4.263  1.00 20.00    -0.189 NA
ENDROOT
BRANCH   2   6
HETATM    6  C4  UNL     1     -34.994   5.665   4.137  1.00 20.00     0.175 C 
HETATM    7 CL7  UNL     1     -34.628   4.899   5.687  1.00 20.00    -0.124 Cl
ENDBRANCH   2   6
TORSDOF 1
ENDMDL
MODEL 5
REMARK VINA RESULT:      -4.0      2.672      3.365
REMARK  1 active torsions:
REMARK  status: ('A' for Active; 'I' for Inactive)
REMARK    1  A    between atoms: C2_2  and  C4_4 
ROOT
HETATM    1  C1  UNL     1     -33.230   7.387   4.700  1.00 20.00     0.026 A 
HETATM    2  C2  UNL     1     -33.875   6.560   3.877  1.00 20.00     0.068 A 
HETATM    3  C3  UNL     1     -32.169   8.003   3.875  1.00 20.00     0.203 A 
HETATM    4  N5  UNL     1     -33.352   6.568   2.608  1.00 20.00    -0.159 NA
HETATM    5  N6  UNL     1     -32.378   7.372   2.547  1.00 20.00    -0.189 NA
ENDROOT
BRANCH   2   6
HETATM    6  C4  UNL     1     -35.033   5.689   4.203  1.00 20.00     0.175 C 
HETATM    7 CL7  UNL     1     -34.609   4.769   5.650  1.00 20.00    -0.124 Cl
ENDBRANCH   2   6
TORSDOF 1
ENDMDL
MODEL 6
REMARK VINA RESULT:      -3.9      2.043      2.258
REMARK  1 active torsions:
REMARK  status: ('A' for Active; 'I' for Inactive)
REMARK    1  A    between atoms: C2_2  and  C4_4 
ROOT
HETATM    1  C1  UNL     1     -33.435   7.375   4.606  1.00 20.00     0.026 A 
HETATM    2  C2  UNL     1     -33.959   6.317   3.987  1.00 20.00     0.068 A 
HETATM    3  C3  UNL     1     -33.831   7.229   6.023  1.00 20.00     0.203 A 
HETATM    4  N5  UNL     1     -34.652   5.498   4.843  1.00 20.00    -0.159 NA
HETATM    5  N6  UNL     1     -34.613   5.967   6.017  1.00 20.00    -0.189 NA
ENDROOT
BRANCH   2   6
HETATM    6  C4  UNL     1     -33.860   5.979   2.545  1.00 20.00     0.175 C 
HETATM    7 CL7  UNL     1     -32.882   4.513   2.415  1.00 20.00    -0.124 Cl
ENDBRANCH   2   6
TORSDOF 1
ENDMDL
MODEL 7
REMARK VINA RESULT:      -3.8      1.799      1.895
REMARK  1 active torsions:
REMARK  status: ('A' for Active; 'I' for Inactive)
REMARK    1  A    between atoms: C2_2  and  C4_4 
ROOT
HETATM    1  C1  UNL     1     -34.750   5.611   4.835  1.00 20.00     0.026 A 
HETATM    2  C2  UNL     1     -33.974   6.290   3.990  1.00 20.00     0.068 A 
HETATM    3  C3  UNL     1     -34.570   6.276   6.143  1.00 20.00     0.203 A 
HETATM    4  N5  UNL     1     -33.309   7.323   4.601  1.00 20.00    -0.159 NA
HETATM    5  N6  UNL     1     -33.610   7.364   5.829  1.00 20.00    -0.189 NA
ENDROOT
BRANCH   2   6
HETATM    6  C4  UNL     1     -33.785   6.034   2.539  1.00 20.00     0.175 C 
HETATM    7 CL7  UNL     1     -32.875   4.527   2.385  1.00 20.00    -0.124 Cl
ENDBRANCH   2   6
TORSDOF 1
ENDMDL
MODEL 8
REMARK VINA RESULT:      -3.7     11.908     12.189
REMARK  1 active torsions:
REMARK  status: ('A' for Active; 'I' for Inactive)
REMARK    1  A    between atoms: C2_2  and  C4_4 
ROOT
HETATM    1  C1  UNL     1     -34.385  14.178  -6.612  1.00 20.00     0.026 A 
HETATM    2  C2  UNL     1     -34.179  14.313  -5.302  1.00 20.00     0.068 A 
HETATM    3  C3  UNL     1     -35.489  13.202  -6.730  1.00 20.00     0.203 A 
HETATM    4  N5  UNL     1     -35.025  13.533  -4.554  1.00 20.00    -0.159 NA
HETATM    5  N6  UNL     1     -35.794  12.878  -5.314  1.00 20.00    -0.189 NA
ENDROOT
BRANCH   2   6
HETATM    6  C4  UNL     1     -33.174  15.179  -4.634  1.00 20.00     0.175 C 
HETATM    7 CL7  UNL     1     -33.978  15.958  -3.266  1.00 20.00    -0.124 Cl
ENDBRANCH   2   6
TORSDOF 1
ENDMDL
MODEL 9
REMARK VINA RESULT:      -3.5     11.987     12.573
REMARK  1 active torsions:
REMARK  status: ('A' for Active; 'I' for Inactive)
REMARK    1  A    between atoms: C2_2  and  C4_4 
ROOT
HETATM    1  C1  UNL     1     -34.603  14.698  -6.458  1.00 20.00     0.026 A 
HETATM    2  C2  UNL     1     -35.294  14.255  -5.409  1.00 20.00     0.068 A 
HETATM    3  C3  UNL     1     -34.470  13.530  -7.355  1.00 20.00     0.203 A 
HETATM    4  N5  UNL     1     -35.628  12.928  -5.522  1.00 20.00    -0.159 NA
HETATM    5  N6  UNL     1     -35.185  12.463  -6.612  1.00 20.00    -0.189 NA
ENDROOT
BRANCH   2   6
HETATM    6  C4  UNL     1     -35.704  15.028  -4.209  1.00 20.00     0.175 C 
HETATM    7 CL7  UNL     1     -34.229  15.620  -3.437  1.00 20.00    -0.124 Cl
ENDBRANCH   2   6
TORSDOF 1
ENDMDL
