MODEL 1
REMARK VINA RESULT:      -5.1      0.000      0.000
REMARK  1 active torsions:
REMARK  status: ('A' for Active; 'I' for Inactive)
REMARK    1  A    between atoms: C4_4  and  C9_9 
ROOT
HETATM    1  C1  UNL     1     -32.976   7.008   2.747  1.00 20.00     0.065 A 
HETATM    2  C2  UNL     1     -32.891   7.512   5.084  1.00 20.00     0.095 A 
HETATM    3  C3  UNL     1     -31.567   8.748   3.589  1.00 20.00     0.142 A 
HETATM    4  C4  UNL     1     -33.406   6.750   4.046  1.00 20.00    -0.031 A 
HETATM    5  C5  UNL     1     -32.046   8.016   2.513  1.00 20.00     0.187 A 
HETATM    6  N10 UNL     1     -31.997   8.478   4.829  1.00 20.00    -0.371 N 
HETATM    7  O11 UNL     1     -31.639   8.267   1.326  1.00 20.00    -0.287 OA
HETATM    8  H24 UNL     1     -31.630   9.025   5.607  1.00 20.00     0.164 HD
ENDROOT
BRANCH   4   9
HETATM    9  C9  UNL     1     -34.432   5.640   4.328  1.00 20.00    -0.023 C 
HETATM   10  C6  UNL     1     -35.763   5.971   3.618  1.00 20.00     0.019 C 
HETATM   11  C7  UNL     1     -34.680   5.535   5.848  1.00 20.00     0.019 C 
HETATM   12  C8  UNL     1     -33.992   4.241   3.840  1.00 20.00     0.019 C 
ENDBRANCH   4   9
TORSDOF 1
ENDMDL
MODEL 2
REMARK VINA RESULT:      -4.8     11.512     12.281
REMARK  1 active torsions:
REMARK  status: ('A' for Active; 'I' for Inactive)
REMARK    1  A    between atoms: C4_4  and  C9_9 
ROOT
HETATM    1  C1  UNL     1     -36.630  15.403  -3.981  1.00 20.00     0.065 A 
HETATM    2  C2  UNL     1     -34.330  14.759  -4.107  1.00 20.00     0.095 A 
HETATM    3  C3  UNL     1     -35.956  13.439  -5.169  1.00 20.00     0.142 A 
HETATM    4  C4  UNL     1     -35.299  15.644  -3.657  1.00 20.00    -0.031 A 
HETATM    5  C5  UNL     1     -36.967  14.290  -4.745  1.00 20.00     0.187 A 
HETATM    6  N10 UNL     1     -34.682  13.695  -4.842  1.00 20.00    -0.371 N 
HETATM    7  O11 UNL     1     -38.186  14.051  -5.053  1.00 20.00    -0.287 OA
HETATM    8  H24 UNL     1     -33.955  13.057  -5.162  1.00 20.00     0.164 HD
ENDROOT
BRANCH   4   9
HETATM    9  C9  UNL     1     -34.904  16.868  -2.814  1.00 20.00    -0.023 C 
HETATM   10  C6  UNL     1     -35.360  18.160  -3.529  1.00 20.00     0.019 C 
HETATM   11  C7  UNL     1     -33.372  16.903  -2.631  1.00 20.00     0.019 C 
HETATM   12  C8  UNL     1     -35.532  16.884  -1.401  1.00 20.00     0.019 C 
ENDBRANCH   4   9
TORSDOF 1
ENDMDL
MODEL 3
REMARK VINA RESULT:      -4.6     11.662     12.439
REMARK  1 active torsions:
REMARK  status: ('A' for Active; 'I' for Inactive)
REMARK    1  A    between atoms: C4_4  and  C9_9 
ROOT
HETATM    1  C1  UNL     1     -35.215  14.923  -4.042  1.00 20.00     0.065 A 
HETATM    2  C2  UNL     1     -33.365  16.112  -4.980  1.00 20.00     0.095 A 
HETATM    3  C3  UNL     1     -34.088  14.121  -5.993  1.00 20.00     0.142 A 
HETATM    4  C4  UNL     1     -34.346  16.009  -4.006  1.00 20.00    -0.031 A 
HETATM    5  C5  UNL     1     -35.087  13.966  -5.044  1.00 20.00     0.187 A 
HETATM    6  N10 UNL     1     -33.265  15.176  -5.935  1.00 20.00    -0.371 N 
HETATM    7  O11 UNL     1     -35.877  12.960  -5.093  1.00 20.00    -0.287 OA
HETATM    8  H24 UNL     1     -32.535  15.271  -6.641  1.00 20.00     0.164 HD
ENDROOT
BRANCH   4   9
HETATM    9  C9  UNL     1     -34.469  17.077  -2.907  1.00 20.00    -0.023 C 
HETATM   10  C6  UNL     1     -35.557  16.658  -1.894  1.00 20.00     0.019 C 
HETATM   11  C7  UNL     1     -34.859  18.431  -3.539  1.00 20.00     0.019 C 
HETATM   12  C8  UNL     1     -33.166  17.306  -2.108  1.00 20.00     0.019 C 
ENDBRANCH   4   9
TORSDOF 1
ENDMDL
MODEL 4
REMARK VINA RESULT:      -4.6     11.718     12.687
REMARK  1 active torsions:
REMARK  status: ('A' for Active; 'I' for Inactive)
REMARK    1  A    between atoms: C4_4  and  C9_9 
ROOT
HETATM    1  C1  UNL     1     -33.837  15.681  -3.431  1.00 20.00     0.065 A 
HETATM    2  C2  UNL     1     -33.562  17.799  -4.507  1.00 20.00     0.095 A 
HETATM    3  C3  UNL     1     -33.229  15.828  -5.741  1.00 20.00     0.142 A 
HETATM    4  C4  UNL     1     -33.860  17.071  -3.365  1.00 20.00    -0.031 A 
HETATM    5  C5  UNL     1     -33.518  15.049  -4.630  1.00 20.00     0.187 A 
HETATM    6  N10 UNL     1     -33.259  17.165  -5.649  1.00 20.00    -0.371 N 
HETATM    7  O11 UNL     1     -33.491  13.772  -4.709  1.00 20.00    -0.287 OA
HETATM    8  H24 UNL     1     -33.042  17.719  -6.476  1.00 20.00     0.164 HD
ENDROOT
BRANCH   4   9
HETATM    9  C9  UNL     1     -34.209  17.789  -2.052  1.00 20.00    -0.023 C 
HETATM   10  C6  UNL     1     -34.859  19.155  -2.363  1.00 20.00     0.019 C 
HETATM   11  C7  UNL     1     -32.926  18.015  -1.224  1.00 20.00     0.019 C 
HETATM   12  C8  UNL     1     -35.198  17.008  -1.155  1.00 20.00     0.019 C 
ENDBRANCH   4   9
TORSDOF 1
ENDMDL
MODEL 5
REMARK VINA RESULT:      -4.5     11.404     12.173
REMARK  1 active torsions:
REMARK  status: ('A' for Active; 'I' for Inactive)
REMARK    1  A    between atoms: C4_4  and  C9_9 
ROOT
HETATM    1  C1  UNL     1     -34.034  15.553  -3.389  1.00 20.00     0.065 A 
HETATM    2  C2  UNL     1     -36.322  16.246  -3.340  1.00 20.00     0.095 A 
HETATM    3  C3  UNL     1     -35.697  14.430  -4.691  1.00 20.00     0.142 A 
HETATM    4  C4  UNL     1     -35.016  16.412  -2.905  1.00 20.00    -0.031 A 
HETATM    5  C5  UNL     1     -34.374  14.551  -4.292  1.00 20.00     0.187 A 
HETATM    6  N10 UNL     1     -36.622  15.271  -4.209  1.00 20.00    -0.371 N 
HETATM    7  O11 UNL     1     -33.485  13.751  -4.748  1.00 20.00    -0.287 OA
HETATM    8  H24 UNL     1     -37.589  15.167  -4.517  1.00 20.00     0.164 HD
ENDROOT
BRANCH   4   9
HETATM    9  C9  UNL     1     -34.662  17.527  -1.907  1.00 20.00    -0.023 C 
HETATM   10  C6  UNL     1     -35.354  17.251  -0.554  1.00 20.00     0.019 C 
HETATM   11  C7  UNL     1     -35.143  18.888  -2.454  1.00 20.00     0.019 C 
HETATM   12  C8  UNL     1     -33.148  17.658  -1.626  1.00 20.00     0.019 C 
ENDBRANCH   4   9
TORSDOF 1
ENDMDL
MODEL 6
REMARK VINA RESULT:      -4.5     11.655     12.469
REMARK  1 active torsions:
REMARK  status: ('A' for Active; 'I' for Inactive)
REMARK    1  A    between atoms: C4_4  and  C9_9 
ROOT
HETATM    1  C1  UNL     1     -35.298  14.698  -4.277  1.00 20.00     0.065 A 
HETATM    2  C2  UNL     1     -37.200  16.120  -4.000  1.00 20.00     0.095 A 
HETATM    3  C3  UNL     1     -37.415  14.137  -5.238  1.00 20.00     0.142 A 
HETATM    4  C4  UNL     1     -35.860  15.860  -3.756  1.00 20.00    -0.031 A 
HETATM    5  C5  UNL     1     -36.080  13.825  -5.027  1.00 20.00     0.187 A 
HETATM    6  N10 UNL     1     -37.931  15.262  -4.724  1.00 20.00    -0.371 N 
HETATM    7  O11 UNL     1     -35.580  12.753  -5.514  1.00 20.00    -0.287 OA
HETATM    8  H24 UNL     1     -38.914  15.473  -4.893  1.00 20.00     0.164 HD
ENDROOT
BRANCH   4   9
HETATM    9  C9  UNL     1     -35.014  16.839  -2.925  1.00 20.00    -0.023 C 
HETATM   10  C6  UNL     1     -35.237  18.280  -3.434  1.00 20.00     0.019 C 
HETATM   11  C7  UNL     1     -33.519  16.479  -3.061  1.00 20.00     0.019 C 
HETATM   12  C8  UNL     1     -35.350  16.831  -1.416  1.00 20.00     0.019 C 
ENDBRANCH   4   9
TORSDOF 1
ENDMDL
MODEL 7
REMARK VINA RESULT:      -4.4     11.197     12.110
REMARK  1 active torsions:
REMARK  status: ('A' for Active; 'I' for Inactive)
REMARK    1  A    between atoms: C4_4  and  C9_9 
ROOT
HETATM    1  C1  UNL     1     -33.221  17.133  -2.550  1.00 20.00     0.065 A 
HETATM    2  C2  UNL     1     -35.475  16.530  -2.030  1.00 20.00     0.095 A 
HETATM    3  C3  UNL     1     -34.245  17.817  -0.500  1.00 20.00     0.142 A 
HETATM    4  C4  UNL     1     -34.400  16.486  -2.905  1.00 20.00    -0.031 A 
HETATM    5  C5  UNL     1     -33.138  17.807  -1.335  1.00 20.00     0.187 A 
HETATM    6  N10 UNL     1     -35.369  17.186  -0.867  1.00 20.00    -0.371 N 
HETATM    7  O11 UNL     1     -32.061  18.407  -0.991  1.00 20.00    -0.287 OA
HETATM    8  H24 UNL     1     -36.171  17.204  -0.237  1.00 20.00     0.164 HD
ENDROOT
BRANCH   4   9
HETATM    9  C9  UNL     1     -34.514  15.737  -4.243  1.00 20.00    -0.023 C 
HETATM   10  C6  UNL     1     -33.298  16.076  -5.133  1.00 20.00     0.019 C 
HETATM   11  C7  UNL     1     -35.808  16.160  -4.969  1.00 20.00     0.019 C 
HETATM   12  C8  UNL     1     -34.556  14.198  -4.096  1.00 20.00     0.019 C 
ENDBRANCH   4   9
TORSDOF 1
ENDMDL
MODEL 8
REMARK VINA RESULT:      -4.4     11.208     12.162
REMARK  1 active torsions:
REMARK  status: ('A' for Active; 'I' for Inactive)
REMARK    1  A    between atoms: C4_4  and  C9_9 
ROOT
HETATM    1  C1  UNL     1     -33.232  17.131  -2.622  1.00 20.00     0.065 A 
HETATM    2  C2  UNL     1     -35.476  16.483  -2.108  1.00 20.00     0.095 A 
HETATM    3  C3  UNL     1     -34.265  17.766  -0.559  1.00 20.00     0.142 A 
HETATM    4  C4  UNL     1     -34.402  16.471  -2.986  1.00 20.00    -0.031 A 
HETATM    5  C5  UNL     1     -33.159  17.786  -1.396  1.00 20.00     0.187 A 
HETATM    6  N10 UNL     1     -35.379  17.122  -0.935  1.00 20.00    -0.371 N 
HETATM    7  O11 UNL     1     -32.091  18.398  -1.044  1.00 20.00    -0.287 OA
HETATM    8  H24 UNL     1     -36.180  17.118  -0.304  1.00 20.00     0.164 HD
ENDROOT
BRANCH   4   9
HETATM    9  C9  UNL     1     -34.505  15.741  -4.335  1.00 20.00    -0.023 C 
HETATM   10  C6  UNL     1     -34.581  14.216  -4.096  1.00 20.00     0.019 C 
HETATM   11  C7  UNL     1     -33.263  16.058  -5.195  1.00 20.00     0.019 C 
HETATM   12  C8  UNL     1     -35.748  16.134  -5.166  1.00 20.00     0.019 C 
ENDBRANCH   4   9
TORSDOF 1
ENDMDL
MODEL 9
REMARK VINA RESULT:      -4.2      2.171      4.318
REMARK  1 active torsions:
REMARK  status: ('A' for Active; 'I' for Inactive)
REMARK    1  A    between atoms: C4_4  and  C9_9 
ROOT
HETATM    1  C1  UNL     1     -33.652   7.386   2.304  1.00 20.00     0.065 A 
HETATM    2  C2  UNL     1     -31.922   8.607   3.416  1.00 20.00     0.095 A 
HETATM    3  C3  UNL     1     -33.163   7.016   4.617  1.00 20.00     0.142 A 
HETATM    4  C4  UNL     1     -32.643   8.344   2.261  1.00 20.00    -0.031 A 
HETATM    5  C5  UNL     1     -33.918   6.713   3.493  1.00 20.00     0.187 A 
HETATM    6  N10 UNL     1     -32.199   7.944   4.547  1.00 20.00    -0.371 N 
HETATM    7  O11 UNL     1     -34.842   5.829   3.552  1.00 20.00    -0.287 OA
HETATM    8  H24 UNL     1     -31.657   8.153   5.385  1.00 20.00     0.164 HD
ENDROOT
BRANCH   4   9
HETATM    9  C9  UNL     1     -32.332   9.100   0.958  1.00 20.00    -0.023 C 
HETATM   10  C6  UNL     1     -30.930   8.701   0.449  1.00 20.00     0.019 C 
HETATM   11  C7  UNL     1     -32.365  10.621   1.218  1.00 20.00     0.019 C 
HETATM   12  C8  UNL     1     -33.331   8.811  -0.186  1.00 20.00     0.019 C 
ENDBRANCH   4   9
TORSDOF 1
ENDMDL
