MODEL 1
REMARK VINA RESULT:      -4.9      0.000      0.000
REMARK  1 active torsions:
REMARK  status: ('A' for Active; 'I' for Inactive)
REMARK    1  A    between atoms: C1_1  and  C5_5 
ROOT
HETATM    1  C3  UNL     1     -34.349   4.342   4.437  1.00 20.00     0.009 A 
HETATM    2  C4  UNL     1     -34.655   5.042   5.727  1.00 20.00     0.009 A 
HETATM    3  C5  UNL     1     -34.783   5.783   4.422  1.00 20.00     0.009 A 
ENDROOT
BRANCH   3   4
HETATM    4  C1  UNL     1     -33.807   6.810   4.097  1.00 20.00    -0.015 C 
HETATM    5  C2  UNL     1     -33.236   6.932   2.894  1.00 20.00     0.052 C 
HETATM    6 BR6  UNL     1     -31.991   8.234   2.454  1.00 20.00    -0.064 Br
ENDBRANCH   3   4
TORSDOF 1
ENDMDL
MODEL 2
REMARK VINA RESULT:      -4.3      1.117      1.710
REMARK  1 active torsions:
REMARK  status: ('A' for Active; 'I' for Inactive)
REMARK    1  A    between atoms: C1_1  and  C5_5 
ROOT
HETATM    1  C3  UNL     1     -34.052   6.831   5.405  1.00 20.00     0.009 A 
HETATM    2  C4  UNL     1     -34.796   5.848   4.551  1.00 20.00     0.009 A 
HETATM    3  C5  UNL     1     -33.457   6.371   4.102  1.00 20.00     0.009 A 
ENDROOT
BRANCH   3   4
HETATM    4  C1  UNL     1     -33.402   7.300   2.985  1.00 20.00    -0.015 C 
HETATM    5  C2  UNL     1     -32.289   7.939   2.609  1.00 20.00     0.052 C 
HETATM    6 BR6  UNL     1     -32.195   9.126   1.188  1.00 20.00    -0.064 Br
ENDBRANCH   3   4
TORSDOF 1
ENDMDL
MODEL 3
REMARK VINA RESULT:      -4.2      2.650      4.589
REMARK  1 active torsions:
REMARK  status: ('A' for Active; 'I' for Inactive)
REMARK    1  A    between atoms: C1_1  and  C5_5 
ROOT
HETATM    1  C3  UNL     1     -31.490   8.723   0.820  1.00 20.00     0.009 A 
HETATM    2  C4  UNL     1     -32.493   9.715   1.327  1.00 20.00     0.009 A 
HETATM    3  C5  UNL     1     -32.023   8.600   2.222  1.00 20.00     0.009 A 
ENDROOT
BRANCH   3   4
HETATM    4  C1  UNL     1     -32.938   7.514   2.536  1.00 20.00    -0.015 C 
HETATM    5  C2  UNL     1     -33.321   7.206   3.779  1.00 20.00     0.052 C 
HETATM    6 BR6  UNL     1     -34.487   5.829   4.203  1.00 20.00    -0.064 Br
ENDBRANCH   3   4
TORSDOF 1
ENDMDL
MODEL 4
REMARK VINA RESULT:      -4.1      1.676      2.461
REMARK  1 active torsions:
REMARK  status: ('A' for Active; 'I' for Inactive)
REMARK    1  A    between atoms: C1_1  and  C5_5 
ROOT
HETATM    1  C3  UNL     1     -34.033   6.226   4.028  1.00 20.00     0.009 A 
HETATM    2  C4  UNL     1     -33.472   5.427   2.890  1.00 20.00     0.009 A 
HETATM    3  C5  UNL     1     -32.888   6.775   3.220  1.00 20.00     0.009 A 
ENDROOT
BRANCH   3   4
HETATM    4  C1  UNL     1     -33.133   7.889   2.318  1.00 20.00    -0.015 C 
HETATM    5  C2  UNL     1     -32.179   8.735   1.913  1.00 20.00     0.052 C 
HETATM    6 BR6  UNL     1     -32.466  10.161   0.763  1.00 20.00    -0.064 Br
ENDBRANCH   3   4
TORSDOF 1
ENDMDL
MODEL 5
REMARK VINA RESULT:      -4.1      2.475      4.074
REMARK  1 active torsions:
REMARK  status: ('A' for Active; 'I' for Inactive)
REMARK    1  A    between atoms: C1_1  and  C5_5 
ROOT
HETATM    1  C3  UNL     1     -31.481   8.417   3.205  1.00 20.00     0.009 A 
HETATM    2  C4  UNL     1     -31.870   8.219   1.770  1.00 20.00     0.009 A 
HETATM    3  C5  UNL     1     -32.883   7.992   2.860  1.00 20.00     0.009 A 
ENDROOT
BRANCH   3   4
HETATM    4  C1  UNL     1     -33.302   6.633   3.162  1.00 20.00    -0.015 C 
HETATM    5  C2  UNL     1     -34.054   6.309   4.219  1.00 20.00     0.052 C 
HETATM    6 BR6  UNL     1     -34.601   4.584   4.623  1.00 20.00    -0.064 Br
ENDBRANCH   3   4
TORSDOF 1
ENDMDL
MODEL 6
REMARK VINA RESULT:      -2.9     12.160     12.492
REMARK  1 active torsions:
REMARK  status: ('A' for Active; 'I' for Inactive)
REMARK    1  A    between atoms: C1_1  and  C5_5 
ROOT
HETATM    1  C3  UNL     1     -34.996  16.951  -1.228  1.00 20.00     0.009 A 
HETATM    2  C4  UNL     1     -33.639  17.191  -1.819  1.00 20.00     0.009 A 
HETATM    3  C5  UNL     1     -34.807  16.886  -2.719  1.00 20.00     0.009 A 
ENDROOT
BRANCH   3   4
HETATM    4  C1  UNL     1     -34.868  15.593  -3.382  1.00 20.00    -0.015 C 
HETATM    5  C2  UNL     1     -35.770  15.285  -4.320  1.00 20.00     0.052 C 
HETATM    6 BR6  UNL     1     -35.866  13.645  -5.180  1.00 20.00    -0.064 Br
ENDBRANCH   3   4
TORSDOF 1
ENDMDL
MODEL 7
REMARK VINA RESULT:      -2.9     12.341     12.885
REMARK  1 active torsions:
REMARK  status: ('A' for Active; 'I' for Inactive)
REMARK    1  A    between atoms: C1_1  and  C5_5 
ROOT
HETATM    1  C3  UNL     1     -33.726  17.043  -2.126  1.00 20.00     0.009 A 
HETATM    2  C4  UNL     1     -34.990  16.959  -1.324  1.00 20.00     0.009 A 
HETATM    3  C5  UNL     1     -34.106  18.172  -1.207  1.00 20.00     0.009 A 
ENDROOT
BRANCH   3   4
HETATM    4  C1  UNL     1     -33.344  18.375   0.014  1.00 20.00    -0.015 C 
HETATM    5  C2  UNL     1     -32.038  18.662   0.031  1.00 20.00     0.052 C 
HETATM    6 BR6  UNL     1     -31.046  18.926   1.575  1.00 20.00    -0.064 Br
ENDBRANCH   3   4
TORSDOF 1
ENDMDL
MODEL 8
REMARK VINA RESULT:      -2.9     11.876     12.346
REMARK  1 active torsions:
REMARK  status: ('A' for Active; 'I' for Inactive)
REMARK    1  A    between atoms: C1_1  and  C5_5 
ROOT
HETATM    1  C3  UNL     1     -33.257  14.516  -4.306  1.00 20.00     0.009 A 
HETATM    2  C4  UNL     1     -34.719  14.181  -4.316  1.00 20.00     0.009 A 
HETATM    3  C5  UNL     1     -34.277  15.610  -4.137  1.00 20.00     0.009 A 
ENDROOT
BRANCH   3   4
HETATM    4  C1  UNL     1     -34.430  16.237  -2.835  1.00 20.00    -0.015 C 
HETATM    5  C2  UNL     1     -33.609  17.184  -2.370  1.00 20.00     0.052 C 
HETATM    6 BR6  UNL     1     -33.784  17.999  -0.714  1.00 20.00    -0.064 Br
ENDBRANCH   3   4
TORSDOF 1
ENDMDL
MODEL 9
REMARK VINA RESULT:      -2.9     11.921     12.579
REMARK  1 active torsions:
REMARK  status: ('A' for Active; 'I' for Inactive)
REMARK    1  A    between atoms: C1_1  and  C5_5 
ROOT
HETATM    1  C3  UNL     1     -33.710  17.831  -2.807  1.00 20.00     0.009 A 
HETATM    2  C4  UNL     1     -34.135  17.046  -1.602  1.00 20.00     0.009 A 
HETATM    3  C5  UNL     1     -33.738  16.327  -2.864  1.00 20.00     0.009 A 
ENDROOT
BRANCH   3   4
HETATM    4  C1  UNL     1     -34.767  15.671  -3.655  1.00 20.00    -0.015 C 
HETATM    5  C2  UNL     1     -34.623  14.455  -4.192  1.00 20.00     0.052 C 
HETATM    6 BR6  UNL     1     -35.920  13.599  -5.202  1.00 20.00    -0.064 Br
ENDBRANCH   3   4
TORSDOF 1
ENDMDL
