MODEL 1
REMARK VINA RESULT:      -5.7      0.000      0.000
REMARK  2 active torsions:
REMARK  status: ('A' for Active; 'I' for Inactive)
REMARK    1  A    between atoms: C4_4  and  C6_6 
REMARK    2  A    between atoms: C6_6  and  O7_7 
ROOT
HETATM    1  C1  UNL     1     -33.276   5.343   2.748  1.00 20.00     0.013 C 
HETATM    2  C2  UNL     1     -33.949   4.576   3.876  1.00 20.00     0.079 C 
HETATM    3  C3  UNL     1     -33.811   6.866   4.598  1.00 20.00     0.085 C 
HETATM    4  C4  UNL     1     -32.882   6.685   3.383  1.00 20.00     0.015 C 
HETATM    5  C5  UNL     1     -34.737   5.665   4.567  1.00 20.00     0.244 C 
HETATM    6  F8  UNL     1     -35.846   5.958   3.845  1.00 20.00    -0.206 F 
HETATM    7  F9  UNL     1     -35.137   5.302   5.799  1.00 20.00    -0.206 F 
ENDROOT
BRANCH   4   8
HETATM    8  C6  UNL     1     -32.964   7.839   2.395  1.00 20.00     0.168 C 
BRANCH   8   9
HETATM    9  O7  UNL     1     -31.793   8.630   2.518  1.00 20.00    -0.400 OA
HETATM   10  H19 UNL     1     -31.931   9.225   3.273  1.00 20.00     0.209 HD
ENDBRANCH   8   9
ENDBRANCH   4   8
TORSDOF 2
ENDMDL
MODEL 2
REMARK VINA RESULT:      -5.2      1.291      1.922
REMARK  2 active torsions:
REMARK  status: ('A' for Active; 'I' for Inactive)
REMARK    1  A    between atoms: C4_4  and  C6_6 
REMARK    2  A    between atoms: C6_6  and  O7_7 
ROOT
HETATM    1  C1  UNL     1     -33.394   7.130   5.233  1.00 20.00     0.013 C 
HETATM    2  C2  UNL     1     -34.430   6.137   5.736  1.00 20.00     0.079 C 
HETATM    3  C3  UNL     1     -34.485   6.019   3.334  1.00 20.00     0.085 C 
HETATM    4  C4  UNL     1     -33.715   7.290   3.739  1.00 20.00     0.015 C 
HETATM    5  C5  UNL     1     -34.511   5.160   4.585  1.00 20.00     0.244 C 
HETATM    6  F8  UNL     1     -33.433   4.339   4.601  1.00 20.00    -0.206 F 
HETATM    7  F9  UNL     1     -35.611   4.389   4.647  1.00 20.00    -0.206 F 
ENDROOT
BRANCH   4   8
HETATM    8  C6  UNL     1     -32.467   7.521   2.900  1.00 20.00     0.168 C 
BRANCH   8   9
HETATM    9  O7  UNL     1     -31.541   8.283   3.658  1.00 20.00    -0.400 OA
HETATM   10  H19 UNL     1     -31.234   9.006   3.086  1.00 20.00     0.209 HD
ENDBRANCH   8   9
ENDBRANCH   4   8
TORSDOF 2
ENDMDL
MODEL 3
REMARK VINA RESULT:      -5.0      2.086      2.792
REMARK  2 active torsions:
REMARK  status: ('A' for Active; 'I' for Inactive)
REMARK    1  A    between atoms: C4_4  and  C6_6 
REMARK    2  A    between atoms: C6_6  and  O7_7 
ROOT
HETATM    1  C1  UNL     1     -34.222   5.052   5.450  1.00 20.00     0.013 C 
HETATM    2  C2  UNL     1     -34.450   4.444   4.075  1.00 20.00     0.079 C 
HETATM    3  C3  UNL     1     -34.226   6.816   3.742  1.00 20.00     0.085 C 
HETATM    4  C4  UNL     1     -34.451   6.557   5.243  1.00 20.00     0.015 C 
HETATM    5  C5  UNL     1     -33.812   5.474   3.169  1.00 20.00     0.244 C 
HETATM    6  F8  UNL     1     -32.463   5.352   3.213  1.00 20.00    -0.206 F 
HETATM    7  F9  UNL     1     -34.193   5.330   1.887  1.00 20.00    -0.206 F 
ENDROOT
BRANCH   4   8
HETATM    8  C6  UNL     1     -33.557   7.407   6.133  1.00 20.00     0.168 C 
BRANCH   8   9
HETATM    9  O7  UNL     1     -32.524   7.968   5.340  1.00 20.00    -0.400 OA
HETATM   10  H19 UNL     1     -32.801   8.871   5.112  1.00 20.00     0.209 HD
ENDBRANCH   8   9
ENDBRANCH   4   8
TORSDOF 2
ENDMDL
MODEL 4
REMARK VINA RESULT:      -5.0      3.006      3.929
REMARK  2 active torsions:
REMARK  status: ('A' for Active; 'I' for Inactive)
REMARK    1  A    between atoms: C4_4  and  C6_6 
REMARK    2  A    between atoms: C6_6  and  O7_7 
ROOT
HETATM    1  C1  UNL     1     -33.323   7.368   4.857  1.00 20.00     0.013 C 
HETATM    2  C2  UNL     1     -32.167   8.014   4.110  1.00 20.00     0.079 C 
HETATM    3  C3  UNL     1     -33.072   6.335   2.644  1.00 20.00     0.085 C 
HETATM    4  C4  UNL     1     -33.624   6.090   4.061  1.00 20.00     0.015 C 
HETATM    5  C5  UNL     1     -32.546   7.757   2.668  1.00 20.00     0.244 C 
HETATM    6  F8  UNL     1     -33.524   8.616   2.290  1.00 20.00    -0.206 F 
HETATM    7  F9  UNL     1     -31.508   7.928   1.831  1.00 20.00    -0.206 F 
ENDROOT
BRANCH   4   8
HETATM    8  C6  UNL     1     -35.104   5.738   4.070  1.00 20.00     0.168 C 
BRANCH   8   9
HETATM    9  O7  UNL     1     -35.266   4.456   4.655  1.00 20.00    -0.400 OA
HETATM   10  H19 UNL     1     -35.540   3.853   3.945  1.00 20.00     0.209 HD
ENDBRANCH   8   9
ENDBRANCH   4   8
TORSDOF 2
ENDMDL
MODEL 5
REMARK VINA RESULT:      -5.0      2.593      3.383
REMARK  2 active torsions:
REMARK  status: ('A' for Active; 'I' for Inactive)
REMARK    1  A    between atoms: C4_4  and  C6_6 
REMARK    2  A    between atoms: C6_6  and  O7_7 
ROOT
HETATM    1  C1  UNL     1     -33.685   4.872   3.559  1.00 20.00     0.013 C 
HETATM    2  C2  UNL     1     -33.218   5.576   2.294  1.00 20.00     0.079 C 
HETATM    3  C3  UNL     1     -34.196   7.270   3.694  1.00 20.00     0.085 C 
HETATM    4  C4  UNL     1     -34.610   5.891   4.242  1.00 20.00     0.015 C 
HETATM    5  C5  UNL     1     -33.015   6.993   2.782  1.00 20.00     0.244 C 
HETATM    6  F8  UNL     1     -31.861   7.076   3.487  1.00 20.00    -0.206 F 
HETATM    7  F9  UNL     1     -32.939   7.875   1.770  1.00 20.00    -0.206 F 
ENDROOT
BRANCH   4   8
HETATM    8  C6  UNL     1     -34.541   5.810   5.759  1.00 20.00     0.168 C 
BRANCH   8   9
HETATM    9  O7  UNL     1     -34.064   7.047   6.262  1.00 20.00    -0.400 OA
HETATM   10  H19 UNL     1     -33.248   7.254   5.778  1.00 20.00     0.209 HD
ENDBRANCH   8   9
ENDBRANCH   4   8
TORSDOF 2
ENDMDL
MODEL 6
REMARK VINA RESULT:      -5.0      1.889      2.469
REMARK  2 active torsions:
REMARK  status: ('A' for Active; 'I' for Inactive)
REMARK    1  A    between atoms: C4_4  and  C6_6 
REMARK    2  A    between atoms: C6_6  and  O7_7 
ROOT
HETATM    1  C1  UNL     1     -33.156   7.380   4.749  1.00 20.00     0.013 C 
HETATM    2  C2  UNL     1     -33.955   7.079   6.008  1.00 20.00     0.079 C 
HETATM    3  C3  UNL     1     -34.883   5.703   4.267  1.00 20.00     0.085 C 
HETATM    4  C4  UNL     1     -33.995   6.778   3.612  1.00 20.00     0.015 C 
HETATM    5  C5  UNL     1     -34.468   5.685   5.726  1.00 20.00     0.244 C 
HETATM    6  F8  UNL     1     -33.473   4.783   5.910  1.00 20.00    -0.206 F 
HETATM    7  F9  UNL     1     -35.483   5.342   6.538  1.00 20.00    -0.206 F 
ENDROOT
BRANCH   4   8
HETATM    8  C6  UNL     1     -33.134   6.231   2.484  1.00 20.00     0.168 C 
BRANCH   8   9
HETATM    9  O7  UNL     1     -33.023   4.825   2.633  1.00 20.00    -0.400 OA
HETATM   10  H19 UNL     1     -33.239   4.621   3.559  1.00 20.00     0.209 HD
ENDBRANCH   8   9
ENDBRANCH   4   8
TORSDOF 2
ENDMDL
MODEL 7
REMARK VINA RESULT:      -4.8      3.024      3.720
REMARK  2 active torsions:
REMARK  status: ('A' for Active; 'I' for Inactive)
REMARK    1  A    between atoms: C4_4  and  C6_6 
REMARK    2  A    between atoms: C6_6  and  O7_7 
ROOT
HETATM    1  C1  UNL     1     -33.657   5.317   3.217  1.00 20.00     0.013 C 
HETATM    2  C2  UNL     1     -33.174   6.265   2.131  1.00 20.00     0.079 C 
HETATM    3  C3  UNL     1     -34.013   7.644   3.914  1.00 20.00     0.085 C 
HETATM    4  C4  UNL     1     -34.501   6.202   4.146  1.00 20.00     0.015 C 
HETATM    5  C5  UNL     1     -32.872   7.518   2.921  1.00 20.00     0.244 C 
HETATM    6  F8  UNL     1     -31.700   7.372   3.585  1.00 20.00    -0.206 F 
HETATM    7  F9  UNL     1     -32.763   8.603   2.135  1.00 20.00    -0.206 F 
ENDROOT
BRANCH   4   8
HETATM    8  C6  UNL     1     -34.405   5.770   5.602  1.00 20.00     0.168 C 
BRANCH   8   9
HETATM    9  O7  UNL     1     -34.961   4.472   5.731  1.00 20.00    -0.400 OA
HETATM   10  H19 UNL     1     -34.429   3.879   5.175  1.00 20.00     0.209 HD
ENDBRANCH   8   9
ENDBRANCH   4   8
TORSDOF 2
ENDMDL
MODEL 8
REMARK VINA RESULT:      -4.4     11.851     12.507
REMARK  2 active torsions:
REMARK  status: ('A' for Active; 'I' for Inactive)
REMARK    1  A    between atoms: C4_4  and  C6_6 
REMARK    2  A    between atoms: C6_6  and  O7_7 
ROOT
HETATM    1  C1  UNL     1     -33.963  15.199  -6.454  1.00 20.00     0.013 C 
HETATM    2  C2  UNL     1     -33.187  16.004  -5.423  1.00 20.00     0.079 C 
HETATM    3  C3  UNL     1     -34.983  14.929  -4.237  1.00 20.00     0.085 C 
HETATM    4  C4  UNL     1     -35.278  14.840  -5.746  1.00 20.00     0.015 C 
HETATM    5  C5  UNL     1     -33.506  15.262  -4.144  1.00 20.00     0.244 C 
HETATM    6  F8  UNL     1     -32.780  14.119  -4.083  1.00 20.00    -0.206 F 
HETATM    7  F9  UNL     1     -33.217  15.988  -3.049  1.00 20.00    -0.206 F 
ENDROOT
BRANCH   4   8
HETATM    8  C6  UNL     1     -35.811  13.480  -6.169  1.00 20.00     0.168 C 
BRANCH   8   9
HETATM    9  O7  UNL     1     -35.919  12.654  -5.020  1.00 20.00    -0.400 OA
HETATM   10  H19 UNL     1     -35.544  13.154  -4.276  1.00 20.00     0.209 HD
ENDBRANCH   8   9
ENDBRANCH   4   8
TORSDOF 2
ENDMDL
MODEL 9
REMARK VINA RESULT:      -4.2      2.503      3.154
REMARK  2 active torsions:
REMARK  status: ('A' for Active; 'I' for Inactive)
REMARK    1  A    between atoms: C4_4  and  C6_6 
REMARK    2  A    between atoms: C6_6  and  O7_7 
ROOT
HETATM    1  C1  UNL     1     -32.676   6.751   3.348  1.00 20.00     0.013 C 
HETATM    2  C2  UNL     1     -32.940   7.872   4.341  1.00 20.00     0.079 C 
HETATM    3  C3  UNL     1     -34.693   6.255   4.658  1.00 20.00     0.085 C 
HETATM    4  C4  UNL     1     -33.985   5.946   3.326  1.00 20.00     0.015 C 
HETATM    5  C5  UNL     1     -33.736   7.160   5.411  1.00 20.00     0.244 C 
HETATM    6  F8  UNL     1     -32.906   6.413   6.180  1.00 20.00    -0.206 F 
HETATM    7  F9  UNL     1     -34.381   8.017   6.222  1.00 20.00    -0.206 F 
ENDROOT
BRANCH   4   8
HETATM    8  C6  UNL     1     -33.747   4.459   3.110  1.00 20.00     0.168 C 
BRANCH   8   9
HETATM    9  O7  UNL     1     -34.277   3.746   4.216  1.00 20.00    -0.400 OA
HETATM   10  H19 UNL     1     -33.585   3.135   4.517  1.00 20.00     0.209 HD
ENDBRANCH   8   9
ENDBRANCH   4   8
TORSDOF 2
ENDMDL
