MODEL 1
REMARK VINA RESULT:      -5.2      0.000      0.000
REMARK  1 active torsions:
REMARK  status: ('A' for Active; 'I' for Inactive)
REMARK    1  A    between atoms: C2_2  and  C7_7 
ROOT
HETATM    1  C1  UNL     1     -32.954   6.189   2.259  1.00 20.00     0.149 A 
HETATM    2  C2  UNL     1     -32.666   7.266   3.148  1.00 20.00    -0.001 A 
HETATM    3  C3  UNL     1     -33.287   6.892   4.306  1.00 20.00     0.039 A 
HETATM    4  C4  UNL     1     -33.543   7.307   5.696  1.00 20.00     0.061 C 
HETATM    5  C5  UNL     1     -34.678   6.330   6.115  1.00 20.00     0.028 C 
HETATM    6  C6  UNL     1     -34.588   5.121   5.162  1.00 20.00     0.151 C 
HETATM    7  N8  UNL     1     -33.696   5.218   2.820  1.00 20.00    -0.184 NA
HETATM    8  N9  UNL     1     -33.867   5.696   4.047  1.00 20.00    -0.274 N 
ENDROOT
BRANCH   2   9
HETATM    9  C7  UNL     1     -31.887   8.482   2.879  1.00 20.00     0.156 C 
HETATM   10 CL10 UNL     1     -31.766   8.802   1.126  1.00 20.00    -0.125 Cl
ENDBRANCH   2   9
TORSDOF 1
ENDMDL
MODEL 2
REMARK VINA RESULT:      -5.1      1.316      2.180
REMARK  1 active torsions:
REMARK  status: ('A' for Active; 'I' for Inactive)
REMARK    1  A    between atoms: C2_2  and  C7_7 
ROOT
HETATM    1  C1  UNL     1     -32.691   8.170   4.805  1.00 20.00     0.149 A 
HETATM    2  C2  UNL     1     -32.655   7.499   3.549  1.00 20.00    -0.001 A 
HETATM    3  C3  UNL     1     -33.418   6.386   3.764  1.00 20.00     0.039 A 
HETATM    4  C4  UNL     1     -33.941   5.170   3.118  1.00 20.00     0.061 C 
HETATM    5  C5  UNL     1     -34.436   4.349   4.344  1.00 20.00     0.028 C 
HETATM    6  C6  UNL     1     -34.661   5.360   5.486  1.00 20.00     0.151 C 
HETATM    7  N8  UNL     1     -33.420   7.526   5.734  1.00 20.00    -0.184 NA
HETATM    8  N9  UNL     1     -33.830   6.462   5.052  1.00 20.00    -0.274 N 
ENDROOT
BRANCH   2   9
HETATM    9  C7  UNL     1     -31.964   7.911   2.318  1.00 20.00     0.156 C 
HETATM   10 CL10 UNL     1     -32.666   9.411   1.651  1.00 20.00    -0.125 Cl
ENDBRANCH   2   9
TORSDOF 1
ENDMDL
MODEL 3
REMARK VINA RESULT:      -4.8      2.540      4.135
REMARK  1 active torsions:
REMARK  status: ('A' for Active; 'I' for Inactive)
REMARK    1  A    between atoms: C2_2  and  C7_7 
ROOT
HETATM    1  C1  UNL     1     -33.726   7.189   5.749  1.00 20.00     0.149 A 
HETATM    2  C2  UNL     1     -34.083   6.479   4.566  1.00 20.00    -0.001 A 
HETATM    3  C3  UNL     1     -33.239   6.994   3.623  1.00 20.00     0.039 A 
HETATM    4  C4  UNL     1     -32.861   6.908   2.202  1.00 20.00     0.061 C 
HETATM    5  C5  UNL     1     -32.002   8.193   2.023  1.00 20.00     0.028 C 
HETATM    6  C6  UNL     1     -31.513   8.591   3.430  1.00 20.00     0.151 C 
HETATM    7  N8  UNL     1     -32.735   8.078   5.560  1.00 20.00    -0.184 NA
HETATM    8  N9  UNL     1     -32.484   7.917   4.266  1.00 20.00    -0.274 N 
ENDROOT
BRANCH   2   9
HETATM    9  C7  UNL     1     -35.112   5.442   4.404  1.00 20.00     0.156 C 
HETATM   10 CL10 UNL     1     -34.384   3.814   4.314  1.00 20.00    -0.125 Cl
ENDBRANCH   2   9
TORSDOF 1
ENDMDL
MODEL 4
REMARK VINA RESULT:      -4.3     11.577     11.869
REMARK  1 active torsions:
REMARK  status: ('A' for Active; 'I' for Inactive)
REMARK    1  A    between atoms: C2_2  and  C7_7 
ROOT
HETATM    1  C1  UNL     1     -33.145  14.851  -4.232  1.00 20.00     0.149 A 
HETATM    2  C2  UNL     1     -34.095  15.757  -3.677  1.00 20.00    -0.001 A 
HETATM    3  C3  UNL     1     -35.294  15.243  -4.081  1.00 20.00     0.039 A 
HETATM    4  C4  UNL     1     -36.751  15.449  -4.013  1.00 20.00     0.061 C 
HETATM    5  C5  UNL     1     -37.260  14.484  -5.121  1.00 20.00     0.028 C 
HETATM    6  C6  UNL     1     -36.149  13.435  -5.332  1.00 20.00     0.151 C 
HETATM    7  N8  UNL     1     -33.708  13.848  -4.928  1.00 20.00    -0.184 NA
HETATM    8  N9  UNL     1     -34.999  14.136  -4.804  1.00 20.00    -0.274 N 
ENDROOT
BRANCH   2   9
HETATM    9  C7  UNL     1     -33.840  16.955  -2.865  1.00 20.00     0.156 C 
HETATM   10 CL10 UNL     1     -34.769  16.916  -1.340  1.00 20.00    -0.125 Cl
ENDBRANCH   2   9
TORSDOF 1
ENDMDL
MODEL 5
REMARK VINA RESULT:      -4.1     11.876     12.403
REMARK  1 active torsions:
REMARK  status: ('A' for Active; 'I' for Inactive)
REMARK    1  A    between atoms: C2_2  and  C7_7 
ROOT
HETATM    1  C1  UNL     1     -32.377  18.869   0.067  1.00 20.00     0.149 A 
HETATM    2  C2  UNL     1     -33.688  18.583   0.547  1.00 20.00    -0.001 A 
HETATM    3  C3  UNL     1     -34.218  17.794  -0.434  1.00 20.00     0.039 A 
HETATM    4  C4  UNL     1     -35.425  17.047  -0.826  1.00 20.00     0.061 C 
HETATM    5  C5  UNL     1     -35.144  16.755  -2.329  1.00 20.00     0.028 C 
HETATM    6  C6  UNL     1     -33.617  16.861  -2.516  1.00 20.00     0.151 C 
HETATM    7  N8  UNL     1     -32.109  18.301  -1.122  1.00 20.00    -0.184 NA
HETATM    8  N9  UNL     1     -33.250  17.670  -1.374  1.00 20.00    -0.274 N 
ENDROOT
BRANCH   2   9
HETATM    9  C7  UNL     1     -34.315  19.031   1.799  1.00 20.00     0.156 C 
HETATM   10 CL10 UNL     1     -33.693  18.115   3.200  1.00 20.00    -0.125 Cl
ENDBRANCH   2   9
TORSDOF 1
ENDMDL
MODEL 6
REMARK VINA RESULT:      -4.1     12.351     12.488
REMARK  1 active torsions:
REMARK  status: ('A' for Active; 'I' for Inactive)
REMARK    1  A    between atoms: C2_2  and  C7_7 
ROOT
HETATM    1  C1  UNL     1     -32.585  18.104  -1.044  1.00 20.00     0.149 A 
HETATM    2  C2  UNL     1     -33.644  18.275  -0.105  1.00 20.00    -0.001 A 
HETATM    3  C3  UNL     1     -32.999  18.691   1.025  1.00 20.00     0.039 A 
HETATM    4  C4  UNL     1     -33.213  19.100   2.424  1.00 20.00     0.061 C 
HETATM    5  C5  UNL     1     -31.766  19.049   2.994  1.00 20.00     0.028 C 
HETATM    6  C6  UNL     1     -30.816  19.160   1.784  1.00 20.00     0.151 C 
HETATM    7  N8  UNL     1     -31.373  18.393  -0.538  1.00 20.00    -0.184 NA
HETATM    8  N9  UNL     1     -31.684  18.737   0.706  1.00 20.00    -0.274 N 
ENDROOT
BRANCH   2   9
HETATM    9  C7  UNL     1     -35.083  18.055  -0.309  1.00 20.00     0.156 C 
HETATM   10 CL10 UNL     1     -35.380  16.738  -1.478  1.00 20.00    -0.125 Cl
ENDBRANCH   2   9
TORSDOF 1
ENDMDL
MODEL 7
REMARK VINA RESULT:      -4.0      2.572      3.801
REMARK  1 active torsions:
REMARK  status: ('A' for Active; 'I' for Inactive)
REMARK    1  A    between atoms: C2_2  and  C7_7 
ROOT
HETATM    1  C1  UNL     1     -34.504   5.928   3.302  1.00 20.00     0.149 A 
HETATM    2  C2  UNL     1     -33.929   6.589   4.427  1.00 20.00    -0.001 A 
HETATM    3  C3  UNL     1     -33.014   7.432   3.863  1.00 20.00     0.039 A 
HETATM    4  C4  UNL     1     -32.000   8.454   4.176  1.00 20.00     0.061 C 
HETATM    5  C5  UNL     1     -31.236   8.565   2.825  1.00 20.00     0.028 C 
HETATM    6  C6  UNL     1     -32.192   8.037   1.737  1.00 20.00     0.151 C 
HETATM    7  N8  UNL     1     -33.987   6.328   2.127  1.00 20.00    -0.184 NA
HETATM    8  N9  UNL     1     -33.097   7.229   2.527  1.00 20.00    -0.274 N 
ENDROOT
BRANCH   2   9
HETATM    9  C7  UNL     1     -34.250   6.406   5.849  1.00 20.00     0.156 C 
HETATM   10 CL10 UNL     1     -34.777   4.733   6.186  1.00 20.00    -0.125 Cl
ENDBRANCH   2   9
TORSDOF 1
ENDMDL
MODEL 8
REMARK VINA RESULT:      -4.0     11.886     12.566
REMARK  1 active torsions:
REMARK  status: ('A' for Active; 'I' for Inactive)
REMARK    1  A    between atoms: C2_2  and  C7_7 
ROOT
HETATM    1  C1  UNL     1     -33.322  16.331  -4.900  1.00 20.00     0.149 A 
HETATM    2  C2  UNL     1     -34.375  15.741  -4.141  1.00 20.00    -0.001 A 
HETATM    3  C3  UNL     1     -34.808  14.723  -4.942  1.00 20.00     0.039 A 
HETATM    4  C4  UNL     1     -35.782  13.621  -5.028  1.00 20.00     0.061 C 
HETATM    5  C5  UNL     1     -35.703  13.246  -6.537  1.00 20.00     0.028 C 
HETATM    6  C6  UNL     1     -34.341  13.761  -7.044  1.00 20.00     0.151 C 
HETATM    7  N8  UNL     1     -33.114  15.727  -6.084  1.00 20.00    -0.184 NA
HETATM    8  N9  UNL     1     -34.036  14.771  -6.054  1.00 20.00    -0.274 N 
ENDROOT
BRANCH   2   9
HETATM    9  C7  UNL     1     -34.869  16.137  -2.815  1.00 20.00     0.156 C 
HETATM   10 CL10 UNL     1     -33.632  17.049  -1.906  1.00 20.00    -0.125 Cl
ENDBRANCH   2   9
TORSDOF 1
ENDMDL
MODEL 9
REMARK VINA RESULT:      -4.0     11.268     12.847
REMARK  1 active torsions:
REMARK  status: ('A' for Active; 'I' for Inactive)
REMARK    1  A    between atoms: C2_2  and  C7_7 
ROOT
HETATM    1  C1  UNL     1     -34.487  14.721  -3.745  1.00 20.00     0.149 A 
HETATM    2  C2  UNL     1     -34.057  15.886  -4.445  1.00 20.00    -0.001 A 
HETATM    3  C3  UNL     1     -34.080  15.494  -5.753  1.00 20.00     0.039 A 
HETATM    4  C4  UNL     1     -33.827  15.955  -7.129  1.00 20.00     0.061 C 
HETATM    5  C5  UNL     1     -33.812  14.613  -7.916  1.00 20.00     0.028 C 
HETATM    6  C6  UNL     1     -34.585  13.593  -7.056  1.00 20.00     0.151 C 
HETATM    7  N8  UNL     1     -34.759  13.682  -4.555  1.00 20.00    -0.184 NA
HETATM    8  N9  UNL     1     -34.494  14.205  -5.747  1.00 20.00    -0.274 N 
ENDROOT
BRANCH   2   9
HETATM    9  C7  UNL     1     -33.682  17.193  -3.888  1.00 20.00     0.156 C 
HETATM   10 CL10 UNL     1     -33.411  17.094  -2.125  1.00 20.00    -0.125 Cl
ENDBRANCH   2   9
TORSDOF 1
ENDMDL
