MODEL 1
REMARK VINA RESULT:      -5.4      0.000      0.000
REMARK  1 active torsions:
REMARK  status: ('A' for Active; 'I' for Inactive)
REMARK    1  A    between atoms: C1_1  and  C3_3 
ROOT
HETATM    1  C2  UNL     1     -33.203   5.934   2.830  1.00 20.00     0.098 A 
HETATM    2  C3  UNL     1     -34.094   6.785   3.712  1.00 20.00     0.133 A 
HETATM    3  C4  UNL     1     -32.877   7.360   3.078  1.00 20.00     0.255 A 
HETATM    4  F7  UNL     1     -31.777   7.703   3.831  1.00 20.00    -0.205 F 
HETATM    5  F8  UNL     1     -32.988   8.286   2.066  1.00 20.00    -0.205 F 
ENDROOT
BRANCH   2   6
HETATM    6  C1  UNL     1     -34.114   6.538   5.157  1.00 20.00     0.133 C 
HETATM    7  C5  UNL     1     -34.600   5.187   5.606  1.00 20.00     0.091 C 
HETATM    8  O6  UNL     1     -33.749   7.394   5.962  1.00 20.00    -0.298 OA
ENDBRANCH   2   6
TORSDOF 1
ENDMDL
MODEL 2
REMARK VINA RESULT:      -5.3      1.083      1.292
REMARK  1 active torsions:
REMARK  status: ('A' for Active; 'I' for Inactive)
REMARK    1  A    between atoms: C1_1  and  C3_3 
ROOT
HETATM    1  C2  UNL     1     -33.332   5.375   2.824  1.00 20.00     0.098 A 
HETATM    2  C3  UNL     1     -34.265   6.258   3.626  1.00 20.00     0.133 A 
HETATM    3  C4  UNL     1     -33.067   6.828   2.955  1.00 20.00     0.255 A 
HETATM    4  F7  UNL     1     -31.989   7.278   3.685  1.00 20.00    -0.205 F 
HETATM    5  F8  UNL     1     -33.204   7.663   1.869  1.00 20.00    -0.205 F 
ENDROOT
BRANCH   2   6
HETATM    6  C1  UNL     1     -34.291   6.131   5.086  1.00 20.00     0.133 C 
HETATM    7  C5  UNL     1     -33.797   7.312   5.877  1.00 20.00     0.091 C 
HETATM    8  O6  UNL     1     -34.700   5.110   5.637  1.00 20.00    -0.298 OA
ENDBRANCH   2   6
TORSDOF 1
ENDMDL
MODEL 3
REMARK VINA RESULT:      -5.2      2.412      3.273
REMARK  1 active torsions:
REMARK  status: ('A' for Active; 'I' for Inactive)
REMARK    1  A    between atoms: C1_1  and  C3_3 
ROOT
HETATM    1  C2  UNL     1     -35.346   5.945   3.709  1.00 20.00     0.098 A 
HETATM    2  C3  UNL     1     -33.841   5.948   3.534  1.00 20.00     0.133 A 
HETATM    3  C4  UNL     1     -34.476   5.205   4.655  1.00 20.00     0.255 A 
HETATM    4  F7  UNL     1     -34.342   5.631   5.958  1.00 20.00    -0.205 F 
HETATM    5  F8  UNL     1     -34.475   3.829   4.671  1.00 20.00    -0.205 F 
ENDROOT
BRANCH   2   6
HETATM    6  C1  UNL     1     -33.093   7.179   3.808  1.00 20.00     0.133 C 
HETATM    7  C5  UNL     1     -32.539   7.913   2.617  1.00 20.00     0.091 C 
HETATM    8  O6  UNL     1     -32.929   7.592   4.955  1.00 20.00    -0.298 OA
ENDBRANCH   2   6
TORSDOF 1
ENDMDL
MODEL 4
REMARK VINA RESULT:      -4.8      2.387      3.314
REMARK  1 active torsions:
REMARK  status: ('A' for Active; 'I' for Inactive)
REMARK    1  A    between atoms: C1_1  and  C3_3 
ROOT
HETATM    1  C2  UNL     1     -34.988   6.123   3.743  1.00 20.00     0.098 A 
HETATM    2  C3  UNL     1     -33.476   6.181   3.675  1.00 20.00     0.133 A 
HETATM    3  C4  UNL     1     -34.186   6.345   4.971  1.00 20.00     0.255 A 
HETATM    4  F7  UNL     1     -34.219   7.562   5.615  1.00 20.00    -0.205 F 
HETATM    5  F8  UNL     1     -34.109   5.370   5.939  1.00 20.00    -0.205 F 
ENDROOT
BRANCH   2   6
HETATM    6  C1  UNL     1     -32.832   7.337   3.045  1.00 20.00     0.133 C 
HETATM    7  C5  UNL     1     -31.745   8.019   3.832  1.00 20.00     0.091 C 
HETATM    8  O6  UNL     1     -33.163   7.729   1.927  1.00 20.00    -0.298 OA
ENDBRANCH   2   6
TORSDOF 1
ENDMDL
MODEL 5
REMARK VINA RESULT:      -4.8      2.591      3.395
REMARK  1 active torsions:
REMARK  status: ('A' for Active; 'I' for Inactive)
REMARK    1  A    between atoms: C1_1  and  C3_3 
ROOT
HETATM    1  C2  UNL     1     -34.048   6.691   5.340  1.00 20.00     0.098 A 
HETATM    2  C3  UNL     1     -33.930   7.148   3.901  1.00 20.00     0.133 A 
HETATM    3  C4  UNL     1     -34.608   5.869   4.240  1.00 20.00     0.255 A 
HETATM    4  F7  UNL     1     -34.042   4.656   3.918  1.00 20.00    -0.205 F 
HETATM    5  F8  UNL     1     -35.971   5.740   4.090  1.00 20.00    -0.205 F 
ENDROOT
BRANCH   2   6
HETATM    6  C1  UNL     1     -32.616   7.125   3.250  1.00 20.00     0.133 C 
HETATM    7  C5  UNL     1     -31.688   8.269   3.556  1.00 20.00     0.091 C 
HETATM    8  O6  UNL     1     -32.288   6.213   2.492  1.00 20.00    -0.298 OA
ENDBRANCH   2   6
TORSDOF 1
ENDMDL
MODEL 6
REMARK VINA RESULT:      -4.8      2.240      3.145
REMARK  1 active torsions:
REMARK  status: ('A' for Active; 'I' for Inactive)
REMARK    1  A    between atoms: C1_1  and  C3_3 
ROOT
HETATM    1  C2  UNL     1     -34.021   6.531   5.404  1.00 20.00     0.098 A 
HETATM    2  C3  UNL     1     -33.987   7.374   4.145  1.00 20.00     0.133 A 
HETATM    3  C4  UNL     1     -34.479   5.971   4.109  1.00 20.00     0.255 A 
HETATM    4  F7  UNL     1     -33.757   4.979   3.484  1.00 20.00    -0.205 F 
HETATM    5  F8  UNL     1     -35.812   5.703   3.898  1.00 20.00    -0.205 F 
ENDROOT
BRANCH   2   6
HETATM    6  C1  UNL     1     -32.692   7.707   3.543  1.00 20.00     0.133 C 
HETATM    7  C5  UNL     1     -32.588   7.576   2.048  1.00 20.00     0.091 C 
HETATM    8  O6  UNL     1     -31.740   8.078   4.227  1.00 20.00    -0.298 OA
ENDBRANCH   2   6
TORSDOF 1
ENDMDL
MODEL 7
REMARK VINA RESULT:      -4.8      2.359      2.650
REMARK  1 active torsions:
REMARK  status: ('A' for Active; 'I' for Inactive)
REMARK    1  A    between atoms: C1_1  and  C3_3 
ROOT
HETATM    1  C2  UNL     1     -34.709   5.996   2.893  1.00 20.00     0.098 A 
HETATM    2  C3  UNL     1     -33.663   6.250   3.958  1.00 20.00     0.133 A 
HETATM    3  C4  UNL     1     -33.743   4.935   3.268  1.00 20.00     0.255 A 
HETATM    4  F7  UNL     1     -34.168   3.807   3.933  1.00 20.00    -0.205 F 
HETATM    5  F8  UNL     1     -32.758   4.547   2.388  1.00 20.00    -0.205 F 
ENDROOT
BRANCH   2   6
HETATM    6  C1  UNL     1     -34.082   6.363   5.359  1.00 20.00     0.133 C 
HETATM    7  C5  UNL     1     -33.635   7.594   6.101  1.00 20.00     0.091 C 
HETATM    8  O6  UNL     1     -34.767   5.497   5.899  1.00 20.00    -0.298 OA
ENDBRANCH   2   6
TORSDOF 1
ENDMDL
MODEL 8
REMARK VINA RESULT:      -4.6      2.529      3.350
REMARK  1 active torsions:
REMARK  status: ('A' for Active; 'I' for Inactive)
REMARK    1  A    between atoms: C1_1  and  C3_3 
ROOT
HETATM    1  C2  UNL     1     -31.320   8.778   0.679  1.00 20.00     0.098 A 
HETATM    2  C3  UNL     1     -32.486   8.208   1.458  1.00 20.00     0.133 A 
HETATM    3  C4  UNL     1     -32.540   9.589   0.911  1.00 20.00     0.255 A 
HETATM    4  F7  UNL     1     -32.501  10.686   1.742  1.00 20.00    -0.205 F 
HETATM    5  F8  UNL     1     -33.382   9.895  -0.134  1.00 20.00    -0.205 F 
ENDROOT
BRANCH   2   6
HETATM    6  C1  UNL     1     -32.349   8.002   2.903  1.00 20.00     0.133 C 
HETATM    7  C5  UNL     1     -33.470   7.274   3.593  1.00 20.00     0.091 C 
HETATM    8  O6  UNL     1     -31.363   8.403   3.520  1.00 20.00    -0.298 OA
ENDBRANCH   2   6
TORSDOF 1
ENDMDL
MODEL 9
REMARK VINA RESULT:      -4.6      2.683      3.596
REMARK  1 active torsions:
REMARK  status: ('A' for Active; 'I' for Inactive)
REMARK    1  A    between atoms: C1_1  and  C3_3 
ROOT
HETATM    1  C2  UNL     1     -33.583   7.234   5.733  1.00 20.00     0.098 A 
HETATM    2  C3  UNL     1     -34.206   6.809   4.419  1.00 20.00     0.133 A 
HETATM    3  C4  UNL     1     -34.255   5.917   5.608  1.00 20.00     0.255 A 
HETATM    4  F7  UNL     1     -33.522   4.753   5.656  1.00 20.00    -0.205 F 
HETATM    5  F8  UNL     1     -35.446   5.679   6.255  1.00 20.00    -0.205 F 
ENDROOT
BRANCH   2   6
HETATM    6  C1  UNL     1     -33.334   6.470   3.291  1.00 20.00     0.133 C 
HETATM    7  C5  UNL     1     -32.501   7.586   2.720  1.00 20.00     0.091 C 
HETATM    8  O6  UNL     1     -33.283   5.329   2.835  1.00 20.00    -0.298 OA
ENDBRANCH   2   6
TORSDOF 1
ENDMDL
