MODEL 1
REMARK VINA RESULT:      -5.9      0.000      0.000
REMARK  0 active torsions:
REMARK  status: ('A' for Active; 'I' for Inactive)
ROOT
HETATM    1  C1  UNL     1     -34.453   5.489   5.546  1.00 20.00     0.116 A 
HETATM    2  C2  UNL     1     -33.473   7.521   4.638  1.00 20.00     0.084 A 
HETATM    3  C3  UNL     1     -34.095   6.770   5.698  1.00 20.00     0.124 A 
HETATM    4  C4  UNL     1     -33.250   6.912   3.468  1.00 20.00     0.109 A 
HETATM    5  C5  UNL     1     -34.201   4.813   4.237  1.00 20.00     0.249 A 
HETATM    6  N6  UNL     1     -33.599   5.601   3.266  1.00 20.00    -0.314 N 
HETATM    7  O7  UNL     1     -34.520   3.639   4.073  1.00 20.00    -0.268 OA
HETATM    8  F8  UNL     1     -34.313   7.399   6.871  1.00 20.00    -0.206 F 
HETATM    9 CL9  UNL     1     -32.523   7.672   2.122  1.00 20.00    -0.064 Cl
HETATM   10  H12 UNL     1     -33.403   5.198   2.355  1.00 20.00     0.170 HD
ENDROOT
TORSDOF 0
ENDMDL
MODEL 2
REMARK VINA RESULT:      -5.5      2.389      2.745
REMARK  0 active torsions:
REMARK  status: ('A' for Active; 'I' for Inactive)
ROOT
HETATM    1  C1  UNL     1     -34.372   5.402   5.260  1.00 20.00     0.116 A 
HETATM    2  C2  UNL     1     -33.506   5.526   2.991  1.00 20.00     0.084 A 
HETATM    3  C3  UNL     1     -34.129   4.819   4.080  1.00 20.00     0.124 A 
HETATM    4  C4  UNL     1     -33.162   6.806   3.174  1.00 20.00     0.109 A 
HETATM    5  C5  UNL     1     -33.986   6.832   5.458  1.00 20.00     0.249 A 
HETATM    6  N6  UNL     1     -33.391   7.446   4.365  1.00 20.00    -0.314 N 
HETATM    7  O7  UNL     1     -34.199   7.389   6.531  1.00 20.00    -0.268 OA
HETATM    8  F8  UNL     1     -34.470   3.529   3.879  1.00 20.00    -0.206 F 
HETATM    9 CL9  UNL     1     -32.416   7.772   1.978  1.00 20.00    -0.064 Cl
HETATM   10  H12 UNL     1     -33.106   8.418   4.439  1.00 20.00     0.170 HD
ENDROOT
TORSDOF 0
ENDMDL
MODEL 3
REMARK VINA RESULT:      -4.8      2.910      3.381
REMARK  0 active torsions:
REMARK  status: ('A' for Active; 'I' for Inactive)
ROOT
HETATM    1  C1  UNL     1     -33.483   5.376   2.904  1.00 20.00     0.116 A 
HETATM    2  C2  UNL     1     -34.274   5.542   5.197  1.00 20.00     0.084 A 
HETATM    3  C3  UNL     1     -34.064   4.816   3.971  1.00 20.00     0.124 A 
HETATM    4  C4  UNL     1     -33.873   6.817   5.262  1.00 20.00     0.109 A 
HETATM    5  C5  UNL     1     -33.036   6.800   2.982  1.00 20.00     0.249 A 
HETATM    6  N6  UNL     1     -33.272   7.433   4.194  1.00 20.00    -0.314 N 
HETATM    7  O7  UNL     1     -32.500   7.337   2.017  1.00 20.00    -0.268 OA
HETATM    8  F8  UNL     1     -34.475   3.532   3.923  1.00 20.00    -0.206 F 
HETATM    9 CL9  UNL     1     -34.055   7.803   6.645  1.00 20.00    -0.064 Cl
HETATM   10  H12 UNL     1     -32.992   8.402   4.309  1.00 20.00     0.170 HD
ENDROOT
TORSDOF 0
ENDMDL
MODEL 4
REMARK VINA RESULT:      -4.7      2.570      2.906
REMARK  0 active torsions:
REMARK  status: ('A' for Active; 'I' for Inactive)
ROOT
HETATM    1  C1  UNL     1     -33.454   5.377   2.901  1.00 20.00     0.116 A 
HETATM    2  C2  UNL     1     -33.162   7.473   4.099  1.00 20.00     0.084 A 
HETATM    3  C3  UNL     1     -33.008   6.639   2.935  1.00 20.00     0.124 A 
HETATM    4  C4  UNL     1     -33.771   6.963   5.176  1.00 20.00     0.109 A 
HETATM    5  C5  UNL     1     -34.134   4.813   4.106  1.00 20.00     0.249 A 
HETATM    6  N6  UNL     1     -34.245   5.675   5.187  1.00 20.00    -0.314 N 
HETATM    7  O7  UNL     1     -34.552   3.659   4.099  1.00 20.00    -0.268 OA
HETATM    8  F8  UNL     1     -32.392   7.169   1.859  1.00 20.00    -0.206 F 
HETATM    9 CL9  UNL     1     -34.026   7.829   6.626  1.00 20.00    -0.064 Cl
HETATM   10  H12 UNL     1     -34.698   5.349   6.035  1.00 20.00     0.170 HD
ENDROOT
TORSDOF 0
ENDMDL
MODEL 5
REMARK VINA RESULT:      -4.5      2.432      2.868
REMARK  0 active torsions:
REMARK  status: ('A' for Active; 'I' for Inactive)
ROOT
HETATM    1  C1  UNL     1     -33.149   7.713   5.004  1.00 20.00     0.116 A 
HETATM    2  C2  UNL     1     -34.150   5.588   4.378  1.00 20.00     0.084 A 
HETATM    3  C3  UNL     1     -33.979   6.700   5.277  1.00 20.00     0.124 A 
HETATM    4  C4  UNL     1     -33.454   5.576   3.236  1.00 20.00     0.109 A 
HETATM    5  C5  UNL     1     -32.373   7.695   3.727  1.00 20.00     0.249 A 
HETATM    6  N6  UNL     1     -32.591   6.593   2.913  1.00 20.00    -0.314 N 
HETATM    7  O7  UNL     1     -31.606   8.613   3.454  1.00 20.00    -0.268 OA
HETATM    8  F8  UNL     1     -34.690   6.697   6.424  1.00 20.00    -0.206 F 
HETATM    9 CL9  UNL     1     -33.551   4.327   2.073  1.00 20.00    -0.064 Cl
HETATM   10  H12 UNL     1     -32.092   6.523   2.031  1.00 20.00     0.170 HD
ENDROOT
TORSDOF 0
ENDMDL
MODEL 6
REMARK VINA RESULT:      -4.3      3.413      3.995
REMARK  0 active torsions:
REMARK  status: ('A' for Active; 'I' for Inactive)
ROOT
HETATM    1  C1  UNL     1     -32.537   6.326   2.429  1.00 20.00     0.116 A 
HETATM    2  C2  UNL     1     -33.986   5.081   3.932  1.00 20.00     0.084 A 
HETATM    3  C3  UNL     1     -33.207   5.207   2.727  1.00 20.00     0.124 A 
HETATM    4  C4  UNL     1     -34.035   6.120   4.774  1.00 20.00     0.109 A 
HETATM    5  C5  UNL     1     -32.594   7.483   3.373  1.00 20.00     0.249 A 
HETATM    6  N6  UNL     1     -33.363   7.287   4.510  1.00 20.00    -0.314 N 
HETATM    7  O7  UNL     1     -31.987   8.520   3.121  1.00 20.00    -0.268 OA
HETATM    8  F8  UNL     1     -33.169   4.150   1.890  1.00 20.00    -0.206 F 
HETATM    9 CL9  UNL     1     -34.915   6.119   6.239  1.00 20.00    -0.064 Cl
HETATM   10  H12 UNL     1     -33.442   8.037   5.190  1.00 20.00     0.170 HD
ENDROOT
TORSDOF 0
ENDMDL
MODEL 7
REMARK VINA RESULT:      -4.2      3.054      3.564
REMARK  0 active torsions:
REMARK  status: ('A' for Active; 'I' for Inactive)
ROOT
HETATM    1  C1  UNL     1     -33.050   7.852   4.116  1.00 20.00     0.116 A 
HETATM    2  C2  UNL     1     -33.244   5.766   2.882  1.00 20.00     0.084 A 
HETATM    3  C3  UNL     1     -32.859   7.150   2.993  1.00 20.00     0.124 A 
HETATM    4  C4  UNL     1     -33.810   5.173   3.939  1.00 20.00     0.109 A 
HETATM    5  C5  UNL     1     -33.682   7.184   5.294  1.00 20.00     0.249 A 
HETATM    6  N6  UNL     1     -34.025   5.853   5.111  1.00 20.00    -0.314 N 
HETATM    7  O7  UNL     1     -33.867   7.808   6.336  1.00 20.00    -0.268 OA
HETATM    8  F8  UNL     1     -32.290   7.733   1.918  1.00 20.00    -0.206 F 
HETATM    9 CL9  UNL     1     -34.318   3.542   3.957  1.00 20.00    -0.064 Cl
HETATM   10  H12 UNL     1     -34.459   5.344   5.876  1.00 20.00     0.170 HD
ENDROOT
TORSDOF 0
ENDMDL
MODEL 8
REMARK VINA RESULT:      -4.1     12.390     12.685
REMARK  0 active torsions:
REMARK  status: ('A' for Active; 'I' for Inactive)
ROOT
HETATM    1  C1  UNL     1     -34.559  14.334  -4.175  1.00 20.00     0.116 A 
HETATM    2  C2  UNL     1     -36.004  16.173  -3.509  1.00 20.00     0.084 A 
HETATM    3  C3  UNL     1     -34.737  15.488  -3.521  1.00 20.00     0.124 A 
HETATM    4  C4  UNL     1     -37.030  15.631  -4.175  1.00 20.00     0.109 A 
HETATM    5  C5  UNL     1     -35.709  13.733  -4.917  1.00 20.00     0.249 A 
HETATM    6  N6  UNL     1     -36.895  14.450  -4.860  1.00 20.00    -0.314 N 
HETATM    7  O7  UNL     1     -35.570  12.676  -5.525  1.00 20.00    -0.268 OA
HETATM    8  F8  UNL     1     -33.712  16.048  -2.845  1.00 20.00    -0.206 F 
HETATM    9 CL9  UNL     1     -38.589  16.326  -4.251  1.00 20.00    -0.064 Cl
HETATM   10  H12 UNL     1     -37.713  14.092  -5.344  1.00 20.00     0.170 HD
ENDROOT
TORSDOF 0
ENDMDL
MODEL 9
REMARK VINA RESULT:      -4.0     12.978     13.217
REMARK  0 active torsions:
REMARK  status: ('A' for Active; 'I' for Inactive)
ROOT
HETATM    1  C1  UNL     1     -35.992  13.593  -6.362  1.00 20.00     0.116 A 
HETATM    2  C2  UNL     1     -33.965  14.680  -5.572  1.00 20.00     0.084 A 
HETATM    3  C3  UNL     1     -34.698  13.890  -6.528  1.00 20.00     0.124 A 
HETATM    4  C4  UNL     1     -34.607  15.127  -4.487  1.00 20.00     0.109 A 
HETATM    5  C5  UNL     1     -36.704  14.096  -5.148  1.00 20.00     0.249 A 
HETATM    6  N6  UNL     1     -35.933  14.848  -4.274  1.00 20.00    -0.314 N 
HETATM    7  O7  UNL     1     -37.891  13.837  -4.973  1.00 20.00    -0.268 OA
HETATM    8  F8  UNL     1     -34.036  13.447  -7.617  1.00 20.00    -0.206 F 
HETATM    9 CL9  UNL     1     -33.872  16.072  -3.267  1.00 20.00    -0.064 Cl
HETATM   10  H12 UNL     1     -36.361  15.217  -3.430  1.00 20.00     0.170 HD
ENDROOT
TORSDOF 0
ENDMDL
