MODEL 1
REMARK VINA RESULT:      -4.8      0.000      0.000
REMARK  1 active torsions:
REMARK  status: ('A' for Active; 'I' for Inactive)
REMARK    1  A    between atoms: C1_1  and  C4_4 
ROOT
HETATM    1  C2  UNL     1     -34.364   5.879   5.865  1.00 20.00     0.038 C 
HETATM    2  C3  UNL     1     -33.905   7.323   5.922  1.00 20.00     0.169 C 
HETATM    3  C4  UNL     1     -33.072   6.361   3.974  1.00 20.00     0.190 C 
HETATM    4  C5  UNL     1     -34.321   5.565   4.373  1.00 20.00    -0.013 C 
HETATM    5  C6  UNL     1     -35.610   6.063   3.693  1.00 20.00     0.018 C 
HETATM    6  C7  UNL     1     -34.158   4.068   4.105  1.00 20.00     0.018 C 
HETATM    7  O9  UNL     1     -33.050   7.537   4.790  1.00 20.00    -0.378 OA
ENDROOT
BRANCH   3   8
HETATM    8  C1  UNL     1     -33.029   6.799   2.546  1.00 20.00     0.263 C 
HETATM    9  O8  UNL     1     -32.663   7.916   2.192  1.00 20.00    -0.304 OA
ENDBRANCH   3   8
TORSDOF 1
ENDMDL
MODEL 2
REMARK VINA RESULT:      -4.0     11.617     12.495
REMARK  1 active torsions:
REMARK  status: ('A' for Active; 'I' for Inactive)
REMARK    1  A    between atoms: C1_1  and  C4_4 
ROOT
HETATM    1  C2  UNL     1     -33.655  15.941  -3.768  1.00 20.00     0.038 C 
HETATM    2  C3  UNL     1     -32.796  14.865  -4.404  1.00 20.00     0.169 C 
HETATM    3  C4  UNL     1     -34.988  14.090  -4.292  1.00 20.00     0.190 C 
HETATM    4  C5  UNL     1     -35.050  15.623  -4.296  1.00 20.00    -0.013 C 
HETATM    5  C6  UNL     1     -35.231  16.226  -5.701  1.00 20.00     0.018 C 
HETATM    6  C7  UNL     1     -36.149  16.156  -3.375  1.00 20.00     0.018 C 
HETATM    7  O9  UNL     1     -33.643  13.728  -4.623  1.00 20.00    -0.378 OA
ENDROOT
BRANCH   3   8
HETATM    8  C1  UNL     1     -35.893  13.416  -5.272  1.00 20.00     0.263 C 
HETATM    9  O8  UNL     1     -35.501  12.612  -6.111  1.00 20.00    -0.304 OA
ENDBRANCH   3   8
TORSDOF 1
ENDMDL
MODEL 3
REMARK VINA RESULT:      -3.9     11.877     13.048
REMARK  1 active torsions:
REMARK  status: ('A' for Active; 'I' for Inactive)
REMARK    1  A    between atoms: C1_1  and  C4_4 
ROOT
HETATM    1  C2  UNL     1     -32.981  15.701  -5.292  1.00 20.00     0.038 C 
HETATM    2  C3  UNL     1     -32.765  14.449  -4.463  1.00 20.00     0.169 C 
HETATM    3  C4  UNL     1     -35.048  14.701  -4.839  1.00 20.00     0.190 C 
HETATM    4  C5  UNL     1     -34.321  15.434  -5.972  1.00 20.00    -0.013 C 
HETATM    5  C6  UNL     1     -34.109  14.568  -7.228  1.00 20.00     0.018 C 
HETATM    6  C7  UNL     1     -35.032  16.729  -6.369  1.00 20.00     0.018 C 
HETATM    7  O9  UNL     1     -34.063  13.929  -4.143  1.00 20.00    -0.378 OA
ENDROOT
BRANCH   3   8
HETATM    8  C1  UNL     1     -36.129  13.767  -5.279  1.00 20.00     0.263 C 
HETATM    9  O8  UNL     1     -36.013  12.545  -5.264  1.00 20.00    -0.304 OA
ENDBRANCH   3   8
TORSDOF 1
ENDMDL
MODEL 4
REMARK VINA RESULT:      -3.9     11.787     13.104
REMARK  1 active torsions:
REMARK  status: ('A' for Active; 'I' for Inactive)
REMARK    1  A    between atoms: C1_1  and  C4_4 
ROOT
HETATM    1  C2  UNL     1     -33.361  16.492  -5.339  1.00 20.00     0.038 C 
HETATM    2  C3  UNL     1     -34.559  16.985  -6.127  1.00 20.00     0.169 C 
HETATM    3  C4  UNL     1     -34.811  14.703  -5.755  1.00 20.00     0.190 C 
HETATM    4  C5  UNL     1     -33.898  15.243  -4.647  1.00 20.00    -0.013 C 
HETATM    5  C6  UNL     1     -34.655  15.636  -3.365  1.00 20.00     0.018 C 
HETATM    6  C7  UNL     1     -32.783  14.258  -4.291  1.00 20.00     0.018 C 
HETATM    7  O9  UNL     1     -35.366  15.838  -6.427  1.00 20.00    -0.378 OA
ENDROOT
BRANCH   3   8
HETATM    8  C1  UNL     1     -35.949  13.856  -5.282  1.00 20.00     0.263 C 
HETATM    9  O8  UNL     1     -35.878  12.637  -5.157  1.00 20.00    -0.304 OA
ENDBRANCH   3   8
TORSDOF 1
ENDMDL
MODEL 5
REMARK VINA RESULT:      -3.8      1.570      3.051
REMARK  1 active torsions:
REMARK  status: ('A' for Active; 'I' for Inactive)
REMARK    1  A    between atoms: C1_1  and  C4_4 
ROOT
HETATM    1  C2  UNL     1     -32.761   7.445   2.587  1.00 20.00     0.038 C 
HETATM    2  C3  UNL     1     -32.297   7.718   4.005  1.00 20.00     0.169 C 
HETATM    3  C4  UNL     1     -34.336   6.601   4.098  1.00 20.00     0.190 C 
HETATM    4  C5  UNL     1     -33.686   6.244   2.755  1.00 20.00    -0.013 C 
HETATM    5  C6  UNL     1     -32.861   4.945   2.798  1.00 20.00     0.018 C 
HETATM    6  C7  UNL     1     -34.715   6.149   1.627  1.00 20.00     0.018 C 
HETATM    7  O9  UNL     1     -33.336   7.260   4.882  1.00 20.00    -0.378 OA
ENDROOT
BRANCH   3   8
HETATM    8  C1  UNL     1     -34.837   5.436   4.890  1.00 20.00     0.263 C 
HETATM    9  O8  UNL     1     -34.413   5.144   6.004  1.00 20.00    -0.304 OA
ENDBRANCH   3   8
TORSDOF 1
ENDMDL
MODEL 6
REMARK VINA RESULT:      -3.6      1.456      1.478
REMARK  1 active torsions:
REMARK  status: ('A' for Active; 'I' for Inactive)
REMARK    1  A    between atoms: C1_1  and  C4_4 
ROOT
HETATM    1  C2  UNL     1     -34.133   6.809   5.749  1.00 20.00     0.038 C 
HETATM    2  C3  UNL     1     -33.391   7.906   5.011  1.00 20.00     0.169 C 
HETATM    3  C4  UNL     1     -33.043   5.897   3.890  1.00 20.00     0.190 C 
HETATM    4  C5  UNL     1     -34.360   5.760   4.665  1.00 20.00    -0.013 C 
HETATM    5  C6  UNL     1     -35.603   6.123   3.833  1.00 20.00     0.018 C 
HETATM    6  C7  UNL     1     -34.539   4.358   5.251  1.00 20.00     0.018 C 
HETATM    7  O9  UNL     1     -32.674   7.279   3.938  1.00 20.00    -0.378 OA
ENDROOT
BRANCH   3   8
HETATM    8  C1  UNL     1     -33.109   5.495   2.452  1.00 20.00     0.263 C 
HETATM    9  O8  UNL     1     -32.878   4.357   2.057  1.00 20.00    -0.304 OA
ENDBRANCH   3   8
TORSDOF 1
ENDMDL
MODEL 7
REMARK VINA RESULT:      -3.6     12.498     13.580
REMARK  1 active torsions:
REMARK  status: ('A' for Active; 'I' for Inactive)
REMARK    1  A    between atoms: C1_1  and  C4_4 
ROOT
HETATM    1  C2  UNL     1     -34.224  14.047  -7.300  1.00 20.00     0.038 C 
HETATM    2  C3  UNL     1     -35.044  12.775  -7.206  1.00 20.00     0.169 C 
HETATM    3  C4  UNL     1     -35.563  14.125  -5.382  1.00 20.00     0.190 C 
HETATM    4  C5  UNL     1     -35.048  15.047  -6.495  1.00 20.00    -0.013 C 
HETATM    5  C6  UNL     1     -36.168  15.634  -7.373  1.00 20.00     0.018 C 
HETATM    6  C7  UNL     1     -34.191  16.188  -5.944  1.00 20.00     0.018 C 
HETATM    7  O9  UNL     1     -35.777  12.838  -5.974  1.00 20.00    -0.378 OA
ENDROOT
BRANCH   3   8
HETATM    8  C1  UNL     1     -36.848  14.551  -4.749  1.00 20.00     0.263 C 
HETATM    9  O8  UNL     1     -37.885  13.900  -4.820  1.00 20.00    -0.304 OA
ENDBRANCH   3   8
TORSDOF 1
ENDMDL
MODEL 8
REMARK VINA RESULT:      -3.5     11.925     13.650
REMARK  1 active torsions:
REMARK  status: ('A' for Active; 'I' for Inactive)
REMARK    1  A    between atoms: C1_1  and  C4_4 
ROOT
HETATM    1  C2  UNL     1     -34.480  16.977  -6.366  1.00 20.00     0.038 C 
HETATM    2  C3  UNL     1     -35.422  17.305  -5.223  1.00 20.00     0.169 C 
HETATM    3  C4  UNL     1     -35.583  15.030  -5.683  1.00 20.00     0.190 C 
HETATM    4  C5  UNL     1     -34.201  15.491  -6.164  1.00 20.00    -0.013 C 
HETATM    5  C6  UNL     1     -33.090  15.302  -5.115  1.00 20.00     0.018 C 
HETATM    6  C7  UNL     1     -33.787  14.802  -7.465  1.00 20.00     0.018 C 
HETATM    7  O9  UNL     1     -36.131  16.100  -4.905  1.00 20.00    -0.378 OA
ENDROOT
BRANCH   3   8
HETATM    8  C1  UNL     1     -35.579  13.804  -4.827  1.00 20.00     0.263 C 
HETATM    9  O8  UNL     1     -35.897  12.692  -5.238  1.00 20.00    -0.304 OA
ENDBRANCH   3   8
TORSDOF 1
ENDMDL
MODEL 9
REMARK VINA RESULT:      -3.5     11.908     13.157
REMARK  1 active torsions:
REMARK  status: ('A' for Active; 'I' for Inactive)
REMARK    1  A    between atoms: C1_1  and  C4_4 
ROOT
HETATM    1  C2  UNL     1     -35.744  13.636  -6.677  1.00 20.00     0.038 C 
HETATM    2  C3  UNL     1     -36.006  13.369  -5.208  1.00 20.00     0.169 C 
HETATM    3  C4  UNL     1     -33.899  14.334  -5.419  1.00 20.00     0.190 C 
HETATM    4  C5  UNL     1     -34.717  14.764  -6.643  1.00 20.00    -0.013 C 
HETATM    5  C6  UNL     1     -35.429  16.118  -6.462  1.00 20.00     0.018 C 
HETATM    6  C7  UNL     1     -33.869  14.808  -7.914  1.00 20.00     0.018 C 
HETATM    7  O9  UNL     1     -34.814  13.733  -4.496  1.00 20.00    -0.378 OA
ENDROOT
BRANCH   3   8
HETATM    8  C1  UNL     1     -33.199  15.444  -4.703  1.00 20.00     0.263 C 
HETATM    9  O8  UNL     1     -33.482  15.798  -3.563  1.00 20.00    -0.304 OA
ENDBRANCH   3   8
TORSDOF 1
ENDMDL
