MODEL 1
REMARK VINA RESULT:      -6.1      0.000      0.000
REMARK  0 active torsions:
REMARK  status: ('A' for Active; 'I' for Inactive)
ROOT
HETATM    1  C1  UNL     1     -32.108   8.376   4.416  1.00 20.00     0.004 A 
HETATM    2  C2  UNL     1     -33.065   7.478   4.633  1.00 20.00    -0.036 A 
HETATM    3  C3  UNL     1     -33.214   6.845   3.320  1.00 20.00     0.035 A 
HETATM    4  C4  UNL     1     -31.665   8.358   2.994  1.00 20.00     0.177 A 
HETATM    5  C5  UNL     1     -33.842   7.092   5.830  1.00 20.00     0.040 C 
HETATM    6  C6  UNL     1     -34.160   5.688   3.146  1.00 20.00     0.059 C 
HETATM    7  C7  UNL     1     -34.468   5.705   5.660  1.00 20.00     0.005 C 
HETATM    8  C8  UNL     1     -35.155   5.568   4.299  1.00 20.00     0.006 C 
HETATM    9  N9  UNL     1     -32.465   7.290   2.351  1.00 20.00    -0.290 NA
ENDROOT
TORSDOF 0
ENDMDL
MODEL 2
REMARK VINA RESULT:      -6.1      0.937      2.077
REMARK  0 active torsions:
REMARK  status: ('A' for Active; 'I' for Inactive)
ROOT
HETATM    1  C1  UNL     1     -32.399   7.426   2.350  1.00 20.00     0.004 A 
HETATM    2  C2  UNL     1     -33.206   6.793   3.199  1.00 20.00    -0.036 A 
HETATM    3  C3  UNL     1     -32.933   7.474   4.468  1.00 20.00     0.035 A 
HETATM    4  C4  UNL     1     -31.594   8.467   3.048  1.00 20.00     0.177 A 
HETATM    5  C5  UNL     1     -34.187   5.700   3.042  1.00 20.00     0.040 C 
HETATM    6  C6  UNL     1     -33.717   7.111   5.699  1.00 20.00     0.059 C 
HETATM    7  C7  UNL     1     -35.174   5.669   4.212  1.00 20.00     0.005 C 
HETATM    8  C8  UNL     1     -34.449   5.778   5.555  1.00 20.00     0.006 C 
HETATM    9  N9  UNL     1     -32.037   8.420   4.461  1.00 20.00    -0.290 NA
ENDROOT
TORSDOF 0
ENDMDL
MODEL 3
REMARK VINA RESULT:      -4.9      1.491      3.116
REMARK  0 active torsions:
REMARK  status: ('A' for Active; 'I' for Inactive)
ROOT
HETATM    1  C1  UNL     1     -33.790   7.114   5.980  1.00 20.00     0.004 A 
HETATM    2  C2  UNL     1     -33.294   7.223   4.750  1.00 20.00    -0.036 A 
HETATM    3  C3  UNL     1     -34.020   6.181   4.018  1.00 20.00     0.035 A 
HETATM    4  C4  UNL     1     -34.786   6.009   6.063  1.00 20.00     0.177 A 
HETATM    5  C5  UNL     1     -32.296   8.122   4.135  1.00 20.00     0.040 C 
HETATM    6  C6  UNL     1     -33.813   6.020   2.537  1.00 20.00     0.059 C 
HETATM    7  C7  UNL     1     -32.436   8.144   2.611  1.00 20.00     0.005 C 
HETATM    8  C8  UNL     1     -32.553   6.728   2.042  1.00 20.00     0.006 C 
HETATM    9  N9  UNL     1     -34.870   5.457   4.690  1.00 20.00    -0.290 NA
ENDROOT
TORSDOF 0
ENDMDL
MODEL 4
REMARK VINA RESULT:      -4.8      1.517      3.642
REMARK  0 active torsions:
REMARK  status: ('A' for Active; 'I' for Inactive)
ROOT
HETATM    1  C1  UNL     1     -34.844   5.440   4.682  1.00 20.00     0.004 A 
HETATM    2  C2  UNL     1     -34.052   6.130   3.865  1.00 20.00    -0.036 A 
HETATM    3  C3  UNL     1     -33.453   7.122   4.762  1.00 20.00     0.035 A 
HETATM    4  C4  UNL     1     -34.792   5.984   6.068  1.00 20.00     0.177 A 
HETATM    5  C5  UNL     1     -33.741   6.024   2.424  1.00 20.00     0.040 C 
HETATM    6  C6  UNL     1     -32.407   8.070   4.243  1.00 20.00     0.059 C 
HETATM    7  C7  UNL     1     -32.432   6.742   2.086  1.00 20.00     0.005 C 
HETATM    8  C8  UNL     1     -32.383   8.136   2.717  1.00 20.00     0.006 C 
HETATM    9  N9  UNL     1     -33.823   7.103   6.011  1.00 20.00    -0.290 NA
ENDROOT
TORSDOF 0
ENDMDL
MODEL 5
REMARK VINA RESULT:      -4.5      1.525      3.031
REMARK  0 active torsions:
REMARK  status: ('A' for Active; 'I' for Inactive)
ROOT
HETATM    1  C1  UNL     1     -34.446   5.893   5.962  1.00 20.00     0.004 A 
HETATM    2  C2  UNL     1     -34.083   5.640   4.706  1.00 20.00    -0.036 A 
HETATM    3  C3  UNL     1     -33.416   6.883   4.310  1.00 20.00     0.035 A 
HETATM    4  C4  UNL     1     -34.060   7.274   6.366  1.00 20.00     0.177 A 
HETATM    5  C5  UNL     1     -34.224   4.461   3.828  1.00 20.00     0.040 C 
HETATM    6  C6  UNL     1     -32.768   6.989   2.957  1.00 20.00     0.059 C 
HETATM    7  C7  UNL     1     -33.233   4.517   2.662  1.00 20.00     0.005 C 
HETATM    8  C8  UNL     1     -33.234   5.895   1.997  1.00 20.00     0.006 C 
HETATM    9  N9  UNL     1     -33.368   7.845   5.187  1.00 20.00    -0.290 NA
ENDROOT
TORSDOF 0
ENDMDL
MODEL 6
REMARK VINA RESULT:      -4.5      1.347      3.156
REMARK  0 active torsions:
REMARK  status: ('A' for Active; 'I' for Inactive)
ROOT
HETATM    1  C1  UNL     1     -34.595   4.953   5.437  1.00 20.00     0.004 A 
HETATM    2  C2  UNL     1     -33.924   6.065   5.145  1.00 20.00    -0.036 A 
HETATM    3  C3  UNL     1     -33.473   5.815   3.773  1.00 20.00     0.035 A 
HETATM    4  C4  UNL     1     -34.556   3.987   4.304  1.00 20.00     0.177 A 
HETATM    5  C5  UNL     1     -33.648   7.309   5.892  1.00 20.00     0.040 C 
HETATM    6  C6  UNL     1     -32.732   6.885   3.019  1.00 20.00     0.059 C 
HETATM    7  C7  UNL     1     -33.246   8.445   4.948  1.00 20.00     0.005 C 
HETATM    8  C8  UNL     1     -32.194   7.981   3.937  1.00 20.00     0.006 C 
HETATM    9  N9  UNL     1     -33.786   4.669   3.237  1.00 20.00    -0.290 NA
ENDROOT
TORSDOF 0
ENDMDL
MODEL 7
REMARK VINA RESULT:      -4.4      1.693      3.674
REMARK  0 active torsions:
REMARK  status: ('A' for Active; 'I' for Inactive)
ROOT
HETATM    1  C1  UNL     1     -34.034   4.894   3.313  1.00 20.00     0.004 A 
HETATM    2  C2  UNL     1     -33.492   6.071   3.613  1.00 20.00    -0.036 A 
HETATM    3  C3  UNL     1     -33.862   6.245   5.020  1.00 20.00     0.035 A 
HETATM    4  C4  UNL     1     -34.769   4.327   4.478  1.00 20.00     0.177 A 
HETATM    5  C5  UNL     1     -32.685   7.042   2.845  1.00 20.00     0.040 C 
HETATM    6  C6  UNL     1     -33.363   7.438   5.788  1.00 20.00     0.059 C 
HETATM    7  C7  UNL     1     -31.924   7.990   3.776  1.00 20.00     0.005 C 
HETATM    8  C8  UNL     1     -32.838   8.544   4.873  1.00 20.00     0.006 C 
HETATM    9  N9  UNL     1     -34.581   5.309   5.572  1.00 20.00    -0.290 NA
ENDROOT
TORSDOF 0
ENDMDL
MODEL 8
REMARK VINA RESULT:      -4.4      1.837      2.944
REMARK  0 active torsions:
REMARK  status: ('A' for Active; 'I' for Inactive)
ROOT
HETATM    1  C1  UNL     1     -33.371   7.868   5.251  1.00 20.00     0.004 A 
HETATM    2  C2  UNL     1     -33.313   6.997   4.247  1.00 20.00    -0.036 A 
HETATM    3  C3  UNL     1     -34.019   5.834   4.789  1.00 20.00     0.035 A 
HETATM    4  C4  UNL     1     -34.065   7.281   6.432  1.00 20.00     0.177 A 
HETATM    5  C5  UNL     1     -32.744   7.058   2.884  1.00 20.00     0.040 C 
HETATM    6  C6  UNL     1     -34.256   4.627   3.923  1.00 20.00     0.059 C 
HETATM    7  C7  UNL     1     -33.352   5.981   1.982  1.00 20.00     0.005 C 
HETATM    8  C8  UNL     1     -33.371   4.618   2.678  1.00 20.00     0.006 C 
HETATM    9  N9  UNL     1     -34.465   5.918   6.011  1.00 20.00    -0.290 NA
ENDROOT
TORSDOF 0
ENDMDL
MODEL 9
REMARK VINA RESULT:      -4.4      1.706      2.542
REMARK  0 active torsions:
REMARK  status: ('A' for Active; 'I' for Inactive)
ROOT
HETATM    1  C1  UNL     1     -32.924   6.220   2.552  1.00 20.00     0.004 A 
HETATM    2  C2  UNL     1     -33.433   6.425   3.764  1.00 20.00    -0.036 A 
HETATM    3  C3  UNL     1     -33.903   5.091   4.145  1.00 20.00     0.035 A 
HETATM    4  C4  UNL     1     -33.085   4.799   2.134  1.00 20.00     0.177 A 
HETATM    5  C5  UNL     1     -33.542   7.618   4.630  1.00 20.00     0.040 C 
HETATM    6  C6  UNL     1     -34.484   4.860   5.512  1.00 20.00     0.059 C 
HETATM    7  C7  UNL     1     -33.777   7.223   6.090  1.00 20.00     0.005 C 
HETATM    8  C8  UNL     1     -34.874   6.162   6.209  1.00 20.00     0.006 C 
HETATM    9  N9  UNL     1     -33.745   4.129   3.279  1.00 20.00    -0.290 NA
ENDROOT
TORSDOF 0
ENDMDL
