MODEL 1
REMARK VINA RESULT:      -6.1      0.000      0.000
REMARK  2 active torsions:
REMARK  status: ('A' for Active; 'I' for Inactive)
REMARK    1  A    between atoms: C7_7  and  O10_10 
REMARK    2  A    between atoms: C8_8  and  O10_10 
ROOT
HETATM    1  C1  UNL     1     -34.497   5.567   5.155  1.00 20.00     0.153 C 
HETATM    2  C2  UNL     1     -33.675   5.500   3.036  1.00 20.00     0.121 C 
HETATM    3  C3  UNL     1     -34.039   6.793   5.428  1.00 20.00     0.114 C 
HETATM    4  C4  UNL     1     -33.340   7.612   4.400  1.00 20.00     0.109 C 
HETATM    5  C7  UNL     1     -32.879   6.773   3.213  1.00 20.00     0.168 C 
HETATM    6  N9  UNL     1     -34.410   4.936   3.944  1.00 20.00    -0.272 NA
HETATM    7  F11 UNL     1     -34.209   7.297   6.669  1.00 20.00    -0.209 F 
ENDROOT
BRANCH   5   8
HETATM    8  O10 UNL     1     -33.030   7.532   2.023  1.00 20.00    -0.375 OA
BRANCH   8   9
HETATM    9  C8  UNL     1     -32.111   8.614   1.973  1.00 20.00     0.122 A 
HETATM   10  C5  UNL     1     -31.634   9.018   0.608  1.00 20.00     0.034 A 
HETATM   11  C6  UNL     1     -32.616   9.881   1.345  1.00 20.00     0.034 A 
ENDBRANCH   8   9
ENDBRANCH   5   8
TORSDOF 2
ENDMDL
MODEL 2
REMARK VINA RESULT:      -5.8      1.612      2.000
REMARK  2 active torsions:
REMARK  status: ('A' for Active; 'I' for Inactive)
REMARK    1  A    between atoms: C7_7  and  O10_10 
REMARK    2  A    between atoms: C8_8  and  O10_10 
ROOT
HETATM    1  C1  UNL     1     -34.389   5.926   5.624  1.00 20.00     0.153 C 
HETATM    2  C2  UNL     1     -33.222   7.650   4.710  1.00 20.00     0.121 C 
HETATM    3  C3  UNL     1     -34.449   5.205   4.499  1.00 20.00     0.114 C 
HETATM    4  C4  UNL     1     -33.768   5.647   3.251  1.00 20.00     0.109 C 
HETATM    5  C7  UNL     1     -33.376   7.120   3.302  1.00 20.00     0.168 C 
HETATM    6  N9  UNL     1     -33.708   7.101   5.781  1.00 20.00    -0.272 NA
HETATM    7  F11 UNL     1     -35.150   4.051   4.494  1.00 20.00    -0.209 F 
ENDROOT
BRANCH   5   8
HETATM    8  O10 UNL     1     -32.126   7.290   2.650  1.00 20.00    -0.375 OA
BRANCH   8   9
HETATM    9  C8  UNL     1     -31.915   8.642   2.270  1.00 20.00     0.122 A 
HETATM   10  C5  UNL     1     -31.500   8.874   0.846  1.00 20.00     0.034 A 
HETATM   11  C6  UNL     1     -32.895   9.212   1.285  1.00 20.00     0.034 A 
ENDBRANCH   8   9
ENDBRANCH   5   8
TORSDOF 2
ENDMDL
MODEL 3
REMARK VINA RESULT:      -4.4     11.437     12.107
REMARK  2 active torsions:
REMARK  status: ('A' for Active; 'I' for Inactive)
REMARK    1  A    between atoms: C7_7  and  O10_10 
REMARK    2  A    between atoms: C8_8  and  O10_10 
ROOT
HETATM    1  C1  UNL     1     -34.770  13.374  -6.931  1.00 20.00     0.153 C 
HETATM    2  C2  UNL     1     -35.796  13.637  -4.918  1.00 20.00     0.121 C 
HETATM    3  C3  UNL     1     -34.069  14.511  -6.863  1.00 20.00     0.114 C 
HETATM    4  C4  UNL     1     -34.110  15.383  -5.657  1.00 20.00     0.109 C 
HETATM    5  C7  UNL     1     -35.289  15.052  -4.749  1.00 20.00     0.168 C 
HETATM    6  N9  UNL     1     -35.566  12.870  -5.939  1.00 20.00    -0.272 NA
HETATM    7  F11 UNL     1     -33.310  14.879  -7.918  1.00 20.00    -0.209 F 
ENDROOT
BRANCH   5   8
HETATM    8  O10 UNL     1     -34.885  15.194  -3.395  1.00 20.00    -0.375 OA
BRANCH   8   9
HETATM    9  C8  UNL     1     -34.853  16.558  -3.000  1.00 20.00     0.122 A 
HETATM   10  C5  UNL     1     -34.984  16.826  -1.529  1.00 20.00     0.034 A 
HETATM   11  C6  UNL     1     -33.654  16.988  -2.206  1.00 20.00     0.034 A 
ENDBRANCH   8   9
ENDBRANCH   5   8
TORSDOF 2
ENDMDL
MODEL 4
REMARK VINA RESULT:      -4.2     11.543     12.085
REMARK  2 active torsions:
REMARK  status: ('A' for Active; 'I' for Inactive)
REMARK    1  A    between atoms: C7_7  and  O10_10 
REMARK    2  A    between atoms: C8_8  and  O10_10 
ROOT
HETATM    1  C1  UNL     1     -36.027  13.322  -5.718  1.00 20.00     0.153 C 
HETATM    2  C2  UNL     1     -36.952  15.061  -4.583  1.00 20.00     0.121 C 
HETATM    3  C3  UNL     1     -34.963  14.006  -6.151  1.00 20.00     0.114 C 
HETATM    4  C4  UNL     1     -34.723  15.417  -5.742  1.00 20.00     0.109 C 
HETATM    5  C7  UNL     1     -35.971  16.064  -5.149  1.00 20.00     0.168 C 
HETATM    6  N9  UNL     1     -36.984  13.795  -4.863  1.00 20.00    -0.272 NA
HETATM    7  F11 UNL     1     -34.088  13.404  -6.985  1.00 20.00    -0.209 F 
ENDROOT
BRANCH   5   8
HETATM    8  O10 UNL     1     -35.587  16.923  -4.086  1.00 20.00    -0.375 OA
BRANCH   8   9
HETATM    9  C8  UNL     1     -35.063  16.191  -2.987  1.00 20.00     0.122 A 
HETATM   10  C5  UNL     1     -33.913  16.823  -2.257  1.00 20.00     0.034 A 
HETATM   11  C6  UNL     1     -35.276  16.796  -1.629  1.00 20.00     0.034 A 
ENDBRANCH   8   9
ENDBRANCH   5   8
TORSDOF 2
ENDMDL
MODEL 5
REMARK VINA RESULT:      -4.1     11.394     11.987
REMARK  2 active torsions:
REMARK  status: ('A' for Active; 'I' for Inactive)
REMARK    1  A    between atoms: C7_7  and  O10_10 
REMARK    2  A    between atoms: C8_8  and  O10_10 
ROOT
HETATM    1  C1  UNL     1     -34.663  14.252  -6.449  1.00 20.00     0.153 C 
HETATM    2  C2  UNL     1     -33.228  15.886  -5.785  1.00 20.00     0.121 C 
HETATM    3  C3  UNL     1     -35.151  14.010  -5.228  1.00 20.00     0.114 C 
HETATM    4  C4  UNL     1     -34.735  14.815  -4.047  1.00 20.00     0.109 C 
HETATM    5  C7  UNL     1     -33.464  15.615  -4.316  1.00 20.00     0.168 C 
HETATM    6  N9  UNL     1     -33.773  15.240  -6.769  1.00 20.00    -0.272 NA
HETATM    7  F11 UNL     1     -36.038  13.005  -5.062  1.00 20.00    -0.209 F 
ENDROOT
BRANCH   5   8
HETATM    8  O10 UNL     1     -33.563  16.873  -3.667  1.00 20.00    -0.375 OA
BRANCH   8   9
HETATM    9  C8  UNL     1     -33.546  16.734  -2.253  1.00 20.00     0.122 A 
HETATM   10  C5  UNL     1     -33.051  17.920  -1.476  1.00 20.00     0.034 A 
HETATM   11  C6  UNL     1     -34.516  17.593  -1.493  1.00 20.00     0.034 A 
ENDBRANCH   8   9
ENDBRANCH   5   8
TORSDOF 2
ENDMDL
MODEL 6
REMARK VINA RESULT:      -4.0     11.082     11.821
REMARK  2 active torsions:
REMARK  status: ('A' for Active; 'I' for Inactive)
REMARK    1  A    between atoms: C7_7  and  O10_10 
REMARK    2  A    between atoms: C8_8  and  O10_10 
ROOT
HETATM    1  C1  UNL     1     -33.232  18.407  -0.761  1.00 20.00     0.153 C 
HETATM    2  C2  UNL     1     -33.315  18.297  -3.031  1.00 20.00     0.121 C 
HETATM    3  C3  UNL     1     -34.351  17.702  -0.561  1.00 20.00     0.114 C 
HETATM    4  C4  UNL     1     -35.107  17.098  -1.693  1.00 20.00     0.109 C 
HETATM    5  C7  UNL     1     -34.703  17.696  -3.037  1.00 20.00     0.168 C 
HETATM    6  N9  UNL     1     -32.645  18.640  -1.974  1.00 20.00    -0.272 NA
HETATM    7  F11 UNL     1     -34.809  17.540   0.699  1.00 20.00    -0.209 F 
ENDROOT
BRANCH   5   8
HETATM    8  O10 UNL     1     -34.714  16.673  -4.020  1.00 20.00    -0.375 OA
BRANCH   8   9
HETATM    9  C8  UNL     1     -34.122  15.476  -3.535  1.00 20.00     0.122 A 
HETATM   10  C5  UNL     1     -34.524  14.207  -4.231  1.00 20.00     0.034 A 
HETATM   11  C6  UNL     1     -33.161  14.791  -4.464  1.00 20.00     0.034 A 
ENDBRANCH   8   9
ENDBRANCH   5   8
TORSDOF 2
ENDMDL
MODEL 7
REMARK VINA RESULT:      -4.0     10.998     11.585
REMARK  2 active torsions:
REMARK  status: ('A' for Active; 'I' for Inactive)
REMARK    1  A    between atoms: C7_7  and  O10_10 
REMARK    2  A    between atoms: C8_8  and  O10_10 
ROOT
HETATM    1  C1  UNL     1     -34.906  14.042  -4.564  1.00 20.00     0.153 C 
HETATM    2  C2  UNL     1     -36.164  15.888  -4.142  1.00 20.00     0.121 C 
HETATM    3  C3  UNL     1     -33.752  14.580  -4.154  1.00 20.00     0.114 C 
HETATM    4  C4  UNL     1     -33.693  15.948  -3.568  1.00 20.00     0.109 C 
HETATM    5  C7  UNL     1     -34.956  16.753  -3.860  1.00 20.00     0.168 C 
HETATM    6  N9  UNL     1     -36.135  14.637  -4.484  1.00 20.00    -0.272 NA
HETATM    7  F11 UNL     1     -32.612  13.868  -4.282  1.00 20.00    -0.209 F 
ENDROOT
BRANCH   5   8
HETATM    8  O10 UNL     1     -35.266  17.554  -2.730  1.00 20.00    -0.375 OA
BRANCH   8   9
HETATM    9  C8  UNL     1     -34.766  16.980  -1.531  1.00 20.00     0.122 A 
HETATM   10  C5  UNL     1     -34.163  17.934  -0.540  1.00 20.00     0.034 A 
HETATM   11  C6  UNL     1     -35.509  17.326  -0.273  1.00 20.00     0.034 A 
ENDBRANCH   8   9
ENDBRANCH   5   8
TORSDOF 2
ENDMDL
MODEL 8
REMARK VINA RESULT:      -4.0     11.000     11.803
REMARK  2 active torsions:
REMARK  status: ('A' for Active; 'I' for Inactive)
REMARK    1  A    between atoms: C7_7  and  O10_10 
REMARK    2  A    between atoms: C8_8  and  O10_10 
ROOT
HETATM    1  C1  UNL     1     -35.487  16.604  -3.193  1.00 20.00     0.153 C 
HETATM    2  C2  UNL     1     -36.073  14.856  -4.524  1.00 20.00     0.121 C 
HETATM    3  C3  UNL     1     -34.205  16.244  -3.071  1.00 20.00     0.114 C 
HETATM    4  C4  UNL     1     -33.651  15.068  -3.798  1.00 20.00     0.109 C 
HETATM    5  C7  UNL     1     -34.749  14.152  -4.328  1.00 20.00     0.168 C 
HETATM    6  N9  UNL     1     -36.416  15.984  -3.982  1.00 20.00    -0.272 NA
HETATM    7  F11 UNL     1     -33.394  16.960  -2.263  1.00 20.00    -0.209 F 
ENDROOT
BRANCH   5   8
HETATM    8  O10 UNL     1     -34.355  13.639  -5.592  1.00 20.00    -0.375 OA
BRANCH   8   9
HETATM    9  C8  UNL     1     -34.857  14.434  -6.657  1.00 20.00     0.122 A 
HETATM   10  C5  UNL     1     -34.042  14.444  -7.918  1.00 20.00     0.034 A 
HETATM   11  C6  UNL     1     -35.337  13.687  -7.868  1.00 20.00     0.034 A 
ENDBRANCH   8   9
ENDBRANCH   5   8
TORSDOF 2
ENDMDL
MODEL 9
REMARK VINA RESULT:      -3.8     11.261     11.617
REMARK  2 active torsions:
REMARK  status: ('A' for Active; 'I' for Inactive)
REMARK    1  A    between atoms: C7_7  and  O10_10 
REMARK    2  A    between atoms: C8_8  and  O10_10 
ROOT
HETATM    1  C1  UNL     1     -34.860  17.867   0.024  1.00 20.00     0.153 C 
HETATM    2  C2  UNL     1     -35.110  16.740  -1.935  1.00 20.00     0.121 C 
HETATM    3  C3  UNL     1     -33.597  18.239  -0.205  1.00 20.00     0.114 C 
HETATM    4  C4  UNL     1     -32.912  17.927  -1.490  1.00 20.00     0.109 C 
HETATM    5  C7  UNL     1     -33.642  16.847  -2.283  1.00 20.00     0.168 C 
HETATM    6  N9  UNL     1     -35.666  17.200  -0.857  1.00 20.00    -0.272 NA
HETATM    7  F11 UNL     1     -32.923  18.908   0.755  1.00 20.00    -0.209 F 
ENDROOT
BRANCH   5   8
HETATM    8  O10 UNL     1     -33.559  17.153  -3.666  1.00 20.00    -0.375 OA
BRANCH   8   9
HETATM    9  C8  UNL     1     -33.980  16.059  -4.469  1.00 20.00     0.122 A 
HETATM   10  C5  UNL     1     -33.118  15.735  -5.655  1.00 20.00     0.034 A 
HETATM   11  C6  UNL     1     -33.097  14.845  -4.447  1.00 20.00     0.034 A 
ENDBRANCH   8   9
ENDBRANCH   5   8
TORSDOF 2
ENDMDL
