MODEL 1
REMARK VINA RESULT:      -5.1      0.000      0.000
REMARK  0 active torsions:
REMARK  status: ('A' for Active; 'I' for Inactive)
ROOT
HETATM    1  C1  UNL     1     -31.601   8.145   3.325  1.00 20.00    -0.025 C 
HETATM    2  C2  UNL     1     -31.672   7.048   2.546  1.00 20.00    -0.025 C 
HETATM    3  C3  UNL     1     -33.873   7.164   5.940  1.00 20.00    -0.024 C 
HETATM    4  C4  UNL     1     -34.417   5.925   5.923  1.00 20.00    -0.025 C 
HETATM    5  C5  UNL     1     -33.657   8.105   2.295  1.00 20.00     0.018 C 
HETATM    6  C6  UNL     1     -33.012   8.585   3.635  1.00 20.00     0.016 C 
HETATM    7  C7  UNL     1     -33.147   6.662   2.434  1.00 20.00     0.014 C 
HETATM    8  C8  UNL     1     -33.815   7.630   4.534  1.00 20.00     0.021 C 
HETATM    9  C9  UNL     1     -34.580   5.394   4.487  1.00 20.00     0.009 C 
HETATM   10  C10 UNL     1     -33.492   6.260   3.881  1.00 20.00     0.009 C 
HETATM   11  C11 UNL     1     -34.299   3.908   4.349  1.00 20.00     0.014 C 
ENDROOT
TORSDOF 0
ENDMDL
MODEL 2
REMARK VINA RESULT:      -4.9     11.628     12.543
REMARK  0 active torsions:
REMARK  status: ('A' for Active; 'I' for Inactive)
ROOT
HETATM    1  C1  UNL     1     -33.602  17.077  -2.100  1.00 20.00    -0.025 C 
HETATM    2  C2  UNL     1     -34.741  16.987  -1.387  1.00 20.00    -0.025 C 
HETATM    3  C3  UNL     1     -31.464  18.574   0.380  1.00 20.00    -0.024 C 
HETATM    4  C4  UNL     1     -31.935  18.777   1.632  1.00 20.00    -0.025 C 
HETATM    5  C5  UNL     1     -34.464  19.190  -1.821  1.00 20.00     0.018 C 
HETATM    6  C6  UNL     1     -33.076  18.486  -1.959  1.00 20.00     0.016 C 
HETATM    7  C7  UNL     1     -34.921  18.312  -0.646  1.00 20.00     0.014 C 
HETATM    8  C8  UNL     1     -32.581  18.862  -0.553  1.00 20.00     0.021 C 
HETATM    9  C9  UNL     1     -33.454  19.025   1.637  1.00 20.00     0.009 C 
HETATM   10  C10 UNL     1     -33.729  18.306   0.330  1.00 20.00     0.009 C 
HETATM   11  C11 UNL     1     -34.172  18.398   2.819  1.00 20.00     0.014 C 
ENDROOT
TORSDOF 0
ENDMDL
MODEL 3
REMARK VINA RESULT:      -4.8      1.173      3.374
REMARK  0 active torsions:
REMARK  status: ('A' for Active; 'I' for Inactive)
ROOT
HETATM    1  C1  UNL     1     -35.663   5.850   3.789  1.00 20.00    -0.025 C 
HETATM    2  C2  UNL     1     -35.124   5.970   2.561  1.00 20.00    -0.025 C 
HETATM    3  C3  UNL     1     -33.330   7.852   5.662  1.00 20.00    -0.024 C 
HETATM    4  C4  UNL     1     -32.340   8.507   5.012  1.00 20.00    -0.025 C 
HETATM    5  C5  UNL     1     -33.709   4.640   3.723  1.00 20.00     0.018 C 
HETATM    6  C6  UNL     1     -34.560   5.461   4.744  1.00 20.00     0.016 C 
HETATM    7  C7  UNL     1     -33.613   5.789   2.707  1.00 20.00     0.014 C 
HETATM    8  C8  UNL     1     -33.494   6.540   4.989  1.00 20.00     0.021 C 
HETATM    9  C9  UNL     1     -31.905   7.763   3.737  1.00 20.00     0.009 C 
HETATM   10  C10 UNL     1     -33.214   7.022   3.541  1.00 20.00     0.009 C 
HETATM   11  C11 UNL     1     -31.568   8.683   2.577  1.00 20.00     0.014 C 
ENDROOT
TORSDOF 0
ENDMDL
MODEL 4
REMARK VINA RESULT:      -4.8     11.209     12.339
REMARK  0 active torsions:
REMARK  status: ('A' for Active; 'I' for Inactive)
ROOT
HETATM    1  C1  UNL     1     -34.889  15.788  -5.722  1.00 20.00    -0.025 C 
HETATM    2  C2  UNL     1     -33.577  15.962  -5.472  1.00 20.00    -0.025 C 
HETATM    3  C3  UNL     1     -36.254  17.033  -2.632  1.00 20.00    -0.024 C 
HETATM    4  C4  UNL     1     -35.426  17.564  -1.702  1.00 20.00    -0.025 C 
HETATM    5  C5  UNL     1     -34.227  14.242  -4.154  1.00 20.00     0.018 C 
HETATM    6  C6  UNL     1     -35.494  15.069  -4.539  1.00 20.00     0.016 C 
HETATM    7  C7  UNL     1     -33.315  15.474  -4.047  1.00 20.00     0.014 C 
HETATM    8  C8  UNL     1     -35.543  15.879  -3.234  1.00 20.00     0.021 C 
HETATM    9  C9  UNL     1     -34.027  16.925  -1.753  1.00 20.00     0.009 C 
HETATM   10  C10 UNL     1     -34.115  16.484  -3.201  1.00 20.00     0.009 C 
HETATM   11  C11 UNL     1     -32.897  17.908  -1.502  1.00 20.00     0.014 C 
ENDROOT
TORSDOF 0
ENDMDL
MODEL 5
REMARK VINA RESULT:      -4.7     11.363     12.363
REMARK  0 active torsions:
REMARK  status: ('A' for Active; 'I' for Inactive)
ROOT
HETATM    1  C1  UNL     1     -33.596  15.744  -3.814  1.00 20.00    -0.025 C 
HETATM    2  C2  UNL     1     -34.810  15.397  -3.346  1.00 20.00    -0.025 C 
HETATM    3  C3  UNL     1     -32.634  18.108  -1.274  1.00 20.00    -0.024 C 
HETATM    4  C4  UNL     1     -33.442  18.306  -0.206  1.00 20.00    -0.025 C 
HETATM    5  C5  UNL     1     -35.035  17.511  -4.120  1.00 20.00     0.018 C 
HETATM    6  C6  UNL     1     -33.522  17.253  -3.835  1.00 20.00     0.016 C 
HETATM    7  C7  UNL     1     -35.520  16.682  -2.921  1.00 20.00     0.014 C 
HETATM    8  C8  UNL     1     -33.515  17.928  -2.454  1.00 20.00     0.021 C 
HETATM    9  C9  UNL     1     -34.922  18.077  -0.560  1.00 20.00     0.009 C 
HETATM   10  C10 UNL     1     -34.656  17.158  -1.737  1.00 20.00     0.009 C 
HETATM   11  C11 UNL     1     -35.718  17.406   0.545  1.00 20.00     0.014 C 
ENDROOT
TORSDOF 0
ENDMDL
MODEL 6
REMARK VINA RESULT:      -4.7     11.370     12.376
REMARK  0 active torsions:
REMARK  status: ('A' for Active; 'I' for Inactive)
ROOT
HETATM    1  C1  UNL     1     -34.786  18.308  -3.486  1.00 20.00    -0.025 C 
HETATM    2  C2  UNL     1     -36.029  17.791  -3.451  1.00 20.00    -0.025 C 
HETATM    3  C3  UNL     1     -33.002  15.477  -4.818  1.00 20.00    -0.024 C 
HETATM    4  C4  UNL     1     -33.687  14.369  -5.185  1.00 20.00    -0.025 C 
HETATM    5  C5  UNL     1     -34.884  16.743  -1.805  1.00 20.00     0.018 C 
HETATM    6  C6  UNL     1     -33.854  17.318  -2.827  1.00 20.00     0.016 C 
HETATM    7  C7  UNL     1     -35.919  16.377  -2.880  1.00 20.00     0.014 C 
HETATM    8  C8  UNL     1     -33.652  16.000  -3.590  1.00 20.00     0.021 C 
HETATM    9  C9  UNL     1     -34.962  14.182  -4.343  1.00 20.00     0.009 C 
HETATM   10  C10 UNL     1     -35.113  15.644  -3.970  1.00 20.00     0.009 C 
HETATM   11  C11 UNL     1     -36.143  13.648  -5.133  1.00 20.00     0.014 C 
ENDROOT
TORSDOF 0
ENDMDL
MODEL 7
REMARK VINA RESULT:      -4.6      1.360      3.746
REMARK  0 active torsions:
REMARK  status: ('A' for Active; 'I' for Inactive)
ROOT
HETATM    1  C1  UNL     1     -34.736   6.162   4.351  1.00 20.00    -0.025 C 
HETATM    2  C2  UNL     1     -35.242   6.291   3.110  1.00 20.00    -0.025 C 
HETATM    3  C3  UNL     1     -31.826   8.257   4.027  1.00 20.00    -0.024 C 
HETATM    4  C4  UNL     1     -31.620   8.941   2.878  1.00 20.00    -0.025 C 
HETATM    5  C5  UNL     1     -33.385   5.019   2.884  1.00 20.00     0.018 C 
HETATM    6  C6  UNL     1     -33.271   5.818   4.221  1.00 20.00     0.016 C 
HETATM    7  C7  UNL     1     -34.078   6.162   2.127  1.00 20.00     0.014 C 
HETATM    8  C8  UNL     1     -32.384   6.935   3.650  1.00 20.00     0.021 C 
HETATM    9  C9  UNL     1     -32.207   8.201   1.662  1.00 20.00     0.009 C 
HETATM   10  C10 UNL     1     -33.239   7.414   2.447  1.00 20.00     0.009 C 
HETATM   11  C11 UNL     1     -32.829   9.123   0.628  1.00 20.00     0.014 C 
ENDROOT
TORSDOF 0
ENDMDL
MODEL 8
REMARK VINA RESULT:      -4.4      1.066      3.388
REMARK  0 active torsions:
REMARK  status: ('A' for Active; 'I' for Inactive)
ROOT
HETATM    1  C1  UNL     1     -33.690   4.308   3.192  1.00 20.00    -0.025 C 
HETATM    2  C2  UNL     1     -34.224   4.320   4.428  1.00 20.00    -0.025 C 
HETATM    3  C3  UNL     1     -32.104   7.541   3.199  1.00 20.00    -0.024 C 
HETATM    4  C4  UNL     1     -32.124   8.292   4.325  1.00 20.00    -0.025 C 
HETATM    5  C5  UNL     1     -35.446   5.793   3.222  1.00 20.00     0.018 C 
HETATM    6  C6  UNL     1     -34.067   5.604   2.513  1.00 20.00     0.016 C 
HETATM    7  C7  UNL     1     -34.859   5.694   4.639  1.00 20.00     0.014 C 
HETATM    8  C8  UNL     1     -33.422   6.867   3.106  1.00 20.00     0.021 C 
HETATM    9  C9  UNL     1     -33.383   8.022   5.168  1.00 20.00     0.009 C 
HETATM   10  C10 UNL     1     -33.633   6.628   4.625  1.00 20.00     0.009 C 
HETATM   11  C11 UNL     1     -33.131   8.036   6.665  1.00 20.00     0.014 C 
ENDROOT
TORSDOF 0
ENDMDL
MODEL 9
REMARK VINA RESULT:      -4.4     11.524     12.605
REMARK  0 active torsions:
REMARK  status: ('A' for Active; 'I' for Inactive)
ROOT
HETATM    1  C1  UNL     1     -33.018  15.693  -5.390  1.00 20.00    -0.025 C 
HETATM    2  C2  UNL     1     -33.642  16.883  -5.307  1.00 20.00    -0.025 C 
HETATM    3  C3  UNL     1     -35.874  13.510  -5.184  1.00 20.00    -0.024 C 
HETATM    4  C4  UNL     1     -37.118  14.041  -5.146  1.00 20.00    -0.025 C 
HETATM    5  C5  UNL     1     -33.783  15.974  -3.240  1.00 20.00     0.018 C 
HETATM    6  C6  UNL     1     -33.528  14.823  -4.265  1.00 20.00     0.016 C 
HETATM    7  C7  UNL     1     -34.683  16.777  -4.192  1.00 20.00     0.014 C 
HETATM    8  C8  UNL     1     -35.001  14.399  -4.380  1.00 20.00     0.021 C 
HETATM    9  C9  UNL     1     -37.127  15.426  -4.476  1.00 20.00     0.009 C 
HETATM   10  C10 UNL     1     -35.672  15.743  -4.766  1.00 20.00     0.009 C 
HETATM   11  C11 UNL     1     -38.086  16.411  -5.122  1.00 20.00     0.014 C 
ENDROOT
TORSDOF 0
ENDMDL
