MODEL 1
REMARK VINA RESULT:      -5.9      0.000      0.000
REMARK  0 active torsions:
REMARK  status: ('A' for Active; 'I' for Inactive)
ROOT
HETATM    1  C1  UNL     1     -33.100   6.311   2.179  1.00 20.00    -0.026 C 
HETATM    2  C2  UNL     1     -34.079   5.676   2.838  1.00 20.00    -0.025 C 
HETATM    3  C3  UNL     1     -32.921   7.980   4.063  1.00 20.00     0.012 C 
HETATM    4  C4  UNL     1     -32.284   7.423   2.779  1.00 20.00     0.004 C 
HETATM    5  C5  UNL     1     -34.456   5.970   4.271  1.00 20.00     0.007 C 
HETATM    6  C6  UNL     1     -33.398   6.849   4.989  1.00 20.00    -0.011 C 
HETATM    7  C7  UNL     1     -32.072   8.551   1.767  1.00 20.00     0.014 C 
HETATM    8  C8  UNL     1     -34.685   4.652   5.019  1.00 20.00     0.014 C 
HETATM    9  C9  UNL     1     -33.938   7.441   6.296  1.00 20.00     0.010 C 
ENDROOT
TORSDOF 0
ENDMDL
MODEL 2
REMARK VINA RESULT:      -5.1      0.741      3.350
REMARK  0 active torsions:
REMARK  status: ('A' for Active; 'I' for Inactive)
ROOT
HETATM    1  C1  UNL     1     -34.322   5.555   3.438  1.00 20.00    -0.026 C 
HETATM    2  C2  UNL     1     -33.384   6.092   2.646  1.00 20.00    -0.025 C 
HETATM    3  C3  UNL     1     -33.426   6.882   5.389  1.00 20.00     0.012 C 
HETATM    4  C4  UNL     1     -34.573   6.010   4.850  1.00 20.00     0.004 C 
HETATM    5  C5  UNL     1     -32.493   7.241   3.057  1.00 20.00     0.007 C 
HETATM    6  C6  UNL     1     -32.986   7.932   4.357  1.00 20.00    -0.011 C 
HETATM    7  C7  UNL     1     -34.802   4.814   5.776  1.00 20.00     0.014 C 
HETATM    8  C8  UNL     1     -32.385   8.241   1.901  1.00 20.00     0.014 C 
HETATM    9  C9  UNL     1     -31.911   8.839   4.965  1.00 20.00     0.010 C 
ENDROOT
TORSDOF 0
ENDMDL
MODEL 3
REMARK VINA RESULT:      -4.9      1.027      2.385
REMARK  0 active torsions:
REMARK  status: ('A' for Active; 'I' for Inactive)
ROOT
HETATM    1  C1  UNL     1     -33.222   8.068   4.371  1.00 20.00    -0.026 C 
HETATM    2  C2  UNL     1     -33.500   7.277   5.416  1.00 20.00    -0.025 C 
HETATM    3  C3  UNL     1     -33.006   6.032   2.896  1.00 20.00     0.012 C 
HETATM    4  C4  UNL     1     -33.117   7.565   2.957  1.00 20.00     0.004 C 
HETATM    5  C5  UNL     1     -33.781   5.797   5.300  1.00 20.00     0.007 C 
HETATM    6  C6  UNL     1     -34.021   5.357   3.831  1.00 20.00    -0.011 C 
HETATM    7  C7  UNL     1     -31.928   8.205   2.238  1.00 20.00     0.014 C 
HETATM    8  C8  UNL     1     -34.972   5.432   6.193  1.00 20.00     0.014 C 
HETATM    9  C9  UNL     1     -33.945   3.836   3.669  1.00 20.00     0.010 C 
ENDROOT
TORSDOF 0
ENDMDL
MODEL 4
REMARK VINA RESULT:      -4.8      1.006      2.548
REMARK  0 active torsions:
REMARK  status: ('A' for Active; 'I' for Inactive)
ROOT
HETATM    1  C1  UNL     1     -31.746   8.875   3.241  1.00 20.00    -0.026 C 
HETATM    2  C2  UNL     1     -31.949   8.275   4.421  1.00 20.00    -0.025 C 
HETATM    3  C3  UNL     1     -33.204   7.149   2.117  1.00 20.00     0.012 C 
HETATM    4  C4  UNL     1     -32.482   8.500   1.983  1.00 20.00     0.004 C 
HETATM    5  C5  UNL     1     -32.965   7.179   4.643  1.00 20.00     0.007 C 
HETATM    6  C6  UNL     1     -33.954   7.043   3.454  1.00 20.00    -0.011 C 
HETATM    7  C7  UNL     1     -31.531   8.470   0.785  1.00 20.00     0.014 C 
HETATM    8  C8  UNL     1     -33.708   7.430   5.960  1.00 20.00     0.014 C 
HETATM    9  C9  UNL     1     -34.737   5.727   3.508  1.00 20.00     0.010 C 
ENDROOT
TORSDOF 0
ENDMDL
MODEL 5
REMARK VINA RESULT:      -4.3     11.619     12.155
REMARK  0 active torsions:
REMARK  status: ('A' for Active; 'I' for Inactive)
ROOT
HETATM    1  C1  UNL     1     -35.188  16.662  -1.873  1.00 20.00    -0.026 C 
HETATM    2  C2  UNL     1     -35.646  17.387  -0.843  1.00 20.00    -0.025 C 
HETATM    3  C3  UNL     1     -33.010  17.933  -1.793  1.00 20.00     0.012 C 
HETATM    4  C4  UNL     1     -33.766  16.719  -2.358  1.00 20.00     0.004 C 
HETATM    5  C5  UNL     1     -34.784  18.315  -0.020  1.00 20.00     0.007 C 
HETATM    6  C6  UNL     1     -33.270  18.105  -0.288  1.00 20.00    -0.011 C 
HETATM    7  C7  UNL     1     -33.711  16.733  -3.887  1.00 20.00     0.014 C 
HETATM    8  C8  UNL     1     -35.117  18.138   1.465  1.00 20.00     0.014 C 
HETATM    9  C9  UNL     1     -32.427  19.263   0.256  1.00 20.00     0.010 C 
ENDROOT
TORSDOF 0
ENDMDL
MODEL 6
REMARK VINA RESULT:      -4.1     11.804     12.468
REMARK  0 active torsions:
REMARK  status: ('A' for Active; 'I' for Inactive)
ROOT
HETATM    1  C1  UNL     1     -33.591  18.843   1.296  1.00 20.00    -0.026 C 
HETATM    2  C2  UNL     1     -34.658  18.146   0.883  1.00 20.00    -0.025 C 
HETATM    3  C3  UNL     1     -32.311  18.079  -0.740  1.00 20.00     0.012 C 
HETATM    4  C4  UNL     1     -32.357  19.042   0.459  1.00 20.00     0.004 C 
HETATM    5  C5  UNL     1     -34.769  17.509  -0.482  1.00 20.00     0.007 C 
HETATM    6  C6  UNL     1     -33.669  18.008  -1.456  1.00 20.00    -0.011 C 
HETATM    7  C7  UNL     1     -31.093  18.885   1.306  1.00 20.00     0.014 C 
HETATM    8  C8  UNL     1     -36.171  17.761  -1.050  1.00 20.00     0.014 C 
HETATM    9  C9  UNL     1     -33.555  17.117  -2.697  1.00 20.00     0.010 C 
ENDROOT
TORSDOF 0
ENDMDL
MODEL 7
REMARK VINA RESULT:      -4.1      1.169      2.909
REMARK  0 active torsions:
REMARK  status: ('A' for Active; 'I' for Inactive)
ROOT
HETATM    1  C1  UNL     1     -34.084   4.479   4.056  1.00 20.00    -0.026 C 
HETATM    2  C2  UNL     1     -34.535   5.514   4.776  1.00 20.00    -0.025 C 
HETATM    3  C3  UNL     1     -32.805   6.072   2.575  1.00 20.00     0.012 C 
HETATM    4  C4  UNL     1     -33.033   4.608   2.987  1.00 20.00     0.004 C 
HETATM    5  C5  UNL     1     -34.017   6.926   4.633  1.00 20.00     0.007 C 
HETATM    6  C6  UNL     1     -32.708   6.992   3.802  1.00 20.00    -0.011 C 
HETATM    7  C7  UNL     1     -33.397   3.768   1.761  1.00 20.00     0.014 C 
HETATM    8  C8  UNL     1     -33.826   7.543   6.023  1.00 20.00     0.014 C 
HETATM    9  C9  UNL     1     -32.386   8.422   3.354  1.00 20.00     0.010 C 
ENDROOT
TORSDOF 0
ENDMDL
MODEL 8
REMARK VINA RESULT:      -4.1     11.719     12.574
REMARK  0 active torsions:
REMARK  status: ('A' for Active; 'I' for Inactive)
ROOT
HETATM    1  C1  UNL     1     -32.969  15.890  -5.000  1.00 20.00    -0.026 C 
HETATM    2  C2  UNL     1     -33.414  15.554  -6.218  1.00 20.00    -0.025 C 
HETATM    3  C3  UNL     1     -35.174  15.176  -4.003  1.00 20.00     0.012 C 
HETATM    4  C4  UNL     1     -33.716  15.581  -3.731  1.00 20.00     0.004 C 
HETATM    5  C5  UNL     1     -34.695  14.793  -6.465  1.00 20.00     0.007 C 
HETATM    6  C6  UNL     1     -35.272  14.174  -5.164  1.00 20.00    -0.011 C 
HETATM    7  C7  UNL     1     -33.672  16.771  -2.770  1.00 20.00     0.014 C 
HETATM    8  C8  UNL     1     -34.454  13.720  -7.533  1.00 20.00     0.014 C 
HETATM    9  C9  UNL     1     -36.726  13.723  -5.340  1.00 20.00     0.010 C 
ENDROOT
TORSDOF 0
ENDMDL
MODEL 9
REMARK VINA RESULT:      -4.0      1.124      4.056
REMARK  0 active torsions:
REMARK  status: ('A' for Active; 'I' for Inactive)
ROOT
HETATM    1  C1  UNL     1     -33.937   6.903   5.497  1.00 20.00    -0.026 C 
HETATM    2  C2  UNL     1     -33.675   7.606   4.386  1.00 20.00    -0.025 C 
HETATM    3  C3  UNL     1     -34.034   4.786   4.128  1.00 20.00     0.012 C 
HETATM    4  C4  UNL     1     -33.972   5.400   5.537  1.00 20.00     0.004 C 
HETATM    5  C5  UNL     1     -33.345   6.978   3.053  1.00 20.00     0.007 C 
HETATM    6  C6  UNL     1     -33.034   5.462   3.176  1.00 20.00    -0.011 C 
HETATM    7  C7  UNL     1     -35.151   4.905   6.376  1.00 20.00     0.014 C 
HETATM    8  C8  UNL     1     -32.179   7.734   2.407  1.00 20.00     0.014 C 
HETATM    9  C9  UNL     1     -33.057   4.760   1.815  1.00 20.00     0.010 C 
ENDROOT
TORSDOF 0
ENDMDL
