MODEL 1
REMARK VINA RESULT:      -5.1      0.000      0.000
REMARK  1 active torsions:
REMARK  status: ('A' for Active; 'I' for Inactive)
REMARK    1  A    between atoms: C3_3  and  C6_6 
ROOT
HETATM    1  C1  UNL     1     -33.665  17.086  -5.364  1.00 20.00    -0.025 C 
HETATM    2  C2  UNL     1     -33.661  17.194  -4.028  1.00 20.00    -0.026 C 
HETATM    3  C4  UNL     1     -34.156  15.873  -6.117  1.00 20.00     0.015 C 
HETATM    4  C5  UNL     1     -34.172  16.118  -3.100  1.00 20.00     0.008 C 
HETATM    5  C6  UNL     1     -34.451  14.692  -5.160  1.00 20.00     0.066 C 
HETATM    6  C7  UNL     1     -35.109  15.108  -3.822  1.00 20.00     0.000 C 
HETATM    7  C9  UNL     1     -35.308  16.272  -7.046  1.00 20.00     0.015 C 
HETATM    8  C10 UNL     1     -34.806  16.733  -1.849  1.00 20.00     0.014 C 
HETATM    9  C11 UNL     1     -36.546  15.626  -3.977  1.00 20.00     0.011 C 
ENDROOT
BRANCH   5  10
HETATM   10  C3  UNL     1     -35.166  13.552  -5.827  1.00 20.00     0.128 C 
HETATM   11  C8  UNL     1     -34.816  13.282  -7.266  1.00 20.00     0.091 C 
HETATM   12  O12 UNL     1     -35.995  12.870  -5.227  1.00 20.00    -0.298 OA
ENDBRANCH   5  10
TORSDOF 1
ENDMDL
MODEL 2
REMARK VINA RESULT:      -4.9      1.912      3.106
REMARK  1 active torsions:
REMARK  status: ('A' for Active; 'I' for Inactive)
REMARK    1  A    between atoms: C3_3  and  C6_6 
ROOT
HETATM    1  C1  UNL     1     -33.071  17.730  -1.841  1.00 20.00    -0.025 C 
HETATM    2  C2  UNL     1     -33.803  17.889  -0.729  1.00 20.00    -0.026 C 
HETATM    3  C4  UNL     1     -33.507  16.919  -3.037  1.00 20.00     0.015 C 
HETATM    4  C5  UNL     1     -35.176  17.291  -0.539  1.00 20.00     0.008 C 
HETATM    5  C6  UNL     1     -34.800  16.120  -2.739  1.00 20.00     0.066 C 
HETATM    6  C7  UNL     1     -35.840  16.887  -1.887  1.00 20.00     0.000 C 
HETATM    7  C9  UNL     1     -33.558  17.815  -4.280  1.00 20.00     0.015 C 
HETATM    8  C10 UNL     1     -36.058  18.211   0.310  1.00 20.00     0.014 C 
HETATM    9  C11 UNL     1     -36.481  18.074  -2.619  1.00 20.00     0.011 C 
ENDROOT
BRANCH   5  10
HETATM   10  C3  UNL     1     -35.405  15.492  -3.963  1.00 20.00     0.128 C 
HETATM   11  C8  UNL     1     -34.772  14.217  -4.452  1.00 20.00     0.091 C 
HETATM   12  O12 UNL     1     -36.371  15.994  -4.535  1.00 20.00    -0.298 OA
ENDBRANCH   5  10
TORSDOF 1
ENDMDL
MODEL 3
REMARK VINA RESULT:      -4.8      1.339      1.824
REMARK  1 active torsions:
REMARK  status: ('A' for Active; 'I' for Inactive)
REMARK    1  A    between atoms: C3_3  and  C6_6 
ROOT
HETATM    1  C1  UNL     1     -33.360  15.959  -3.511  1.00 20.00    -0.025 C 
HETATM    2  C2  UNL     1     -34.089  16.646  -2.619  1.00 20.00    -0.026 C 
HETATM    3  C4  UNL     1     -33.928  14.932  -4.461  1.00 20.00     0.015 C 
HETATM    4  C5  UNL     1     -35.583  16.495  -2.465  1.00 20.00     0.008 C 
HETATM    5  C6  UNL     1     -35.408  14.613  -4.133  1.00 20.00     0.066 C 
HETATM    6  C7  UNL     1     -36.246  15.845  -3.713  1.00 20.00     0.000 C 
HETATM    7  C9  UNL     1     -33.651  15.355  -5.908  1.00 20.00     0.015 C 
HETATM    8  C10 UNL     1     -36.227  17.826  -2.070  1.00 20.00     0.014 C 
HETATM    9  C11 UNL     1     -36.486  16.844  -4.854  1.00 20.00     0.011 C 
ENDROOT
BRANCH   5  10
HETATM   10  C3  UNL     1     -36.085  13.785  -5.189  1.00 20.00     0.128 C 
HETATM   11  C8  UNL     1     -37.447  14.243  -5.636  1.00 20.00     0.091 C 
HETATM   12  O12 UNL     1     -35.551  12.785  -5.666  1.00 20.00    -0.298 OA
ENDBRANCH   5  10
TORSDOF 1
ENDMDL
MODEL 4
REMARK VINA RESULT:      -4.7      1.144      1.341
REMARK  1 active torsions:
REMARK  status: ('A' for Active; 'I' for Inactive)
REMARK    1  A    between atoms: C3_3  and  C6_6 
ROOT
HETATM    1  C1  UNL     1     -33.391  18.146  -4.515  1.00 20.00    -0.025 C 
HETATM    2  C2  UNL     1     -33.353  18.189  -3.176  1.00 20.00    -0.026 C 
HETATM    3  C4  UNL     1     -33.717  16.908  -5.317  1.00 20.00     0.015 C 
HETATM    4  C5  UNL     1     -33.656  17.003  -2.292  1.00 20.00     0.008 C 
HETATM    5  C6  UNL     1     -33.789  15.651  -4.415  1.00 20.00     0.066 C 
HETATM    6  C7  UNL     1     -34.452  15.894  -3.037  1.00 20.00     0.000 C 
HETATM    7  C9  UNL     1     -34.951  17.166  -6.188  1.00 20.00     0.015 C 
HETATM    8  C10 UNL     1     -34.330  17.451  -0.991  1.00 20.00     0.014 C 
HETATM    9  C11 UNL     1     -35.956  16.188  -3.122  1.00 20.00     0.011 C 
ENDROOT
BRANCH   5  10
HETATM   10  C3  UNL     1     -34.344  14.446  -5.120  1.00 20.00     0.128 C 
HETATM   11  C8  UNL     1     -34.087  14.351  -6.600  1.00 20.00     0.091 C 
HETATM   12  O12 UNL     1     -34.974  13.579  -4.517  1.00 20.00    -0.298 OA
ENDBRANCH   5  10
TORSDOF 1
ENDMDL
MODEL 5
REMARK VINA RESULT:      -4.7      2.485      4.813
REMARK  1 active torsions:
REMARK  status: ('A' for Active; 'I' for Inactive)
REMARK    1  A    between atoms: C3_3  and  C6_6 
ROOT
HETATM    1  C1  UNL     1     -36.551  16.206  -3.425  1.00 20.00    -0.025 C 
HETATM    2  C2  UNL     1     -35.932  15.224  -4.095  1.00 20.00    -0.026 C 
HETATM    3  C4  UNL     1     -35.858  17.156  -2.477  1.00 20.00     0.015 C 
HETATM    4  C5  UNL     1     -34.449  14.955  -4.005  1.00 20.00     0.008 C 
HETATM    5  C6  UNL     1     -34.396  16.723  -2.209  1.00 20.00     0.066 C 
HETATM    6  C7  UNL     1     -33.657  16.175  -3.455  1.00 20.00     0.000 C 
HETATM    7  C9  UNL     1     -36.040  18.598  -2.963  1.00 20.00     0.015 C 
HETATM    8  C10 UNL     1     -33.906  14.443  -5.343  1.00 20.00     0.014 C 
HETATM    9  C11 UNL     1     -33.377  17.241  -4.523  1.00 20.00     0.011 C 
ENDROOT
BRANCH   5  10
HETATM   10  C3  UNL     1     -33.596  17.759  -1.472  1.00 20.00     0.128 C 
HETATM   11  C8  UNL     1     -34.053  18.101  -0.079  1.00 20.00     0.091 C 
HETATM   12  O12 UNL     1     -32.614  18.298  -1.979  1.00 20.00    -0.298 OA
ENDBRANCH   5  10
TORSDOF 1
ENDMDL
MODEL 6
REMARK VINA RESULT:      -4.7      2.055      2.966
REMARK  1 active torsions:
REMARK  status: ('A' for Active; 'I' for Inactive)
REMARK    1  A    between atoms: C3_3  and  C6_6 
ROOT
HETATM    1  C1  UNL     1     -33.211  19.098  -3.212  1.00 20.00    -0.025 C 
HETATM    2  C2  UNL     1     -33.085  19.129  -1.877  1.00 20.00    -0.026 C 
HETATM    3  C4  UNL     1     -33.629  17.878  -3.997  1.00 20.00     0.015 C 
HETATM    4  C5  UNL     1     -33.369  17.947  -0.982  1.00 20.00     0.008 C 
HETATM    5  C6  UNL     1     -33.684  16.617  -3.100  1.00 20.00     0.066 C 
HETATM    6  C7  UNL     1     -34.248  16.871  -1.681  1.00 20.00     0.000 C 
HETATM    7  C9  UNL     1     -34.908  18.182  -4.785  1.00 20.00     0.015 C 
HETATM    8  C10 UNL     1     -33.942  18.407   0.362  1.00 20.00     0.014 C 
HETATM    9  C11 UNL     1     -35.744  17.214  -1.666  1.00 20.00     0.011 C 
ENDROOT
BRANCH   5  10
HETATM   10  C3  UNL     1     -34.323  15.436  -3.774  1.00 20.00     0.128 C 
HETATM   11  C8  UNL     1     -33.398  14.465  -4.457  1.00 20.00     0.091 C 
HETATM   12  O12 UNL     1     -35.541  15.270  -3.766  1.00 20.00    -0.298 OA
ENDBRANCH   5  10
TORSDOF 1
ENDMDL
MODEL 7
REMARK VINA RESULT:      -4.5      1.962      4.325
REMARK  1 active torsions:
REMARK  status: ('A' for Active; 'I' for Inactive)
REMARK    1  A    between atoms: C3_3  and  C6_6 
ROOT
HETATM    1  C1  UNL     1     -36.008  14.190  -4.769  1.00 20.00    -0.025 C 
HETATM    2  C2  UNL     1     -35.374  13.741  -5.862  1.00 20.00    -0.026 C 
HETATM    3  C4  UNL     1     -35.513  15.327  -3.907  1.00 20.00     0.015 C 
HETATM    4  C5  UNL     1     -34.090  14.336  -6.388  1.00 20.00     0.008 C 
HETATM    5  C6  UNL     1     -34.086  15.767  -4.313  1.00 20.00     0.066 C 
HETATM    6  C7  UNL     1     -33.830  15.768  -5.840  1.00 20.00     0.000 C 
HETATM    7  C9  UNL     1     -36.563  16.444  -3.873  1.00 20.00     0.015 C 
HETATM    8  C10 UNL     1     -34.041  14.262  -7.917  1.00 20.00     0.014 C 
HETATM    9  C11 UNL     1     -34.615  16.851  -6.595  1.00 20.00     0.011 C 
ENDROOT
BRANCH   5  10
HETATM   10  C3  UNL     1     -33.648  17.044  -3.653  1.00 20.00     0.128 C 
HETATM   11  C8  UNL     1     -33.580  17.039  -2.149  1.00 20.00     0.091 C 
HETATM   12  O12 UNL     1     -33.356  18.043  -4.308  1.00 20.00    -0.298 OA
ENDBRANCH   5  10
TORSDOF 1
ENDMDL
MODEL 8
REMARK VINA RESULT:      -4.5      1.411      2.871
REMARK  1 active torsions:
REMARK  status: ('A' for Active; 'I' for Inactive)
REMARK    1  A    between atoms: C3_3  and  C6_6 
ROOT
HETATM    1  C1  UNL     1     -33.899  14.328  -4.423  1.00 20.00    -0.025 C 
HETATM    2  C2  UNL     1     -33.426  15.540  -4.098  1.00 20.00    -0.026 C 
HETATM    3  C4  UNL     1     -35.363  14.009  -4.610  1.00 20.00     0.015 C 
HETATM    4  C5  UNL     1     -34.302  16.753  -3.899  1.00 20.00     0.008 C 
HETATM    5  C6  UNL     1     -36.262  15.192  -4.171  1.00 20.00     0.066 C 
HETATM    6  C7  UNL     1     -35.705  16.587  -4.548  1.00 20.00     0.000 C 
HETATM    7  C9  UNL     1     -35.603  13.492  -6.032  1.00 20.00     0.015 C 
HETATM    8  C10 UNL     1     -33.581  18.026  -4.352  1.00 20.00     0.014 C 
HETATM    9  C11 UNL     1     -35.705  16.862  -6.058  1.00 20.00     0.011 C 
ENDROOT
BRANCH   5  10
HETATM   10  C3  UNL     1     -37.702  15.019  -4.561  1.00 20.00     0.128 C 
HETATM   11  C8  UNL     1     -38.585  16.233  -4.443  1.00 20.00     0.091 C 
HETATM   12  O12 UNL     1     -38.139  13.940  -4.959  1.00 20.00    -0.298 OA
ENDBRANCH   5  10
TORSDOF 1
ENDMDL
MODEL 9
REMARK VINA RESULT:      -4.5      1.479      2.461
REMARK  1 active torsions:
REMARK  status: ('A' for Active; 'I' for Inactive)
REMARK    1  A    between atoms: C3_3  and  C6_6 
ROOT
HETATM    1  C1  UNL     1     -34.197  16.173  -3.039  1.00 20.00    -0.025 C 
HETATM    2  C2  UNL     1     -34.813  17.347  -3.239  1.00 20.00    -0.026 C 
HETATM    3  C4  UNL     1     -34.547  14.895  -3.764  1.00 20.00     0.015 C 
HETATM    4  C5  UNL     1     -35.927  17.547  -4.238  1.00 20.00     0.008 C 
HETATM    5  C6  UNL     1     -35.838  15.055  -4.604  1.00 20.00     0.066 C 
HETATM    6  C7  UNL     1     -35.970  16.425  -5.314  1.00 20.00     0.000 C 
HETATM    7  C9  UNL     1     -33.322  14.383  -4.530  1.00 20.00     0.015 C 
HETATM    8  C10 UNL     1     -35.869  18.953  -4.844  1.00 20.00     0.014 C 
HETATM    9  C11 UNL     1     -34.950  16.633  -6.442  1.00 20.00     0.011 C 
ENDROOT
BRANCH   5  10
HETATM   10  C3  UNL     1     -36.093  13.898  -5.528  1.00 20.00     0.128 C 
HETATM   11  C8  UNL     1     -36.654  14.226  -6.885  1.00 20.00     0.091 C 
HETATM   12  O12 UNL     1     -35.852  12.739  -5.192  1.00 20.00    -0.298 OA
ENDBRANCH   5  10
TORSDOF 1
ENDMDL
