MODEL 1
REMARK VINA RESULT:      -5.2      0.000      0.000
REMARK  0 active torsions:
REMARK  status: ('A' for Active; 'I' for Inactive)
ROOT
HETATM    1  C1  UNL     1     -33.217  14.869  -4.393  1.00 20.00    -0.025 C 
HETATM    2  C2  UNL     1     -34.411  14.309  -4.121  1.00 20.00    -0.025 C 
HETATM    3  C3  UNL     1     -33.185  17.469  -1.887  1.00 20.00    -0.024 C 
HETATM    4  C4  UNL     1     -34.189  17.528  -0.981  1.00 20.00    -0.025 C 
HETATM    5  C5  UNL     1     -34.878  16.316  -5.053  1.00 20.00     0.018 C 
HETATM    6  C6  UNL     1     -33.418  16.362  -4.496  1.00 20.00     0.016 C 
HETATM    7  C7  UNL     1     -35.410  15.445  -3.902  1.00 20.00     0.014 C 
HETATM    8  C8  UNL     1     -33.786  17.069  -3.181  1.00 20.00     0.021 C 
HETATM    9  C9  UNL     1     -35.505  16.948  -1.522  1.00 20.00     0.009 C 
HETATM   10  C10 UNL     1     -34.873  16.113  -2.620  1.00 20.00     0.009 C 
HETATM   11  C11 UNL     1     -36.522  17.984  -1.967  1.00 20.00     0.014 C 
ENDROOT
TORSDOF 0
ENDMDL
MODEL 2
REMARK VINA RESULT:      -4.8      1.017      3.764
REMARK  0 active torsions:
REMARK  status: ('A' for Active; 'I' for Inactive)
ROOT
HETATM    1  C1  UNL     1     -34.758  16.790  -1.428  1.00 20.00    -0.025 C 
HETATM    2  C2  UNL     1     -33.670  17.495  -1.791  1.00 20.00    -0.025 C 
HETATM    3  C3  UNL     1     -34.740  14.278  -4.023  1.00 20.00    -0.024 C 
HETATM    4  C4  UNL     1     -33.713  14.242  -4.903  1.00 20.00    -0.025 C 
HETATM    5  C5  UNL     1     -35.240  17.955  -3.351  1.00 20.00     0.018 C 
HETATM    6  C6  UNL     1     -35.623  16.609  -2.653  1.00 20.00     0.016 C 
HETATM    7  C7  UNL     1     -33.728  17.679  -3.307  1.00 20.00     0.014 C 
HETATM    8  C8  UNL     1     -35.032  15.705  -3.748  1.00 20.00     0.021 C 
HETATM    9  C9  UNL     1     -33.071  15.622  -5.114  1.00 20.00     0.009 C 
HETATM   10  C10 UNL     1     -33.574  16.234  -3.820  1.00 20.00     0.009 C 
HETATM   11  C11 UNL     1     -33.482  16.327  -6.394  1.00 20.00     0.014 C 
ENDROOT
TORSDOF 0
ENDMDL
MODEL 3
REMARK VINA RESULT:      -4.8     10.339     11.407
REMARK  0 active torsions:
REMARK  status: ('A' for Active; 'I' for Inactive)
ROOT
HETATM    1  C1  UNL     1     -32.190   8.323   1.173  1.00 20.00    -0.025 C 
HETATM    2  C2  UNL     1     -32.857   9.288   1.835  1.00 20.00    -0.025 C 
HETATM    3  C3  UNL     1     -33.549   5.411   2.821  1.00 20.00    -0.024 C 
HETATM    4  C4  UNL     1     -34.541   5.566   3.729  1.00 20.00    -0.025 C 
HETATM    5  C5  UNL     1     -31.371   8.448   3.318  1.00 20.00     0.018 C 
HETATM    6  C6  UNL     1     -31.598   7.384   2.196  1.00 20.00     0.016 C 
HETATM    7  C7  UNL     1     -32.833   8.924   3.319  1.00 20.00     0.014 C 
HETATM    8  C8  UNL     1     -32.616   6.549   2.992  1.00 20.00     0.021 C 
HETATM    9  C9  UNL     1     -34.492   6.935   4.425  1.00 20.00     0.009 C 
HETATM   10  C10 UNL     1     -33.670   7.631   3.355  1.00 20.00     0.009 C 
HETATM   11  C11 UNL     1     -33.899   6.919   5.823  1.00 20.00     0.014 C 
ENDROOT
TORSDOF 0
ENDMDL
MODEL 4
REMARK VINA RESULT:      -4.7      0.962      1.365
REMARK  0 active torsions:
REMARK  status: ('A' for Active; 'I' for Inactive)
ROOT
HETATM    1  C1  UNL     1     -33.135  15.846  -5.506  1.00 20.00    -0.025 C 
HETATM    2  C2  UNL     1     -33.227  14.838  -4.616  1.00 20.00    -0.025 C 
HETATM    3  C3  UNL     1     -33.349  18.659  -3.251  1.00 20.00    -0.024 C 
HETATM    4  C4  UNL     1     -33.378  18.438  -1.916  1.00 20.00    -0.025 C 
HETATM    5  C5  UNL     1     -35.287  15.767  -4.700  1.00 20.00     0.018 C 
HETATM    6  C6  UNL     1     -34.254  16.819  -5.221  1.00 20.00     0.016 C 
HETATM    7  C7  UNL     1     -34.339  15.198  -3.631  1.00 20.00     0.014 C 
HETATM    8  C8  UNL     1     -34.141  17.583  -3.891  1.00 20.00     0.021 C 
HETATM    9  C9  UNL     1     -33.986  17.073  -1.560  1.00 20.00     0.009 C 
HETATM   10  C10 UNL     1     -33.759  16.435  -2.918  1.00 20.00     0.009 C 
HETATM   11  C11 UNL     1     -35.424  17.123  -1.074  1.00 20.00     0.014 C 
ENDROOT
TORSDOF 0
ENDMDL
MODEL 5
REMARK VINA RESULT:      -4.7      0.909      3.779
REMARK  0 active torsions:
REMARK  status: ('A' for Active; 'I' for Inactive)
ROOT
HETATM    1  C1  UNL     1     -35.744  17.395  -1.460  1.00 20.00    -0.025 C 
HETATM    2  C2  UNL     1     -34.447  17.195  -1.156  1.00 20.00    -0.025 C 
HETATM    3  C3  UNL     1     -36.078  15.088  -4.219  1.00 20.00    -0.024 C 
HETATM    4  C4  UNL     1     -35.037  14.285  -4.541  1.00 20.00    -0.025 C 
HETATM    5  C5  UNL     1     -34.446  18.307  -3.125  1.00 20.00     0.018 C 
HETATM    6  C6  UNL     1     -35.840  17.622  -2.950  1.00 20.00     0.016 C 
HETATM    7  C7  UNL     1     -33.670  17.150  -2.471  1.00 20.00     0.014 C 
HETATM    8  C8  UNL     1     -35.514  16.401  -3.825  1.00 20.00     0.021 C 
HETATM    9  C9  UNL     1     -33.681  14.903  -4.168  1.00 20.00     0.009 C 
HETATM   10  C10 UNL     1     -34.224  15.876  -3.138  1.00 20.00     0.009 C 
HETATM   11  C11 UNL     1     -32.918  15.513  -5.331  1.00 20.00     0.014 C 
ENDROOT
TORSDOF 0
ENDMDL
MODEL 6
REMARK VINA RESULT:      -4.5      1.215      1.553
REMARK  0 active torsions:
REMARK  status: ('A' for Active; 'I' for Inactive)
ROOT
HETATM    1  C1  UNL     1     -33.502  16.240  -3.662  1.00 20.00    -0.025 C 
HETATM    2  C2  UNL     1     -34.601  15.504  -3.411  1.00 20.00    -0.025 C 
HETATM    3  C3  UNL     1     -33.427  18.249  -0.661  1.00 20.00    -0.024 C 
HETATM    4  C4  UNL     1     -34.323  18.004   0.323  1.00 20.00    -0.025 C 
HETATM    5  C5  UNL     1     -35.352  17.594  -3.837  1.00 20.00     0.018 C 
HETATM    6  C6  UNL     1     -33.849  17.689  -3.418  1.00 20.00     0.016 C 
HETATM    7  C7  UNL     1     -35.669  16.449  -2.860  1.00 20.00     0.014 C 
HETATM    8  C8  UNL     1     -34.130  18.062  -1.952  1.00 20.00     0.021 C 
HETATM    9  C9  UNL     1     -35.632  17.403  -0.211  1.00 20.00     0.009 C 
HETATM   10  C10 UNL     1     -35.055  16.892  -1.518  1.00 20.00     0.009 C 
HETATM   11  C11 UNL     1     -36.784  18.386  -0.326  1.00 20.00     0.014 C 
ENDROOT
TORSDOF 0
ENDMDL
MODEL 7
REMARK VINA RESULT:      -4.5      1.998      4.434
REMARK  0 active torsions:
REMARK  status: ('A' for Active; 'I' for Inactive)
ROOT
HETATM    1  C1  UNL     1     -33.743  16.492  -3.848  1.00 20.00    -0.025 C 
HETATM    2  C2  UNL     1     -34.729  15.669  -3.442  1.00 20.00    -0.025 C 
HETATM    3  C3  UNL     1     -34.177  16.230  -7.425  1.00 20.00    -0.024 C 
HETATM    4  C4  UNL     1     -35.220  15.520  -7.915  1.00 20.00    -0.025 C 
HETATM    5  C5  UNL     1     -33.145  14.327  -4.338  1.00 20.00     0.018 C 
HETATM    6  C6  UNL     1     -32.942  15.769  -4.905  1.00 20.00     0.016 C 
HETATM    7  C7  UNL     1     -34.680  14.424  -4.328  1.00 20.00     0.014 C 
HETATM    8  C8  UNL     1     -33.679  15.510  -6.229  1.00 20.00     0.021 C 
HETATM    9  C9  UNL     1     -35.664  14.396  -6.966  1.00 20.00     0.009 C 
HETATM   10  C10 UNL     1     -35.049  14.991  -5.713  1.00 20.00     0.009 C 
HETATM   11  C11 UNL     1     -35.186  13.008  -7.354  1.00 20.00     0.014 C 
ENDROOT
TORSDOF 0
ENDMDL
MODEL 8
REMARK VINA RESULT:      -4.4      1.116      2.583
REMARK  0 active torsions:
REMARK  status: ('A' for Active; 'I' for Inactive)
ROOT
HETATM    1  C1  UNL     1     -34.614  14.657  -6.118  1.00 20.00    -0.025 C 
HETATM    2  C2  UNL     1     -33.592  15.516  -6.294  1.00 20.00    -0.025 C 
HETATM    3  C3  UNL     1     -36.215  16.202  -3.272  1.00 20.00    -0.024 C 
HETATM    4  C4  UNL     1     -35.751  17.388  -2.814  1.00 20.00    -0.025 C 
HETATM    5  C5  UNL     1     -33.113  14.379  -4.399  1.00 20.00     0.018 C 
HETATM    6  C6  UNL     1     -34.650  14.273  -4.658  1.00 20.00     0.016 C 
HETATM    7  C7  UNL     1     -33.011  15.824  -4.914  1.00 20.00     0.014 C 
HETATM    8  C8  UNL     1     -35.039  15.402  -3.689  1.00 20.00     0.021 C 
HETATM    9  C9  UNL     1     -34.254  17.583  -3.100  1.00 20.00     0.009 C 
HETATM   10  C10 UNL     1     -34.171  16.572  -4.228  1.00 20.00     0.009 C 
HETATM   11  C11 UNL     1     -33.341  17.339  -1.911  1.00 20.00     0.014 C 
ENDROOT
TORSDOF 0
ENDMDL
MODEL 9
REMARK VINA RESULT:      -4.4      2.245      3.221
REMARK  0 active torsions:
REMARK  status: ('A' for Active; 'I' for Inactive)
ROOT
HETATM    1  C1  UNL     1     -34.044  14.012  -7.918  1.00 20.00    -0.025 C 
HETATM    2  C2  UNL     1     -35.033  13.264  -7.394  1.00 20.00    -0.025 C 
HETATM    3  C3  UNL     1     -33.090  15.887  -4.982  1.00 20.00    -0.024 C 
HETATM    4  C4  UNL     1     -33.668  15.597  -3.793  1.00 20.00    -0.025 C 
HETATM    5  C5  UNL     1     -35.852  15.369  -7.496  1.00 20.00     0.018 C 
HETATM    6  C6  UNL     1     -34.291  15.449  -7.522  1.00 20.00     0.016 C 
HETATM    7  C7  UNL     1     -35.887  14.181  -6.520  1.00 20.00     0.014 C 
HETATM    8  C8  UNL     1     -34.135  15.755  -6.023  1.00 20.00     0.021 C 
HETATM    9  C9  UNL     1     -35.082  15.018  -3.954  1.00 20.00     0.009 C 
HETATM   10  C10 UNL     1     -34.909  14.566  -5.392  1.00 20.00     0.009 C 
HETATM   11  C11 UNL     1     -36.208  16.003  -3.691  1.00 20.00     0.014 C 
ENDROOT
TORSDOF 0
ENDMDL
