MODEL 1
REMARK VINA RESULT:      -4.6      0.000      0.000
REMARK  0 active torsions:
REMARK  status: ('A' for Active; 'I' for Inactive)
ROOT
HETATM    1  C1  UNL     1     -33.448   7.625   5.773  1.00 20.00     0.032 A 
HETATM    2  C2  UNL     1     -32.416   8.357   3.483  1.00 20.00     0.040 A 
HETATM    3  C3  UNL     1     -32.923   6.717   1.815  1.00 20.00     0.142 A 
HETATM    4  C4  UNL     1     -34.182   6.501   6.086  1.00 20.00     0.093 A 
HETATM    5  C5  UNL     1     -33.122   7.555   4.393  1.00 20.00     0.013 A 
HETATM    6  C6  UNL     1     -32.321   7.918   2.164  1.00 20.00     0.052 A 
HETATM    7  C7  UNL     1     -33.678   6.374   3.908  1.00 20.00     0.139 A 
HETATM    8  C8  UNL     1     -35.022   4.491   4.868  1.00 20.00     0.157 C 
HETATM    9  N9  UNL     1     -33.615   5.903   2.648  1.00 20.00    -0.241 NA
HETATM   10  N10 UNL     1     -34.315   5.749   4.948  1.00 20.00    -0.345 N 
HETATM   11 CL11 UNL     1     -31.474   8.847   0.994  1.00 20.00    -0.083 Cl
ENDROOT
TORSDOF 0
ENDMDL
MODEL 2
REMARK VINA RESULT:      -4.4      1.257      2.177
REMARK  0 active torsions:
REMARK  status: ('A' for Active; 'I' for Inactive)
ROOT
HETATM    1  C1  UNL     1     -34.646   5.754   3.140  1.00 20.00     0.032 A 
HETATM    2  C2  UNL     1     -32.938   7.169   1.751  1.00 20.00     0.040 A 
HETATM    3  C3  UNL     1     -31.673   8.570   3.223  1.00 20.00     0.142 A 
HETATM    4  C4  UNL     1     -34.868   5.735   4.500  1.00 20.00     0.093 A 
HETATM    5  C5  UNL     1     -33.611   6.694   2.888  1.00 20.00     0.013 A 
HETATM    6  C6  UNL     1     -31.947   8.131   1.935  1.00 20.00     0.052 A 
HETATM    7  C7  UNL     1     -33.236   7.221   4.120  1.00 20.00     0.139 A 
HETATM    8  C8  UNL     1     -33.936   6.896   6.504  1.00 20.00     0.157 C 
HETATM    9  N9  UNL     1     -32.288   8.149   4.354  1.00 20.00    -0.241 NA
HETATM   10  N10 UNL     1     -34.009   6.629   5.085  1.00 20.00    -0.345 N 
HETATM   11 CL11 UNL     1     -31.079   8.758   0.592  1.00 20.00    -0.083 Cl
ENDROOT
TORSDOF 0
ENDMDL
MODEL 3
REMARK VINA RESULT:      -4.2     11.612     12.093
REMARK  0 active torsions:
REMARK  status: ('A' for Active; 'I' for Inactive)
ROOT
HETATM    1  C1  UNL     1     -35.008  13.852  -5.054  1.00 20.00     0.032 A 
HETATM    2  C2  UNL     1     -33.924  15.605  -3.440  1.00 20.00     0.040 A 
HETATM    3  C3  UNL     1     -35.619  17.066  -2.591  1.00 20.00     0.142 A 
HETATM    4  C4  UNL     1     -36.326  13.699  -5.426  1.00 20.00     0.093 A 
HETATM    5  C5  UNL     1     -34.940  14.952  -4.158  1.00 20.00     0.013 A 
HETATM    6  C6  UNL     1     -34.284  16.687  -2.641  1.00 20.00     0.052 A 
HETATM    7  C7  UNL     1     -36.237  15.437  -4.015  1.00 20.00     0.139 A 
HETATM    8  C8  UNL     1     -38.492  14.836  -4.927  1.00 20.00     0.157 C 
HETATM    9  N9  UNL     1     -36.638  16.476  -3.259  1.00 20.00    -0.241 NA
HETATM   10  N10 UNL     1     -37.063  14.666  -4.791  1.00 20.00    -0.345 N 
HETATM   11 CL11 UNL     1     -33.098  17.535  -1.733  1.00 20.00    -0.083 Cl
ENDROOT
TORSDOF 0
ENDMDL
MODEL 4
REMARK VINA RESULT:      -4.1     11.616     12.018
REMARK  0 active torsions:
REMARK  status: ('A' for Active; 'I' for Inactive)
ROOT
HETATM    1  C1  UNL     1     -32.140  18.592  -0.394  1.00 20.00     0.032 A 
HETATM    2  C2  UNL     1     -33.277  17.208  -2.302  1.00 20.00     0.040 A 
HETATM    3  C3  UNL     1     -35.529  16.687  -1.680  1.00 20.00     0.142 A 
HETATM    4  C4  UNL     1     -32.656  19.011   0.813  1.00 20.00     0.093 A 
HETATM    5  C5  UNL     1     -33.161  17.872  -1.071  1.00 20.00     0.013 A 
HETATM    6  C6  UNL     1     -34.496  16.604  -2.603  1.00 20.00     0.052 A 
HETATM    7  C7  UNL     1     -34.277  17.879  -0.239  1.00 20.00     0.139 A 
HETATM    8  C8  UNL     1     -34.833  18.812   2.019  1.00 20.00     0.157 C 
HETATM    9  N9  UNL     1     -35.475  17.312  -0.480  1.00 20.00    -0.241 NA
HETATM   10  N10 UNL     1     -33.952  18.572   0.898  1.00 20.00    -0.345 N 
HETATM   11 CL11 UNL     1     -34.714  15.774  -4.091  1.00 20.00    -0.083 Cl
ENDROOT
TORSDOF 0
ENDMDL
MODEL 5
REMARK VINA RESULT:      -4.1     11.843     12.183
REMARK  0 active torsions:
REMARK  status: ('A' for Active; 'I' for Inactive)
ROOT
HETATM    1  C1  UNL     1     -33.138  15.214  -4.834  1.00 20.00     0.032 A 
HETATM    2  C2  UNL     1     -33.451  16.633  -2.658  1.00 20.00     0.040 A 
HETATM    3  C3  UNL     1     -35.781  16.805  -2.142  1.00 20.00     0.142 A 
HETATM    4  C4  UNL     1     -34.086  14.614  -5.634  1.00 20.00     0.093 A 
HETATM    5  C5  UNL     1     -33.822  15.866  -3.774  1.00 20.00     0.013 A 
HETATM    6  C6  UNL     1     -34.464  17.109  -1.829  1.00 20.00     0.052 A 
HETATM    7  C7  UNL     1     -35.181  15.637  -3.969  1.00 20.00     0.139 A 
HETATM    8  C8  UNL     1     -36.575  14.417  -5.656  1.00 20.00     0.157 C 
HETATM    9  N9  UNL     1     -36.198  16.072  -3.202  1.00 20.00    -0.241 NA
HETATM   10  N10 UNL     1     -35.322  14.877  -5.101  1.00 20.00    -0.345 N 
HETATM   11 CL11 UNL     1     -34.087  18.053  -0.444  1.00 20.00    -0.083 Cl
ENDROOT
TORSDOF 0
ENDMDL
MODEL 6
REMARK VINA RESULT:      -4.1     11.674     11.994
REMARK  0 active torsions:
REMARK  status: ('A' for Active; 'I' for Inactive)
ROOT
HETATM    1  C1  UNL     1     -35.729  17.587   0.581  1.00 20.00     0.032 A 
HETATM    2  C2  UNL     1     -35.560  16.656  -1.858  1.00 20.00     0.040 A 
HETATM    3  C3  UNL     1     -33.407  17.176  -2.767  1.00 20.00     0.142 A 
HETATM    4  C4  UNL     1     -34.796  18.278   1.323  1.00 20.00     0.093 A 
HETATM    5  C5  UNL     1     -35.149  17.308  -0.685  1.00 20.00     0.013 A 
HETATM    6  C6  UNL     1     -34.659  16.594  -2.919  1.00 20.00     0.052 A 
HETATM    7  C7  UNL     1     -33.866  17.846  -0.668  1.00 20.00     0.139 A 
HETATM    8  C8  UNL     1     -32.465  19.106   0.985  1.00 20.00     0.157 C 
HETATM    9  N9  UNL     1     -32.958  17.816  -1.661  1.00 20.00    -0.241 NA
HETATM   10  N10 UNL     1     -33.670  18.431   0.556  1.00 20.00    -0.345 N 
HETATM   11 CL11 UNL     1     -35.089  15.812  -4.386  1.00 20.00    -0.083 Cl
ENDROOT
TORSDOF 0
ENDMDL
MODEL 7
REMARK VINA RESULT:      -4.0     11.784     12.220
REMARK  0 active torsions:
REMARK  status: ('A' for Active; 'I' for Inactive)
ROOT
HETATM    1  C1  UNL     1     -31.028  19.156   1.578  1.00 20.00     0.032 A 
HETATM    2  C2  UNL     1     -32.944  18.507  -0.082  1.00 20.00     0.040 A 
HETATM    3  C3  UNL     1     -34.952  18.069   1.144  1.00 20.00     0.142 A 
HETATM    4  C4  UNL     1     -31.056  19.263   2.952  1.00 20.00     0.093 A 
HETATM    5  C5  UNL     1     -32.327  18.773   1.151  1.00 20.00     0.013 A 
HETATM    6  C6  UNL     1     -34.289  18.147  -0.073  1.00 20.00     0.052 A 
HETATM    7  C7  UNL     1     -33.110  18.659   2.296  1.00 20.00     0.139 A 
HETATM    8  C8  UNL     1     -32.753  18.957   4.758  1.00 20.00     0.157 C 
HETATM    9  N9  UNL     1     -34.411  18.315   2.361  1.00 20.00    -0.241 NA
HETATM   10  N10 UNL     1     -32.323  18.958   3.377  1.00 20.00    -0.345 N 
HETATM   11 CL11 UNL     1     -35.111  17.806  -1.542  1.00 20.00    -0.083 Cl
ENDROOT
TORSDOF 0
ENDMDL
MODEL 8
REMARK VINA RESULT:      -4.0     11.883     12.460
REMARK  0 active torsions:
REMARK  status: ('A' for Active; 'I' for Inactive)
ROOT
HETATM    1  C1  UNL     1     -36.305  15.882  -3.557  1.00 20.00     0.032 A 
HETATM    2  C2  UNL     1     -35.571  16.973  -1.295  1.00 20.00     0.040 A 
HETATM    3  C3  UNL     1     -33.298  17.705  -1.458  1.00 20.00     0.142 A 
HETATM    4  C4  UNL     1     -35.586  15.704  -4.720  1.00 20.00     0.093 A 
HETATM    5  C5  UNL     1     -35.453  16.525  -2.620  1.00 20.00     0.013 A 
HETATM    6  C6  UNL     1     -34.460  17.577  -0.710  1.00 20.00     0.052 A 
HETATM    7  C7  UNL     1     -34.229  16.718  -3.254  1.00 20.00     0.139 A 
HETATM    8  C8  UNL     1     -33.276  16.215  -5.516  1.00 20.00     0.157 C 
HETATM    9  N9  UNL     1     -33.127  17.293  -2.737  1.00 20.00    -0.241 NA
HETATM   10  N10 UNL     1     -34.328  16.214  -4.525  1.00 20.00    -0.345 N 
HETATM   11 CL11 UNL     1     -34.529  18.151   0.907  1.00 20.00    -0.083 Cl
ENDROOT
TORSDOF 0
ENDMDL
MODEL 9
REMARK VINA RESULT:      -3.9     11.964     12.688
REMARK  0 active torsions:
REMARK  status: ('A' for Active; 'I' for Inactive)
ROOT
HETATM    1  C1  UNL     1     -35.638  16.647  -1.966  1.00 20.00     0.032 A 
HETATM    2  C2  UNL     1     -34.487  17.805   0.078  1.00 20.00     0.040 A 
HETATM    3  C3  UNL     1     -32.486  18.902  -0.645  1.00 20.00     0.142 A 
HETATM    4  C4  UNL     1     -35.248  16.609  -3.288  1.00 20.00     0.093 A 
HETATM    5  C5  UNL     1     -34.670  17.405  -1.255  1.00 20.00     0.013 A 
HETATM    6  C6  UNL     1     -33.363  18.572   0.379  1.00 20.00     0.052 A 
HETATM    7  C7  UNL     1     -33.712  17.806  -2.181  1.00 20.00     0.139 A 
HETATM    8  C8  UNL     1     -33.352  17.504  -4.642  1.00 20.00     0.157 C 
HETATM    9  N9  UNL     1     -32.611  18.545  -1.945  1.00 20.00    -0.241 NA
HETATM   10  N10 UNL     1     -34.078  17.314  -3.407  1.00 20.00    -0.345 N 
HETATM   11 CL11 UNL     1     -33.072  19.100   1.987  1.00 20.00    -0.083 Cl
ENDROOT
TORSDOF 0
ENDMDL
