MODEL 1
REMARK VINA RESULT:      -5.9      0.000      0.000
REMARK  0 active torsions:
REMARK  status: ('A' for Active; 'I' for Inactive)
ROOT
HETATM    1  C1  UNL     1     -34.735   5.094   5.651  1.00 20.00     0.002 C 
HETATM    2  C2  UNL     1     -34.572   4.779   4.357  1.00 20.00     0.028 C 
HETATM    3  C3  UNL     1     -34.195   6.311   6.234  1.00 20.00    -0.003 C 
HETATM    4  C4  UNL     1     -33.783   7.331   5.460  1.00 20.00    -0.012 C 
HETATM    5  C5  UNL     1     -32.793   7.712   3.133  1.00 20.00     0.007 C 
HETATM    6  C6  UNL     1     -32.396   6.710   2.340  1.00 20.00     0.114 C 
HETATM    7  C7  UNL     1     -33.823   5.779   3.570  1.00 20.00     0.045 C 
HETATM    8  C8  UNL     1     -33.924   7.243   3.977  1.00 20.00     0.084 C 
HETATM    9  N9  UNL     1     -33.026   5.518   2.579  1.00 20.00    -0.265 NA
ENDROOT
TORSDOF 0
ENDMDL
MODEL 2
REMARK VINA RESULT:      -5.8      1.362      3.011
REMARK  0 active torsions:
REMARK  status: ('A' for Active; 'I' for Inactive)
ROOT
HETATM    1  C1  UNL     1     -33.302   4.767   2.562  1.00 20.00     0.002 C 
HETATM    2  C2  UNL     1     -33.164   6.092   2.730  1.00 20.00     0.028 C 
HETATM    3  C3  UNL     1     -33.790   3.892   3.615  1.00 20.00    -0.003 C 
HETATM    4  C4  UNL     1     -34.422   4.384   4.694  1.00 20.00    -0.012 C 
HETATM    5  C5  UNL     1     -34.448   6.513   6.113  1.00 20.00     0.007 C 
HETATM    6  C6  UNL     1     -33.562   7.502   5.952  1.00 20.00     0.114 C 
HETATM    7  C7  UNL     1     -33.569   6.588   4.061  1.00 20.00     0.045 C 
HETATM    8  C8  UNL     1     -34.678   5.851   4.801  1.00 20.00     0.084 C 
HETATM    9  N9  UNL     1     -33.022   7.578   4.696  1.00 20.00    -0.265 NA
ENDROOT
TORSDOF 0
ENDMDL
MODEL 3
REMARK VINA RESULT:      -5.6      1.429      3.542
REMARK  0 active torsions:
REMARK  status: ('A' for Active; 'I' for Inactive)
ROOT
HETATM    1  C1  UNL     1     -32.634   7.702   3.142  1.00 20.00     0.002 C 
HETATM    2  C2  UNL     1     -33.344   7.852   4.271  1.00 20.00     0.028 C 
HETATM    3  C3  UNL     1     -32.518   6.427   2.453  1.00 20.00    -0.003 C 
HETATM    4  C4  UNL     1     -33.358   5.412   2.721  1.00 20.00    -0.012 C 
HETATM    5  C5  UNL     1     -34.736   4.510   4.678  1.00 20.00     0.007 C 
HETATM    6  C6  UNL     1     -34.640   4.999   5.919  1.00 20.00     0.114 C 
HETATM    7  C7  UNL     1     -34.016   6.623   4.742  1.00 20.00     0.045 C 
HETATM    8  C8  UNL     1     -34.464   5.601   3.705  1.00 20.00     0.084 C 
HETATM    9  N9  UNL     1     -34.215   6.300   5.982  1.00 20.00    -0.265 NA
ENDROOT
TORSDOF 0
ENDMDL
MODEL 4
REMARK VINA RESULT:      -5.6      0.974      1.328
REMARK  0 active torsions:
REMARK  status: ('A' for Active; 'I' for Inactive)
ROOT
HETATM    1  C1  UNL     1     -34.591   6.173   6.262  1.00 20.00     0.002 C 
HETATM    2  C2  UNL     1     -34.827   5.141   5.437  1.00 20.00     0.028 C 
HETATM    3  C3  UNL     1     -33.734   7.289   5.893  1.00 20.00    -0.003 C 
HETATM    4  C4  UNL     1     -33.389   7.509   4.613  1.00 20.00    -0.012 C 
HETATM    5  C5  UNL     1     -33.001   6.181   2.461  1.00 20.00     0.007 C 
HETATM    6  C6  UNL     1     -32.988   4.844   2.427  1.00 20.00     0.114 C 
HETATM    7  C7  UNL     1     -34.166   5.242   4.120  1.00 20.00     0.045 C 
HETATM    8  C8  UNL     1     -33.928   6.628   3.535  1.00 20.00     0.084 C 
HETATM    9  N9  UNL     1     -33.709   4.246   3.425  1.00 20.00    -0.265 NA
ENDROOT
TORSDOF 0
ENDMDL
MODEL 5
REMARK VINA RESULT:      -5.3      1.455      2.228
REMARK  0 active torsions:
REMARK  status: ('A' for Active; 'I' for Inactive)
ROOT
HETATM    1  C1  UNL     1     -34.574   6.151   5.427  1.00 20.00     0.002 C 
HETATM    2  C2  UNL     1     -33.457   6.878   5.586  1.00 20.00     0.028 C 
HETATM    3  C3  UNL     1     -35.113   5.822   4.117  1.00 20.00    -0.003 C 
HETATM    4  C4  UNL     1     -34.370   5.951   3.005  1.00 20.00    -0.012 C 
HETATM    5  C5  UNL     1     -32.444   7.386   2.124  1.00 20.00     0.007 C 
HETATM    6  C6  UNL     1     -31.972   8.450   2.784  1.00 20.00     0.114 C 
HETATM    7  C7  UNL     1     -32.810   7.295   4.326  1.00 20.00     0.045 C 
HETATM    8  C8  UNL     1     -32.947   6.391   3.108  1.00 20.00     0.084 C 
HETATM    9  N9  UNL     1     -32.170   8.409   4.138  1.00 20.00    -0.265 NA
ENDROOT
TORSDOF 0
ENDMDL
MODEL 6
REMARK VINA RESULT:      -4.4     12.388     12.992
REMARK  0 active torsions:
REMARK  status: ('A' for Active; 'I' for Inactive)
ROOT
HETATM    1  C1  UNL     1     -34.197  17.419  -1.664  1.00 20.00     0.002 C 
HETATM    2  C2  UNL     1     -32.929  17.847  -1.766  1.00 20.00     0.028 C 
HETATM    3  C3  UNL     1     -34.948  17.485  -0.422  1.00 20.00    -0.003 C 
HETATM    4  C4  UNL     1     -34.538  18.257   0.600  1.00 20.00    -0.012 C 
HETATM    5  C5  UNL     1     -32.356  19.161   1.583  1.00 20.00     0.007 C 
HETATM    6  C6  UNL     1     -31.151  18.774   1.152  1.00 20.00     0.114 C 
HETATM    7  C7  UNL     1     -32.369  18.412  -0.521  1.00 20.00     0.045 C 
HETATM    8  C8  UNL     1     -33.317  19.104   0.450  1.00 20.00     0.084 C 
HETATM    9  N9  UNL     1     -31.131  18.325  -0.142  1.00 20.00    -0.265 NA
ENDROOT
TORSDOF 0
ENDMDL
MODEL 7
REMARK VINA RESULT:      -4.3      1.171      3.032
REMARK  0 active torsions:
REMARK  status: ('A' for Active; 'I' for Inactive)
ROOT
HETATM    1  C1  UNL     1     -32.924   6.554   2.190  1.00 20.00     0.002 C 
HETATM    2  C2  UNL     1     -33.077   5.290   2.615  1.00 20.00     0.028 C 
HETATM    3  C3  UNL     1     -33.365   7.700   2.969  1.00 20.00    -0.003 C 
HETATM    4  C4  UNL     1     -33.657   7.583   4.276  1.00 20.00    -0.012 C 
HETATM    5  C5  UNL     1     -34.538   5.822   5.909  1.00 20.00     0.007 C 
HETATM    6  C6  UNL     1     -35.002   4.632   5.511  1.00 20.00     0.114 C 
HETATM    7  C7  UNL     1     -33.706   5.160   3.945  1.00 20.00     0.045 C 
HETATM    8  C8  UNL     1     -33.481   6.269   4.963  1.00 20.00     0.084 C 
HETATM    9  N9  UNL     1     -34.494   4.198   4.316  1.00 20.00    -0.265 NA
ENDROOT
TORSDOF 0
ENDMDL
MODEL 8
REMARK VINA RESULT:      -4.3     11.909     13.090
REMARK  0 active torsions:
REMARK  status: ('A' for Active; 'I' for Inactive)
ROOT
HETATM    1  C1  UNL     1     -34.054  15.410  -3.856  1.00 20.00     0.002 C 
HETATM    2  C2  UNL     1     -35.036  14.535  -4.119  1.00 20.00     0.028 C 
HETATM    3  C3  UNL     1     -33.111  15.856  -4.869  1.00 20.00    -0.003 C 
HETATM    4  C4  UNL     1     -33.354  15.668  -6.177  1.00 20.00    -0.012 C 
HETATM    5  C5  UNL     1     -34.587  14.021  -7.697  1.00 20.00     0.007 C 
HETATM    6  C6  UNL     1     -35.121  12.880  -7.247  1.00 20.00     0.114 C 
HETATM    7  C7  UNL     1     -35.095  14.080  -5.523  1.00 20.00     0.045 C 
HETATM    8  C8  UNL     1     -34.635  15.038  -6.614  1.00 20.00     0.084 C 
HETATM    9  N9  UNL     1     -35.456  12.898  -5.919  1.00 20.00    -0.265 NA
ENDROOT
TORSDOF 0
ENDMDL
MODEL 9
REMARK VINA RESULT:      -4.1     12.195     12.851
REMARK  0 active torsions:
REMARK  status: ('A' for Active; 'I' for Inactive)
ROOT
HETATM    1  C1  UNL     1     -33.091  17.639  -1.867  1.00 20.00     0.002 C 
HETATM    2  C2  UNL     1     -32.736  18.434  -0.846  1.00 20.00     0.028 C 
HETATM    3  C3  UNL     1     -34.307  16.842  -1.854  1.00 20.00    -0.003 C 
HETATM    4  C4  UNL     1     -35.293  17.091  -0.974  1.00 20.00    -0.012 C 
HETATM    5  C5  UNL     1     -35.581  18.021   1.392  1.00 20.00     0.007 C 
HETATM    6  C6  UNL     1     -34.547  18.298   2.193  1.00 20.00     0.114 C 
HETATM    7  C7  UNL     1     -33.692  18.451   0.280  1.00 20.00     0.045 C 
HETATM    8  C8  UNL     1     -35.169  18.234  -0.021  1.00 20.00     0.084 C 
HETATM    9  N9  UNL     1     -33.381  18.581   1.533  1.00 20.00    -0.265 NA
ENDROOT
TORSDOF 0
ENDMDL
