MODEL 1
REMARK VINA RESULT:      -6.0      0.000      0.000
REMARK  0 active torsions:
REMARK  status: ('A' for Active; 'I' for Inactive)
ROOT
HETATM    1  C1  UNL     1     -34.418   4.229   4.994  1.00 20.00     0.002 C 
HETATM    2  C2  UNL     1     -34.117   4.410   3.699  1.00 20.00     0.028 C 
HETATM    3  C3  UNL     1     -34.343   5.300   5.973  1.00 20.00    -0.003 C 
HETATM    4  C4  UNL     1     -34.278   6.588   5.592  1.00 20.00    -0.012 C 
HETATM    5  C5  UNL     1     -33.405   7.984   3.633  1.00 20.00     0.032 C 
HETATM    6  C6  UNL     1     -32.668   7.462   2.647  1.00 20.00     0.123 C 
HETATM    7  C7  UNL     1     -33.729   5.789   3.345  1.00 20.00     0.047 C 
HETATM    8  C8  UNL     1     -34.335   6.939   4.141  1.00 20.00     0.086 C 
HETATM    9  N9  UNL     1     -32.860   6.120   2.440  1.00 20.00    -0.241 NA
HETATM   10 CL10 UNL     1     -31.517   8.335   1.741  1.00 20.00    -0.063 Cl
ENDROOT
TORSDOF 0
ENDMDL
MODEL 2
REMARK VINA RESULT:      -5.9      1.345      2.130
REMARK  0 active torsions:
REMARK  status: ('A' for Active; 'I' for Inactive)
ROOT
HETATM    1  C1  UNL     1     -34.338   6.417   5.817  1.00 20.00     0.002 C 
HETATM    2  C2  UNL     1     -33.327   7.271   5.593  1.00 20.00     0.028 C 
HETATM    3  C3  UNL     1     -34.989   5.677   4.749  1.00 20.00    -0.003 C 
HETATM    4  C4  UNL     1     -34.422   5.560   3.536  1.00 20.00    -0.012 C 
HETATM    5  C5  UNL     1     -32.853   6.875   2.001  1.00 20.00     0.032 C 
HETATM    6  C6  UNL     1     -32.459   8.124   2.271  1.00 20.00     0.123 C 
HETATM    7  C7  UNL     1     -32.915   7.378   4.180  1.00 20.00     0.047 C 
HETATM    8  C8  UNL     1     -33.075   6.155   3.284  1.00 20.00     0.086 C 
HETATM    9  N9  UNL     1     -32.472   8.452   3.601  1.00 20.00    -0.241 NA
HETATM   10 CL10 UNL     1     -32.034   9.276   1.086  1.00 20.00    -0.063 Cl
ENDROOT
TORSDOF 0
ENDMDL
MODEL 3
REMARK VINA RESULT:      -5.0      1.958      2.569
REMARK  0 active torsions:
REMARK  status: ('A' for Active; 'I' for Inactive)
ROOT
HETATM    1  C1  UNL     1     -34.420   6.510   6.345  1.00 20.00     0.002 C 
HETATM    2  C2  UNL     1     -34.801   5.435   5.636  1.00 20.00     0.028 C 
HETATM    3  C3  UNL     1     -33.483   7.495   5.832  1.00 20.00    -0.003 C 
HETATM    4  C4  UNL     1     -33.191   7.562   4.522  1.00 20.00    -0.012 C 
HETATM    5  C5  UNL     1     -33.057   6.015   2.488  1.00 20.00     0.032 C 
HETATM    6  C6  UNL     1     -33.176   4.687   2.583  1.00 20.00     0.123 C 
HETATM    7  C7  UNL     1     -34.211   5.351   4.286  1.00 20.00     0.047 C 
HETATM    8  C8  UNL     1     -33.874   6.647   3.559  1.00 20.00     0.086 C 
HETATM    9  N9  UNL     1     -33.893   4.254   3.668  1.00 20.00    -0.241 NA
HETATM   10 CL10 UNL     1     -32.453   3.577   1.509  1.00 20.00    -0.063 Cl
ENDROOT
TORSDOF 0
ENDMDL
MODEL 4
REMARK VINA RESULT:      -4.8     12.208     12.807
REMARK  0 active torsions:
REMARK  status: ('A' for Active; 'I' for Inactive)
ROOT
HETATM    1  C1  UNL     1     -34.323  17.108  -2.245  1.00 20.00     0.002 C 
HETATM    2  C2  UNL     1     -33.132  17.727  -2.221  1.00 20.00     0.028 C 
HETATM    3  C3  UNL     1     -35.171  16.997  -1.070  1.00 20.00    -0.003 C 
HETATM    4  C4  UNL     1     -34.967  17.768   0.012  1.00 20.00    -0.012 C 
HETATM    5  C5  UNL     1     -33.037  18.943   1.213  1.00 20.00     0.032 C 
HETATM    6  C6  UNL     1     -31.758  18.763   0.869  1.00 20.00     0.123 C 
HETATM    7  C7  UNL     1     -32.767  18.306  -0.914  1.00 20.00     0.047 C 
HETATM    8  C8  UNL     1     -33.884  18.797  -0.001  1.00 20.00     0.086 C 
HETATM    9  N9  UNL     1     -31.564  18.389  -0.435  1.00 20.00    -0.241 NA
HETATM   10 CL10 UNL     1     -30.443  18.906   1.947  1.00 20.00    -0.063 Cl
ENDROOT
TORSDOF 0
ENDMDL
MODEL 5
REMARK VINA RESULT:      -4.5     12.345     12.729
REMARK  0 active torsions:
REMARK  status: ('A' for Active; 'I' for Inactive)
ROOT
HETATM    1  C1  UNL     1     -32.776  18.888   2.600  1.00 20.00     0.002 C 
HETATM    2  C2  UNL     1     -33.959  18.758   1.979  1.00 20.00     0.028 C 
HETATM    3  C3  UNL     1     -31.509  18.659   1.927  1.00 20.00    -0.003 C 
HETATM    4  C4  UNL     1     -31.431  18.617   0.585  1.00 20.00    -0.012 C 
HETATM    5  C5  UNL     1     -32.891  17.980  -1.418  1.00 20.00     0.032 C 
HETATM    6  C6  UNL     1     -34.085  17.394  -1.283  1.00 20.00     0.123 C 
HETATM    7  C7  UNL     1     -33.867  18.389   0.553  1.00 20.00     0.047 C 
HETATM    8  C8  UNL     1     -32.652  18.858  -0.240  1.00 20.00     0.086 C 
HETATM    9  N9  UNL     1     -34.711  17.642  -0.089  1.00 20.00    -0.241 NA
HETATM   10 CL10 UNL     1     -34.782  16.353  -2.441  1.00 20.00    -0.063 Cl
ENDROOT
TORSDOF 0
ENDMDL
MODEL 6
REMARK VINA RESULT:      -4.5     12.175     12.677
REMARK  0 active torsions:
REMARK  status: ('A' for Active; 'I' for Inactive)
ROOT
HETATM    1  C1  UNL     1     -33.321  17.450  -2.119  1.00 20.00     0.002 C 
HETATM    2  C2  UNL     1     -32.744  18.268  -1.225  1.00 20.00     0.028 C 
HETATM    3  C3  UNL     1     -34.559  16.740  -1.846  1.00 20.00    -0.003 C 
HETATM    4  C4  UNL     1     -35.357  17.099  -0.825  1.00 20.00    -0.012 C 
HETATM    5  C5  UNL     1     -35.169  18.164   1.494  1.00 20.00     0.032 C 
HETATM    6  C6  UNL     1     -33.994  18.410   2.082  1.00 20.00     0.123 C 
HETATM    7  C7  UNL     1     -33.481  18.408   0.046  1.00 20.00     0.047 C 
HETATM    8  C8  UNL     1     -35.000  18.278   0.020  1.00 20.00     0.086 C 
HETATM    9  N9  UNL     1     -32.946  18.579   1.215  1.00 20.00    -0.241 NA
HETATM   10 CL10 UNL     1     -33.752  18.446   3.770  1.00 20.00    -0.063 Cl
ENDROOT
TORSDOF 0
ENDMDL
MODEL 7
REMARK VINA RESULT:      -4.4      2.610      4.138
REMARK  0 active torsions:
REMARK  status: ('A' for Active; 'I' for Inactive)
ROOT
HETATM    1  C1  UNL     1     -31.486   8.546   3.295  1.00 20.00     0.002 C 
HETATM    2  C2  UNL     1     -32.076   8.507   4.500  1.00 20.00     0.028 C 
HETATM    3  C3  UNL     1     -31.877   7.672   2.202  1.00 20.00    -0.003 C 
HETATM    4  C4  UNL     1     -33.043   7.004   2.228  1.00 20.00    -0.012 C 
HETATM    5  C5  UNL     1     -34.656   5.993   3.939  1.00 20.00     0.032 C 
HETATM    6  C6  UNL     1     -34.368   5.916   5.242  1.00 20.00     0.123 C 
HETATM    7  C7  UNL     1     -33.169   7.522   4.616  1.00 20.00     0.047 C 
HETATM    8  C8  UNL     1     -33.985   7.194   3.371  1.00 20.00     0.086 C 
HETATM    9  N9  UNL     1     -33.472   6.853   5.686  1.00 20.00    -0.241 NA
HETATM   10 CL10 UNL     1     -34.986   4.723   6.294  1.00 20.00    -0.063 Cl
ENDROOT
TORSDOF 0
ENDMDL
MODEL 8
REMARK VINA RESULT:      -4.2     11.992     12.469
REMARK  0 active torsions:
REMARK  status: ('A' for Active; 'I' for Inactive)
ROOT
HETATM    1  C1  UNL     1     -34.655  18.171   0.162  1.00 20.00     0.002 C 
HETATM    2  C2  UNL     1     -35.582  17.568  -0.598  1.00 20.00     0.028 C 
HETATM    3  C3  UNL     1     -33.253  18.231  -0.214  1.00 20.00    -0.003 C 
HETATM    4  C4  UNL     1     -32.857  17.972  -1.473  1.00 20.00    -0.012 C 
HETATM    5  C5  UNL     1     -33.588  16.559  -3.477  1.00 20.00     0.032 C 
HETATM    6  C6  UNL     1     -34.578  15.663  -3.405  1.00 20.00     0.123 C 
HETATM    7  C7  UNL     1     -35.067  16.993  -1.856  1.00 20.00     0.047 C 
HETATM    8  C8  UNL     1     -33.873  17.666  -2.524  1.00 20.00     0.086 C 
HETATM    9  N9  UNL     1     -35.507  15.916  -2.430  1.00 20.00    -0.241 NA
HETATM   10 CL10 UNL     1     -34.682  14.265  -4.377  1.00 20.00    -0.063 Cl
ENDROOT
TORSDOF 0
ENDMDL
MODEL 9
REMARK VINA RESULT:      -4.1     12.081     12.973
REMARK  0 active torsions:
REMARK  status: ('A' for Active; 'I' for Inactive)
ROOT
HETATM    1  C1  UNL     1     -34.841  14.054  -7.236  1.00 20.00     0.002 C 
HETATM    2  C2  UNL     1     -35.330  13.722  -6.031  1.00 20.00     0.028 C 
HETATM    3  C3  UNL     1     -33.917  15.158  -7.429  1.00 20.00    -0.003 C 
HETATM    4  C4  UNL     1     -33.257  15.703  -6.392  1.00 20.00    -0.012 C 
HETATM    5  C5  UNL     1     -33.577  16.088  -3.883  1.00 20.00     0.032 C 
HETATM    6  C6  UNL     1     -34.730  15.832  -3.256  1.00 20.00     0.123 C 
HETATM    7  C7  UNL     1     -34.833  14.552  -4.917  1.00 20.00     0.047 C 
HETATM    8  C8  UNL     1     -33.430  15.140  -5.021  1.00 20.00     0.086 C 
HETATM    9  N9  UNL     1     -35.511  14.882  -3.861  1.00 20.00    -0.241 NA
HETATM   10 CL10 UNL     1     -35.263  16.646  -1.855  1.00 20.00    -0.063 Cl
ENDROOT
TORSDOF 0
ENDMDL
