MODEL 1
REMARK VINA RESULT:      -6.1      0.000      0.000
REMARK  0 active torsions:
REMARK  status: ('A' for Active; 'I' for Inactive)
ROOT
HETATM    1  C1  UNL     1     -32.490   7.928   2.616  1.00 20.00     0.104 C 
HETATM    2  C2  UNL     1     -34.488   5.185   4.140  1.00 20.00     0.107 A 
HETATM    3  C3  UNL     1     -33.281   7.513   4.893  1.00 20.00     0.145 A 
HETATM    4  C4  UNL     1     -33.192   7.127   3.565  1.00 20.00     0.100 A 
HETATM    5  C5  UNL     1     -33.810   5.940   3.189  1.00 20.00     0.142 A 
HETATM    6  C6  UNL     1     -34.518   5.656   5.442  1.00 20.00     0.212 A 
HETATM    7  N7  UNL     1     -31.918   8.578   1.843  1.00 20.00    -0.191 NA
HETATM    8  N8  UNL     1     -33.930   6.806   5.845  1.00 20.00    -0.231 NA
HETATM    9  F9  UNL     1     -33.761   5.512   1.919  1.00 20.00    -0.204 F 
HETATM   10  F10 UNL     1     -35.169   4.938   6.370  1.00 20.00    -0.184 F 
ENDROOT
TORSDOF 0
ENDMDL
MODEL 2
REMARK VINA RESULT:      -5.9      1.724      2.118
REMARK  0 active torsions:
REMARK  status: ('A' for Active; 'I' for Inactive)
ROOT
HETATM    1  C1  UNL     1     -32.391   7.894   2.362  1.00 20.00     0.104 C 
HETATM    2  C2  UNL     1     -33.713   6.763   5.650  1.00 20.00     0.107 A 
HETATM    3  C3  UNL     1     -33.937   6.113   3.009  1.00 20.00     0.145 A 
HETATM    4  C4  UNL     1     -33.109   7.168   3.358  1.00 20.00     0.100 A 
HETATM    5  C5  UNL     1     -33.000   7.493   4.705  1.00 20.00     0.142 A 
HETATM    6  C6  UNL     1     -34.514   5.727   5.200  1.00 20.00     0.212 A 
HETATM    7  N7  UNL     1     -31.807   8.485   1.552  1.00 20.00    -0.191 NA
HETATM    8  N8  UNL     1     -34.645   5.381   3.899  1.00 20.00    -0.231 NA
HETATM    9  F9  UNL     1     -32.214   8.503   5.107  1.00 20.00    -0.204 F 
HETATM   10  F10 UNL     1     -35.208   5.014   6.101  1.00 20.00    -0.184 F 
ENDROOT
TORSDOF 0
ENDMDL
MODEL 3
REMARK VINA RESULT:      -4.6      2.061      4.251
REMARK  0 active torsions:
REMARK  status: ('A' for Active; 'I' for Inactive)
ROOT
HETATM    1  C1  UNL     1     -34.520   5.119   4.486  1.00 20.00     0.104 C 
HETATM    2  C2  UNL     1     -32.503   8.244   4.444  1.00 20.00     0.107 A 
HETATM    3  C3  UNL     1     -33.343   6.315   2.707  1.00 20.00     0.145 A 
HETATM    4  C4  UNL     1     -33.716   6.208   4.038  1.00 20.00     0.100 A 
HETATM    5  C5  UNL     1     -33.284   7.195   4.916  1.00 20.00     0.142 A 
HETATM    6  C6  UNL     1     -32.183   8.260   3.097  1.00 20.00     0.212 A 
HETATM    7  N7  UNL     1     -35.174   4.232   4.853  1.00 20.00    -0.191 NA
HETATM    8  N8  UNL     1     -32.585   7.319   2.212  1.00 20.00    -0.231 NA
HETATM    9  F9  UNL     1     -33.612   7.149   6.216  1.00 20.00    -0.204 F 
HETATM   10  F10 UNL     1     -31.430   9.267   2.628  1.00 20.00    -0.184 F 
ENDROOT
TORSDOF 0
ENDMDL
MODEL 4
REMARK VINA RESULT:      -4.5      1.669      4.002
REMARK  0 active torsions:
REMARK  status: ('A' for Active; 'I' for Inactive)
ROOT
HETATM    1  C1  UNL     1     -33.883   6.838   5.316  1.00 20.00     0.104 C 
HETATM    2  C2  UNL     1     -32.839   7.242   1.769  1.00 20.00     0.107 A 
HETATM    3  C3  UNL     1     -32.144   8.176   4.236  1.00 20.00     0.145 A 
HETATM    4  C4  UNL     1     -33.190   7.271   4.147  1.00 20.00     0.100 A 
HETATM    5  C5  UNL     1     -33.537   6.799   2.886  1.00 20.00     0.142 A 
HETATM    6  C6  UNL     1     -31.810   8.148   1.963  1.00 20.00     0.212 A 
HETATM    7  N7  UNL     1     -34.449   6.485   6.267  1.00 20.00    -0.191 NA
HETATM    8  N8  UNL     1     -31.442   8.628   3.173  1.00 20.00    -0.231 NA
HETATM    9  F9  UNL     1     -34.540   5.922   2.734  1.00 20.00    -0.204 F 
HETATM   10  F10 UNL     1     -31.127   8.583   0.893  1.00 20.00    -0.184 F 
ENDROOT
TORSDOF 0
ENDMDL
MODEL 5
REMARK VINA RESULT:      -4.4     12.007     12.837
REMARK  0 active torsions:
REMARK  status: ('A' for Active; 'I' for Inactive)
ROOT
HETATM    1  C1  UNL     1     -33.951  15.800  -3.705  1.00 20.00     0.104 C 
HETATM    2  C2  UNL     1     -34.222  14.257  -7.079  1.00 20.00     0.107 A 
HETATM    3  C3  UNL     1     -35.188  13.870  -4.557  1.00 20.00     0.145 A 
HETATM    4  C4  UNL     1     -34.324  14.931  -4.773  1.00 20.00     0.100 A 
HETATM    5  C5  UNL     1     -33.836  15.122  -6.061  1.00 20.00     0.142 A 
HETATM    6  C6  UNL     1     -35.090  13.226  -6.760  1.00 20.00     0.212 A 
HETATM    7  N7  UNL     1     -33.646  16.507  -2.836  1.00 20.00    -0.191 NA
HETATM    8  N8  UNL     1     -35.585  13.010  -5.521  1.00 20.00    -0.231 NA
HETATM    9  F9  UNL     1     -32.996  16.132  -6.334  1.00 20.00    -0.204 F 
HETATM   10  F10 UNL     1     -35.471  12.385  -7.733  1.00 20.00    -0.184 F 
ENDROOT
TORSDOF 0
ENDMDL
MODEL 6
REMARK VINA RESULT:      -4.2     11.779     12.438
REMARK  0 active torsions:
REMARK  status: ('A' for Active; 'I' for Inactive)
ROOT
HETATM    1  C1  UNL     1     -35.602  13.783  -4.829  1.00 20.00     0.104 C 
HETATM    2  C2  UNL     1     -33.737  16.494  -3.094  1.00 20.00     0.107 A 
HETATM    3  C3  UNL     1     -36.306  15.870  -3.766  1.00 20.00     0.145 A 
HETATM    4  C4  UNL     1     -35.301  14.987  -4.127  1.00 20.00     0.100 A 
HETATM    5  C5  UNL     1     -33.994  15.312  -3.780  1.00 20.00     0.142 A 
HETATM    6  C6  UNL     1     -34.811  17.310  -2.781  1.00 20.00     0.212 A 
HETATM    7  N7  UNL     1     -35.846  12.803  -5.402  1.00 20.00    -0.191 NA
HETATM    8  N8  UNL     1     -36.095  17.027  -3.100  1.00 20.00    -0.231 NA
HETATM    9  F9  UNL     1     -32.977  14.499  -4.100  1.00 20.00    -0.204 F 
HETATM   10  F10 UNL     1     -34.577  18.453  -2.118  1.00 20.00    -0.184 F 
ENDROOT
TORSDOF 0
ENDMDL
MODEL 7
REMARK VINA RESULT:      -4.1     12.480     12.971
REMARK  0 active torsions:
REMARK  status: ('A' for Active; 'I' for Inactive)
ROOT
HETATM    1  C1  UNL     1     -32.265  18.936   3.277  1.00 20.00     0.104 C 
HETATM    2  C2  UNL     1     -33.702  18.337  -0.101  1.00 20.00     0.107 A 
HETATM    3  C3  UNL     1     -31.257  18.665   1.065  1.00 20.00     0.145 A 
HETATM    4  C4  UNL     1     -32.382  18.718   1.872  1.00 20.00     0.100 A 
HETATM    5  C5  UNL     1     -33.624  18.549   1.271  1.00 20.00     0.142 A 
HETATM    6  C6  UNL     1     -32.519  18.302  -0.820  1.00 20.00     0.212 A 
HETATM    7  N7  UNL     1     -32.170  19.114   4.420  1.00 20.00    -0.191 NA
HETATM    8  N8  UNL     1     -31.293  18.461  -0.271  1.00 20.00    -0.231 NA
HETATM    9  F9  UNL     1     -34.750  18.589   1.998  1.00 20.00    -0.204 F 
HETATM   10  F10 UNL     1     -32.579  18.097  -2.145  1.00 20.00    -0.184 F 
ENDROOT
TORSDOF 0
ENDMDL
MODEL 8
REMARK VINA RESULT:      -4.1     11.668     12.547
REMARK  0 active torsions:
REMARK  status: ('A' for Active; 'I' for Inactive)
ROOT
HETATM    1  C1  UNL     1     -38.054  14.790  -4.926  1.00 20.00     0.104 C 
HETATM    2  C2  UNL     1     -34.623  15.453  -3.652  1.00 20.00     0.107 A 
HETATM    3  C3  UNL     1     -35.901  13.689  -5.294  1.00 20.00     0.145 A 
HETATM    4  C4  UNL     1     -36.651  14.687  -4.691  1.00 20.00     0.100 A 
HETATM    5  C5  UNL     1     -35.992  15.582  -3.856  1.00 20.00     0.142 A 
HETATM    6  C6  UNL     1     -33.964  14.421  -4.299  1.00 20.00     0.212 A 
HETATM    7  N7  UNL     1     -39.196  14.874  -5.116  1.00 20.00    -0.191 NA
HETATM    8  N8  UNL     1     -34.570  13.532  -5.118  1.00 20.00    -0.231 NA
HETATM    9  F9  UNL     1     -36.662  16.570  -3.245  1.00 20.00    -0.204 F 
HETATM   10  F10 UNL     1     -32.642  14.286  -4.110  1.00 20.00    -0.184 F 
ENDROOT
TORSDOF 0
ENDMDL
MODEL 9
REMARK VINA RESULT:      -4.0     11.770     12.169
REMARK  0 active torsions:
REMARK  status: ('A' for Active; 'I' for Inactive)
ROOT
HETATM    1  C1  UNL     1     -33.968  16.677  -2.509  1.00 20.00     0.104 C 
HETATM    2  C2  UNL     1     -35.319  14.063  -4.785  1.00 20.00     0.107 A 
HETATM    3  C3  UNL     1     -36.204  16.241  -3.400  1.00 20.00     0.145 A 
HETATM    4  C4  UNL     1     -34.863  15.904  -3.306  1.00 20.00     0.100 A 
HETATM    5  C5  UNL     1     -34.420  14.793  -4.015  1.00 20.00     0.142 A 
HETATM    6  C6  UNL     1     -36.639  14.481  -4.811  1.00 20.00     0.212 A 
HETATM    7  N7  UNL     1     -33.240  17.305  -1.859  1.00 20.00    -0.191 NA
HETATM    8  N8  UNL     1     -37.107  15.556  -4.137  1.00 20.00    -0.231 NA
HETATM    9  F9  UNL     1     -33.134  14.415  -3.967  1.00 20.00    -0.204 F 
HETATM   10  F10 UNL     1     -37.518  13.786  -5.551  1.00 20.00    -0.184 F 
ENDROOT
TORSDOF 0
ENDMDL
