MODEL 1
REMARK VINA RESULT:      -5.7      0.000      0.000
REMARK  0 active torsions:
REMARK  status: ('A' for Active; 'I' for Inactive)
ROOT
HETATM    1  C1  UNL     1     -33.721   5.578   2.402  1.00 20.00     0.032 C 
HETATM    2  C2  UNL     1     -32.988   6.684   2.240  1.00 20.00     0.028 C 
HETATM    3  C3  UNL     1     -34.580   5.820   5.919  1.00 20.00     0.026 C 
HETATM    4  C4  UNL     1     -34.608   4.510   5.655  1.00 20.00     0.115 C 
HETATM    5  C5  UNL     1     -34.166   5.346   3.781  1.00 20.00     0.062 C 
HETATM    6  C6  UNL     1     -32.612   7.472   3.456  1.00 20.00     0.026 C 
HETATM    7  C7  UNL     1     -34.383   6.562   4.647  1.00 20.00     0.184 C 
HETATM    8  C8  UNL     1     -31.423   8.388   3.308  1.00 20.00     0.070 C 
HETATM    9  N9  UNL     1     -34.370   4.196   4.343  1.00 20.00    -0.263 NA
HETATM   10  N10 UNL     1     -33.202   7.410   4.606  1.00 20.00    -0.279 NA
ENDROOT
TORSDOF 0
ENDMDL
MODEL 2
REMARK VINA RESULT:      -5.6      1.305      3.986
REMARK  0 active torsions:
REMARK  status: ('A' for Active; 'I' for Inactive)
ROOT
HETATM    1  C1  UNL     1     -33.592   7.371   5.732  1.00 20.00     0.032 C 
HETATM    2  C2  UNL     1     -34.265   6.219   5.649  1.00 20.00     0.028 C 
HETATM    3  C3  UNL     1     -32.396   7.726   2.325  1.00 20.00     0.026 C 
HETATM    4  C4  UNL     1     -31.503   8.390   3.066  1.00 20.00     0.115 C 
HETATM    5  C5  UNL     1     -32.906   7.759   4.494  1.00 20.00     0.062 C 
HETATM    6  C6  UNL     1     -34.151   5.418   4.390  1.00 20.00     0.026 C 
HETATM    7  C7  UNL     1     -33.525   7.306   3.194  1.00 20.00     0.184 C 
HETATM    8  C8  UNL     1     -34.495   3.955   4.504  1.00 20.00     0.070 C 
HETATM    9  N9  UNL     1     -31.804   8.436   4.401  1.00 20.00    -0.263 NA
HETATM   10  N10 UNL     1     -33.766   5.872   3.240  1.00 20.00    -0.279 NA
ENDROOT
TORSDOF 0
ENDMDL
MODEL 3
REMARK VINA RESULT:      -4.8      1.551      2.668
REMARK  0 active torsions:
REMARK  status: ('A' for Active; 'I' for Inactive)
ROOT
HETATM    1  C1  UNL     1     -31.791   8.248   4.148  1.00 20.00     0.032 C 
HETATM    2  C2  UNL     1     -31.533   8.745   2.934  1.00 20.00     0.028 C 
HETATM    3  C3  UNL     1     -34.421   5.869   3.382  1.00 20.00     0.026 C 
HETATM    4  C4  UNL     1     -34.643   6.218   4.653  1.00 20.00     0.115 C 
HETATM    5  C5  UNL     1     -32.897   7.285   4.183  1.00 20.00     0.062 C 
HETATM    6  C6  UNL     1     -32.443   8.373   1.806  1.00 20.00     0.026 C 
HETATM    7  C7  UNL     1     -33.138   6.469   2.936  1.00 20.00     0.184 C 
HETATM    8  C8  UNL     1     -32.430   9.298   0.615  1.00 20.00     0.070 C 
HETATM    9  N9  UNL     1     -33.710   7.076   5.171  1.00 20.00    -0.263 NA
HETATM   10  N10 UNL     1     -33.239   7.353   1.784  1.00 20.00    -0.279 NA
ENDROOT
TORSDOF 0
ENDMDL
MODEL 4
REMARK VINA RESULT:      -4.5     12.029     12.418
REMARK  0 active torsions:
REMARK  status: ('A' for Active; 'I' for Inactive)
ROOT
HETATM    1  C1  UNL     1     -33.396  15.548  -4.102  1.00 20.00     0.032 C 
HETATM    2  C2  UNL     1     -33.666  16.400  -3.107  1.00 20.00     0.028 C 
HETATM    3  C3  UNL     1     -36.726  14.375  -4.936  1.00 20.00     0.026 C 
HETATM    4  C4  UNL     1     -35.916  13.373  -5.294  1.00 20.00     0.115 C 
HETATM    5  C5  UNL     1     -34.568  14.832  -4.617  1.00 20.00     0.062 C 
HETATM    6  C6  UNL     1     -35.060  16.440  -2.564  1.00 20.00     0.026 C 
HETATM    7  C7  UNL     1     -35.899  15.540  -4.532  1.00 20.00     0.184 C 
HETATM    8  C8  UNL     1     -35.213  17.014  -1.178  1.00 20.00     0.070 C 
HETATM    9  N9  UNL     1     -34.584  13.638  -5.120  1.00 20.00    -0.263 NA
HETATM   10  N10 UNL     1     -36.118  16.008  -3.172  1.00 20.00    -0.279 NA
ENDROOT
TORSDOF 0
ENDMDL
MODEL 5
REMARK VINA RESULT:      -4.4      1.514      3.769
REMARK  0 active torsions:
REMARK  status: ('A' for Active; 'I' for Inactive)
ROOT
HETATM    1  C1  UNL     1     -33.719   6.100   2.428  1.00 20.00     0.032 C 
HETATM    2  C2  UNL     1     -34.019   5.781   3.691  1.00 20.00     0.028 C 
HETATM    3  C3  UNL     1     -31.632   9.026   2.924  1.00 20.00     0.026 C 
HETATM    4  C4  UNL     1     -32.166   9.195   1.710  1.00 20.00     0.115 C 
HETATM    5  C5  UNL     1     -32.924   7.324   2.287  1.00 20.00     0.062 C 
HETATM    6  C6  UNL     1     -33.631   6.736   4.776  1.00 20.00     0.026 C 
HETATM    7  C7  UNL     1     -31.995   7.676   3.424  1.00 20.00     0.184 C 
HETATM    8  C8  UNL     1     -34.387   6.605   6.074  1.00 20.00     0.070 C 
HETATM    9  N9  UNL     1     -32.952   8.154   1.292  1.00 20.00    -0.263 NA
HETATM   10  N10 UNL     1     -32.731   7.661   4.680  1.00 20.00    -0.279 NA
ENDROOT
TORSDOF 0
ENDMDL
MODEL 6
REMARK VINA RESULT:      -4.1     11.812     13.305
REMARK  0 active torsions:
REMARK  status: ('A' for Active; 'I' for Inactive)
ROOT
HETATM    1  C1  UNL     1     -34.341  14.378  -4.027  1.00 20.00     0.032 C 
HETATM    2  C2  UNL     1     -33.869  15.625  -3.933  1.00 20.00     0.028 C 
HETATM    3  C3  UNL     1     -34.427  13.934  -7.627  1.00 20.00     0.026 C 
HETATM    4  C4  UNL     1     -35.376  13.115  -7.164  1.00 20.00     0.115 C 
HETATM    5  C5  UNL     1     -34.567  13.921  -5.402  1.00 20.00     0.062 C 
HETATM    6  C6  UNL     1     -33.742  16.434  -5.187  1.00 20.00     0.026 C 
HETATM    7  C7  UNL     1     -33.681  14.505  -6.476  1.00 20.00     0.184 C 
HETATM    8  C8  UNL     1     -33.688  17.929  -5.006  1.00 20.00     0.070 C 
HETATM    9  N9  UNL     1     -35.470  13.079  -5.798  1.00 20.00    -0.263 NA
HETATM   10  N10 UNL     1     -33.700  15.957  -6.390  1.00 20.00    -0.279 NA
ENDROOT
TORSDOF 0
ENDMDL
MODEL 7
REMARK VINA RESULT:      -4.1     12.085     12.814
REMARK  0 active torsions:
REMARK  status: ('A' for Active; 'I' for Inactive)
ROOT
HETATM    1  C1  UNL     1     -35.245  14.096  -4.629  1.00 20.00     0.032 C 
HETATM    2  C2  UNL     1     -34.501  14.909  -3.872  1.00 20.00     0.028 C 
HETATM    3  C3  UNL     1     -38.318  16.006  -4.893  1.00 20.00     0.026 C 
HETATM    4  C4  UNL     1     -38.700  14.733  -5.035  1.00 20.00     0.115 C 
HETATM    5  C5  UNL     1     -36.614  14.569  -4.856  1.00 20.00     0.062 C 
HETATM    6  C6  UNL     1     -35.156  16.108  -3.261  1.00 20.00     0.026 C 
HETATM    7  C7  UNL     1     -36.834  16.062  -4.864  1.00 20.00     0.184 C 
HETATM    8  C8  UNL     1     -34.460  16.703  -2.064  1.00 20.00     0.070 C 
HETATM    9  N9  UNL     1     -37.667  13.833  -5.030  1.00 20.00    -0.263 NA
HETATM   10  N10 UNL     1     -36.264  16.647  -3.660  1.00 20.00    -0.279 NA
ENDROOT
TORSDOF 0
ENDMDL
MODEL 8
REMARK VINA RESULT:      -4.0     12.093     13.342
REMARK  0 active torsions:
REMARK  status: ('A' for Active; 'I' for Inactive)
ROOT
HETATM    1  C1  UNL     1     -33.409  15.913  -6.253  1.00 20.00     0.032 C 
HETATM    2  C2  UNL     1     -34.101  14.770  -6.311  1.00 20.00     0.028 C 
HETATM    3  C3  UNL     1     -33.754  16.758  -2.742  1.00 20.00     0.026 C 
HETATM    4  C4  UNL     1     -33.579  17.933  -3.356  1.00 20.00     0.115 C 
HETATM    5  C5  UNL     1     -33.427  16.562  -4.938  1.00 20.00     0.062 C 
HETATM    6  C6  UNL     1     -34.889  14.355  -5.109  1.00 20.00     0.026 C 
HETATM    7  C7  UNL     1     -33.561  15.667  -3.730  1.00 20.00     0.184 C 
HETATM    8  C8  UNL     1     -36.007  13.374  -5.358  1.00 20.00     0.070 C 
HETATM    9  N9  UNL     1     -33.362  17.836  -4.704  1.00 20.00    -0.263 NA
HETATM   10  N10 UNL     1     -34.704  14.782  -3.901  1.00 20.00    -0.279 NA
ENDROOT
TORSDOF 0
ENDMDL
MODEL 9
REMARK VINA RESULT:      -3.9     12.307     13.714
REMARK  0 active torsions:
REMARK  status: ('A' for Active; 'I' for Inactive)
ROOT
HETATM    1  C1  UNL     1     -33.623  16.334  -7.106  1.00 20.00     0.032 C 
HETATM    2  C2  UNL     1     -33.967  15.137  -7.593  1.00 20.00     0.028 C 
HETATM    3  C3  UNL     1     -33.559  15.645  -3.545  1.00 20.00     0.026 C 
HETATM    4  C4  UNL     1     -33.832  16.951  -3.630  1.00 20.00     0.115 C 
HETATM    5  C5  UNL     1     -33.587  16.401  -5.641  1.00 20.00     0.062 C 
HETATM    6  C6  UNL     1     -34.381  14.070  -6.629  1.00 20.00     0.026 C 
HETATM    7  C7  UNL     1     -33.248  15.129  -4.903  1.00 20.00     0.184 C 
HETATM    8  C8  UNL     1     -35.206  12.946  -7.202  1.00 20.00     0.070 C 
HETATM    9  N9  UNL     1     -33.840  17.440  -4.909  1.00 20.00    -0.263 NA
HETATM   10  N10 UNL     1     -34.110  14.051  -5.364  1.00 20.00    -0.279 NA
ENDROOT
TORSDOF 0
ENDMDL
