MODEL 1
REMARK VINA RESULT:      -5.7      0.000      0.000
REMARK  1 active torsions:
REMARK  status: ('A' for Active; 'I' for Inactive)
REMARK    1  A    between atoms: C4_4  and  C11_11 
ROOT
HETATM    1  C1  UNL     1     -33.678   4.996   2.435  1.00 20.00     0.003 A 
HETATM    2  C2  UNL     1     -32.946   6.121   2.026  1.00 20.00     0.008 A 
HETATM    3  C3  UNL     1     -34.182   4.907   3.736  1.00 20.00     0.029 A 
HETATM    4  C4  UNL     1     -32.702   7.172   2.913  1.00 20.00    -0.045 A 
HETATM    5  C5  UNL     1     -33.216   7.074   4.193  1.00 20.00    -0.024 A 
HETATM    6  C6  UNL     1     -33.962   5.965   4.601  1.00 20.00     0.035 A 
HETATM    7  C7  UNL     1     -33.057   8.012   5.345  1.00 20.00     0.061 C 
HETATM    8  C10 UNL     1     -34.048   7.413   6.367  1.00 20.00     0.124 C 
HETATM    9  N12 UNL     1     -34.329   6.047   5.943  1.00 20.00    -0.389 N 
HETATM   10  H25 UNL     1     -35.079   5.492   6.328  1.00 20.00     0.159 HD
ENDROOT
BRANCH   4  11
HETATM   11  C11 UNL     1     -31.903   8.352   2.483  1.00 20.00     0.019 A 
HETATM   12  C8  UNL     1     -32.571   9.436   1.674  1.00 20.00     0.010 A 
HETATM   13  C9  UNL     1     -31.577   8.526   1.021  1.00 20.00     0.010 A 
ENDBRANCH   4  11
TORSDOF 1
ENDMDL
MODEL 2
REMARK VINA RESULT:      -5.3      1.040      2.692
REMARK  1 active torsions:
REMARK  status: ('A' for Active; 'I' for Inactive)
REMARK    1  A    between atoms: C4_4  and  C11_11 
ROOT
HETATM    1  C1  UNL     1     -33.699   7.684   6.027  1.00 20.00     0.003 A 
HETATM    2  C2  UNL     1     -32.930   8.098   4.927  1.00 20.00     0.008 A 
HETATM    3  C3  UNL     1     -34.330   6.437   6.026  1.00 20.00     0.029 A 
HETATM    4  C4  UNL     1     -32.786   7.274   3.810  1.00 20.00    -0.045 A 
HETATM    5  C5  UNL     1     -33.409   6.039   3.828  1.00 20.00    -0.024 A 
HETATM    6  C6  UNL     1     -34.160   5.613   4.927  1.00 20.00     0.035 A 
HETATM    7  C7  UNL     1     -33.468   4.999   2.758  1.00 20.00     0.061 C 
HETATM    8  C10 UNL     1     -34.118   3.818   3.512  1.00 20.00     0.124 C 
HETATM    9  N12 UNL     1     -34.744   4.367   4.709  1.00 20.00    -0.389 N 
HETATM   10  H25 UNL     1     -35.083   3.793   5.468  1.00 20.00     0.159 HD
ENDROOT
BRANCH   4  11
HETATM   11  C11 UNL     1     -31.992   7.727   2.635  1.00 20.00     0.019 A 
HETATM   12  C8  UNL     1     -31.815   9.206   2.394  1.00 20.00     0.010 A 
HETATM   13  C9  UNL     1     -32.697   8.404   1.487  1.00 20.00     0.010 A 
ENDBRANCH   4  11
TORSDOF 1
ENDMDL
MODEL 3
REMARK VINA RESULT:      -4.7     11.445     12.086
REMARK  1 active torsions:
REMARK  status: ('A' for Active; 'I' for Inactive)
REMARK    1  A    between atoms: C4_4  and  C11_11 
ROOT
HETATM    1  C1  UNL     1     -31.031  18.718   1.218  1.00 20.00     0.003 A 
HETATM    2  C2  UNL     1     -31.792  18.500   0.059  1.00 20.00     0.008 A 
HETATM    3  C3  UNL     1     -31.654  18.953   2.446  1.00 20.00     0.029 A 
HETATM    4  C4  UNL     1     -33.187  18.517   0.110  1.00 20.00    -0.045 A 
HETATM    5  C5  UNL     1     -33.789  18.741   1.336  1.00 20.00    -0.024 A 
HETATM    6  C6  UNL     1     -33.037  18.940   2.496  1.00 20.00     0.035 A 
HETATM    7  C7  UNL     1     -35.242  18.868   1.661  1.00 20.00     0.061 C 
HETATM    8  C10 UNL     1     -35.210  18.887   3.205  1.00 20.00     0.124 C 
HETATM    9  N12 UNL     1     -33.844  19.205   3.602  1.00 20.00    -0.389 N 
HETATM   10  H25 UNL     1     -33.505  19.104   4.548  1.00 20.00     0.159 HD
ENDROOT
BRANCH   4  11
HETATM   11  C11 UNL     1     -33.991  18.311  -1.125  1.00 20.00     0.019 A 
HETATM   12  C8  UNL     1     -34.651  16.974  -1.358  1.00 20.00     0.010 A 
HETATM   13  C9  UNL     1     -33.475  17.377  -2.191  1.00 20.00     0.010 A 
ENDBRANCH   4  11
TORSDOF 1
ENDMDL
MODEL 4
REMARK VINA RESULT:      -4.6     11.521     11.949
REMARK  1 active torsions:
REMARK  status: ('A' for Active; 'I' for Inactive)
REMARK    1  A    between atoms: C4_4  and  C11_11 
ROOT
HETATM    1  C1  UNL     1     -35.958  17.764   0.676  1.00 20.00     0.003 A 
HETATM    2  C2  UNL     1     -35.491  17.325  -0.573  1.00 20.00     0.008 A 
HETATM    3  C3  UNL     1     -35.092  18.379   1.584  1.00 20.00     0.029 A 
HETATM    4  C4  UNL     1     -34.151  17.490  -0.930  1.00 20.00    -0.045 A 
HETATM    5  C5  UNL     1     -33.309  18.109  -0.023  1.00 20.00    -0.024 A 
HETATM    6  C6  UNL     1     -33.772  18.565   1.214  1.00 20.00     0.035 A 
HETATM    7  C7  UNL     1     -31.840  18.357  -0.122  1.00 20.00     0.061 C 
HETATM    8  C10 UNL     1     -31.597  19.262   1.105  1.00 20.00     0.124 C 
HETATM    9  N12 UNL     1     -32.746  19.102   1.989  1.00 20.00    -0.389 N 
HETATM   10  H25 UNL     1     -32.929  19.712   2.773  1.00 20.00     0.159 HD
ENDROOT
BRANCH   4  11
HETATM   11  C11 UNL     1     -33.654  17.001  -2.244  1.00 20.00     0.019 A 
HETATM   12  C8  UNL     1     -34.196  17.616  -3.510  1.00 20.00     0.010 A 
HETATM   13  C9  UNL     1     -34.585  16.219  -3.138  1.00 20.00     0.010 A 
ENDBRANCH   4  11
TORSDOF 1
ENDMDL
MODEL 5
REMARK VINA RESULT:      -4.6     11.496     12.100
REMARK  1 active torsions:
REMARK  status: ('A' for Active; 'I' for Inactive)
REMARK    1  A    between atoms: C4_4  and  C11_11 
ROOT
HETATM    1  C1  UNL     1     -33.098  14.954  -4.637  1.00 20.00     0.003 A 
HETATM    2  C2  UNL     1     -33.584  15.691  -3.546  1.00 20.00     0.008 A 
HETATM    3  C3  UNL     1     -33.979  14.355  -5.541  1.00 20.00     0.029 A 
HETATM    4  C4  UNL     1     -34.957  15.836  -3.340  1.00 20.00    -0.045 A 
HETATM    5  C5  UNL     1     -35.816  15.245  -4.250  1.00 20.00    -0.024 A 
HETATM    6  C6  UNL     1     -35.338  14.526  -5.349  1.00 20.00     0.035 A 
HETATM    7  C7  UNL     1     -37.309  15.193  -4.237  1.00 20.00     0.061 C 
HETATM    8  C10 UNL     1     -37.607  14.588  -5.626  1.00 20.00     0.124 C 
HETATM    9  N12 UNL     1     -36.374  13.970  -6.098  1.00 20.00    -0.389 N 
HETATM   10  H25 UNL     1     -36.239  13.660  -7.050  1.00 20.00     0.159 HD
ENDROOT
BRANCH   4  11
HETATM   11  C11 UNL     1     -35.469  16.596  -2.168  1.00 20.00     0.019 A 
HETATM   12  C8  UNL     1     -35.329  18.098  -2.148  1.00 20.00     0.010 A 
HETATM   13  C9  UNL     1     -34.486  17.261  -1.236  1.00 20.00     0.010 A 
ENDBRANCH   4  11
TORSDOF 1
ENDMDL
MODEL 6
REMARK VINA RESULT:      -4.5     11.056     11.930
REMARK  1 active torsions:
REMARK  status: ('A' for Active; 'I' for Inactive)
REMARK    1  A    between atoms: C4_4  and  C11_11 
ROOT
HETATM    1  C1  UNL     1     -37.341  14.771  -4.666  1.00 20.00     0.003 A 
HETATM    2  C2  UNL     1     -37.077  15.841  -3.797  1.00 20.00     0.008 A 
HETATM    3  C3  UNL     1     -36.296  14.017  -5.205  1.00 20.00     0.029 A 
HETATM    4  C4  UNL     1     -35.765  16.175  -3.457  1.00 20.00    -0.045 A 
HETATM    5  C5  UNL     1     -34.742  15.413  -3.991  1.00 20.00    -0.024 A 
HETATM    6  C6  UNL     1     -34.999  14.335  -4.843  1.00 20.00     0.035 A 
HETATM    7  C7  UNL     1     -33.266  15.585  -3.844  1.00 20.00     0.061 C 
HETATM    8  C10 UNL     1     -32.739  14.290  -4.501  1.00 20.00     0.124 C 
HETATM    9  N12 UNL     1     -33.824  13.747  -5.308  1.00 20.00    -0.389 N 
HETATM   10  H25 UNL     1     -33.810  12.815  -5.699  1.00 20.00     0.159 HD
ENDROOT
BRANCH   4  11
HETATM   11  C11 UNL     1     -35.488  17.326  -2.555  1.00 20.00     0.019 A 
HETATM   12  C8  UNL     1     -35.366  17.084  -1.071  1.00 20.00     0.010 A 
HETATM   13  C9  UNL     1     -36.567  17.797  -1.611  1.00 20.00     0.010 A 
ENDBRANCH   4  11
TORSDOF 1
ENDMDL
MODEL 7
REMARK VINA RESULT:      -4.5     11.207     12.835
REMARK  1 active torsions:
REMARK  status: ('A' for Active; 'I' for Inactive)
REMARK    1  A    between atoms: C4_4  and  C11_11 
ROOT
HETATM    1  C1  UNL     1     -33.979  17.639  -6.334  1.00 20.00     0.003 A 
HETATM    2  C2  UNL     1     -33.697  17.570  -4.961  1.00 20.00     0.008 A 
HETATM    3  C3  UNL     1     -34.593  16.569  -6.990  1.00 20.00     0.029 A 
HETATM    4  C4  UNL     1     -34.020  16.428  -4.225  1.00 20.00    -0.045 A 
HETATM    5  C5  UNL     1     -34.636  15.381  -4.888  1.00 20.00    -0.024 A 
HETATM    6  C6  UNL     1     -34.936  15.452  -6.250  1.00 20.00     0.035 A 
HETATM    7  C7  UNL     1     -35.030  14.039  -4.364  1.00 20.00     0.061 C 
HETATM    8  C10 UNL     1     -35.844  13.474  -5.548  1.00 20.00     0.124 C 
HETATM    9  N12 UNL     1     -35.499  14.267  -6.722  1.00 20.00    -0.389 N 
HETATM   10  H25 UNL     1     -36.019  14.229  -7.588  1.00 20.00     0.159 HD
ENDROOT
BRANCH   4  11
HETATM   11  C11 UNL     1     -33.696  16.348  -2.775  1.00 20.00     0.019 A 
HETATM   12  C8  UNL     1     -34.675  16.904  -1.771  1.00 20.00     0.010 A 
HETATM   13  C9  UNL     1     -33.381  17.615  -2.020  1.00 20.00     0.010 A 
ENDBRANCH   4  11
TORSDOF 1
ENDMDL
MODEL 8
REMARK VINA RESULT:      -4.4     11.626     11.976
REMARK  1 active torsions:
REMARK  status: ('A' for Active; 'I' for Inactive)
REMARK    1  A    between atoms: C4_4  and  C11_11 
ROOT
HETATM    1  C1  UNL     1     -33.213  17.395  -2.059  1.00 20.00     0.003 A 
HETATM    2  C2  UNL     1     -32.448  18.098  -1.115  1.00 20.00     0.008 A 
HETATM    3  C3  UNL     1     -34.565  17.128  -1.826  1.00 20.00     0.029 A 
HETATM    4  C4  UNL     1     -33.022  18.540   0.078  1.00 20.00    -0.045 A 
HETATM    5  C5  UNL     1     -34.364  18.277   0.290  1.00 20.00    -0.024 A 
HETATM    6  C6  UNL     1     -35.135  17.594  -0.654  1.00 20.00     0.035 A 
HETATM    7  C7  UNL     1     -35.204  18.580   1.487  1.00 20.00     0.061 C 
HETATM    8  C10 UNL     1     -36.615  18.224   0.971  1.00 20.00     0.124 C 
HETATM    9  N12 UNL     1     -36.440  17.388  -0.211  1.00 20.00    -0.389 N 
HETATM   10  H25 UNL     1     -37.193  17.165  -0.847  1.00 20.00     0.159 HD
ENDROOT
BRANCH   4  11
HETATM   11  C11 UNL     1     -32.202  19.263   1.088  1.00 20.00     0.019 A 
HETATM   12  C8  UNL     1     -30.913  18.642   1.568  1.00 20.00     0.010 A 
HETATM   13  C9  UNL     1     -32.096  18.705   2.485  1.00 20.00     0.010 A 
ENDBRANCH   4  11
TORSDOF 1
ENDMDL
MODEL 9
REMARK VINA RESULT:      -4.3     11.507     12.655
REMARK  1 active torsions:
REMARK  status: ('A' for Active; 'I' for Inactive)
REMARK    1  A    between atoms: C4_4  and  C11_11 
ROOT
HETATM    1  C1  UNL     1     -34.550  15.900  -3.235  1.00 20.00     0.003 A 
HETATM    2  C2  UNL     1     -35.944  15.914  -3.400  1.00 20.00     0.008 A 
HETATM    3  C3  UNL     1     -33.735  15.186  -4.117  1.00 20.00     0.029 A 
HETATM    4  C4  UNL     1     -36.543  15.211  -4.447  1.00 20.00    -0.045 A 
HETATM    5  C5  UNL     1     -35.722  14.517  -5.317  1.00 20.00    -0.024 A 
HETATM    6  C6  UNL     1     -34.333  14.514  -5.169  1.00 20.00     0.035 A 
HETATM    7  C7  UNL     1     -36.097  13.645  -6.470  1.00 20.00     0.061 C 
HETATM    8  C10 UNL     1     -34.720  13.380  -7.116  1.00 20.00     0.124 C 
HETATM    9  N12 UNL     1     -33.708  13.706  -6.117  1.00 20.00    -0.389 N 
HETATM   10  H25 UNL     1     -32.726  13.795  -6.334  1.00 20.00     0.159 HD
ENDROOT
BRANCH   4  11
HETATM   11  C11 UNL     1     -38.023  15.207  -4.604  1.00 20.00     0.019 A 
HETATM   12  C8  UNL     1     -38.658  16.137  -5.608  1.00 20.00     0.010 A 
HETATM   13  C9  UNL     1     -38.815  16.406  -4.143  1.00 20.00     0.010 A 
ENDBRANCH   4  11
TORSDOF 1
ENDMDL
