MODEL 1
REMARK VINA RESULT:      -5.0      0.000      0.000
REMARK  0 active torsions:
REMARK  status: ('A' for Active; 'I' for Inactive)
ROOT
HETATM    1  C1  UNL     1     -32.782   8.236   1.953  1.00 20.00    -0.025 C 
HETATM    2  C2  UNL     1     -33.596   8.739   2.896  1.00 20.00    -0.025 C 
HETATM    3  C3  UNL     1     -33.216   4.543   2.897  1.00 20.00    -0.024 C 
HETATM    4  C4  UNL     1     -33.916   4.239   3.994  1.00 20.00    -0.025 C 
HETATM    5  C5  UNL     1     -32.216   7.227   3.947  1.00 20.00     0.018 C 
HETATM    6  C6  UNL     1     -32.302   6.892   2.452  1.00 20.00     0.016 C 
HETATM    7  C7  UNL     1     -33.663   7.724   4.021  1.00 20.00     0.014 C 
HETATM    8  C8  UNL     1     -33.508   5.921   2.398  1.00 20.00     0.021 C 
HETATM    9  C9  UNL     1     -34.822   5.349   4.435  1.00 20.00     0.009 C 
HETATM   10  C10 UNL     1     -34.482   6.516   3.481  1.00 20.00     0.009 C 
HETATM   11  C11 UNL     1     -34.705   5.656   5.922  1.00 20.00     0.014 C 
ENDROOT
TORSDOF 0
ENDMDL
MODEL 2
REMARK VINA RESULT:      -4.8      0.833      3.313
REMARK  0 active torsions:
REMARK  status: ('A' for Active; 'I' for Inactive)
ROOT
HETATM    1  C1  UNL     1     -34.670   5.094   5.880  1.00 20.00    -0.025 C 
HETATM    2  C2  UNL     1     -34.430   6.404   6.044  1.00 20.00    -0.025 C 
HETATM    3  C3  UNL     1     -33.135   4.782   2.378  1.00 20.00    -0.024 C 
HETATM    4  C4  UNL     1     -32.725   5.890   1.756  1.00 20.00    -0.025 C 
HETATM    5  C5  UNL     1     -35.357   6.156   3.953  1.00 20.00     0.018 C 
HETATM    6  C6  UNL     1     -34.715   4.833   4.391  1.00 20.00     0.016 C 
HETATM    7  C7  UNL     1     -34.306   7.016   4.661  1.00 20.00     0.014 C 
HETATM    8  C8  UNL     1     -33.269   4.972   3.855  1.00 20.00     0.021 C 
HETATM    9  C9  UNL     1     -32.493   7.035   2.695  1.00 20.00     0.009 C 
HETATM   10  C10 UNL     1     -32.964   6.501   4.067  1.00 20.00     0.009 C 
HETATM   11  C11 UNL     1     -33.148   8.328   2.230  1.00 20.00     0.014 C 
ENDROOT
TORSDOF 0
ENDMDL
MODEL 3
REMARK VINA RESULT:      -4.6     11.451     12.538
REMARK  0 active torsions:
REMARK  status: ('A' for Active; 'I' for Inactive)
ROOT
HETATM    1  C1  UNL     1     -35.235  13.615  -6.475  1.00 20.00    -0.025 C 
HETATM    2  C2  UNL     1     -35.918  13.344  -5.351  1.00 20.00    -0.025 C 
HETATM    3  C3  UNL     1     -33.293  16.630  -5.114  1.00 20.00    -0.024 C 
HETATM    4  C4  UNL     1     -33.587  17.085  -3.893  1.00 20.00    -0.025 C 
HETATM    5  C5  UNL     1     -36.104  15.609  -5.711  1.00 20.00     0.018 C 
HETATM    6  C6  UNL     1     -34.852  15.076  -6.420  1.00 20.00     0.016 C 
HETATM    7  C7  UNL     1     -35.983  14.626  -4.543  1.00 20.00     0.014 C 
HETATM    8  C8  UNL     1     -33.763  15.228  -5.329  1.00 20.00     0.021 C 
HETATM    9  C9  UNL     1     -34.301  16.072  -3.049  1.00 20.00     0.009 C 
HETATM   10  C10 UNL     1     -34.545  14.885  -4.007  1.00 20.00     0.009 C 
HETATM   11  C11 UNL     1     -35.539  16.636  -2.366  1.00 20.00     0.014 C 
ENDROOT
TORSDOF 0
ENDMDL
MODEL 4
REMARK VINA RESULT:      -4.6     11.839     12.806
REMARK  0 active torsions:
REMARK  status: ('A' for Active; 'I' for Inactive)
ROOT
HETATM    1  C1  UNL     1     -33.654  18.607   0.103  1.00 20.00    -0.025 C 
HETATM    2  C2  UNL     1     -32.538  18.507  -0.637  1.00 20.00    -0.025 C 
HETATM    3  C3  UNL     1     -35.970  16.725  -2.307  1.00 20.00    -0.024 C 
HETATM    4  C4  UNL     1     -35.496  16.364  -3.502  1.00 20.00    -0.025 C 
HETATM    5  C5  UNL     1     -34.213  19.205  -2.052  1.00 20.00     0.018 C 
HETATM    6  C6  UNL     1     -34.827  18.486  -0.844  1.00 20.00     0.016 C 
HETATM    7  C7  UNL     1     -32.969  18.311  -2.078  1.00 20.00     0.014 C 
HETATM    8  C8  UNL     1     -34.882  17.015  -1.325  1.00 20.00     0.021 C 
HETATM    9  C9  UNL     1     -33.998  16.330  -3.550  1.00 20.00     0.009 C 
HETATM   10  C10 UNL     1     -33.563  16.876  -2.172  1.00 20.00     0.009 C 
HETATM   11  C11 UNL     1     -33.426  17.056  -4.760  1.00 20.00     0.014 C 
ENDROOT
TORSDOF 0
ENDMDL
MODEL 5
REMARK VINA RESULT:      -4.6     11.392     12.781
REMARK  0 active torsions:
REMARK  status: ('A' for Active; 'I' for Inactive)
ROOT
HETATM    1  C1  UNL     1     -34.135  16.902  -1.980  1.00 20.00    -0.025 C 
HETATM    2  C2  UNL     1     -33.402  17.701  -2.772  1.00 20.00    -0.025 C 
HETATM    3  C3  UNL     1     -34.950  14.254  -4.632  1.00 20.00    -0.024 C 
HETATM    4  C4  UNL     1     -34.582  14.477  -5.897  1.00 20.00    -0.025 C 
HETATM    5  C5  UNL     1     -35.325  17.198  -3.931  1.00 20.00     0.018 C 
HETATM    6  C6  UNL     1     -35.061  16.114  -2.878  1.00 20.00     0.016 C 
HETATM    7  C7  UNL     1     -33.837  17.440  -4.202  1.00 20.00     0.014 C 
HETATM    8  C8  UNL     1     -34.192  15.097  -3.660  1.00 20.00     0.021 C 
HETATM    9  C9  UNL     1     -33.498  15.505  -6.017  1.00 20.00     0.009 C 
HETATM   10  C10 UNL     1     -33.309  16.025  -4.574  1.00 20.00     0.009 C 
HETATM   11  C11 UNL     1     -33.798  16.565  -7.067  1.00 20.00     0.014 C 
ENDROOT
TORSDOF 0
ENDMDL
MODEL 6
REMARK VINA RESULT:      -4.4     11.169     12.891
REMARK  0 active torsions:
REMARK  status: ('A' for Active; 'I' for Inactive)
ROOT
HETATM    1  C1  UNL     1     -33.795  16.317  -2.981  1.00 20.00    -0.025 C 
HETATM    2  C2  UNL     1     -35.130  16.193  -2.916  1.00 20.00    -0.025 C 
HETATM    3  C3  UNL     1     -33.454  15.614  -6.736  1.00 20.00    -0.024 C 
HETATM    4  C4  UNL     1     -34.538  15.237  -7.420  1.00 20.00    -0.025 C 
HETATM    5  C5  UNL     1     -34.351  14.378  -4.096  1.00 20.00     0.018 C 
HETATM    6  C6  UNL     1     -33.333  15.523  -4.182  1.00 20.00     0.016 C 
HETATM    7  C7  UNL     1     -35.559  15.319  -4.080  1.00 20.00     0.014 C 
HETATM    8  C8  UNL     1     -33.797  16.286  -5.447  1.00 20.00     0.021 C 
HETATM    9  C9  UNL     1     -35.818  15.594  -6.727  1.00 20.00     0.009 C 
HETATM   10  C10 UNL     1     -35.364  16.171  -5.367  1.00 20.00     0.009 C 
HETATM   11  C11 UNL     1     -36.800  14.433  -6.658  1.00 20.00     0.014 C 
ENDROOT
TORSDOF 0
ENDMDL
MODEL 7
REMARK VINA RESULT:      -4.4     11.637     12.557
REMARK  0 active torsions:
REMARK  status: ('A' for Active; 'I' for Inactive)
ROOT
HETATM    1  C1  UNL     1     -34.415  16.168  -4.424  1.00 20.00    -0.025 C 
HETATM    2  C2  UNL     1     -35.642  15.905  -3.947  1.00 20.00    -0.025 C 
HETATM    3  C3  UNL     1     -33.112  18.033  -1.336  1.00 20.00    -0.024 C 
HETATM    4  C4  UNL     1     -33.961  18.294  -0.338  1.00 20.00    -0.025 C 
HETATM    5  C5  UNL     1     -35.229  18.130  -3.530  1.00 20.00     0.018 C 
HETATM    6  C6  UNL     1     -33.900  17.380  -3.682  1.00 20.00     0.016 C 
HETATM    7  C7  UNL     1     -35.941  16.940  -2.879  1.00 20.00     0.014 C 
HETATM    8  C8  UNL     1     -33.599  16.937  -2.228  1.00 20.00     0.021 C 
HETATM    9  C9  UNL     1     -35.176  17.416  -0.360  1.00 20.00     0.009 C 
HETATM   10  C10 UNL     1     -35.029  16.600  -1.665  1.00 20.00     0.009 C 
HETATM   11  C11 UNL     1     -36.474  18.195  -0.211  1.00 20.00     0.014 C 
ENDROOT
TORSDOF 0
ENDMDL
MODEL 8
REMARK VINA RESULT:      -4.4     11.527     12.489
REMARK  0 active torsions:
REMARK  status: ('A' for Active; 'I' for Inactive)
ROOT
HETATM    1  C1  UNL     1     -34.948  17.007  -1.478  1.00 20.00    -0.025 C 
HETATM    2  C2  UNL     1     -33.674  17.099  -1.894  1.00 20.00    -0.025 C 
HETATM    3  C3  UNL     1     -36.274  15.047  -4.497  1.00 20.00    -0.024 C 
HETATM    4  C4  UNL     1     -35.459  14.837  -5.535  1.00 20.00    -0.025 C 
HETATM    5  C5  UNL     1     -35.000  17.694  -3.678  1.00 20.00     0.018 C 
HETATM    6  C6  UNL     1     -35.804  16.818  -2.710  1.00 20.00     0.016 C 
HETATM    7  C7  UNL     1     -33.683  16.962  -3.405  1.00 20.00     0.014 C 
HETATM    8  C8  UNL     1     -35.530  15.391  -3.247  1.00 20.00     0.021 C 
HETATM    9  C9  UNL     1     -34.011  14.988  -5.179  1.00 20.00     0.009 C 
HETATM   10  C10 UNL     1     -34.030  15.477  -3.713  1.00 20.00     0.009 C 
HETATM   11  C11 UNL     1     -33.247  15.868  -6.159  1.00 20.00     0.014 C 
ENDROOT
TORSDOF 0
ENDMDL
MODEL 9
REMARK VINA RESULT:      -4.3     11.314     12.607
REMARK  0 active torsions:
REMARK  status: ('A' for Active; 'I' for Inactive)
ROOT
HETATM    1  C1  UNL     1     -34.625  16.170  -2.995  1.00 20.00    -0.025 C 
HETATM    2  C2  UNL     1     -33.658  16.623  -3.808  1.00 20.00    -0.025 C 
HETATM    3  C3  UNL     1     -35.924  13.409  -5.320  1.00 20.00    -0.024 C 
HETATM    4  C4  UNL     1     -35.426  13.325  -6.557  1.00 20.00    -0.025 C 
HETATM    5  C5  UNL     1     -35.563  16.429  -5.084  1.00 20.00     0.018 C 
HETATM    6  C6  UNL     1     -35.662  15.500  -3.867  1.00 20.00     0.016 C 
HETATM    7  C7  UNL     1     -34.049  16.247  -5.225  1.00 20.00     0.014 C 
HETATM    8  C8  UNL     1     -35.039  14.186  -4.400  1.00 20.00     0.021 C 
HETATM    9  C9  UNL     1     -34.105  14.019  -6.703  1.00 20.00     0.009 C 
HETATM   10  C10 UNL     1     -33.884  14.704  -5.336  1.00 20.00     0.009 C 
HETATM   11  C11 UNL     1     -34.046  14.934  -7.918  1.00 20.00     0.014 C 
ENDROOT
TORSDOF 0
ENDMDL
