MODEL 1
REMARK VINA RESULT:      -6.3      0.000      0.000
REMARK  0 active torsions:
REMARK  status: ('A' for Active; 'I' for Inactive)
ROOT
HETATM    1  C1  UNL     1     -34.505   5.206   6.065  1.00 20.00     0.002 C 
HETATM    2  C2  UNL     1     -34.305   6.510   5.819  1.00 20.00     0.028 C 
HETATM    3  C3  UNL     1     -34.310   4.180   5.054  1.00 20.00    -0.003 C 
HETATM    4  C4  UNL     1     -34.228   4.495   3.750  1.00 20.00    -0.012 C 
HETATM    5  C5  UNL     1     -33.467   6.441   2.274  1.00 20.00     0.027 C 
HETATM    6  C6  UNL     1     -32.830   7.513   2.759  1.00 20.00     0.100 C 
HETATM    7  C7  UNL     1     -33.895   6.818   4.434  1.00 20.00     0.047 C 
HETATM    8  C8  UNL     1     -34.390   5.913   3.315  1.00 20.00     0.085 C 
HETATM    9  N9  UNL     1     -33.092   7.773   4.080  1.00 20.00    -0.245 NA
HETATM   10 BR10 UNL     1     -31.631   8.567   1.834  1.00 20.00    -0.029 Br
ENDROOT
TORSDOF 0
ENDMDL
MODEL 2
REMARK VINA RESULT:      -6.1      1.295      2.243
REMARK  0 active torsions:
REMARK  status: ('A' for Active; 'I' for Inactive)
ROOT
HETATM    1  C1  UNL     1     -34.616   5.530   4.903  1.00 20.00     0.002 C 
HETATM    2  C2  UNL     1     -34.173   5.453   3.638  1.00 20.00     0.028 C 
HETATM    3  C3  UNL     1     -34.297   6.646   5.777  1.00 20.00    -0.003 C 
HETATM    4  C4  UNL     1     -33.298   7.496   5.484  1.00 20.00    -0.012 C 
HETATM    5  C5  UNL     1     -32.107   8.446   3.429  1.00 20.00     0.027 C 
HETATM    6  C6  UNL     1     -32.536   8.234   2.179  1.00 20.00     0.100 C 
HETATM    7  C7  UNL     1     -33.318   6.580   3.217  1.00 20.00     0.047 C 
HETATM    8  C8  UNL     1     -32.461   7.271   4.269  1.00 20.00     0.085 C 
HETATM    9  N9  UNL     1     -33.268   7.084   2.023  1.00 20.00    -0.245 NA
HETATM   10 BR10 UNL     1     -32.281   9.364   0.743  1.00 20.00    -0.029 Br
ENDROOT
TORSDOF 0
ENDMDL
MODEL 3
REMARK VINA RESULT:      -4.6     12.195     12.703
REMARK  0 active torsions:
REMARK  status: ('A' for Active; 'I' for Inactive)
ROOT
HETATM    1  C1  UNL     1     -35.544  17.009  -1.126  1.00 20.00     0.002 C 
HETATM    2  C2  UNL     1     -35.445  17.772  -0.026  1.00 20.00     0.028 C 
HETATM    3  C3  UNL     1     -34.406  16.714  -1.980  1.00 20.00    -0.003 C 
HETATM    4  C4  UNL     1     -33.272  17.432  -1.901  1.00 20.00    -0.012 C 
HETATM    5  C5  UNL     1     -31.940  18.760  -0.166  1.00 20.00     0.027 C 
HETATM    6  C6  UNL     1     -32.250  18.767   1.135  1.00 20.00     0.100 C 
HETATM    7  C7  UNL     1     -34.092  18.305   0.231  1.00 20.00     0.047 C 
HETATM    8  C8  UNL     1     -33.187  18.587  -0.960  1.00 20.00     0.085 C 
HETATM    9  N9  UNL     1     -33.571  18.507   1.401  1.00 20.00    -0.245 NA
HETATM   10 BR10 UNL     1     -31.065  19.022   2.526  1.00 20.00    -0.029 Br
ENDROOT
TORSDOF 0
ENDMDL
MODEL 4
REMARK VINA RESULT:      -4.4     12.438     12.830
REMARK  0 active torsions:
REMARK  status: ('A' for Active; 'I' for Inactive)
ROOT
HETATM    1  C1  UNL     1     -31.418  18.947   2.500  1.00 20.00     0.002 C 
HETATM    2  C2  UNL     1     -31.108  19.046   1.198  1.00 20.00     0.028 C 
HETATM    3  C3  UNL     1     -32.727  18.516   2.962  1.00 20.00    -0.003 C 
HETATM    4  C4  UNL     1     -33.785  18.497   2.133  1.00 20.00    -0.012 C 
HETATM    5  C5  UNL     1     -34.289  18.186  -0.356  1.00 20.00     0.027 C 
HETATM    6  C6  UNL     1     -33.359  17.813  -1.242  1.00 20.00     0.100 C 
HETATM    7  C7  UNL     1     -32.210  18.706   0.276  1.00 20.00     0.047 C 
HETATM    8  C8  UNL     1     -33.639  18.973   0.727  1.00 20.00     0.085 C 
HETATM    9  N9  UNL     1     -32.076  18.138  -0.882  1.00 20.00    -0.245 NA
HETATM   10 BR10 UNL     1     -33.668  16.878  -2.802  1.00 20.00    -0.029 Br
ENDROOT
TORSDOF 0
ENDMDL
MODEL 5
REMARK VINA RESULT:      -4.4     12.089     12.550
REMARK  0 active torsions:
REMARK  status: ('A' for Active; 'I' for Inactive)
ROOT
HETATM    1  C1  UNL     1     -32.941  18.591   0.101  1.00 20.00     0.002 C 
HETATM    2  C2  UNL     1     -32.616  18.306  -1.169  1.00 20.00     0.028 C 
HETATM    3  C3  UNL     1     -34.184  18.147   0.710  1.00 20.00    -0.003 C 
HETATM    4  C4  UNL     1     -35.207  17.706  -0.041  1.00 20.00    -0.012 C 
HETATM    5  C5  UNL     1     -35.598  16.533  -2.282  1.00 20.00     0.027 C 
HETATM    6  C6  UNL     1     -34.602  16.033  -3.021  1.00 20.00     0.100 C 
HETATM    7  C7  UNL     1     -33.633  17.528  -1.904  1.00 20.00     0.047 C 
HETATM    8  C8  UNL     1     -35.097  17.715  -1.530  1.00 20.00     0.085 C 
HETATM    9  N9  UNL     1     -33.389  16.641  -2.817  1.00 20.00    -0.245 NA
HETATM   10 BR10 UNL     1     -34.732  14.607  -4.185  1.00 20.00    -0.029 Br
ENDROOT
TORSDOF 0
ENDMDL
MODEL 6
REMARK VINA RESULT:      -4.3     11.863     12.385
REMARK  0 active torsions:
REMARK  status: ('A' for Active; 'I' for Inactive)
ROOT
HETATM    1  C1  UNL     1     -35.930  14.635  -4.544  1.00 20.00     0.002 C 
HETATM    2  C2  UNL     1     -36.481  15.672  -3.895  1.00 20.00     0.028 C 
HETATM    3  C3  UNL     1     -34.533  14.264  -4.385  1.00 20.00    -0.003 C 
HETATM    4  C4  UNL     1     -33.647  15.112  -3.836  1.00 20.00    -0.012 C 
HETATM    5  C5  UNL     1     -33.592  17.013  -2.124  1.00 20.00     0.027 C 
HETATM    6  C6  UNL     1     -34.644  17.333  -1.362  1.00 20.00     0.100 C 
HETATM    7  C7  UNL     1     -35.548  16.418  -3.027  1.00 20.00     0.047 C 
HETATM    8  C8  UNL     1     -34.080  16.480  -3.425  1.00 20.00     0.085 C 
HETATM    9  N9  UNL     1     -35.857  16.991  -1.905  1.00 20.00    -0.245 NA
HETATM   10 BR10 UNL     1     -34.570  18.098   0.315  1.00 20.00    -0.029 Br
ENDROOT
TORSDOF 0
ENDMDL
MODEL 7
REMARK VINA RESULT:      -4.2     11.831     12.373
REMARK  0 active torsions:
REMARK  status: ('A' for Active; 'I' for Inactive)
ROOT
HETATM    1  C1  UNL     1     -36.849  14.233  -5.024  1.00 20.00     0.002 C 
HETATM    2  C2  UNL     1     -37.139  15.421  -4.470  1.00 20.00     0.028 C 
HETATM    3  C3  UNL     1     -35.564  13.579  -4.845  1.00 20.00    -0.003 C 
HETATM    4  C4  UNL     1     -34.496  14.256  -4.388  1.00 20.00    -0.012 C 
HETATM    5  C5  UNL     1     -33.973  16.245  -2.866  1.00 20.00     0.027 C 
HETATM    6  C6  UNL     1     -34.905  16.857  -2.126  1.00 20.00     0.100 C 
HETATM    7  C7  UNL     1     -36.040  16.018  -3.687  1.00 20.00     0.047 C 
HETATM    8  C8  UNL     1     -34.607  15.717  -4.105  1.00 20.00     0.085 C 
HETATM    9  N9  UNL     1     -36.180  16.744  -2.621  1.00 20.00    -0.245 NA
HETATM   10 BR10 UNL     1     -34.613  17.735  -0.531  1.00 20.00    -0.029 Br
ENDROOT
TORSDOF 0
ENDMDL
MODEL 8
REMARK VINA RESULT:      -4.1     12.177     13.056
REMARK  0 active torsions:
REMARK  status: ('A' for Active; 'I' for Inactive)
ROOT
HETATM    1  C1  UNL     1     -34.736  13.891  -7.185  1.00 20.00     0.002 C 
HETATM    2  C2  UNL     1     -33.768  14.800  -6.992  1.00 20.00     0.028 C 
HETATM    3  C3  UNL     1     -35.670  13.509  -6.138  1.00 20.00    -0.003 C 
HETATM    4  C4  UNL     1     -35.425  13.799  -4.848  1.00 20.00    -0.012 C 
HETATM    5  C5  UNL     1     -34.214  15.574  -3.460  1.00 20.00     0.027 C 
HETATM    6  C6  UNL     1     -33.699  16.687  -3.996  1.00 20.00     0.100 C 
HETATM    7  C7  UNL     1     -33.712  15.359  -5.627  1.00 20.00     0.047 C 
HETATM    8  C8  UNL     1     -34.153  14.479  -4.466  1.00 20.00     0.085 C 
HETATM    9  N9  UNL     1     -33.368  16.572  -5.323  1.00 20.00    -0.245 NA
HETATM   10 BR10 UNL     1     -33.484  18.302  -3.131  1.00 20.00    -0.029 Br
ENDROOT
TORSDOF 0
ENDMDL
MODEL 9
REMARK VINA RESULT:      -4.1     12.170     12.521
REMARK  0 active torsions:
REMARK  status: ('A' for Active; 'I' for Inactive)
ROOT
HETATM    1  C1  UNL     1     -33.673  17.560  -1.159  1.00 20.00     0.002 C 
HETATM    2  C2  UNL     1     -33.284  17.052  -2.339  1.00 20.00     0.028 C 
HETATM    3  C3  UNL     1     -35.048  17.493  -0.693  1.00 20.00    -0.003 C 
HETATM    4  C4  UNL     1     -36.055  17.209  -1.536  1.00 20.00    -0.012 C 
HETATM    5  C5  UNL     1     -36.462  15.888  -3.690  1.00 20.00     0.027 C 
HETATM    6  C6  UNL     1     -35.540  15.084  -4.232  1.00 20.00     0.100 C 
HETATM    7  C7  UNL     1     -34.370  16.444  -3.133  1.00 20.00     0.047 C 
HETATM    8  C8  UNL     1     -35.776  17.008  -2.988  1.00 20.00     0.085 C 
HETATM    9  N9  UNL     1     -34.247  15.418  -3.917  1.00 20.00    -0.245 NA
HETATM   10 BR10 UNL     1     -35.880  13.593  -5.264  1.00 20.00    -0.029 Br
ENDROOT
TORSDOF 0
ENDMDL
