MODEL 1
REMARK VINA RESULT:      -4.8      0.000      0.000
REMARK  1 active torsions:
REMARK  status: ('A' for Active; 'I' for Inactive)
REMARK    1  A    between atoms: C6_6  and  C8_8 
ROOT
HETATM    1  C1  UNL     1     -33.595  17.619  -3.007  1.00 20.00     0.008 C 
HETATM    2  C2  UNL     1     -33.294  17.617  -4.315  1.00 20.00     0.028 C 
HETATM    3  C3  UNL     1     -35.055  15.670  -3.115  1.00 20.00    -0.005 C 
HETATM    4  C4  UNL     1     -35.291  15.773  -6.583  1.00 20.00     0.128 C 
HETATM    5  C5  UNL     1     -34.607  16.738  -2.425  1.00 20.00    -0.065 C 
HETATM    6  C6  UNL     1     -35.412  14.940  -5.547  1.00 20.00     0.011 C 
HETATM    7  C7  UNL     1     -34.054  16.644  -5.120  1.00 20.00     0.046 C 
HETATM    8  C9  UNL     1     -34.488  15.342  -4.457  1.00 20.00     0.098 C 
HETATM    9  C10 UNL     1     -35.091  17.081  -1.050  1.00 20.00     0.048 C 
HETATM   10  N11 UNL     1     -34.441  16.823  -6.348  1.00 20.00    -0.264 NA
ENDROOT
BRANCH   6  11
HETATM   11  C8  UNL     1     -36.262  13.765  -5.545  1.00 20.00     0.268 C 
HETATM   12  O12 UNL     1     -35.869  12.650  -5.198  1.00 20.00    -0.302 OA
ENDBRANCH   6  11
TORSDOF 1
ENDMDL
MODEL 2
REMARK VINA RESULT:      -4.8      5.420      7.359
REMARK  1 active torsions:
REMARK  status: ('A' for Active; 'I' for Inactive)
REMARK    1  A    between atoms: C6_6  and  C8_8 
ROOT
HETATM    1  C1  UNL     1     -33.411  18.067  -1.410  1.00 20.00     0.008 C 
HETATM    2  C2  UNL     1     -32.169  18.501  -1.144  1.00 20.00     0.028 C 
HETATM    3  C3  UNL     1     -34.223  18.308   0.875  1.00 20.00    -0.005 C 
HETATM    4  C4  UNL     1     -31.027  18.631   2.204  1.00 20.00     0.128 C 
HETATM    5  C5  UNL     1     -34.404  17.816  -0.367  1.00 20.00    -0.065 C 
HETATM    6  C6  UNL     1     -32.304  18.926   2.458  1.00 20.00     0.011 C 
HETATM    7  C7  UNL     1     -31.888  18.721   0.287  1.00 20.00     0.046 C 
HETATM    8  C9  UNL     1     -33.036  19.159   1.188  1.00 20.00     0.098 C 
HETATM    9  C10 UNL     1     -35.606  17.013  -0.757  1.00 20.00     0.048 C 
HETATM   10  N11 UNL     1     -30.743  18.518   0.868  1.00 20.00    -0.264 NA
ENDROOT
BRANCH   6  11
HETATM   11  C8  UNL     1     -32.851  19.083   3.792  1.00 20.00     0.268 C 
HETATM   12  O12 UNL     1     -33.294  18.141   4.453  1.00 20.00    -0.302 OA
ENDBRANCH   6  11
TORSDOF 1
ENDMDL
MODEL 3
REMARK VINA RESULT:      -4.7      2.000      3.184
REMARK  1 active torsions:
REMARK  status: ('A' for Active; 'I' for Inactive)
REMARK    1  A    between atoms: C6_6  and  C8_8 
ROOT
HETATM    1  C1  UNL     1     -33.660  18.508   0.207  1.00 20.00     0.008 C 
HETATM    2  C2  UNL     1     -32.767  18.830  -0.742  1.00 20.00     0.028 C 
HETATM    3  C3  UNL     1     -34.941  16.988  -1.203  1.00 20.00    -0.005 C 
HETATM    4  C4  UNL     1     -33.478  18.139  -4.140  1.00 20.00     0.128 C 
HETATM    5  C5  UNL     1     -34.850  17.704  -0.064  1.00 20.00    -0.065 C 
HETATM    6  C6  UNL     1     -34.106  17.079  -3.624  1.00 20.00     0.011 C 
HETATM    7  C7  UNL     1     -33.073  18.295  -2.081  1.00 20.00     0.046 C 
HETATM    8  C9  UNL     1     -33.808  16.964  -2.175  1.00 20.00     0.098 C 
HETATM    9  C10 UNL     1     -35.926  17.715   0.978  1.00 20.00     0.048 C 
HETATM   10  N11 UNL     1     -32.818  18.895  -3.206  1.00 20.00    -0.264 NA
ENDROOT
BRANCH   6  11
HETATM   11  C8  UNL     1     -34.883  16.137  -4.407  1.00 20.00     0.268 C 
HETATM   12  O12 UNL     1     -34.877  14.922  -4.199  1.00 20.00    -0.302 OA
ENDBRANCH   6  11
TORSDOF 1
ENDMDL
MODEL 4
REMARK VINA RESULT:      -4.7      1.265      1.472
REMARK  1 active torsions:
REMARK  status: ('A' for Active; 'I' for Inactive)
REMARK    1  A    between atoms: C6_6  and  C8_8 
ROOT
HETATM    1  C1  UNL     1     -34.454  17.588  -1.988  1.00 20.00     0.008 C 
HETATM    2  C2  UNL     1     -33.377  17.097  -2.619  1.00 20.00     0.028 C 
HETATM    3  C3  UNL     1     -36.049  16.110  -3.088  1.00 20.00    -0.005 C 
HETATM    4  C4  UNL     1     -33.785  15.149  -5.547  1.00 20.00     0.128 C 
HETATM    5  C5  UNL     1     -35.822  17.206  -2.336  1.00 20.00    -0.065 C 
HETATM    6  C6  UNL     1     -34.897  14.746  -4.928  1.00 20.00     0.011 C 
HETATM    7  C7  UNL     1     -33.680  16.125  -3.686  1.00 20.00     0.046 C 
HETATM    8  C9  UNL     1     -34.914  15.245  -3.530  1.00 20.00     0.098 C 
HETATM    9  C10 UNL     1     -36.922  18.074  -1.810  1.00 20.00     0.048 C 
HETATM   10  N11 UNL     1     -33.008  15.987  -4.790  1.00 20.00    -0.264 NA
ENDROOT
BRANCH   6  11
HETATM   11  C8  UNL     1     -35.886  13.868  -5.525  1.00 20.00     0.268 C 
HETATM   12  O12 UNL     1     -35.958  12.664  -5.272  1.00 20.00    -0.302 OA
ENDBRANCH   6  11
TORSDOF 1
ENDMDL
MODEL 5
REMARK VINA RESULT:      -4.6      1.511      1.687
REMARK  1 active torsions:
REMARK  status: ('A' for Active; 'I' for Inactive)
REMARK    1  A    between atoms: C6_6  and  C8_8 
ROOT
HETATM    1  C1  UNL     1     -33.293  15.799  -3.578  1.00 20.00     0.008 C 
HETATM    2  C2  UNL     1     -33.088  15.301  -4.807  1.00 20.00     0.028 C 
HETATM    3  C3  UNL     1     -35.712  15.509  -3.624  1.00 20.00    -0.005 C 
HETATM    4  C4  UNL     1     -35.799  14.995  -7.062  1.00 20.00     0.128 C 
HETATM    5  C5  UNL     1     -34.627  16.054  -3.039  1.00 20.00    -0.065 C 
HETATM    6  C6  UNL     1     -36.489  14.749  -5.946  1.00 20.00     0.011 C 
HETATM    7  C7  UNL     1     -34.318  15.015  -5.569  1.00 20.00     0.046 C 
HETATM    8  C9  UNL     1     -35.563  14.596  -4.796  1.00 20.00     0.098 C 
HETATM    9  C10 UNL     1     -34.710  16.925  -1.823  1.00 20.00     0.048 C 
HETATM   10  N11 UNL     1     -34.453  15.145  -6.855  1.00 20.00    -0.264 NA
ENDROOT
BRANCH   6  11
HETATM   11  C8  UNL     1     -37.927  14.567  -5.904  1.00 20.00     0.268 C 
HETATM   12  O12 UNL     1     -38.502  13.942  -5.009  1.00 20.00    -0.302 OA
ENDBRANCH   6  11
TORSDOF 1
ENDMDL
MODEL 6
REMARK VINA RESULT:      -4.6      3.664      5.419
REMARK  1 active torsions:
REMARK  status: ('A' for Active; 'I' for Inactive)
REMARK    1  A    between atoms: C6_6  and  C8_8 
ROOT
HETATM    1  C1  UNL     1     -33.194  19.078   2.094  1.00 20.00     0.008 C 
HETATM    2  C2  UNL     1     -34.471  18.818   1.774  1.00 20.00     0.028 C 
HETATM    3  C3  UNL     1     -32.299  18.524  -0.104  1.00 20.00    -0.005 C 
HETATM    4  C4  UNL     1     -35.213  16.924  -1.124  1.00 20.00     0.128 C 
HETATM    5  C5  UNL     1     -32.076  18.779   1.201  1.00 20.00    -0.065 C 
HETATM    6  C6  UNL     1     -34.128  17.536  -1.604  1.00 20.00     0.011 C 
HETATM    7  C7  UNL     1     -34.661  18.220   0.439  1.00 20.00     0.046 C 
HETATM    8  C9  UNL     1     -33.681  18.596  -0.665  1.00 20.00     0.098 C 
HETATM    9  C10 UNL     1     -30.706  18.786   1.807  1.00 20.00     0.048 C 
HETATM   10  N11 UNL     1     -35.571  17.345   0.130  1.00 20.00    -0.264 NA
ENDROOT
BRANCH   6  11
HETATM   11  C8  UNL     1     -33.544  17.254  -2.902  1.00 20.00     0.268 C 
HETATM   12  O12 UNL     1     -33.522  16.126  -3.399  1.00 20.00    -0.302 OA
ENDBRANCH   6  11
TORSDOF 1
ENDMDL
MODEL 7
REMARK VINA RESULT:      -4.5      4.057      6.138
REMARK  1 active torsions:
REMARK  status: ('A' for Active; 'I' for Inactive)
REMARK    1  A    between atoms: C6_6  and  C8_8 
ROOT
HETATM    1  C1  UNL     1     -33.089  17.582  -1.923  1.00 20.00     0.008 C 
HETATM    2  C2  UNL     1     -32.610  18.308  -0.901  1.00 20.00     0.028 C 
HETATM    3  C3  UNL     1     -35.344  17.391  -1.020  1.00 20.00    -0.005 C 
HETATM    4  C4  UNL     1     -34.392  18.442   2.154  1.00 20.00     0.128 C 
HETATM    5  C5  UNL     1     -34.422  16.981  -1.914  1.00 20.00    -0.065 C 
HETATM    6  C6  UNL     1     -35.455  18.359   1.351  1.00 20.00     0.011 C 
HETATM    7  C7  UNL     1     -33.542  18.467   0.230  1.00 20.00     0.046 C 
HETATM    8  C9  UNL     1     -35.037  18.498  -0.066  1.00 20.00     0.098 C 
HETATM    9  C10 UNL     1     -34.693  15.922  -2.937  1.00 20.00     0.048 C 
HETATM   10  N11 UNL     1     -33.201  18.529   1.483  1.00 20.00    -0.264 NA
ENDROOT
BRANCH   6  11
HETATM   11  C8  UNL     1     -36.822  18.243   1.823  1.00 20.00     0.268 C 
HETATM   12  O12 UNL     1     -37.797  18.603   1.158  1.00 20.00    -0.302 OA
ENDBRANCH   6  11
TORSDOF 1
ENDMDL
MODEL 8
REMARK VINA RESULT:      -4.5      2.437      4.577
REMARK  1 active torsions:
REMARK  status: ('A' for Active; 'I' for Inactive)
REMARK    1  A    between atoms: C6_6  and  C8_8 
ROOT
HETATM    1  C1  UNL     1     -35.901  13.696  -6.566  1.00 20.00     0.008 C 
HETATM    2  C2  UNL     1     -36.773  13.916  -5.571  1.00 20.00     0.028 C 
HETATM    3  C3  UNL     1     -34.044  14.853  -5.493  1.00 20.00    -0.005 C 
HETATM    4  C4  UNL     1     -36.087  16.399  -3.143  1.00 20.00     0.128 C 
HETATM    5  C5  UNL     1     -34.571  14.302  -6.605  1.00 20.00    -0.065 C 
HETATM    6  C6  UNL     1     -34.823  16.021  -3.349  1.00 20.00     0.011 C 
HETATM    7  C7  UNL     1     -36.278  14.808  -4.506  1.00 20.00     0.046 C 
HETATM    8  C9  UNL     1     -34.786  14.805  -4.198  1.00 20.00     0.098 C 
HETATM    9  C10 UNL     1     -33.848  14.263  -7.916  1.00 20.00     0.048 C 
HETATM   10  N11 UNL     1     -37.004  15.651  -3.834  1.00 20.00    -0.264 NA
ENDROOT
BRANCH   6  11
HETATM   11  C8  UNL     1     -33.674  16.666  -2.742  1.00 20.00     0.268 C 
HETATM   12  O12 UNL     1     -33.679  17.106  -1.590  1.00 20.00    -0.302 OA
ENDBRANCH   6  11
TORSDOF 1
ENDMDL
MODEL 9
REMARK VINA RESULT:      -4.4      1.950      2.704
REMARK  1 active torsions:
REMARK  status: ('A' for Active; 'I' for Inactive)
REMARK    1  A    between atoms: C6_6  and  C8_8 
ROOT
HETATM    1  C1  UNL     1     -35.734  18.188  -1.527  1.00 20.00     0.008 C 
HETATM    2  C2  UNL     1     -36.512  17.676  -2.492  1.00 20.00     0.028 C 
HETATM    3  C3  UNL     1     -33.718  17.006  -2.219  1.00 20.00    -0.005 C 
HETATM    4  C4  UNL     1     -35.459  14.803  -4.271  1.00 20.00     0.128 C 
HETATM    5  C5  UNL     1     -34.366  17.732  -1.286  1.00 20.00    -0.065 C 
HETATM    6  C6  UNL     1     -34.247  15.334  -4.089  1.00 20.00     0.011 C 
HETATM    7  C7  UNL     1     -35.873  16.626  -3.306  1.00 20.00     0.046 C 
HETATM    8  C9  UNL     1     -34.368  16.703  -3.530  1.00 20.00     0.098 C 
HETATM    9  C10 UNL     1     -33.743  18.122   0.019  1.00 20.00     0.048 C 
HETATM   10  N11 UNL     1     -36.480  15.593  -3.811  1.00 20.00    -0.264 NA
ENDROOT
BRANCH   6  11
HETATM   11  C8  UNL     1     -33.010  14.684  -4.477  1.00 20.00     0.268 C 
HETATM   12  O12 UNL     1     -32.683  13.564  -4.079  1.00 20.00    -0.302 OA
ENDBRANCH   6  11
TORSDOF 1
ENDMDL
