MODEL 1
REMARK VINA RESULT:      -5.5      0.000      0.000
REMARK  0 active torsions:
REMARK  status: ('A' for Active; 'I' for Inactive)
ROOT
HETATM    1  C1  UNL     1     -33.814   5.804   2.533  1.00 20.00     0.108 C 
HETATM    2  C2  UNL     1     -32.724   6.589   3.288  1.00 20.00     0.241 C 
HETATM    3  C3  UNL     1     -33.817   7.001   4.306  1.00 20.00     0.321 C 
HETATM    4  C4  UNL     1     -34.609   5.721   3.867  1.00 20.00     0.249 C 
HETATM    5  O5  UNL     1     -32.204   7.664   2.558  1.00 20.00    -0.229 OA
HETATM    6  F6  UNL     1     -34.469   8.165   4.068  1.00 20.00    -0.198 F 
HETATM    7  F7  UNL     1     -33.426   7.038   5.601  1.00 20.00    -0.198 F 
HETATM    8  F8  UNL     1     -35.943   5.926   3.728  1.00 20.00    -0.219 F 
HETATM    9 CL9  UNL     1     -34.346   4.249   4.851  1.00 20.00    -0.076 Cl
ENDROOT
TORSDOF 0
ENDMDL
MODEL 2
REMARK VINA RESULT:      -5.2      2.169      2.559
REMARK  0 active torsions:
REMARK  status: ('A' for Active; 'I' for Inactive)
ROOT
HETATM    1  C1  UNL     1     -33.291   7.004   3.582  1.00 20.00     0.108 C 
HETATM    2  C2  UNL     1     -33.664   6.322   4.912  1.00 20.00     0.241 C 
HETATM    3  C3  UNL     1     -34.718   5.506   4.123  1.00 20.00     0.321 C 
HETATM    4  C4  UNL     1     -33.850   5.757   2.842  1.00 20.00     0.249 C 
HETATM    5  O5  UNL     1     -34.222   7.199   5.851  1.00 20.00    -0.229 OA
HETATM    6  F6  UNL     1     -35.969   6.024   4.055  1.00 20.00    -0.198 F 
HETATM    7  F7  UNL     1     -34.859   4.214   4.498  1.00 20.00    -0.198 F 
HETATM    8  F8  UNL     1     -34.580   6.052   1.737  1.00 20.00    -0.219 F 
HETATM    9 CL9  UNL     1     -32.660   4.485   2.429  1.00 20.00    -0.076 Cl
ENDROOT
TORSDOF 0
ENDMDL
MODEL 3
REMARK VINA RESULT:      -4.9      2.505      3.200
REMARK  0 active torsions:
REMARK  status: ('A' for Active; 'I' for Inactive)
ROOT
HETATM    1  C1  UNL     1     -33.860   7.135   5.412  1.00 20.00     0.108 C 
HETATM    2  C2  UNL     1     -33.870   5.616   5.155  1.00 20.00     0.241 C 
HETATM    3  C3  UNL     1     -34.309   5.931   3.703  1.00 20.00     0.321 C 
HETATM    4  C4  UNL     1     -33.654   7.343   3.886  1.00 20.00     0.249 C 
HETATM    5  O5  UNL     1     -34.838   4.930   5.898  1.00 20.00    -0.229 OA
HETATM    6  F6  UNL     1     -35.642   5.965   3.460  1.00 20.00    -0.198 F 
HETATM    7  F7  UNL     1     -33.765   5.146   2.744  1.00 20.00    -0.198 F 
HETATM    8  F8  UNL     1     -34.389   8.357   3.363  1.00 20.00    -0.219 F 
HETATM    9 CL9  UNL     1     -31.960   7.509   3.334  1.00 20.00    -0.076 Cl
ENDROOT
TORSDOF 0
ENDMDL
MODEL 4
REMARK VINA RESULT:      -4.9      2.001      2.321
REMARK  0 active torsions:
REMARK  status: ('A' for Active; 'I' for Inactive)
ROOT
HETATM    1  C1  UNL     1     -34.162   4.368   4.029  1.00 20.00     0.108 C 
HETATM    2  C2  UNL     1     -32.976   4.895   3.199  1.00 20.00     0.241 C 
HETATM    3  C3  UNL     1     -33.852   6.122   2.845  1.00 20.00     0.321 C 
HETATM    4  C4  UNL     1     -34.659   5.835   4.157  1.00 20.00     0.249 C 
HETATM    5  O5  UNL     1     -32.666   4.089   2.095  1.00 20.00    -0.229 OA
HETATM    6  F6  UNL     1     -34.590   6.042   1.711  1.00 20.00    -0.198 F 
HETATM    7  F7  UNL     1     -33.203   7.308   2.797  1.00 20.00    -0.198 F 
HETATM    8  F8  UNL     1     -36.001   5.978   4.015  1.00 20.00    -0.219 F 
HETATM    9 CL9  UNL     1     -34.133   6.721   5.621  1.00 20.00    -0.076 Cl
ENDROOT
TORSDOF 0
ENDMDL
MODEL 5
REMARK VINA RESULT:      -4.5      2.494      3.156
REMARK  0 active torsions:
REMARK  status: ('A' for Active; 'I' for Inactive)
ROOT
HETATM    1  C1  UNL     1     -32.768   5.779   2.810  1.00 20.00     0.108 C 
HETATM    2  C2  UNL     1     -34.213   5.921   3.325  1.00 20.00     0.241 C 
HETATM    3  C3  UNL     1     -33.739   7.161   4.122  1.00 20.00     0.321 C 
HETATM    4  C4  UNL     1     -32.575   7.297   3.081  1.00 20.00     0.249 C 
HETATM    5  O5  UNL     1     -34.624   4.856   4.136  1.00 20.00    -0.229 OA
HETATM    6  F6  UNL     1     -33.323   6.950   5.394  1.00 20.00    -0.198 F 
HETATM    7  F7  UNL     1     -34.612   8.194   4.171  1.00 20.00    -0.198 F 
HETATM    8  F8  UNL     1     -31.379   7.611   3.638  1.00 20.00    -0.219 F 
HETATM    9 CL9  UNL     1     -32.874   8.390   1.695  1.00 20.00    -0.076 Cl
ENDROOT
TORSDOF 0
ENDMDL
MODEL 6
REMARK VINA RESULT:      -4.4      2.012      2.522
REMARK  0 active torsions:
REMARK  status: ('A' for Active; 'I' for Inactive)
ROOT
HETATM    1  C1  UNL     1     -33.660   6.864   4.770  1.00 20.00     0.108 C 
HETATM    2  C2  UNL     1     -33.208   7.406   3.401  1.00 20.00     0.241 C 
HETATM    3  C3  UNL     1     -33.445   5.985   2.832  1.00 20.00     0.321 C 
HETATM    4  C4  UNL     1     -34.446   5.755   4.016  1.00 20.00     0.249 C 
HETATM    5  O5  UNL     1     -31.865   7.804   3.374  1.00 20.00    -0.229 OA
HETATM    6  F6  UNL     1     -32.385   5.141   2.831  1.00 20.00    -0.198 F 
HETATM    7  F7  UNL     1     -33.977   5.934   1.589  1.00 20.00    -0.198 F 
HETATM    8  F8  UNL     1     -34.349   4.527   4.582  1.00 20.00    -0.219 F 
HETATM    9 CL9  UNL     1     -36.169   6.102   3.675  1.00 20.00    -0.076 Cl
ENDROOT
TORSDOF 0
ENDMDL
MODEL 7
REMARK VINA RESULT:      -4.2     12.005     12.559
REMARK  0 active torsions:
REMARK  status: ('A' for Active; 'I' for Inactive)
ROOT
HETATM    1  C1  UNL     1     -34.572  14.366  -6.475  1.00 20.00     0.108 C 
HETATM    2  C2  UNL     1     -35.605  14.061  -5.374  1.00 20.00     0.241 C 
HETATM    3  C3  UNL     1     -34.582  14.614  -4.351  1.00 20.00     0.321 C 
HETATM    4  C4  UNL     1     -33.952  15.433  -5.530  1.00 20.00     0.249 C 
HETATM    5  O5  UNL     1     -35.870  12.695  -5.220  1.00 20.00    -0.229 OA
HETATM    6  F6  UNL     1     -33.737  13.718  -3.785  1.00 20.00    -0.198 F 
HETATM    7  F7  UNL     1     -35.103  15.342  -3.337  1.00 20.00    -0.198 F 
HETATM    8  F8  UNL     1     -32.596  15.443  -5.524  1.00 20.00    -0.219 F 
HETATM    9 CL9  UNL     1     -34.545  17.109  -5.736  1.00 20.00    -0.076 Cl
ENDROOT
TORSDOF 0
ENDMDL
MODEL 8
REMARK VINA RESULT:      -4.1      2.385      2.778
REMARK  0 active torsions:
REMARK  status: ('A' for Active; 'I' for Inactive)
ROOT
HETATM    1  C1  UNL     1     -34.039   5.653   4.368  1.00 20.00     0.108 C 
HETATM    2  C2  UNL     1     -34.064   7.176   4.595  1.00 20.00     0.241 C 
HETATM    3  C3  UNL     1     -33.029   7.299   3.449  1.00 20.00     0.321 C 
HETATM    4  C4  UNL     1     -33.565   5.927   2.913  1.00 20.00     0.249 C 
HETATM    5  O5  UNL     1     -33.564   7.562   5.845  1.00 20.00    -0.229 OA
HETATM    6  F6  UNL     1     -31.720   7.283   3.800  1.00 20.00    -0.198 F 
HETATM    7  F7  UNL     1     -33.191   8.359   2.625  1.00 20.00    -0.198 F 
HETATM    8  F8  UNL     1     -32.589   5.089   2.484  1.00 20.00    -0.219 F 
HETATM    9 CL9  UNL     1     -34.849   6.009   1.668  1.00 20.00    -0.076 Cl
ENDROOT
TORSDOF 0
ENDMDL
MODEL 9
REMARK VINA RESULT:      -4.1      8.588      9.231
REMARK  0 active torsions:
REMARK  status: ('A' for Active; 'I' for Inactive)
ROOT
HETATM    1  C1  UNL     1     -43.417   7.445  -0.114  1.00 20.00     0.108 C 
HETATM    2  C2  UNL     1     -42.288   7.459  -1.161  1.00 20.00     0.241 C 
HETATM    3  C3  UNL     1     -41.376   6.809  -0.091  1.00 20.00     0.321 C 
HETATM    4  C4  UNL     1     -42.680   6.274   0.594  1.00 20.00     0.249 C 
HETATM    5  O5  UNL     1     -41.887   8.749  -1.531  1.00 20.00    -0.229 OA
HETATM    6  F6  UNL     1     -40.647   7.647   0.684  1.00 20.00    -0.198 F 
HETATM    7  F7  UNL     1     -40.519   5.867  -0.548  1.00 20.00    -0.198 F 
HETATM    8  F8  UNL     1     -42.664   6.369   1.947  1.00 20.00    -0.219 F 
HETATM    9 CL9  UNL     1     -43.198   4.623   0.133  1.00 20.00    -0.076 Cl
ENDROOT
TORSDOF 0
ENDMDL
