MODEL 1
REMARK VINA RESULT:      -5.3      0.000      0.000
REMARK  2 active torsions:
REMARK  status: ('A' for Active; 'I' for Inactive)
REMARK    1  A    between atoms: C5_5  and  C6_6 
REMARK    2  A    between atoms: C7_7  and  O8_8 
ROOT
HETATM    1  C3  UNL     1     -34.442   5.403   3.655  1.00 20.00     0.010 C 
HETATM    2  C4  UNL     1     -34.814   5.508   5.146  1.00 20.00     0.032 C 
HETATM    3  C6  UNL     1     -33.794   6.807   3.780  1.00 20.00     0.018 C 
HETATM    4  C7  UNL     1     -33.644   6.507   5.303  1.00 20.00     0.122 C 
ENDROOT
BRANCH   3   5
HETATM    5  C5  UNL     1     -32.559   7.125   2.969  1.00 20.00    -0.008 A 
HETATM    6  C1  UNL     1     -32.465   8.308   2.045  1.00 20.00     0.005 A 
HETATM    7  C2  UNL     1     -31.633   8.263   3.297  1.00 20.00     0.005 A 
ENDBRANCH   3   5
BRANCH   4   8
HETATM    8  O8  UNL     1     -33.856   7.613   6.196  1.00 20.00    -0.395 OA
HETATM    9  H20 UNL     1     -32.981   7.857   6.526  1.00 20.00     0.210 HD
ENDBRANCH   4   8
TORSDOF 2
ENDMDL
MODEL 2
REMARK VINA RESULT:      -5.0      1.623      2.055
REMARK  2 active torsions:
REMARK  status: ('A' for Active; 'I' for Inactive)
REMARK    1  A    between atoms: C5_5  and  C6_6 
REMARK    2  A    between atoms: C7_7  and  O8_8 
ROOT
HETATM    1  C3  UNL     1     -34.033   6.961   5.849  1.00 20.00     0.010 C 
HETATM    2  C4  UNL     1     -34.638   5.546   5.792  1.00 20.00     0.032 C 
HETATM    3  C6  UNL     1     -33.307   6.641   4.516  1.00 20.00     0.018 C 
HETATM    4  C7  UNL     1     -34.429   5.587   4.260  1.00 20.00     0.122 C 
ENDROOT
BRANCH   3   5
HETATM    5  C5  UNL     1     -33.094   7.746   3.508  1.00 20.00    -0.008 A 
HETATM    6  C1  UNL     1     -31.738   8.300   3.171  1.00 20.00     0.005 A 
HETATM    7  C2  UNL     1     -32.502   7.511   2.146  1.00 20.00     0.005 A 
ENDBRANCH   3   5
BRANCH   4   8
HETATM    8  O8  UNL     1     -34.021   4.361   3.631  1.00 20.00    -0.395 OA
HETATM    9  H20 UNL     1     -33.055   4.390   3.597  1.00 20.00     0.210 HD
ENDBRANCH   4   8
TORSDOF 2
ENDMDL
MODEL 3
REMARK VINA RESULT:      -4.8      1.138      3.375
REMARK  2 active torsions:
REMARK  status: ('A' for Active; 'I' for Inactive)
REMARK    1  A    between atoms: C5_5  and  C6_6 
REMARK    2  A    between atoms: C7_7  and  O8_8 
ROOT
HETATM    1  C3  UNL     1     -33.112   6.723   2.209  1.00 20.00     0.010 C 
HETATM    2  C4  UNL     1     -32.375   7.980   2.705  1.00 20.00     0.032 C 
HETATM    3  C6  UNL     1     -33.227   6.277   3.690  1.00 20.00     0.018 C 
HETATM    4  C7  UNL     1     -33.089   7.785   4.063  1.00 20.00     0.122 C 
ENDROOT
BRANCH   3   5
HETATM    5  C5  UNL     1     -34.454   5.519   4.140  1.00 20.00    -0.008 A 
HETATM    6  C1  UNL     1     -34.423   4.070   4.540  1.00 20.00     0.005 A 
HETATM    7  C2  UNL     1     -34.698   5.128   5.572  1.00 20.00     0.005 A 
ENDBRANCH   3   5
BRANCH   4   8
HETATM    8  O8  UNL     1     -32.324   8.084   5.243  1.00 20.00    -0.395 OA
HETATM    9  H20 UNL     1     -31.566   8.602   4.942  1.00 20.00     0.210 HD
ENDBRANCH   4   8
TORSDOF 2
ENDMDL
MODEL 4
REMARK VINA RESULT:      -4.5      1.825      3.622
REMARK  2 active torsions:
REMARK  status: ('A' for Active; 'I' for Inactive)
REMARK    1  A    between atoms: C5_5  and  C6_6 
REMARK    2  A    between atoms: C7_7  and  O8_8 
ROOT
HETATM    1  C3  UNL     1     -33.347   7.502   5.476  1.00 20.00     0.010 C 
HETATM    2  C4  UNL     1     -32.360   8.103   4.458  1.00 20.00     0.032 C 
HETATM    3  C6  UNL     1     -34.167   6.964   4.273  1.00 20.00     0.018 C 
HETATM    4  C7  UNL     1     -32.842   7.032   3.453  1.00 20.00     0.122 C 
ENDROOT
BRANCH   3   5
HETATM    5  C5  UNL     1     -34.884   5.641   4.401  1.00 20.00    -0.008 A 
HETATM    6  C1  UNL     1     -34.206   4.315   4.191  1.00 20.00     0.005 A 
HETATM    7  C2  UNL     1     -34.682   4.707   5.562  1.00 20.00     0.005 A 
ENDBRANCH   3   5
BRANCH   4   8
HETATM    8  O8  UNL     1     -32.961   7.443   2.080  1.00 20.00    -0.395 OA
HETATM    9  H20 UNL     1     -32.830   8.400   2.078  1.00 20.00     0.210 HD
ENDBRANCH   4   8
TORSDOF 2
ENDMDL
MODEL 5
REMARK VINA RESULT:      -4.4      1.929      2.301
REMARK  2 active torsions:
REMARK  status: ('A' for Active; 'I' for Inactive)
REMARK    1  A    between atoms: C5_5  and  C6_6 
REMARK    2  A    between atoms: C7_7  and  O8_8 
ROOT
HETATM    1  C3  UNL     1     -33.916   7.265   4.482  1.00 20.00     0.010 C 
HETATM    2  C4  UNL     1     -34.148   5.742   4.483  1.00 20.00     0.032 C 
HETATM    3  C6  UNL     1     -32.953   7.058   3.284  1.00 20.00     0.018 C 
HETATM    4  C7  UNL     1     -33.740   5.743   2.992  1.00 20.00     0.122 C 
ENDROOT
BRANCH   3   5
HETATM    5  C5  UNL     1     -32.872   8.118   2.211  1.00 20.00    -0.008 A 
HETATM    6  C1  UNL     1     -32.027   9.355   2.341  1.00 20.00     0.005 A 
HETATM    7  C2  UNL     1     -31.667   8.303   1.330  1.00 20.00     0.005 A 
ENDBRANCH   3   5
BRANCH   4   8
HETATM    8  O8  UNL     1     -32.964   4.623   2.534  1.00 20.00    -0.395 OA
HETATM    9  H20 UNL     1     -32.634   4.870   1.661  1.00 20.00     0.210 HD
ENDBRANCH   4   8
TORSDOF 2
ENDMDL
MODEL 6
REMARK VINA RESULT:      -4.4      1.732      2.674
REMARK  2 active torsions:
REMARK  status: ('A' for Active; 'I' for Inactive)
REMARK    1  A    between atoms: C5_5  and  C6_6 
REMARK    2  A    between atoms: C7_7  and  O8_8 
ROOT
HETATM    1  C3  UNL     1     -33.401   6.836   2.115  1.00 20.00     0.010 C 
HETATM    2  C4  UNL     1     -32.989   6.540   3.568  1.00 20.00     0.032 C 
HETATM    3  C6  UNL     1     -32.854   8.274   2.315  1.00 20.00     0.018 C 
HETATM    4  C7  UNL     1     -31.952   7.680   3.440  1.00 20.00     0.122 C 
ENDROOT
BRANCH   3   5
HETATM    5  C5  UNL     1     -32.204   8.985   1.152  1.00 20.00    -0.008 A 
HETATM    6  C1  UNL     1     -32.960   9.414  -0.076  1.00 20.00     0.005 A 
HETATM    7  C2  UNL     1     -32.409  10.448   0.866  1.00 20.00     0.005 A 
ENDBRANCH   3   5
BRANCH   4   8
HETATM    8  O8  UNL     1     -31.753   8.505   4.601  1.00 20.00    -0.395 OA
HETATM    9  H20 UNL     1     -32.521   8.354   5.167  1.00 20.00     0.210 HD
ENDBRANCH   4   8
TORSDOF 2
ENDMDL
MODEL 7
REMARK VINA RESULT:      -4.2      2.102      2.892
REMARK  2 active torsions:
REMARK  status: ('A' for Active; 'I' for Inactive)
REMARK    1  A    between atoms: C5_5  and  C6_6 
REMARK    2  A    between atoms: C7_7  and  O8_8 
ROOT
HETATM    1  C3  UNL     1     -33.104   6.123   2.610  1.00 20.00     0.010 C 
HETATM    2  C4  UNL     1     -33.293   4.596   2.684  1.00 20.00     0.032 C 
HETATM    3  C6  UNL     1     -34.252   6.255   3.645  1.00 20.00     0.018 C 
HETATM    4  C7  UNL     1     -33.899   4.803   4.091  1.00 20.00     0.122 C 
ENDROOT
BRANCH   3   5
HETATM    5  C5  UNL     1     -34.201   7.369   4.665  1.00 20.00    -0.008 A 
HETATM    6  C1  UNL     1     -33.932   7.134   6.126  1.00 20.00     0.005 A 
HETATM    7  C2  UNL     1     -32.920   7.858   5.282  1.00 20.00     0.005 A 
ENDBRANCH   3   5
BRANCH   4   8
HETATM    8  O8  UNL     1     -35.007   3.958   4.447  1.00 20.00    -0.395 OA
HETATM    9  H20 UNL     1     -34.622   3.193   4.895  1.00 20.00     0.210 HD
ENDBRANCH   4   8
TORSDOF 2
ENDMDL
MODEL 8
REMARK VINA RESULT:      -4.1      2.123      3.828
REMARK  2 active torsions:
REMARK  status: ('A' for Active; 'I' for Inactive)
REMARK    1  A    between atoms: C5_5  and  C6_6 
REMARK    2  A    between atoms: C7_7  and  O8_8 
ROOT
HETATM    1  C3  UNL     1     -33.606   7.597   3.429  1.00 20.00     0.010 C 
HETATM    2  C4  UNL     1     -32.497   7.046   2.514  1.00 20.00     0.032 C 
HETATM    3  C6  UNL     1     -34.285   6.205   3.345  1.00 20.00     0.018 C 
HETATM    4  C7  UNL     1     -32.872   5.633   3.017  1.00 20.00     0.122 C 
ENDROOT
BRANCH   3   5
HETATM    5  C5  UNL     1     -35.031   5.674   4.546  1.00 20.00    -0.008 A 
HETATM    6  C1  UNL     1     -34.586   4.464   5.321  1.00 20.00     0.005 A 
HETATM    7  C2  UNL     1     -34.530   5.825   5.956  1.00 20.00     0.005 A 
ENDBRANCH   3   5
BRANCH   4   8
HETATM    8  O8  UNL     1     -32.822   4.570   2.050  1.00 20.00    -0.395 OA
HETATM    9  H20 UNL     1     -33.679   4.126   2.101  1.00 20.00     0.210 HD
ENDBRANCH   4   8
TORSDOF 2
ENDMDL
MODEL 9
REMARK VINA RESULT:      -3.9      2.032      3.942
REMARK  2 active torsions:
REMARK  status: ('A' for Active; 'I' for Inactive)
REMARK    1  A    between atoms: C5_5  and  C6_6 
REMARK    2  A    between atoms: C7_7  and  O8_8 
ROOT
HETATM    1  C3  UNL     1     -31.840   8.003   4.045  1.00 20.00     0.010 C 
HETATM    2  C4  UNL     1     -31.480   8.782   2.766  1.00 20.00     0.032 C 
HETATM    3  C6  UNL     1     -33.169   7.599   3.353  1.00 20.00     0.018 C 
HETATM    4  C7  UNL     1     -32.434   7.839   1.998  1.00 20.00     0.122 C 
ENDROOT
BRANCH   3   5
HETATM    5  C5  UNL     1     -33.764   6.240   3.634  1.00 20.00    -0.008 A 
HETATM    6  C1  UNL     1     -34.464   5.900   4.921  1.00 20.00     0.005 A 
HETATM    7  C2  UNL     1     -35.245   5.977   3.639  1.00 20.00     0.005 A 
ENDBRANCH   3   5
BRANCH   4   8
HETATM    8  O8  UNL     1     -33.214   8.429   0.944  1.00 20.00    -0.395 OA
HETATM    9  H20 UNL     1     -33.970   8.845   1.377  1.00 20.00     0.210 HD
ENDBRANCH   4   8
TORSDOF 2
ENDMDL
