MODEL 1
REMARK VINA RESULT:      -5.9      0.000      0.000
REMARK  2 active torsions:
REMARK  status: ('A' for Active; 'I' for Inactive)
REMARK    1  A    between atoms: C6_6  and  C7_7 
REMARK    2  A    between atoms: C7_7  and  N8_8 
ROOT
HETATM    1  C1  UNL     1     -32.086   8.630   1.930  1.00 20.00     0.332 C 
HETATM    2  N8  UNL     1     -31.917   8.024   2.922  1.00 20.00    -0.247 NA
HETATM    3  O9  UNL     1     -32.255   9.238   0.937  1.00 20.00    -0.260 OA
ENDROOT
BRANCH   2   4
HETATM    4  C7  UNL     1     -32.669   6.775   3.005  1.00 20.00     0.161 C 
BRANCH   4   5
HETATM    5  C6  UNL     1     -33.978   7.036   3.740  1.00 20.00     0.028 C 
HETATM    6  C3  UNL     1     -33.753   7.272   5.203  1.00 20.00    -0.024 C 
HETATM    7  C2  UNL     1     -34.167   6.241   5.947  1.00 20.00    -0.030 C 
HETATM    8  C4  UNL     1     -34.730   5.144   5.110  1.00 20.00     0.027 C 
HETATM    9  C5  UNL     1     -34.907   5.813   3.745  1.00 20.00     0.014 C 
ENDBRANCH   4   5
ENDBRANCH   2   4
TORSDOF 2
ENDMDL
MODEL 2
REMARK VINA RESULT:      -5.2      1.255      1.289
REMARK  2 active torsions:
REMARK  status: ('A' for Active; 'I' for Inactive)
REMARK    1  A    between atoms: C6_6  and  C7_7 
REMARK    2  A    between atoms: C7_7  and  N8_8 
ROOT
HETATM    1  C1  UNL     1     -31.977   7.929   2.854  1.00 20.00     0.332 C 
HETATM    2  N8  UNL     1     -32.873   7.406   2.302  1.00 20.00    -0.247 NA
HETATM    3  O9  UNL     1     -31.080   8.452   3.405  1.00 20.00    -0.260 OA
ENDROOT
BRANCH   2   4
HETATM    4  C7  UNL     1     -33.234   6.097   2.839  1.00 20.00     0.161 C 
BRANCH   4   5
HETATM    5  C6  UNL     1     -34.497   6.240   3.679  1.00 20.00     0.028 C 
HETATM    6  C3  UNL     1     -34.269   7.111   4.877  1.00 20.00    -0.024 C 
HETATM    7  C2  UNL     1     -34.243   6.406   6.012  1.00 20.00    -0.030 C 
HETATM    8  C4  UNL     1     -34.443   4.950   5.765  1.00 20.00     0.027 C 
HETATM    9  C5  UNL     1     -34.937   4.914   4.317  1.00 20.00     0.014 C 
ENDBRANCH   4   5
ENDBRANCH   2   4
TORSDOF 2
ENDMDL
MODEL 3
REMARK VINA RESULT:      -5.0      1.102      1.764
REMARK  2 active torsions:
REMARK  status: ('A' for Active; 'I' for Inactive)
REMARK    1  A    between atoms: C6_6  and  C7_7 
REMARK    2  A    between atoms: C7_7  and  N8_8 
ROOT
HETATM    1  C1  UNL     1     -32.226   9.477   1.142  1.00 20.00     0.332 C 
HETATM    2  N8  UNL     1     -32.026   8.525   1.801  1.00 20.00    -0.247 NA
HETATM    3  O9  UNL     1     -32.425  10.431   0.482  1.00 20.00    -0.260 OA
ENDROOT
BRANCH   2   4
HETATM    4  C7  UNL     1     -33.225   7.925   2.378  1.00 20.00     0.161 C 
BRANCH   4   5
HETATM    5  C6  UNL     1     -32.808   6.897   3.421  1.00 20.00     0.028 C 
HETATM    6  C3  UNL     1     -33.176   5.505   3.005  1.00 20.00    -0.024 C 
HETATM    7  C2  UNL     1     -34.195   5.020   3.720  1.00 20.00    -0.030 C 
HETATM    8  C4  UNL     1     -34.684   6.003   4.728  1.00 20.00     0.027 C 
HETATM    9  C5  UNL     1     -33.571   7.054   4.745  1.00 20.00     0.014 C 
ENDBRANCH   4   5
ENDBRANCH   2   4
TORSDOF 2
ENDMDL
MODEL 4
REMARK VINA RESULT:      -4.6      2.293      4.649
REMARK  2 active torsions:
REMARK  status: ('A' for Active; 'I' for Inactive)
REMARK    1  A    between atoms: C6_6  and  C7_7 
REMARK    2  A    between atoms: C7_7  and  N8_8 
ROOT
HETATM    1  C1  UNL     1     -33.732   6.924   4.478  1.00 20.00     0.332 C 
HETATM    2  N8  UNL     1     -32.875   7.584   4.018  1.00 20.00    -0.247 NA
HETATM    3  O9  UNL     1     -34.590   6.265   4.939  1.00 20.00    -0.260 OA
ENDROOT
BRANCH   2   4
HETATM    4  C7  UNL     1     -32.681   7.410   2.582  1.00 20.00     0.161 C 
BRANCH   4   5
HETATM    5  C6  UNL     1     -31.800   8.540   2.064  1.00 20.00     0.028 C 
HETATM    6  C3  UNL     1     -32.474   9.872   2.194  1.00 20.00    -0.024 C 
HETATM    7  C2  UNL     1     -32.861  10.356   1.009  1.00 20.00    -0.030 C 
HETATM    8  C4  UNL     1     -32.517   9.430  -0.108  1.00 20.00     0.027 C 
HETATM    9  C5  UNL     1     -31.547   8.447   0.552  1.00 20.00     0.014 C 
ENDBRANCH   4   5
ENDBRANCH   2   4
TORSDOF 2
ENDMDL
MODEL 5
REMARK VINA RESULT:      -4.5      2.735      4.176
REMARK  2 active torsions:
REMARK  status: ('A' for Active; 'I' for Inactive)
REMARK    1  A    between atoms: C6_6  and  C7_7 
REMARK    2  A    between atoms: C7_7  and  N8_8 
ROOT
HETATM    1  C1  UNL     1     -34.526   5.079   4.862  1.00 20.00     0.332 C 
HETATM    2  N8  UNL     1     -34.390   6.151   5.324  1.00 20.00    -0.247 NA
HETATM    3  O9  UNL     1     -34.662   4.006   4.401  1.00 20.00    -0.260 OA
ENDROOT
BRANCH   2   4
HETATM    4  C7  UNL     1     -34.158   7.208   4.345  1.00 20.00     0.161 C 
BRANCH   4   5
HETATM    5  C6  UNL     1     -32.849   6.927   3.618  1.00 20.00     0.028 C 
HETATM    6  C3  UNL     1     -31.829   7.994   3.881  1.00 20.00    -0.024 C 
HETATM    7  C2  UNL     1     -31.629   8.772   2.813  1.00 20.00    -0.030 C 
HETATM    8  C4  UNL     1     -32.482   8.362   1.661  1.00 20.00     0.027 C 
HETATM    9  C5  UNL     1     -32.996   6.986   2.090  1.00 20.00     0.014 C 
ENDBRANCH   4   5
ENDBRANCH   2   4
TORSDOF 2
ENDMDL
MODEL 6
REMARK VINA RESULT:      -4.3      1.631      2.206
REMARK  2 active torsions:
REMARK  status: ('A' for Active; 'I' for Inactive)
REMARK    1  A    between atoms: C6_6  and  C7_7 
REMARK    2  A    between atoms: C7_7  and  N8_8 
ROOT
HETATM    1  C1  UNL     1     -32.115   8.029   3.851  1.00 20.00     0.332 C 
HETATM    2  N8  UNL     1     -33.262   8.020   4.107  1.00 20.00    -0.247 NA
HETATM    3  O9  UNL     1     -30.968   8.038   3.593  1.00 20.00    -0.260 OA
ENDROOT
BRANCH   2   4
HETATM    4  C7  UNL     1     -33.616   7.216   5.273  1.00 20.00     0.161 C 
BRANCH   4   5
HETATM    5  C6  UNL     1     -34.697   6.219   4.875  1.00 20.00     0.028 C 
HETATM    6  C3  UNL     1     -34.497   4.892   5.541  1.00 20.00    -0.024 C 
HETATM    7  C2  UNL     1     -34.078   3.958   4.681  1.00 20.00    -0.030 C 
HETATM    8  C4  UNL     1     -33.922   4.502   3.302  1.00 20.00     0.027 C 
HETATM    9  C5  UNL     1     -34.642   5.851   3.385  1.00 20.00     0.014 C 
ENDBRANCH   4   5
ENDBRANCH   2   4
TORSDOF 2
ENDMDL
MODEL 7
REMARK VINA RESULT:      -4.3      2.919      4.273
REMARK  2 active torsions:
REMARK  status: ('A' for Active; 'I' for Inactive)
REMARK    1  A    between atoms: C6_6  and  C7_7 
REMARK    2  A    between atoms: C7_7  and  N8_8 
ROOT
HETATM    1  C1  UNL     1     -34.444   4.698   4.625  1.00 20.00     0.332 C 
HETATM    2  N8  UNL     1     -34.160   4.561   3.493  1.00 20.00    -0.247 NA
HETATM    3  O9  UNL     1     -34.729   4.834   5.758  1.00 20.00    -0.260 OA
ENDROOT
BRANCH   2   4
HETATM    4  C7  UNL     1     -33.028   5.370   3.051  1.00 20.00     0.161 C 
BRANCH   4   5
HETATM    5  C6  UNL     1     -33.416   6.842   3.124  1.00 20.00     0.028 C 
HETATM    6  C3  UNL     1     -32.995   7.587   1.893  1.00 20.00    -0.024 C 
HETATM    7  C2  UNL     1     -31.964   8.404   2.130  1.00 20.00    -0.030 C 
HETATM    8  C4  UNL     1     -31.519   8.339   3.551  1.00 20.00     0.027 C 
HETATM    9  C5  UNL     1     -32.669   7.595   4.234  1.00 20.00     0.014 C 
ENDBRANCH   4   5
ENDBRANCH   2   4
TORSDOF 2
ENDMDL
MODEL 8
REMARK VINA RESULT:      -4.2     11.171     11.572
REMARK  2 active torsions:
REMARK  status: ('A' for Active; 'I' for Inactive)
REMARK    1  A    between atoms: C6_6  and  C7_7 
REMARK    2  A    between atoms: C7_7  and  N8_8 
ROOT
HETATM    1  C1  UNL     1     -35.844  13.724  -4.928  1.00 20.00     0.332 C 
HETATM    2  N8  UNL     1     -35.840  14.824  -4.515  1.00 20.00    -0.247 NA
HETATM    3  O9  UNL     1     -35.849  12.623  -5.341  1.00 20.00    -0.260 OA
ENDROOT
BRANCH   2   4
HETATM    4  C7  UNL     1     -34.663  15.171  -3.726  1.00 20.00     0.161 C 
BRANCH   4   5
HETATM    5  C6  UNL     1     -34.731  16.649  -3.363  1.00 20.00     0.028 C 
HETATM    6  C3  UNL     1     -33.560  17.069  -2.528  1.00 20.00    -0.024 C 
HETATM    7  C2  UNL     1     -33.906  17.296  -1.257  1.00 20.00    -0.030 C 
HETATM    8  C4  UNL     1     -35.360  17.063  -1.028  1.00 20.00     0.027 C 
HETATM    9  C5  UNL     1     -35.920  16.980  -2.450  1.00 20.00     0.014 C 
ENDBRANCH   4   5
ENDBRANCH   2   4
TORSDOF 2
ENDMDL
MODEL 9
REMARK VINA RESULT:      -3.9     11.406     11.865
REMARK  2 active torsions:
REMARK  status: ('A' for Active; 'I' for Inactive)
REMARK    1  A    between atoms: C6_6  and  C7_7 
REMARK    2  A    between atoms: C7_7  and  N8_8 
ROOT
HETATM    1  C1  UNL     1     -36.325  13.815  -5.127  1.00 20.00     0.332 C 
HETATM    2  N8  UNL     1     -36.779  14.891  -5.003  1.00 20.00    -0.247 NA
HETATM    3  O9  UNL     1     -35.870  12.737  -5.251  1.00 20.00    -0.260 OA
ENDROOT
BRANCH   2   4
HETATM    4  C7  UNL     1     -35.797  15.938  -4.739  1.00 20.00     0.161 C 
BRANCH   4   5
HETATM    5  C6  UNL     1     -35.016  15.574  -3.482  1.00 20.00     0.028 C 
HETATM    6  C3  UNL     1     -35.512  16.326  -2.285  1.00 20.00    -0.024 C 
HETATM    7  C2  UNL     1     -34.650  17.271  -1.894  1.00 20.00    -0.030 C 
HETATM    8  C4  UNL     1     -33.441  17.313  -2.764  1.00 20.00     0.027 C 
HETATM    9  C5  UNL     1     -33.544  16.007  -3.555  1.00 20.00     0.014 C 
ENDBRANCH   4   5
ENDBRANCH   2   4
TORSDOF 2
ENDMDL
