MODEL 1
REMARK VINA RESULT:      -5.7      0.000      0.000
REMARK  0 active torsions:
REMARK  status: ('A' for Active; 'I' for Inactive)
ROOT
HETATM    1  C1  UNL     1     -34.012   5.571   3.659  1.00 20.00     0.008 C 
HETATM    2  C2  UNL     1     -33.580   5.866   2.423  1.00 20.00     0.028 C 
HETATM    3  C3  UNL     1     -32.977   7.503   4.722  1.00 20.00    -0.005 C 
HETATM    4  C4  UNL     1     -31.973   9.082   2.980  1.00 20.00     0.015 C 
HETATM    5  C5  UNL     1     -33.846   6.474   4.795  1.00 20.00    -0.065 C 
HETATM    6  C6  UNL     1     -32.391   9.127   1.707  1.00 20.00     0.028 C 
HETATM    7  C7  UNL     1     -32.907   7.172   2.303  1.00 20.00     0.046 C 
HETATM    8  C8  UNL     1     -32.139   7.700   3.502  1.00 20.00     0.085 C 
HETATM    9  C9  UNL     1     -34.667   6.188   6.015  1.00 20.00     0.048 C 
HETATM   10  C10 UNL     1     -32.343  10.306   0.802  1.00 20.00     0.070 C 
HETATM   11  N11 UNL     1     -32.955   7.953   1.267  1.00 20.00    -0.258 NA
ENDROOT
TORSDOF 0
ENDMDL
MODEL 2
REMARK VINA RESULT:      -5.3      1.336      4.417
REMARK  0 active torsions:
REMARK  status: ('A' for Active; 'I' for Inactive)
ROOT
HETATM    1  C1  UNL     1     -31.646   9.100   2.245  1.00 20.00     0.008 C 
HETATM    2  C2  UNL     1     -31.531   8.557   3.467  1.00 20.00     0.028 C 
HETATM    3  C3  UNL     1     -33.296   7.496   1.444  1.00 20.00    -0.005 C 
HETATM    4  C4  UNL     1     -34.075   5.959   3.333  1.00 20.00     0.015 C 
HETATM    5  C5  UNL     1     -32.649   8.667   1.274  1.00 20.00    -0.065 C 
HETATM    6  C6  UNL     1     -34.004   6.299   4.628  1.00 20.00     0.028 C 
HETATM    7  C7  UNL     1     -32.489   7.473   3.750  1.00 20.00     0.046 C 
HETATM    8  C8  UNL     1     -32.958   6.606   2.594  1.00 20.00     0.085 C 
HETATM    9  C9  UNL     1     -32.898   9.572   0.107  1.00 20.00     0.048 C 
HETATM   10  C10 UNL     1     -34.896   5.821   5.717  1.00 20.00     0.070 C 
HETATM   11  N11 UNL     1     -33.021   7.219   4.906  1.00 20.00    -0.258 NA
ENDROOT
TORSDOF 0
ENDMDL
MODEL 3
REMARK VINA RESULT:      -5.1      1.338      2.210
REMARK  0 active torsions:
REMARK  status: ('A' for Active; 'I' for Inactive)
ROOT
HETATM    1  C1  UNL     1     -33.787   6.632   5.835  1.00 20.00     0.008 C 
HETATM    2  C2  UNL     1     -33.105   7.730   5.478  1.00 20.00     0.028 C 
HETATM    3  C3  UNL     1     -34.447   6.034   3.567  1.00 20.00    -0.005 C 
HETATM    4  C4  UNL     1     -33.302   7.543   1.850  1.00 20.00     0.015 C 
HETATM    5  C5  UNL     1     -34.332   5.685   4.865  1.00 20.00    -0.065 C 
HETATM    6  C6  UNL     1     -32.153   8.188   2.094  1.00 20.00     0.028 C 
HETATM    7  C7  UNL     1     -32.961   7.919   4.023  1.00 20.00     0.046 C 
HETATM    8  C8  UNL     1     -34.068   7.406   3.118  1.00 20.00     0.085 C 
HETATM    9  C9  UNL     1     -34.755   4.346   5.387  1.00 20.00     0.048 C 
HETATM   10  C10 UNL     1     -31.128   8.580   1.091  1.00 20.00     0.070 C 
HETATM   11  N11 UNL     1     -31.934   8.443   3.428  1.00 20.00    -0.258 NA
ENDROOT
TORSDOF 0
ENDMDL
MODEL 4
REMARK VINA RESULT:      -5.1     10.767     11.423
REMARK  0 active torsions:
REMARK  status: ('A' for Active; 'I' for Inactive)
ROOT
HETATM    1  C1  UNL     1     -35.426  16.942  -1.288  1.00 20.00     0.008 C 
HETATM    2  C2  UNL     1     -35.520  17.561  -0.102  1.00 20.00     0.028 C 
HETATM    3  C3  UNL     1     -33.169  17.724  -1.768  1.00 20.00    -0.005 C 
HETATM    4  C4  UNL     1     -32.174  18.949   0.244  1.00 20.00     0.015 C 
HETATM    5  C5  UNL     1     -34.187  16.889  -2.061  1.00 20.00    -0.065 C 
HETATM    6  C6  UNL     1     -32.589  18.745   1.502  1.00 20.00     0.028 C 
HETATM    7  C7  UNL     1     -34.274  18.202   0.358  1.00 20.00     0.046 C 
HETATM    8  C8  UNL     1     -33.315  18.744  -0.688  1.00 20.00     0.085 C 
HETATM    9  C9  UNL     1     -34.123  15.888  -3.173  1.00 20.00     0.048 C 
HETATM   10  C10 UNL     1     -31.777  18.903   2.738  1.00 20.00     0.070 C 
HETATM   11  N11 UNL     1     -33.887  18.300   1.592  1.00 20.00    -0.258 NA
ENDROOT
TORSDOF 0
ENDMDL
MODEL 5
REMARK VINA RESULT:      -4.8     10.438     11.111
REMARK  0 active torsions:
REMARK  status: ('A' for Active; 'I' for Inactive)
ROOT
HETATM    1  C1  UNL     1     -33.306  18.395  -0.311  1.00 20.00     0.008 C 
HETATM    2  C2  UNL     1     -32.862  18.053  -1.531  1.00 20.00     0.028 C 
HETATM    3  C3  UNL     1     -35.529  17.445  -0.610  1.00 20.00    -0.005 C 
HETATM    4  C4  UNL     1     -35.684  16.142  -2.804  1.00 20.00     0.015 C 
HETATM    5  C5  UNL     1     -34.594  17.954   0.218  1.00 20.00    -0.065 C 
HETATM    6  C6  UNL     1     -34.615  15.621  -3.422  1.00 20.00     0.028 C 
HETATM    7  C7  UNL     1     -33.788  17.207  -2.306  1.00 20.00     0.046 C 
HETATM    8  C8  UNL     1     -35.280  17.377  -2.081  1.00 20.00     0.085 C 
HETATM    9  C9  UNL     1     -34.810  18.107   1.692  1.00 20.00     0.048 C 
HETATM   10  C10 UNL     1     -34.598  14.421  -4.299  1.00 20.00     0.070 C 
HETATM   11  N11 UNL     1     -33.439  16.275  -3.140  1.00 20.00    -0.258 NA
ENDROOT
TORSDOF 0
ENDMDL
MODEL 6
REMARK VINA RESULT:      -4.8     10.553     11.192
REMARK  0 active torsions:
REMARK  status: ('A' for Active; 'I' for Inactive)
ROOT
HETATM    1  C1  UNL     1     -32.378  18.884   1.258  1.00 20.00     0.008 C 
HETATM    2  C2  UNL     1     -32.198  18.783  -0.068  1.00 20.00     0.028 C 
HETATM    3  C3  UNL     1     -34.682  18.091   1.229  1.00 20.00    -0.005 C 
HETATM    4  C4  UNL     1     -35.341  17.269  -1.100  1.00 20.00     0.015 C 
HETATM    5  C5  UNL     1     -33.573  18.388   1.938  1.00 20.00    -0.065 C 
HETATM    6  C6  UNL     1     -34.448  16.849  -2.006  1.00 20.00     0.028 C 
HETATM    7  C7  UNL     1     -33.312  18.144  -0.792  1.00 20.00     0.046 C 
HETATM    8  C8  UNL     1     -34.718  18.316  -0.246  1.00 20.00     0.085 C 
HETATM    9  C9  UNL     1     -33.496  18.245   3.427  1.00 20.00     0.048 C 
HETATM   10  C10 UNL     1     -34.684  15.853  -3.085  1.00 20.00     0.070 C 
HETATM   11  N11 UNL     1     -33.195  17.391  -1.843  1.00 20.00    -0.258 NA
ENDROOT
TORSDOF 0
ENDMDL
MODEL 7
REMARK VINA RESULT:      -4.7     10.698     11.417
REMARK  0 active torsions:
REMARK  status: ('A' for Active; 'I' for Inactive)
ROOT
HETATM    1  C1  UNL     1     -35.766  16.684  -2.118  1.00 20.00     0.008 C 
HETATM    2  C2  UNL     1     -35.843  17.503  -1.058  1.00 20.00     0.028 C 
HETATM    3  C3  UNL     1     -33.400  17.086  -2.538  1.00 20.00    -0.005 C 
HETATM    4  C4  UNL     1     -32.365  18.504  -0.679  1.00 20.00     0.015 C 
HETATM    5  C5  UNL     1     -34.503  16.347  -2.772  1.00 20.00    -0.065 C 
HETATM    6  C6  UNL     1     -32.875  18.571   0.558  1.00 20.00     0.028 C 
HETATM    7  C7  UNL     1     -34.550  18.054  -0.612  1.00 20.00     0.046 C 
HETATM    8  C8  UNL     1     -33.468  18.286  -1.653  1.00 20.00     0.085 C 
HETATM    9  C9  UNL     1     -34.512  15.170  -3.699  1.00 20.00     0.048 C 
HETATM   10  C10 UNL     1     -32.120  18.836   1.812  1.00 20.00     0.070 C 
HETATM   11  N11 UNL     1     -34.224  18.312   0.617  1.00 20.00    -0.258 NA
ENDROOT
TORSDOF 0
ENDMDL
MODEL 8
REMARK VINA RESULT:      -4.6     10.598     11.105
REMARK  0 active torsions:
REMARK  status: ('A' for Active; 'I' for Inactive)
ROOT
HETATM    1  C1  UNL     1     -33.705  17.547  -1.192  1.00 20.00     0.008 C 
HETATM    2  C2  UNL     1     -33.274  17.014  -2.346  1.00 20.00     0.028 C 
HETATM    3  C3  UNL     1     -36.067  17.139  -1.630  1.00 20.00    -0.005 C 
HETATM    4  C4  UNL     1     -36.380  15.743  -3.749  1.00 20.00     0.015 C 
HETATM    5  C5  UNL     1     -35.097  17.471  -0.754  1.00 20.00    -0.065 C 
HETATM    6  C6  UNL     1     -35.431  14.934  -4.238  1.00 20.00     0.028 C 
HETATM    7  C7  UNL     1     -34.321  16.357  -3.149  1.00 20.00     0.046 C 
HETATM    8  C8  UNL     1     -35.737  16.898  -3.066  1.00 20.00     0.085 C 
HETATM    9  C9  UNL     1     -35.373  17.787   0.684  1.00 20.00     0.048 C 
HETATM   10  C10 UNL     1     -35.647  13.700  -5.039  1.00 20.00     0.070 C 
HETATM   11  N11 UNL     1     -34.153  15.306  -3.892  1.00 20.00    -0.258 NA
ENDROOT
TORSDOF 0
ENDMDL
MODEL 9
REMARK VINA RESULT:      -4.5     10.676     11.781
REMARK  0 active torsions:
REMARK  status: ('A' for Active; 'I' for Inactive)
ROOT
HETATM    1  C1  UNL     1     -34.237  14.893  -6.348  1.00 20.00     0.008 C 
HETATM    2  C2  UNL     1     -33.477  15.996  -6.261  1.00 20.00     0.028 C 
HETATM    3  C3  UNL     1     -34.635  14.709  -3.952  1.00 20.00    -0.005 C 
HETATM    4  C4  UNL     1     -33.712  16.743  -2.708  1.00 20.00     0.015 C 
HETATM    5  C5  UNL     1     -34.954  14.330  -5.206  1.00 20.00    -0.065 C 
HETATM    6  C6  UNL     1     -33.522  17.933  -3.293  1.00 20.00     0.028 C 
HETATM    7  C7  UNL     1     -33.407  16.589  -4.913  1.00 20.00     0.046 C 
HETATM    8  C8  UNL     1     -33.513  15.664  -3.713  1.00 20.00     0.085 C 
HETATM    9  C9  UNL     1     -36.026  13.328  -5.506  1.00 20.00     0.048 C 
HETATM   10  C10 UNL     1     -33.568  19.263  -2.630  1.00 20.00     0.070 C 
HETATM   11  N11 UNL     1     -33.316  17.856  -4.651  1.00 20.00    -0.258 NA
ENDROOT
TORSDOF 0
ENDMDL
