MODEL 1
REMARK VINA RESULT:      -6.0      0.000      0.000
REMARK  1 active torsions:
REMARK  status: ('A' for Active; 'I' for Inactive)
REMARK    1  A    between atoms: C3_3  and  C7_7 
ROOT
HETATM    1  C1  UNL     1     -32.986   7.958   3.996  1.00 20.00     0.024 A 
HETATM    2  C2  UNL     1     -33.027   6.583   2.056  1.00 20.00     0.131 A 
HETATM    3  C3  UNL     1     -32.679   7.786   2.650  1.00 20.00     0.024 A 
HETATM    4  C4  UNL     1     -33.620   6.938   4.695  1.00 20.00    -0.021 A 
HETATM    5  C5  UNL     1     -33.926   5.774   4.009  1.00 20.00     0.131 A 
HETATM    6  C6  UNL     1     -33.947   7.129   6.137  1.00 20.00     0.051 C 
HETATM    7  N8  UNL     1     -33.644   5.569   2.702  1.00 20.00    -0.248 NA
HETATM    8 CL11 UNL     1     -34.711   4.442   4.764  1.00 20.00    -0.062 Cl
ENDROOT
BRANCH   3   9
HETATM    9  C7  UNL     1     -32.002   8.858   1.874  1.00 20.00     0.388 C 
HETATM   10  F9  UNL     1     -32.908   9.633   1.219  1.00 20.00    -0.209 F 
HETATM   11  F10 UNL     1     -31.191   8.329   0.918  1.00 20.00    -0.209 F 
ENDBRANCH   3   9
TORSDOF 1
ENDMDL
MODEL 2
REMARK VINA RESULT:      -5.3      1.713      2.354
REMARK  1 active torsions:
REMARK  status: ('A' for Active; 'I' for Inactive)
REMARK    1  A    between atoms: C3_3  and  C7_7 
ROOT
HETATM    1  C1  UNL     1     -33.424   7.330   2.183  1.00 20.00     0.024 A 
HETATM    2  C2  UNL     1     -31.751   8.678   3.204  1.00 20.00     0.131 A 
HETATM    3  C3  UNL     1     -32.376   8.234   2.049  1.00 20.00     0.024 A 
HETATM    4  C4  UNL     1     -33.811   6.906   3.450  1.00 20.00    -0.021 A 
HETATM    5  C5  UNL     1     -33.122   7.409   4.541  1.00 20.00     0.131 A 
HETATM    6  C6  UNL     1     -34.935   5.936   3.588  1.00 20.00     0.051 C 
HETATM    7  N8  UNL     1     -32.098   8.288   4.450  1.00 20.00    -0.248 NA
HETATM    8 CL11 UNL     1     -33.505   6.959   6.156  1.00 20.00    -0.062 Cl
ENDROOT
BRANCH   3   9
HETATM    9  C7  UNL     1     -31.937   8.707   0.709  1.00 20.00     0.388 C 
HETATM   10  F9  UNL     1     -30.644   8.361   0.468  1.00 20.00    -0.209 F 
HETATM   11  F10 UNL     1     -31.991  10.064   0.630  1.00 20.00    -0.209 F 
ENDBRANCH   3   9
TORSDOF 1
ENDMDL
MODEL 3
REMARK VINA RESULT:      -5.0      3.562      4.223
REMARK  1 active torsions:
REMARK  status: ('A' for Active; 'I' for Inactive)
REMARK    1  A    between atoms: C3_3  and  C7_7 
ROOT
HETATM    1  C1  UNL     1     -33.175   7.111   4.645  1.00 20.00     0.024 A 
HETATM    2  C2  UNL     1     -34.071   5.955   2.769  1.00 20.00     0.131 A 
HETATM    3  C3  UNL     1     -34.023   6.130   4.144  1.00 20.00     0.024 A 
HETATM    4  C4  UNL     1     -32.413   7.877   3.770  1.00 20.00    -0.021 A 
HETATM    5  C5  UNL     1     -32.533   7.624   2.414  1.00 20.00     0.131 A 
HETATM    6  C6  UNL     1     -31.505   8.927   4.314  1.00 20.00     0.051 C 
HETATM    7  N8  UNL     1     -33.345   6.679   1.889  1.00 20.00    -0.248 NA
HETATM    8 CL11 UNL     1     -31.641   8.503   1.234  1.00 20.00    -0.062 Cl
ENDROOT
BRANCH   3   9
HETATM    9  C7  UNL     1     -34.852   5.293   5.052  1.00 20.00     0.388 C 
HETATM   10  F9  UNL     1     -34.702   5.684   6.347  1.00 20.00    -0.209 F 
HETATM   11  F10 UNL     1     -34.466   3.989   5.000  1.00 20.00    -0.209 F 
ENDBRANCH   3   9
TORSDOF 1
ENDMDL
MODEL 4
REMARK VINA RESULT:      -4.7     11.440     11.885
REMARK  1 active torsions:
REMARK  status: ('A' for Active; 'I' for Inactive)
REMARK    1  A    between atoms: C3_3  and  C7_7 
ROOT
HETATM    1  C1  UNL     1     -35.098  15.173  -3.850  1.00 20.00     0.024 A 
HETATM    2  C2  UNL     1     -33.353  16.582  -4.642  1.00 20.00     0.131 A 
HETATM    3  C3  UNL     1     -34.230  16.236  -3.626  1.00 20.00     0.024 A 
HETATM    4  C4  UNL     1     -35.063  14.498  -5.065  1.00 20.00    -0.021 A 
HETATM    5  C5  UNL     1     -34.149  14.923  -6.016  1.00 20.00     0.131 A 
HETATM    6  C6  UNL     1     -35.996  13.360  -5.300  1.00 20.00     0.051 C 
HETATM    7  N8  UNL     1     -33.290  15.951  -5.836  1.00 20.00    -0.248 NA
HETATM    8 CL11 UNL     1     -34.012  14.169  -7.557  1.00 20.00    -0.062 Cl
ENDROOT
BRANCH   3   9
HETATM    9  C7  UNL     1     -34.243  16.979  -2.338  1.00 20.00     0.388 C 
HETATM   10  F9  UNL     1     -33.008  16.984  -1.765  1.00 20.00    -0.209 F 
HETATM   11  F10 UNL     1     -35.077  16.386  -1.442  1.00 20.00    -0.209 F 
ENDBRANCH   3   9
TORSDOF 1
ENDMDL
MODEL 5
REMARK VINA RESULT:      -4.5     11.222     11.453
REMARK  1 active torsions:
REMARK  status: ('A' for Active; 'I' for Inactive)
REMARK    1  A    between atoms: C3_3  and  C7_7 
ROOT
HETATM    1  C1  UNL     1     -35.438  16.883  -1.220  1.00 20.00     0.024 A 
HETATM    2  C2  UNL     1     -33.372  17.265  -2.334  1.00 20.00     0.131 A 
HETATM    3  C3  UNL     1     -34.632  16.688  -2.336  1.00 20.00     0.024 A 
HETATM    4  C4  UNL     1     -34.966  17.638  -0.152  1.00 20.00    -0.021 A 
HETATM    5  C5  UNL     1     -33.691  18.171  -0.248  1.00 20.00     0.131 A 
HETATM    6  C6  UNL     1     -35.834  17.843   1.042  1.00 20.00     0.051 C 
HETATM    7  N8  UNL     1     -32.879  18.004  -1.316  1.00 20.00    -0.248 NA
HETATM    8 CL11 UNL     1     -32.996  19.121   1.007  1.00 20.00    -0.062 Cl
ENDROOT
BRANCH   3   9
HETATM    9  C7  UNL     1     -35.107  15.885  -3.495  1.00 20.00     0.388 C 
HETATM   10  F9  UNL     1     -36.443  15.645  -3.407  1.00 20.00    -0.209 F 
HETATM   11  F10 UNL     1     -34.501  14.667  -3.524  1.00 20.00    -0.209 F 
ENDBRANCH   3   9
TORSDOF 1
ENDMDL
MODEL 6
REMARK VINA RESULT:      -4.5     11.207     11.458
REMARK  1 active torsions:
REMARK  status: ('A' for Active; 'I' for Inactive)
REMARK    1  A    between atoms: C3_3  and  C7_7 
ROOT
HETATM    1  C1  UNL     1     -33.226  17.486  -1.706  1.00 20.00     0.024 A 
HETATM    2  C2  UNL     1     -35.495  16.829  -1.427  1.00 20.00     0.131 A 
HETATM    3  C3  UNL     1     -34.341  16.813  -2.194  1.00 20.00     0.024 A 
HETATM    4  C4  UNL     1     -33.298  18.143  -0.483  1.00 20.00    -0.021 A 
HETATM    5  C5  UNL     1     -34.499  18.100   0.207  1.00 20.00     0.131 A 
HETATM    6  C6  UNL     1     -32.100  18.863   0.035  1.00 20.00     0.051 C 
HETATM    7  N8  UNL     1     -35.603  17.457  -0.235  1.00 20.00    -0.248 NA
HETATM    8 CL11 UNL     1     -34.712  18.875   1.728  1.00 20.00    -0.062 Cl
ENDROOT
BRANCH   3   9
HETATM    9  C7  UNL     1     -34.296  16.101  -3.499  1.00 20.00     0.388 C 
HETATM   10  F9  UNL     1     -35.178  15.065  -3.519  1.00 20.00    -0.209 F 
HETATM   11  F10 UNL     1     -33.067  15.561  -3.718  1.00 20.00    -0.209 F 
ENDBRANCH   3   9
TORSDOF 1
ENDMDL
MODEL 7
REMARK VINA RESULT:      -4.5     11.598     11.791
REMARK  1 active torsions:
REMARK  status: ('A' for Active; 'I' for Inactive)
REMARK    1  A    between atoms: C3_3  and  C7_7 
ROOT
HETATM    1  C1  UNL     1     -34.219  18.128   0.459  1.00 20.00     0.024 A 
HETATM    2  C2  UNL     1     -32.611  17.981  -1.288  1.00 20.00     0.131 A 
HETATM    3  C3  UNL     1     -33.921  17.819  -0.864  1.00 20.00     0.024 A 
HETATM    4  C4  UNL     1     -33.213  18.583   1.304  1.00 20.00    -0.021 A 
HETATM    5  C5  UNL     1     -31.936  18.709   0.782  1.00 20.00     0.131 A 
HETATM    6  C6  UNL     1     -33.538  18.911   2.721  1.00 20.00     0.051 C 
HETATM    7  N8  UNL     1     -31.608  18.419  -0.497  1.00 20.00    -0.248 NA
HETATM    8 CL11 UNL     1     -30.608  19.260   1.729  1.00 20.00    -0.062 Cl
ENDROOT
BRANCH   3   9
HETATM    9  C7  UNL     1     -34.974  17.330  -1.794  1.00 20.00     0.388 C 
HETATM   10  F9  UNL     1     -36.191  17.314  -1.187  1.00 20.00    -0.209 F 
HETATM   11  F10 UNL     1     -34.724  16.050  -2.183  1.00 20.00    -0.209 F 
ENDBRANCH   3   9
TORSDOF 1
ENDMDL
MODEL 8
REMARK VINA RESULT:      -4.4     11.178     11.430
REMARK  1 active torsions:
REMARK  status: ('A' for Active; 'I' for Inactive)
REMARK    1  A    between atoms: C3_3  and  C7_7 
ROOT
HETATM    1  C1  UNL     1     -33.534  16.398  -2.802  1.00 20.00     0.024 A 
HETATM    2  C2  UNL     1     -35.540  15.696  -3.871  1.00 20.00     0.131 A 
HETATM    3  C3  UNL     1     -34.156  15.655  -3.800  1.00 20.00     0.024 A 
HETATM    4  C4  UNL     1     -34.304  17.147  -1.919  1.00 20.00    -0.021 A 
HETATM    5  C5  UNL     1     -35.680  17.121  -2.075  1.00 20.00     0.131 A 
HETATM    6  C6  UNL     1     -33.631  17.942  -0.852  1.00 20.00     0.051 C 
HETATM    7  N8  UNL     1     -36.320  16.412  -3.032  1.00 20.00    -0.248 NA
HETATM    8 CL11 UNL     1     -36.737  18.006  -1.046  1.00 20.00    -0.062 Cl
ENDROOT
BRANCH   3   9
HETATM    9  C7  UNL     1     -33.362  14.844  -4.761  1.00 20.00     0.388 C 
HETATM   10  F9  UNL     1     -32.514  14.005  -4.107  1.00 20.00    -0.209 F 
HETATM   11  F10 UNL     1     -32.584  15.640  -5.544  1.00 20.00    -0.209 F 
ENDBRANCH   3   9
TORSDOF 1
ENDMDL
MODEL 9
REMARK VINA RESULT:      -4.4     11.125     11.693
REMARK  1 active torsions:
REMARK  status: ('A' for Active; 'I' for Inactive)
REMARK    1  A    between atoms: C3_3  and  C7_7 
ROOT
HETATM    1  C1  UNL     1     -36.122  15.821  -3.708  1.00 20.00     0.024 A 
HETATM    2  C2  UNL     1     -36.303  13.870  -5.057  1.00 20.00     0.131 A 
HETATM    3  C3  UNL     1     -36.917  14.955  -4.451  1.00 20.00     0.024 A 
HETATM    4  C4  UNL     1     -34.757  15.579  -3.596  1.00 20.00    -0.021 A 
HETATM    5  C5  UNL     1     -34.241  14.466  -4.239  1.00 20.00     0.131 A 
HETATM    6  C6  UNL     1     -33.910  16.509  -2.797  1.00 20.00     0.051 C 
HETATM    7  N8  UNL     1     -34.981  13.602  -4.970  1.00 20.00    -0.248 NA
HETATM    8 CL11 UNL     1     -32.570  14.060  -4.173  1.00 20.00    -0.062 Cl
ENDROOT
BRANCH   3   9
HETATM    9  C7  UNL     1     -38.380  15.185  -4.590  1.00 20.00     0.388 C 
HETATM   10  F9  UNL     1     -38.963  14.193  -5.316  1.00 20.00    -0.209 F 
HETATM   11  F10 UNL     1     -38.629  16.344  -5.257  1.00 20.00    -0.209 F 
ENDBRANCH   3   9
TORSDOF 1
ENDMDL
