MODEL 1
REMARK VINA RESULT:      -4.8      0.000      0.000
REMARK  0 active torsions:
REMARK  status: ('A' for Active; 'I' for Inactive)
ROOT
HETATM    1  C1  UNL     1     -34.524   4.881   5.621  1.00 20.00     0.011 A 
HETATM    2  C2  UNL     1     -34.289   6.374   5.873  1.00 20.00     0.011 A 
HETATM    3  C3  UNL     1     -35.226   6.146   3.339  1.00 20.00     0.027 A 
HETATM    4  C4  UNL     1     -33.711   5.908   3.252  1.00 20.00     0.067 A 
HETATM    5  C5  UNL     1     -34.427   5.839   4.521  1.00 20.00    -0.026 A 
HETATM    6 BR6  UNL     1     -32.601   7.416   2.889  1.00 20.00    -0.090 Br
ENDROOT
TORSDOF 0
ENDMDL
MODEL 2
REMARK VINA RESULT:      -4.7      2.418      3.470
REMARK  0 active torsions:
REMARK  status: ('A' for Active; 'I' for Inactive)
ROOT
HETATM    1  C1  UNL     1     -32.416   8.465   1.987  1.00 20.00     0.011 A 
HETATM    2  C2  UNL     1     -31.510   8.223   3.198  1.00 20.00     0.011 A 
HETATM    3  C3  UNL     1     -33.139   6.066   2.997  1.00 20.00     0.027 A 
HETATM    4  C4  UNL     1     -33.931   7.121   3.783  1.00 20.00     0.067 A 
HETATM    5  C5  UNL     1     -32.747   7.472   3.006  1.00 20.00    -0.026 A 
HETATM    6 BR6  UNL     1     -33.817   7.072   5.686  1.00 20.00    -0.090 Br
ENDROOT
TORSDOF 0
ENDMDL
MODEL 3
REMARK VINA RESULT:      -4.2      1.148      1.885
REMARK  0 active torsions:
REMARK  status: ('A' for Active; 'I' for Inactive)
ROOT
HETATM    1  C1  UNL     1     -35.359   5.459   4.133  1.00 20.00     0.011 A 
HETATM    2  C2  UNL     1     -33.956   4.893   3.889  1.00 20.00     0.011 A 
HETATM    3  C3  UNL     1     -33.650   7.117   5.410  1.00 20.00     0.027 A 
HETATM    4  C4  UNL     1     -33.720   7.606   3.956  1.00 20.00     0.067 A 
HETATM    5  C5  UNL     1     -34.159   6.268   4.337  1.00 20.00    -0.026 A 
HETATM    6 BR6  UNL     1     -32.074   7.814   3.016  1.00 20.00    -0.090 Br
ENDROOT
TORSDOF 0
ENDMDL
MODEL 4
REMARK VINA RESULT:      -4.2      1.471      1.719
REMARK  0 active torsions:
REMARK  status: ('A' for Active; 'I' for Inactive)
ROOT
HETATM    1  C1  UNL     1     -34.027   6.877   6.003  1.00 20.00     0.011 A 
HETATM    2  C2  UNL     1     -33.354   7.495   4.773  1.00 20.00     0.011 A 
HETATM    3  C3  UNL     1     -35.385   5.951   3.858  1.00 20.00     0.027 A 
HETATM    4  C4  UNL     1     -34.191   5.005   4.053  1.00 20.00     0.067 A 
HETATM    5  C5  UNL     1     -34.227   6.331   4.662  1.00 20.00    -0.026 A 
HETATM    6 BR6  UNL     1     -33.054   4.700   2.553  1.00 20.00    -0.090 Br
ENDROOT
TORSDOF 0
ENDMDL
MODEL 5
REMARK VINA RESULT:      -4.0      3.338      4.592
REMARK  0 active torsions:
REMARK  status: ('A' for Active; 'I' for Inactive)
ROOT
HETATM    1  C1  UNL     1     -31.689   8.960   0.696  1.00 20.00     0.011 A 
HETATM    2  C2  UNL     1     -32.864   9.614   1.430  1.00 20.00     0.011 A 
HETATM    3  C3  UNL     1     -31.380   8.343   3.309  1.00 20.00     0.027 A 
HETATM    4  C4  UNL     1     -32.320   7.279   2.723  1.00 20.00     0.067 A 
HETATM    5  C5  UNL     1     -32.078   8.547   2.043  1.00 20.00    -0.026 A 
HETATM    6 BR6  UNL     1     -33.987   6.996   3.602  1.00 20.00    -0.090 Br
ENDROOT
TORSDOF 0
ENDMDL
MODEL 6
REMARK VINA RESULT:      -4.0      2.429      3.294
REMARK  0 active torsions:
REMARK  status: ('A' for Active; 'I' for Inactive)
ROOT
HETATM    1  C1  UNL     1     -33.798   6.975   3.832  1.00 20.00     0.011 A 
HETATM    2  C2  UNL     1     -33.087   6.214   2.708  1.00 20.00     0.011 A 
HETATM    3  C3  UNL     1     -31.433   8.227   3.455  1.00 20.00     0.027 A 
HETATM    4  C4  UNL     1     -32.412   8.839   2.442  1.00 20.00     0.067 A 
HETATM    5  C5  UNL     1     -32.681   7.562   3.094  1.00 20.00    -0.026 A 
HETATM    6 BR6  UNL     1     -31.885   8.856   0.609  1.00 20.00    -0.090 Br
ENDROOT
TORSDOF 0
ENDMDL
MODEL 7
REMARK VINA RESULT:      -3.9      1.655      2.745
REMARK  0 active torsions:
REMARK  status: ('A' for Active; 'I' for Inactive)
ROOT
HETATM    1  C1  UNL     1     -34.239   5.741   2.103  1.00 20.00     0.011 A 
HETATM    2  C2  UNL     1     -32.882   5.961   2.779  1.00 20.00     0.011 A 
HETATM    3  C3  UNL     1     -34.442   4.647   4.565  1.00 20.00     0.027 A 
HETATM    4  C4  UNL     1     -34.779   6.137   4.726  1.00 20.00     0.067 A 
HETATM    5  C5  UNL     1     -34.077   5.631   3.551  1.00 20.00    -0.026 A 
HETATM    6 BR6  UNL     1     -33.810   7.123   6.039  1.00 20.00    -0.090 Br
ENDROOT
TORSDOF 0
ENDMDL
MODEL 8
REMARK VINA RESULT:      -3.9      1.780      2.261
REMARK  0 active torsions:
REMARK  status: ('A' for Active; 'I' for Inactive)
ROOT
HETATM    1  C1  UNL     1     -33.386   4.372   2.841  1.00 20.00     0.011 A 
HETATM    2  C2  UNL     1     -33.939   4.037   4.230  1.00 20.00     0.011 A 
HETATM    3  C3  UNL     1     -35.169   6.316   3.427  1.00 20.00     0.027 A 
HETATM    4  C4  UNL     1     -33.834   6.753   4.048  1.00 20.00     0.067 A 
HETATM    5  C5  UNL     1     -34.079   5.370   3.652  1.00 20.00    -0.026 A 
HETATM    6 BR6  UNL     1     -33.830   7.204   5.901  1.00 20.00    -0.090 Br
ENDROOT
TORSDOF 0
ENDMDL
MODEL 9
REMARK VINA RESULT:      -3.7      1.980      2.988
REMARK  0 active torsions:
REMARK  status: ('A' for Active; 'I' for Inactive)
ROOT
HETATM    1  C1  UNL     1     -32.833   6.997   2.614  1.00 20.00     0.011 A 
HETATM    2  C2  UNL     1     -32.870   5.466   2.576  1.00 20.00     0.011 A 
HETATM    3  C3  UNL     1     -35.312   6.286   3.419  1.00 20.00     0.027 A 
HETATM    4  C4  UNL     1     -34.424   6.247   4.672  1.00 20.00     0.067 A 
HETATM    5  C5  UNL     1     -33.856   6.236   3.328  1.00 20.00    -0.026 A 
HETATM    6 BR6  UNL     1     -34.420   4.640   5.698  1.00 20.00    -0.090 Br
ENDROOT
TORSDOF 0
ENDMDL
