MODEL 1
REMARK VINA RESULT:      -4.9      0.000      0.000
REMARK  1 active torsions:
REMARK  status: ('A' for Active; 'I' for Inactive)
REMARK    1  A    between atoms: C4_4  and  C8_8 
ROOT
HETATM    1  C1  UNL     1     -31.516   8.653   3.476  1.00 20.00     0.079 A 
HETATM    2  C2  UNL     1     -33.172   6.993   2.572  1.00 20.00     0.088 A 
HETATM    3  C3  UNL     1     -31.996   8.334   4.679  1.00 20.00     0.146 A 
HETATM    4  C4  UNL     1     -33.570   6.755   3.835  1.00 20.00     0.064 A 
HETATM    5  C5  UNL     1     -32.100   7.974   2.303  1.00 20.00     0.176 A 
HETATM    6  O10 UNL     1     -31.714   8.211   1.164  1.00 20.00    -0.288 OA
HETATM    7  O11 UNL     1     -32.992   7.421   4.917  1.00 20.00    -0.326 OA
ENDROOT
BRANCH   4   8
HETATM    8  C8  UNL     1     -34.639   5.784   4.162  1.00 20.00     0.006 A 
HETATM    9  C6  UNL     1     -34.616   5.197   5.552  1.00 20.00     0.017 A 
HETATM   10  C7  UNL     1     -34.210   4.353   4.382  1.00 20.00     0.017 A 
HETATM   11  C9  UNL     1     -35.968   6.038   3.516  1.00 20.00     0.022 C 
ENDBRANCH   4   8
TORSDOF 1
ENDMDL
MODEL 2
REMARK VINA RESULT:      -4.7      1.653      4.065
REMARK  1 active torsions:
REMARK  status: ('A' for Active; 'I' for Inactive)
REMARK    1  A    between atoms: C4_4  and  C8_8 
ROOT
HETATM    1  C1  UNL     1     -34.588   5.590   5.752  1.00 20.00     0.079 A 
HETATM    2  C2  UNL     1     -33.552   5.828   3.474  1.00 20.00     0.088 A 
HETATM    3  C3  UNL     1     -34.124   6.817   5.988  1.00 20.00     0.146 A 
HETATM    4  C4  UNL     1     -33.139   7.057   3.831  1.00 20.00     0.064 A 
HETATM    5  C5  UNL     1     -34.319   4.997   4.428  1.00 20.00     0.176 A 
HETATM    6  O10 UNL     1     -34.711   3.874   4.133  1.00 20.00    -0.288 OA
HETATM    7  O11 UNL     1     -33.413   7.580   5.095  1.00 20.00    -0.326 OA
ENDROOT
BRANCH   4   8
HETATM    8  C8  UNL     1     -32.367   7.931   2.916  1.00 20.00     0.006 A 
HETATM    9  C6  UNL     1     -33.168   8.853   2.029  1.00 20.00     0.017 A 
HETATM   10  C7  UNL     1     -32.498   7.649   1.439  1.00 20.00     0.017 A 
HETATM   11  C9  UNL     1     -31.046   8.411   3.437  1.00 20.00     0.022 C 
ENDBRANCH   4   8
TORSDOF 1
ENDMDL
MODEL 3
REMARK VINA RESULT:      -4.7      1.566      4.433
REMARK  1 active torsions:
REMARK  status: ('A' for Active; 'I' for Inactive)
REMARK    1  A    between atoms: C4_4  and  C8_8 
ROOT
HETATM    1  C1  UNL     1     -34.311   4.668   4.172  1.00 20.00     0.079 A 
HETATM    2  C2  UNL     1     -33.622   7.063   4.497  1.00 20.00     0.088 A 
HETATM    3  C3  UNL     1     -33.578   4.706   3.059  1.00 20.00     0.146 A 
HETATM    4  C4  UNL     1     -32.915   6.977   3.355  1.00 20.00     0.064 A 
HETATM    5  C5  UNL     1     -34.380   5.894   4.990  1.00 20.00     0.176 A 
HETATM    6  O10 UNL     1     -35.032   5.940   6.027  1.00 20.00    -0.288 OA
HETATM    7  O11 UNL     1     -32.878   5.798   2.610  1.00 20.00    -0.326 OA
ENDROOT
BRANCH   4   8
HETATM    8  C8  UNL     1     -32.139   8.116   2.814  1.00 20.00     0.006 A 
HETATM    9  C6  UNL     1     -32.883   9.076   1.918  1.00 20.00     0.017 A 
HETATM   10  C7  UNL     1     -31.893   8.121   1.325  1.00 20.00     0.017 A 
HETATM   11  C9  UNL     1     -31.072   8.662   3.715  1.00 20.00     0.022 C 
ENDBRANCH   4   8
TORSDOF 1
ENDMDL
MODEL 4
REMARK VINA RESULT:      -4.6      0.955      1.469
REMARK  1 active torsions:
REMARK  status: ('A' for Active; 'I' for Inactive)
REMARK    1  A    between atoms: C4_4  and  C8_8 
ROOT
HETATM    1  C1  UNL     1     -31.420   8.884   2.403  1.00 20.00     0.079 A 
HETATM    2  C2  UNL     1     -33.525   7.512   2.417  1.00 20.00     0.088 A 
HETATM    3  C3  UNL     1     -31.277   8.506   3.674  1.00 20.00     0.146 A 
HETATM    4  C4  UNL     1     -33.271   7.200   3.700  1.00 20.00     0.064 A 
HETATM    5  C5  UNL     1     -32.600   8.390   1.669  1.00 20.00     0.176 A 
HETATM    6  O10 UNL     1     -32.803   8.691   0.498  1.00 20.00    -0.288 OA
HETATM    7  O11 UNL     1     -32.143   7.691   4.359  1.00 20.00    -0.326 OA
ENDROOT
BRANCH   4   8
HETATM    8  C8  UNL     1     -34.164   6.327   4.497  1.00 20.00     0.006 A 
HETATM    9  C6  UNL     1     -34.276   4.890   4.050  1.00 20.00     0.017 A 
HETATM   10  C7  UNL     1     -35.415   5.834   3.813  1.00 20.00     0.017 A 
HETATM   11  C9  UNL     1     -34.223   6.624   5.965  1.00 20.00     0.022 C 
ENDBRANCH   4   8
TORSDOF 1
ENDMDL
MODEL 5
REMARK VINA RESULT:      -4.6      1.715      4.567
REMARK  1 active torsions:
REMARK  status: ('A' for Active; 'I' for Inactive)
REMARK    1  A    between atoms: C4_4  and  C8_8 
ROOT
HETATM    1  C1  UNL     1     -33.975   6.069   4.064  1.00 20.00     0.079 A 
HETATM    2  C2  UNL     1     -32.791   8.240   3.618  1.00 20.00     0.088 A 
HETATM    3  C3  UNL     1     -33.976   5.906   2.740  1.00 20.00     0.146 A 
HETATM    4  C4  UNL     1     -32.852   7.962   2.303  1.00 20.00     0.064 A 
HETATM    5  C5  UNL     1     -33.359   7.295   4.604  1.00 20.00     0.176 A 
HETATM    6  O10 UNL     1     -33.317   7.519   5.808  1.00 20.00    -0.288 OA
HETATM    7  O11 UNL     1     -33.447   6.790   1.834  1.00 20.00    -0.326 OA
ENDROOT
BRANCH   4   8
HETATM    8  C8  UNL     1     -32.301   8.873   1.273  1.00 20.00     0.006 A 
HETATM    9  C6  UNL     1     -32.649  10.335   1.409  1.00 20.00     0.017 A 
HETATM   10  C7  UNL     1     -33.295   9.514   0.335  1.00 20.00     0.017 A 
HETATM   11  C9  UNL     1     -30.949   8.507   0.737  1.00 20.00     0.022 C 
ENDBRANCH   4   8
TORSDOF 1
ENDMDL
MODEL 6
REMARK VINA RESULT:      -4.5     11.279     12.293
REMARK  1 active torsions:
REMARK  status: ('A' for Active; 'I' for Inactive)
REMARK    1  A    between atoms: C4_4  and  C8_8 
ROOT
HETATM    1  C1  UNL     1     -33.819  14.937  -5.773  1.00 20.00     0.079 A 
HETATM    2  C2  UNL     1     -34.785  15.213  -3.470  1.00 20.00     0.088 A 
HETATM    3  C3  UNL     1     -33.247  16.125  -5.574  1.00 20.00     0.146 A 
HETATM    4  C4  UNL     1     -34.156  16.398  -3.387  1.00 20.00     0.064 A 
HETATM    5  C5  UNL     1     -34.657  14.388  -4.690  1.00 20.00     0.176 A 
HETATM    6  O10 UNL     1     -35.216  13.302  -4.796  1.00 20.00    -0.288 OA
HETATM    7  O11 UNL     1     -33.374  16.882  -4.437  1.00 20.00    -0.326 OA
ENDROOT
BRANCH   4   8
HETATM    8  C8  UNL     1     -34.251  17.266  -2.190  1.00 20.00     0.006 A 
HETATM    9  C6  UNL     1     -35.368  16.961  -1.223  1.00 20.00     0.017 A 
HETATM   10  C7  UNL     1     -35.456  18.170  -2.103  1.00 20.00     0.017 A 
HETATM   11  C9  UNL     1     -32.946  17.761  -1.641  1.00 20.00     0.022 C 
ENDBRANCH   4   8
TORSDOF 1
ENDMDL
MODEL 7
REMARK VINA RESULT:      -4.5     11.253     12.340
REMARK  1 active torsions:
REMARK  status: ('A' for Active; 'I' for Inactive)
REMARK    1  A    between atoms: C4_4  and  C8_8 
ROOT
HETATM    1  C1  UNL     1     -33.834  14.945  -5.763  1.00 20.00     0.079 A 
HETATM    2  C2  UNL     1     -34.741  15.216  -3.435  1.00 20.00     0.088 A 
HETATM    3  C3  UNL     1     -33.276  16.143  -5.584  1.00 20.00     0.146 A 
HETATM    4  C4  UNL     1     -34.128  16.412  -3.374  1.00 20.00     0.064 A 
HETATM    5  C5  UNL     1     -34.633  14.388  -4.655  1.00 20.00     0.176 A 
HETATM    6  O10 UNL     1     -35.178  13.294  -4.741  1.00 20.00    -0.288 OA
HETATM    7  O11 UNL     1     -33.383  16.904  -4.447  1.00 20.00    -0.326 OA
ENDROOT
BRANCH   4   8
HETATM    8  C8  UNL     1     -34.203  17.283  -2.178  1.00 20.00     0.006 A 
HETATM    9  C6  UNL     1     -33.740  18.709  -2.352  1.00 20.00     0.017 A 
HETATM   10  C7  UNL     1     -32.890  17.739  -1.590  1.00 20.00     0.017 A 
HETATM   11  C9  UNL     1     -35.346  17.012  -1.247  1.00 20.00     0.022 C 
ENDBRANCH   4   8
TORSDOF 1
ENDMDL
MODEL 8
REMARK VINA RESULT:      -4.4     11.095     11.955
REMARK  1 active torsions:
REMARK  status: ('A' for Active; 'I' for Inactive)
REMARK    1  A    between atoms: C4_4  and  C8_8 
ROOT
HETATM    1  C1  UNL     1     -34.347  17.765  -0.554  1.00 20.00     0.079 A 
HETATM    2  C2  UNL     1     -33.279  17.026  -2.705  1.00 20.00     0.088 A 
HETATM    3  C3  UNL     1     -35.422  17.092  -0.966  1.00 20.00     0.146 A 
HETATM    4  C4  UNL     1     -34.420  16.382  -3.009  1.00 20.00     0.064 A 
HETATM    5  C5  UNL     1     -33.164  17.773  -1.434  1.00 20.00     0.176 A 
HETATM    6  O10 UNL     1     -32.137  18.367  -1.128  1.00 20.00    -0.288 OA
HETATM    7  O11 UNL     1     -35.518  16.402  -2.149  1.00 20.00    -0.326 OA
ENDROOT
BRANCH   4   8
HETATM    8  C8  UNL     1     -34.591  15.620  -4.268  1.00 20.00     0.006 A 
HETATM    9  C6  UNL     1     -35.869  14.831  -4.411  1.00 20.00     0.017 A 
HETATM   10  C7  UNL     1     -34.578  14.115  -4.154  1.00 20.00     0.017 A 
HETATM   11  C9  UNL     1     -33.998  16.247  -5.494  1.00 20.00     0.022 C 
ENDBRANCH   4   8
TORSDOF 1
ENDMDL
MODEL 9
REMARK VINA RESULT:      -4.4     11.283     12.194
REMARK  1 active torsions:
REMARK  status: ('A' for Active; 'I' for Inactive)
REMARK    1  A    between atoms: C4_4  and  C8_8 
ROOT
HETATM    1  C1  UNL     1     -35.595  13.676  -5.034  1.00 20.00     0.079 A 
HETATM    2  C2  UNL     1     -36.660  15.615  -3.843  1.00 20.00     0.088 A 
HETATM    3  C3  UNL     1     -34.438  14.147  -4.569  1.00 20.00     0.146 A 
HETATM    4  C4  UNL     1     -35.435  15.990  -3.433  1.00 20.00     0.064 A 
HETATM    5  C5  UNL     1     -36.825  14.411  -4.685  1.00 20.00     0.176 A 
HETATM    6  O10 UNL     1     -37.928  14.043  -5.073  1.00 20.00    -0.288 OA
HETATM    7  O11 UNL     1     -34.296  15.266  -3.788  1.00 20.00    -0.326 OA
ENDROOT
BRANCH   4   8
HETATM    8  C8  UNL     1     -35.211  17.187  -2.589  1.00 20.00     0.006 A 
HETATM    9  C6  UNL     1     -34.000  17.161  -1.689  1.00 20.00     0.017 A 
HETATM   10  C7  UNL     1     -35.368  17.003  -1.099  1.00 20.00     0.017 A 
HETATM   11  C9  UNL     1     -35.624  18.495  -3.194  1.00 20.00     0.022 C 
ENDBRANCH   4   8
TORSDOF 1
ENDMDL
