MODEL 1
REMARK VINA RESULT:      -5.1      0.000      0.000
REMARK  0 active torsions:
REMARK  status: ('A' for Active; 'I' for Inactive)
ROOT
HETATM    1  C1  UNL     1     -36.703  14.033  -5.230  1.00 20.00     0.147 A 
HETATM    2  C2  UNL     1     -36.139  15.175  -4.635  1.00 20.00    -0.015 A 
HETATM    3  C3  UNL     1     -34.915  14.751  -4.173  1.00 20.00     0.036 A 
HETATM    4  C4  UNL     1     -36.636  16.559  -4.454  1.00 20.00     0.043 C 
HETATM    5  C5  UNL     1     -33.889  15.567  -3.477  1.00 20.00     0.068 C 
HETATM    6  C6  UNL     1     -35.483  17.505  -4.054  1.00 20.00     0.014 C 
HETATM    7  C7  UNL     1     -34.509  16.913  -2.983  1.00 20.00    -0.042 C 
HETATM    8  C8  UNL     1     -33.372  17.921  -2.736  1.00 20.00     0.015 C 
HETATM    9  C9  UNL     1     -35.252  16.696  -1.649  1.00 20.00     0.015 C 
HETATM   10  N10 UNL     1     -35.898  12.966  -5.156  1.00 20.00    -0.186 NA
HETATM   11  N11 UNL     1     -34.814  13.435  -4.507  1.00 20.00    -0.282 N 
HETATM   12  H25 UNL     1     -34.048  12.798  -4.326  1.00 20.00     0.189 HD
ENDROOT
TORSDOF 0
ENDMDL
MODEL 2
REMARK VINA RESULT:      -5.0      1.702      2.249
REMARK  0 active torsions:
REMARK  status: ('A' for Active; 'I' for Inactive)
ROOT
HETATM    1  C1  UNL     1     -34.499  13.570  -7.214  1.00 20.00     0.147 A 
HETATM    2  C2  UNL     1     -34.217  14.575  -6.273  1.00 20.00    -0.015 A 
HETATM    3  C3  UNL     1     -34.850  14.156  -5.126  1.00 20.00     0.036 A 
HETATM    4  C4  UNL     1     -33.459  15.845  -6.360  1.00 20.00     0.043 C 
HETATM    5  C5  UNL     1     -34.859  14.838  -3.808  1.00 20.00     0.068 C 
HETATM    6  C6  UNL     1     -33.158  16.398  -4.949  1.00 20.00     0.014 C 
HETATM    7  C7  UNL     1     -34.363  16.312  -3.956  1.00 20.00    -0.042 C 
HETATM    8  C8  UNL     1     -33.907  16.822  -2.577  1.00 20.00     0.015 C 
HETATM    9  C9  UNL     1     -35.518  17.214  -4.439  1.00 20.00     0.015 C 
HETATM   10  N10 UNL     1     -35.248  12.585  -6.705  1.00 20.00    -0.186 NA
HETATM   11  N11 UNL     1     -35.446  12.970  -5.429  1.00 20.00    -0.282 N 
HETATM   12  H25 UNL     1     -36.000  12.374  -4.826  1.00 20.00     0.189 HD
ENDROOT
TORSDOF 0
ENDMDL
MODEL 3
REMARK VINA RESULT:      -5.0     11.340     12.354
REMARK  0 active torsions:
REMARK  status: ('A' for Active; 'I' for Inactive)
ROOT
HETATM    1  C1  UNL     1     -31.951   8.924   3.392  1.00 20.00     0.147 A 
HETATM    2  C2  UNL     1     -32.670   7.839   3.925  1.00 20.00    -0.015 A 
HETATM    3  C3  UNL     1     -32.672   6.904   2.917  1.00 20.00     0.036 A 
HETATM    4  C4  UNL     1     -33.340   7.626   5.229  1.00 20.00     0.043 C 
HETATM    5  C5  UNL     1     -33.278   5.549   2.954  1.00 20.00     0.068 C 
HETATM    6  C6  UNL     1     -33.674   6.131   5.432  1.00 20.00     0.014 C 
HETATM    7  C7  UNL     1     -34.260   5.427   4.164  1.00 20.00    -0.042 C 
HETATM    8  C8  UNL     1     -34.474   3.936   4.479  1.00 20.00     0.015 C 
HETATM    9  C9  UNL     1     -35.629   6.038   3.799  1.00 20.00     0.015 C 
HETATM   10  N10 UNL     1     -31.526   8.694   2.145  1.00 20.00    -0.186 NA
HETATM   11  N11 UNL     1     -31.980   7.453   1.882  1.00 20.00    -0.282 N 
HETATM   12  H25 UNL     1     -31.780   7.049   0.975  1.00 20.00     0.189 HD
ENDROOT
TORSDOF 0
ENDMDL
MODEL 4
REMARK VINA RESULT:      -4.9     11.471     12.201
REMARK  0 active torsions:
REMARK  status: ('A' for Active; 'I' for Inactive)
ROOT
HETATM    1  C1  UNL     1     -34.541   4.971   5.404  1.00 20.00     0.147 A 
HETATM    2  C2  UNL     1     -34.082   6.116   4.730  1.00 20.00    -0.015 A 
HETATM    3  C3  UNL     1     -33.680   5.650   3.500  1.00 20.00     0.036 A 
HETATM    4  C4  UNL     1     -33.974   7.538   5.130  1.00 20.00     0.043 C 
HETATM    5  C5  UNL     1     -33.130   6.448   2.376  1.00 20.00     0.068 C 
HETATM    6  C6  UNL     1     -33.738   8.436   3.896  1.00 20.00     0.014 C 
HETATM    7  C7  UNL     1     -32.699   7.865   2.876  1.00 20.00    -0.042 C 
HETATM    8  C8  UNL     1     -32.617   8.813   1.666  1.00 20.00     0.015 C 
HETATM    9  C9  UNL     1     -31.300   7.796   3.523  1.00 20.00     0.015 C 
HETATM   10  N10 UNL     1     -34.443   3.864   4.659  1.00 20.00    -0.186 NA
HETATM   11  N11 UNL     1     -33.915   4.309   3.502  1.00 20.00    -0.282 N 
HETATM   12  H25 UNL     1     -33.741   3.640   2.763  1.00 20.00     0.189 HD
ENDROOT
TORSDOF 0
ENDMDL
MODEL 5
REMARK VINA RESULT:      -4.9      1.502      2.242
REMARK  0 active torsions:
REMARK  status: ('A' for Active; 'I' for Inactive)
ROOT
HETATM    1  C1  UNL     1     -36.674  13.827  -5.329  1.00 20.00     0.147 A 
HETATM    2  C2  UNL     1     -35.648  14.551  -4.696  1.00 20.00    -0.015 A 
HETATM    3  C3  UNL     1     -36.310  15.427  -3.868  1.00 20.00     0.036 A 
HETATM    4  C4  UNL     1     -34.172  14.506  -4.813  1.00 20.00     0.043 C 
HETATM    5  C5  UNL     1     -35.702  16.418  -2.944  1.00 20.00     0.068 C 
HETATM    6  C6  UNL     1     -33.509  15.261  -3.639  1.00 20.00     0.014 C 
HETATM    7  C7  UNL     1     -34.191  16.623  -3.286  1.00 20.00    -0.042 C 
HETATM    8  C8  UNL     1     -33.484  17.228  -2.059  1.00 20.00     0.015 C 
HETATM    9  C9  UNL     1     -34.043  17.614  -4.459  1.00 20.00     0.015 C 
HETATM   10  N10 UNL     1     -37.893  14.211  -4.931  1.00 20.00    -0.186 NA
HETATM   11  N11 UNL     1     -37.639  15.187  -4.039  1.00 20.00    -0.282 N 
HETATM   12  H25 UNL     1     -38.422  15.645  -3.590  1.00 20.00     0.189 HD
ENDROOT
TORSDOF 0
ENDMDL
MODEL 6
REMARK VINA RESULT:      -4.7      1.252      1.355
REMARK  0 active torsions:
REMARK  status: ('A' for Active; 'I' for Inactive)
ROOT
HETATM    1  C1  UNL     1     -36.168  13.503  -5.393  1.00 20.00     0.147 A 
HETATM    2  C2  UNL     1     -35.733  14.773  -4.974  1.00 20.00    -0.015 A 
HETATM    3  C3  UNL     1     -34.440  14.859  -5.434  1.00 20.00     0.036 A 
HETATM    4  C4  UNL     1     -36.389  15.850  -4.197  1.00 20.00     0.043 C 
HETATM    5  C5  UNL     1     -33.512  16.009  -5.288  1.00 20.00     0.068 C 
HETATM    6  C6  UNL     1     -35.597  17.171  -4.322  1.00 20.00     0.014 C 
HETATM    7  C7  UNL     1     -34.047  17.003  -4.207  1.00 20.00    -0.042 C 
HETATM    8  C8  UNL     1     -33.382  18.374  -4.424  1.00 20.00     0.015 C 
HETATM    9  C9  UNL     1     -33.667  16.507  -2.796  1.00 20.00     0.015 C 
HETATM   10  N10 UNL     1     -35.226  12.836  -6.071  1.00 20.00    -0.186 NA
HETATM   11  N11 UNL     1     -34.183  13.689  -6.081  1.00 20.00    -0.282 N 
HETATM   12  H25 UNL     1     -33.331  13.402  -6.545  1.00 20.00     0.189 HD
ENDROOT
TORSDOF 0
ENDMDL
MODEL 7
REMARK VINA RESULT:      -4.4     11.643     12.528
REMARK  0 active torsions:
REMARK  status: ('A' for Active; 'I' for Inactive)
ROOT
HETATM    1  C1  UNL     1     -32.448   7.949   2.037  1.00 20.00     0.147 A 
HETATM    2  C2  UNL     1     -33.278   7.142   2.833  1.00 20.00    -0.015 A 
HETATM    3  C3  UNL     1     -32.790   7.305   4.109  1.00 20.00     0.036 A 
HETATM    4  C4  UNL     1     -34.421   6.257   2.511  1.00 20.00     0.043 C 
HETATM    5  C5  UNL     1     -33.316   6.691   5.353  1.00 20.00     0.068 C 
HETATM    6  C6  UNL     1     -35.198   5.881   3.793  1.00 20.00     0.014 C 
HETATM    7  C7  UNL     1     -34.287   5.515   5.011  1.00 20.00    -0.042 C 
HETATM    8  C8  UNL     1     -35.181   5.239   6.233  1.00 20.00     0.015 C 
HETATM    9  C9  UNL     1     -33.483   4.234   4.709  1.00 20.00     0.015 C 
HETATM   10  N10 UNL     1     -31.508   8.580   2.750  1.00 20.00    -0.186 NA
HETATM   11  N11 UNL     1     -31.742   8.168   4.011  1.00 20.00    -0.282 N 
HETATM   12  H25 UNL     1     -31.145   8.517   4.751  1.00 20.00     0.189 HD
ENDROOT
TORSDOF 0
ENDMDL
MODEL 8
REMARK VINA RESULT:      -4.3     10.724     11.537
REMARK  0 active torsions:
REMARK  status: ('A' for Active; 'I' for Inactive)
ROOT
HETATM    1  C1  UNL     1     -34.437   6.272   5.132  1.00 20.00     0.147 A 
HETATM    2  C2  UNL     1     -33.812   6.687   3.943  1.00 20.00    -0.015 A 
HETATM    3  C3  UNL     1     -32.869   7.600   4.355  1.00 20.00     0.036 A 
HETATM    4  C4  UNL     1     -34.028   6.333   2.521  1.00 20.00     0.043 C 
HETATM    5  C5  UNL     1     -31.905   8.337   3.501  1.00 20.00     0.068 C 
HETATM    6  C6  UNL     1     -32.840   6.804   1.655  1.00 20.00     0.014 C 
HETATM    7  C7  UNL     1     -32.325   8.241   1.999  1.00 20.00    -0.042 C 
HETATM    8  C8  UNL     1     -31.099   8.552   1.121  1.00 20.00     0.015 C 
HETATM    9  C9  UNL     1     -33.414   9.287   1.685  1.00 20.00     0.015 C 
HETATM   10  N10 UNL     1     -33.928   6.870   6.215  1.00 20.00    -0.186 NA
HETATM   11  N11 UNL     1     -32.973   7.674   5.710  1.00 20.00    -0.282 N 
HETATM   12  H25 UNL     1     -32.435   8.245   6.350  1.00 20.00     0.189 HD
ENDROOT
TORSDOF 0
ENDMDL
MODEL 9
REMARK VINA RESULT:      -4.2      1.920      2.309
REMARK  0 active torsions:
REMARK  status: ('A' for Active; 'I' for Inactive)
ROOT
HETATM    1  C1  UNL     1     -35.239  13.355  -6.889  1.00 20.00     0.147 A 
HETATM    2  C2  UNL     1     -34.796  14.639  -6.527  1.00 20.00    -0.015 A 
HETATM    3  C3  UNL     1     -34.871  14.651  -5.154  1.00 20.00     0.036 A 
HETATM    4  C4  UNL     1     -34.352  15.807  -7.323  1.00 20.00     0.043 C 
HETATM    5  C5  UNL     1     -34.497  15.765  -4.247  1.00 20.00     0.068 C 
HETATM    6  C6  UNL     1     -33.639  16.841  -6.424  1.00 20.00     0.014 C 
HETATM    7  C7  UNL     1     -34.348  17.095  -5.053  1.00 20.00    -0.042 C 
HETATM    8  C8  UNL     1     -33.498  18.081  -4.230  1.00 20.00     0.015 C 
HETATM    9  C9  UNL     1     -35.733  17.735  -5.280  1.00 20.00     0.015 C 
HETATM   10  N10 UNL     1     -35.564  12.607  -5.828  1.00 20.00    -0.186 NA
HETATM   11  N11 UNL     1     -35.329  13.424  -4.784  1.00 20.00    -0.282 N 
HETATM   12  H25 UNL     1     -35.506  13.076  -3.849  1.00 20.00     0.189 HD
ENDROOT
TORSDOF 0
ENDMDL
