MODEL 1
REMARK VINA RESULT:      -3.7      0.000      0.000
REMARK  0 active torsions:
REMARK  status: ('A' for Active; 'I' for Inactive)
ROOT
HETATM    1  C1  UNL     1     -33.689   5.803   3.191  1.00 20.00     0.031 C 
HETATM    2  C2  UNL     1     -34.774   5.266   4.110  1.00 20.00     0.075 C 
HETATM    3  C3  UNL     1     -33.302   7.297   5.080  1.00 20.00     0.094 C 
HETATM    4  C4  UNL     1     -33.501   7.266   3.572  1.00 20.00     0.092 C 
HETATM    5  S5  UNL     1     -34.463   6.052   5.716  1.00 20.00    -0.168 SA
HETATM    6 CL6  UNL     1     -32.110   7.977   2.728  1.00 20.00    -0.124 Cl
ENDROOT
TORSDOF 0
ENDMDL
MODEL 2
REMARK VINA RESULT:      -3.6      0.980      1.797
REMARK  0 active torsions:
REMARK  status: ('A' for Active; 'I' for Inactive)
ROOT
HETATM    1  C1  UNL     1     -33.610   7.494   4.858  1.00 20.00     0.031 C 
HETATM    2  C2  UNL     1     -34.142   6.329   5.676  1.00 20.00     0.075 C 
HETATM    3  C3  UNL     1     -33.981   5.934   3.021  1.00 20.00     0.094 C 
HETATM    4  C4  UNL     1     -32.956   6.880   3.628  1.00 20.00     0.092 C 
HETATM    5  S5  UNL     1     -34.772   5.145   4.453  1.00 20.00    -0.168 SA
HETATM    6 CL6  UNL     1     -32.472   8.131   2.463  1.00 20.00    -0.124 Cl
ENDROOT
TORSDOF 0
ENDMDL
MODEL 3
REMARK VINA RESULT:      -3.4      1.747      2.033
REMARK  0 active torsions:
REMARK  status: ('A' for Active; 'I' for Inactive)
ROOT
HETATM    1  C1  UNL     1     -34.196   4.699   4.741  1.00 20.00     0.031 C 
HETATM    2  C2  UNL     1     -34.756   5.594   5.833  1.00 20.00     0.075 C 
HETATM    3  C3  UNL     1     -33.182   6.793   4.011  1.00 20.00     0.094 C 
HETATM    4  C4  UNL     1     -33.985   5.595   3.528  1.00 20.00     0.092 C 
HETATM    5  S5  UNL     1     -33.871   7.169   5.650  1.00 20.00    -0.168 SA
HETATM    6 CL6  UNL     1     -33.131   4.734   2.231  1.00 20.00    -0.124 Cl
ENDROOT
TORSDOF 0
ENDMDL
MODEL 4
REMARK VINA RESULT:      -3.3      2.234      2.535
REMARK  0 active torsions:
REMARK  status: ('A' for Active; 'I' for Inactive)
ROOT
HETATM    1  C1  UNL     1     -34.641   5.298   5.355  1.00 20.00     0.031 C 
HETATM    2  C2  UNL     1     -34.292   4.310   4.255  1.00 20.00     0.075 C 
HETATM    3  C3  UNL     1     -33.548   6.861   3.834  1.00 20.00     0.094 C 
HETATM    4  C4  UNL     1     -33.590   6.398   5.282  1.00 20.00     0.092 C 
HETATM    5  S5  UNL     1     -33.726   5.333   2.866  1.00 20.00    -0.168 SA
HETATM    6 CL6  UNL     1     -33.989   7.743   6.372  1.00 20.00    -0.124 Cl
ENDROOT
TORSDOF 0
ENDMDL
MODEL 5
REMARK VINA RESULT:      -3.2      2.600      3.203
REMARK  0 active torsions:
REMARK  status: ('A' for Active; 'I' for Inactive)
ROOT
HETATM    1  C1  UNL     1     -33.690   6.612   5.295  1.00 20.00     0.031 C 
HETATM    2  C2  UNL     1     -33.192   7.939   4.747  1.00 20.00     0.075 C 
HETATM    3  C3  UNL     1     -33.270   5.894   3.002  1.00 20.00     0.094 C 
HETATM    4  C4  UNL     1     -34.307   5.874   4.114  1.00 20.00     0.092 C 
HETATM    5  S5  UNL     1     -32.531   7.551   3.102  1.00 20.00    -0.168 SA
HETATM    6 CL6  UNL     1     -34.744   4.209   4.552  1.00 20.00    -0.124 Cl
ENDROOT
TORSDOF 0
ENDMDL
MODEL 6
REMARK VINA RESULT:      -3.1      2.349      2.890
REMARK  0 active torsions:
REMARK  status: ('A' for Active; 'I' for Inactive)
ROOT
HETATM    1  C1  UNL     1     -32.622   7.590   3.965  1.00 20.00     0.031 C 
HETATM    2  C2  UNL     1     -32.641   7.219   2.492  1.00 20.00     0.075 C 
HETATM    3  C3  UNL     1     -34.116   5.669   4.122  1.00 20.00     0.094 C 
HETATM    4  C4  UNL     1     -33.955   7.124   4.534  1.00 20.00     0.092 C 
HETATM    5  S5  UNL     1     -33.471   5.606   2.424  1.00 20.00    -0.168 SA
HETATM    6 CL6  UNL     1     -33.997   7.296   6.302  1.00 20.00    -0.124 Cl
ENDROOT
TORSDOF 0
ENDMDL
MODEL 7
REMARK VINA RESULT:      -2.8      2.609      2.784
REMARK  0 active torsions:
REMARK  status: ('A' for Active; 'I' for Inactive)
ROOT
HETATM    1  C1  UNL     1     -34.513   5.790   3.449  1.00 20.00     0.031 C 
HETATM    2  C2  UNL     1     -33.512   6.125   2.356  1.00 20.00     0.075 C 
HETATM    3  C3  UNL     1     -33.199   7.429   4.687  1.00 20.00     0.094 C 
HETATM    4  C4  UNL     1     -33.792   6.031   4.768  1.00 20.00     0.092 C 
HETATM    5  S5  UNL     1     -32.605   7.570   2.976  1.00 20.00    -0.168 SA
HETATM    6 CL6  UNL     1     -34.903   5.886   6.146  1.00 20.00    -0.124 Cl
ENDROOT
TORSDOF 0
ENDMDL
MODEL 8
REMARK VINA RESULT:      -2.8      1.271      2.131
REMARK  0 active torsions:
REMARK  status: ('A' for Active; 'I' for Inactive)
ROOT
HETATM    1  C1  UNL     1     -33.897   7.258   4.251  1.00 20.00     0.031 C 
HETATM    2  C2  UNL     1     -33.877   6.977   5.744  1.00 20.00     0.075 C 
HETATM    3  C3  UNL     1     -34.473   4.890   4.155  1.00 20.00     0.094 C 
HETATM    4  C4  UNL     1     -33.544   5.942   3.570  1.00 20.00     0.092 C 
HETATM    5  S5  UNL     1     -34.582   5.313   5.919  1.00 20.00    -0.168 SA
HETATM    6 CL6  UNL     1     -33.737   6.056   1.808  1.00 20.00    -0.124 Cl
ENDROOT
TORSDOF 0
ENDMDL
MODEL 9
REMARK VINA RESULT:      -2.7     11.705     12.134
REMARK  0 active torsions:
REMARK  status: ('A' for Active; 'I' for Inactive)
ROOT
HETATM    1  C1  UNL     1     -34.957  14.048  -4.314  1.00 20.00     0.031 C 
HETATM    2  C2  UNL     1     -35.872  13.542  -5.416  1.00 20.00     0.075 C 
HETATM    3  C3  UNL     1     -36.764  15.659  -4.016  1.00 20.00     0.094 C 
HETATM    4  C4  UNL     1     -35.256  15.534  -4.167  1.00 20.00     0.092 C 
HETATM    5  S5  UNL     1     -37.438  14.428  -5.172  1.00 20.00    -0.168 SA
HETATM    6 CL6  UNL     1     -34.414  16.226  -2.764  1.00 20.00    -0.124 Cl
ENDROOT
TORSDOF 0
ENDMDL
