MODEL 1
REMARK VINA RESULT:      -5.8      0.000      0.000
REMARK  0 active torsions:
REMARK  status: ('A' for Active; 'I' for Inactive)
ROOT
HETATM    1  C1  UNL     1     -34.465   4.295   5.047  1.00 20.00     0.002 C 
HETATM    2  C2  UNL     1     -34.145   4.411   3.748  1.00 20.00     0.030 C 
HETATM    3  C3  UNL     1     -34.378   5.409   5.977  1.00 20.00    -0.001 C 
HETATM    4  C4  UNL     1     -34.272   6.676   5.538  1.00 20.00     0.006 C 
HETATM    5  C5  UNL     1     -33.729   5.762   3.347  1.00 20.00     0.066 C 
HETATM    6  C6  UNL     1     -32.694   7.442   2.664  1.00 20.00     0.219 C 
HETATM    7  C7  UNL     1     -34.287   6.958   4.075  1.00 20.00     0.186 C 
HETATM    8  N8  UNL     1     -32.874   6.099   2.447  1.00 20.00    -0.221 NA
HETATM    9  N9  UNL     1     -33.370   8.017   3.615  1.00 20.00    -0.245 NA
HETATM   10 CL10 UNL     1     -31.549   8.291   1.742  1.00 20.00    -0.041 Cl
ENDROOT
TORSDOF 0
ENDMDL
MODEL 2
REMARK VINA RESULT:      -5.6      1.080      2.121
REMARK  0 active torsions:
REMARK  status: ('A' for Active; 'I' for Inactive)
ROOT
HETATM    1  C1  UNL     1     -34.325   6.405   5.804  1.00 20.00     0.002 C 
HETATM    2  C2  UNL     1     -33.323   7.276   5.610  1.00 20.00     0.030 C 
HETATM    3  C3  UNL     1     -34.957   5.682   4.713  1.00 20.00    -0.001 C 
HETATM    4  C4  UNL     1     -34.381   5.610   3.500  1.00 20.00     0.006 C 
HETATM    5  C5  UNL     1     -32.904   7.412   4.208  1.00 20.00     0.066 C 
HETATM    6  C6  UNL     1     -32.461   8.095   2.286  1.00 20.00     0.219 C 
HETATM    7  C7  UNL     1     -33.049   6.240   3.272  1.00 20.00     0.186 C 
HETATM    8  N8  UNL     1     -32.449   8.456   3.610  1.00 20.00    -0.221 NA
HETATM    9  N9  UNL     1     -32.866   6.901   1.967  1.00 20.00    -0.245 NA
HETATM   10 CL10 UNL     1     -32.021   9.234   1.106  1.00 20.00    -0.041 Cl
ENDROOT
TORSDOF 0
ENDMDL
MODEL 3
REMARK VINA RESULT:      -4.6     12.271     12.785
REMARK  0 active torsions:
REMARK  status: ('A' for Active; 'I' for Inactive)
ROOT
HETATM    1  C1  UNL     1     -34.304  17.047  -2.222  1.00 20.00     0.002 C 
HETATM    2  C2  UNL     1     -33.096  17.633  -2.235  1.00 20.00     0.030 C 
HETATM    3  C3  UNL     1     -35.143  17.009  -1.036  1.00 20.00    -0.001 C 
HETATM    4  C4  UNL     1     -34.900  17.812   0.014  1.00 20.00     0.006 C 
HETATM    5  C5  UNL     1     -32.712  18.253  -0.960  1.00 20.00     0.066 C 
HETATM    6  C6  UNL     1     -31.783  18.788   0.832  1.00 20.00     0.219 C 
HETATM    7  C7  UNL     1     -33.781  18.795  -0.045  1.00 20.00     0.186 C 
HETATM    8  N8  UNL     1     -31.536  18.369  -0.451  1.00 20.00    -0.221 NA
HETATM    9  N9  UNL     1     -33.016  18.974   1.203  1.00 20.00    -0.245 NA
HETATM   10 CL10 UNL     1     -30.488  18.977   1.913  1.00 20.00    -0.041 Cl
ENDROOT
TORSDOF 0
ENDMDL
MODEL 4
REMARK VINA RESULT:      -4.6      1.913      2.528
REMARK  0 active torsions:
REMARK  status: ('A' for Active; 'I' for Inactive)
ROOT
HETATM    1  C1  UNL     1     -34.417   6.527   6.333  1.00 20.00     0.002 C 
HETATM    2  C2  UNL     1     -34.804   5.435   5.654  1.00 20.00     0.030 C 
HETATM    3  C3  UNL     1     -33.471   7.489   5.794  1.00 20.00    -0.001 C 
HETATM    4  C4  UNL     1     -33.168   7.510   4.484  1.00 20.00     0.006 C 
HETATM    5  C5  UNL     1     -34.212   5.316   4.314  1.00 20.00     0.066 C 
HETATM    6  C6  UNL     1     -33.169   4.713   2.609  1.00 20.00     0.219 C 
HETATM    7  C7  UNL     1     -33.842   6.562   3.551  1.00 20.00     0.186 C 
HETATM    8  N8  UNL     1     -33.898   4.246   3.674  1.00 20.00    -0.221 NA
HETATM    9  N9  UNL     1     -32.994   5.996   2.486  1.00 20.00    -0.245 NA
HETATM   10 CL10 UNL     1     -32.460   3.608   1.533  1.00 20.00    -0.041 Cl
ENDROOT
TORSDOF 0
ENDMDL
MODEL 5
REMARK VINA RESULT:      -4.3     12.446     12.751
REMARK  0 active torsions:
REMARK  status: ('A' for Active; 'I' for Inactive)
ROOT
HETATM    1  C1  UNL     1     -32.994  18.820   2.834  1.00 20.00     0.002 C 
HETATM    2  C2  UNL     1     -34.027  18.690   1.986  1.00 20.00     0.030 C 
HETATM    3  C3  UNL     1     -31.610  18.717   2.403  1.00 20.00    -0.001 C 
HETATM    4  C4  UNL     1     -31.277  18.792   1.103  1.00 20.00     0.006 C 
HETATM    5  C5  UNL     1     -33.635  18.462   0.588  1.00 20.00     0.066 C 
HETATM    6  C6  UNL     1     -33.330  17.694  -1.330  1.00 20.00     0.219 C 
HETATM    7  C7  UNL     1     -32.334  19.030   0.079  1.00 20.00     0.186 C 
HETATM    8  N8  UNL     1     -34.245  17.772  -0.310  1.00 20.00    -0.221 NA
HETATM    9  N9  UNL     1     -32.182  18.288  -1.186  1.00 20.00    -0.245 NA
HETATM   10 CL10 UNL     1     -33.692  16.770  -2.707  1.00 20.00    -0.041 Cl
ENDROOT
TORSDOF 0
ENDMDL
MODEL 6
REMARK VINA RESULT:      -4.3     12.167     12.667
REMARK  0 active torsions:
REMARK  status: ('A' for Active; 'I' for Inactive)
ROOT
HETATM    1  C1  UNL     1     -33.319  17.630  -1.896  1.00 20.00     0.002 C 
HETATM    2  C2  UNL     1     -32.653  18.383  -1.006  1.00 20.00     0.030 C 
HETATM    3  C3  UNL     1     -34.569  16.961  -1.575  1.00 20.00    -0.001 C 
HETATM    4  C4  UNL     1     -35.281  17.300  -0.486  1.00 20.00     0.006 C 
HETATM    5  C5  UNL     1     -33.310  18.493   0.304  1.00 20.00     0.066 C 
HETATM    6  C6  UNL     1     -33.812  18.419   2.329  1.00 20.00     0.219 C 
HETATM    7  C7  UNL     1     -34.813  18.411   0.391  1.00 20.00     0.186 C 
HETATM    8  N8  UNL     1     -32.764  18.609   1.463  1.00 20.00    -0.221 NA
HETATM    9  N9  UNL     1     -34.998  18.208   1.839  1.00 20.00    -0.245 NA
HETATM   10 CL10 UNL     1     -33.518  18.391   4.001  1.00 20.00    -0.041 Cl
ENDROOT
TORSDOF 0
ENDMDL
MODEL 7
REMARK VINA RESULT:      -4.0     12.128     12.612
REMARK  0 active torsions:
REMARK  status: ('A' for Active; 'I' for Inactive)
ROOT
HETATM    1  C1  UNL     1     -33.706  18.676   1.517  1.00 20.00     0.002 C 
HETATM    2  C2  UNL     1     -34.782  18.225   0.852  1.00 20.00     0.030 C 
HETATM    3  C3  UNL     1     -32.378  18.706   0.928  1.00 20.00    -0.001 C 
HETATM    4  C4  UNL     1     -32.201  18.577  -0.399  1.00 20.00     0.006 C 
HETATM    5  C5  UNL     1     -34.504  17.794  -0.524  1.00 20.00     0.066 C 
HETATM    6  C6  UNL     1     -34.270  16.724  -2.302  1.00 20.00     0.219 C 
HETATM    7  C7  UNL     1     -33.385  18.445  -1.296  1.00 20.00     0.186 C 
HETATM    8  N8  UNL     1     -35.073  16.857  -1.197  1.00 20.00    -0.221 NA
HETATM    9  N9  UNL     1     -33.236  17.504  -2.421  1.00 20.00    -0.245 NA
HETATM   10 CL10 UNL     1     -34.604  15.504  -3.435  1.00 20.00    -0.041 Cl
ENDROOT
TORSDOF 0
ENDMDL
MODEL 8
REMARK VINA RESULT:      -4.0     11.978     12.610
REMARK  0 active torsions:
REMARK  status: ('A' for Active; 'I' for Inactive)
ROOT
HETATM    1  C1  UNL     1     -34.665  17.717  -0.311  1.00 20.00     0.002 C 
HETATM    2  C2  UNL     1     -35.440  16.961  -1.106  1.00 20.00     0.030 C 
HETATM    3  C3  UNL     1     -33.355  18.195  -0.722  1.00 20.00    -0.001 C 
HETATM    4  C4  UNL     1     -32.977  18.171  -2.012  1.00 20.00     0.006 C 
HETATM    5  C5  UNL     1     -34.862  16.687  -2.429  1.00 20.00     0.066 C 
HETATM    6  C6  UNL     1     -34.066  15.806  -4.146  1.00 20.00     0.219 C 
HETATM    7  C7  UNL     1     -33.928  17.690  -3.055  1.00 20.00     0.186 C 
HETATM    8  N8  UNL     1     -35.004  15.637  -3.158  1.00 20.00    -0.221 NA
HETATM    9  N9  UNL     1     -33.337  16.883  -4.138  1.00 20.00    -0.245 NA
HETATM   10 CL10 UNL     1     -33.836  14.580  -5.298  1.00 20.00    -0.041 Cl
ENDROOT
TORSDOF 0
ENDMDL
MODEL 9
REMARK VINA RESULT:      -4.0     12.410     13.273
REMARK  0 active torsions:
REMARK  status: ('A' for Active; 'I' for Inactive)
ROOT
HETATM    1  C1  UNL     1     -34.164  14.173  -7.918  1.00 20.00     0.002 C 
HETATM    2  C2  UNL     1     -33.730  15.353  -7.447  1.00 20.00     0.030 C 
HETATM    3  C3  UNL     1     -34.936  13.244  -7.109  1.00 20.00    -0.001 C 
HETATM    4  C4  UNL     1     -35.517  13.636  -5.962  1.00 20.00     0.006 C 
HETATM    5  C5  UNL     1     -34.127  15.633  -6.060  1.00 20.00     0.066 C 
HETATM    6  C6  UNL     1     -34.179  16.032  -4.012  1.00 20.00     0.219 C 
HETATM    7  C7  UNL     1     -35.413  15.057  -5.524  1.00 20.00     0.186 C 
HETATM    8  N8  UNL     1     -33.483  16.295  -5.165  1.00 20.00    -0.221 NA
HETATM    9  N9  UNL     1     -35.233  15.272  -4.077  1.00 20.00    -0.245 NA
HETATM   10 CL10 UNL     1     -33.607  16.641  -2.534  1.00 20.00    -0.041 Cl
ENDROOT
TORSDOF 0
ENDMDL
