MODEL 1
REMARK VINA RESULT:      -4.7      0.000      0.000
REMARK  1 active torsions:
REMARK  status: ('A' for Active; 'I' for Inactive)
REMARK    1  A    between atoms: C2_2  and  C6_6 
ROOT
HETATM    1  C3  UNL     1     -33.134   5.321   2.482  1.00 20.00     0.006 C 
HETATM    2  C4  UNL     1     -34.301   6.230   2.061  1.00 20.00     0.006 C 
HETATM    3  C5  UNL     1     -31.827   7.302   3.187  1.00 20.00     0.014 C 
HETATM    4  C6  UNL     1     -32.986   8.255   2.803  1.00 20.00     0.012 C 
HETATM    5  C7  UNL     1     -32.566   6.049   3.722  1.00 20.00    -0.006 C 
HETATM    6  C8  UNL     1     -34.237   7.376   3.101  1.00 20.00     0.001 C 
HETATM    7  C9  UNL     1     -33.829   6.631   4.404  1.00 20.00    -0.040 C 
HETATM    8  C10 UNL     1     -33.542   7.538   5.616  1.00 20.00     0.015 C 
HETATM    9  C11 UNL     1     -34.845   5.578   4.888  1.00 20.00     0.015 C 
ENDROOT
BRANCH   4  10
HETATM   10  C2  UNL     1     -32.889   8.803   1.418  1.00 20.00    -0.032 C 
HETATM   11  C1  UNL     1     -32.640  10.087   1.137  1.00 20.00     0.007 C 
ENDBRANCH   4  10
TORSDOF 1
ENDMDL
MODEL 2
REMARK VINA RESULT:      -4.5     10.576     11.757
REMARK  1 active torsions:
REMARK  status: ('A' for Active; 'I' for Inactive)
REMARK    1  A    between atoms: C2_2  and  C6_6 
ROOT
HETATM    1  C3  UNL     1     -33.204  16.053  -5.307  1.00 20.00     0.006 C 
HETATM    2  C4  UNL     1     -33.223  14.729  -4.525  1.00 20.00     0.006 C 
HETATM    3  C5  UNL     1     -35.657  15.920  -5.621  1.00 20.00     0.014 C 
HETATM    4  C6  UNL     1     -35.729  14.599  -4.816  1.00 20.00     0.012 C 
HETATM    5  C7  UNL     1     -34.541  16.712  -4.893  1.00 20.00    -0.006 C 
HETATM    6  C8  UNL     1     -34.581  14.789  -3.781  1.00 20.00     0.001 C 
HETATM    7  C9  UNL     1     -34.701  16.294  -3.410  1.00 20.00    -0.040 C 
HETATM    8  C10 UNL     1     -36.039  16.709  -2.770  1.00 20.00     0.015 C 
HETATM    9  C11 UNL     1     -33.596  16.815  -2.470  1.00 20.00     0.015 C 
ENDROOT
BRANCH   4  10
HETATM   10  C2  UNL     1     -35.651  13.368  -5.658  1.00 20.00    -0.032 C 
HETATM   11  C1  UNL     1     -35.465  13.379  -6.983  1.00 20.00     0.007 C 
ENDBRANCH   4  10
TORSDOF 1
ENDMDL
MODEL 3
REMARK VINA RESULT:      -4.5     10.609     11.974
REMARK  1 active torsions:
REMARK  status: ('A' for Active; 'I' for Inactive)
REMARK    1  A    between atoms: C2_2  and  C6_6 
ROOT
HETATM    1  C3  UNL     1     -33.351  15.941  -6.265  1.00 20.00     0.006 C 
HETATM    2  C4  UNL     1     -34.401  16.905  -5.689  1.00 20.00     0.006 C 
HETATM    3  C5  UNL     1     -33.539  14.510  -4.253  1.00 20.00     0.014 C 
HETATM    4  C6  UNL     1     -34.620  15.436  -3.645  1.00 20.00     0.012 C 
HETATM    5  C7  UNL     1     -33.847  14.562  -5.771  1.00 20.00    -0.006 C 
HETATM    6  C8  UNL     1     -35.352  15.955  -4.918  1.00 20.00     0.001 C 
HETATM    7  C9  UNL     1     -35.389  14.696  -5.829  1.00 20.00    -0.040 C 
HETATM    8  C10 UNL     1     -36.157  13.491  -5.254  1.00 20.00     0.015 C 
HETATM    9  C11 UNL     1     -35.964  14.938  -7.239  1.00 20.00     0.015 C 
ENDROOT
BRANCH   4  10
HETATM   10  C2  UNL     1     -34.079  16.486  -2.731  1.00 20.00    -0.032 C 
HETATM   11  C1  UNL     1     -34.695  16.899  -1.618  1.00 20.00     0.007 C 
ENDBRANCH   4  10
TORSDOF 1
ENDMDL
MODEL 4
REMARK VINA RESULT:      -4.4     10.378     12.175
REMARK  1 active torsions:
REMARK  status: ('A' for Active; 'I' for Inactive)
REMARK    1  A    between atoms: C2_2  and  C6_6 
ROOT
HETATM    1  C3  UNL     1     -35.755  14.394  -4.639  1.00 20.00     0.006 C 
HETATM    2  C4  UNL     1     -34.306  14.154  -4.180  1.00 20.00     0.006 C 
HETATM    3  C5  UNL     1     -35.403  16.842  -4.519  1.00 20.00     0.014 C 
HETATM    4  C6  UNL     1     -33.930  16.650  -4.082  1.00 20.00     0.012 C 
HETATM    5  C7  UNL     1     -35.630  15.668  -5.506  1.00 20.00    -0.006 C 
HETATM    6  C8  UNL     1     -33.542  15.337  -4.825  1.00 20.00     0.001 C 
HETATM    7  C9  UNL     1     -34.255  15.497  -6.197  1.00 20.00    -0.040 C 
HETATM    8  C10 UNL     1     -33.805  16.710  -7.034  1.00 20.00     0.015 C 
HETATM    9  C11 UNL     1     -34.147  14.272  -7.125  1.00 20.00     0.015 C 
ENDROOT
BRANCH   4  10
HETATM   10  C2  UNL     1     -33.730  16.645  -2.602  1.00 20.00    -0.032 C 
HETATM   11  C1  UNL     1     -34.693  16.924  -1.716  1.00 20.00     0.007 C 
ENDBRANCH   4  10
TORSDOF 1
ENDMDL
MODEL 5
REMARK VINA RESULT:      -4.4     10.598     11.924
REMARK  1 active torsions:
REMARK  status: ('A' for Active; 'I' for Inactive)
REMARK    1  A    between atoms: C2_2  and  C6_6 
ROOT
HETATM    1  C3  UNL     1     -34.386  17.513  -5.125  1.00 20.00     0.006 C 
HETATM    2  C4  UNL     1     -33.328  16.436  -4.832  1.00 20.00     0.006 C 
HETATM    3  C5  UNL     1     -36.101  16.168  -3.948  1.00 20.00     0.014 C 
HETATM    4  C6  UNL     1     -35.063  15.070  -3.606  1.00 20.00     0.012 C 
HETATM    5  C7  UNL     1     -35.270  17.474  -3.857  1.00 20.00    -0.006 C 
HETATM    6  C8  UNL     1     -33.757  15.901  -3.443  1.00 20.00     0.001 C 
HETATM    7  C9  UNL     1     -34.256  17.186  -2.722  1.00 20.00    -0.040 C 
HETATM    8  C10 UNL     1     -34.892  16.957  -1.338  1.00 20.00     0.015 C 
HETATM    9  C11 UNL     1     -33.181  18.273  -2.526  1.00 20.00     0.015 C 
ENDROOT
BRANCH   4  10
HETATM   10  C2  UNL     1     -35.008  13.956  -4.598  1.00 20.00    -0.032 C 
HETATM   11  C1  UNL     1     -36.058  13.538  -5.314  1.00 20.00     0.007 C 
ENDBRANCH   4  10
TORSDOF 1
ENDMDL
MODEL 6
REMARK VINA RESULT:      -4.3     10.376     11.965
REMARK  1 active torsions:
REMARK  status: ('A' for Active; 'I' for Inactive)
REMARK    1  A    between atoms: C2_2  and  C6_6 
ROOT
HETATM    1  C3  UNL     1     -34.651  14.163  -4.115  1.00 20.00     0.006 C 
HETATM    2  C4  UNL     1     -35.755  14.977  -4.809  1.00 20.00     0.006 C 
HETATM    3  C5  UNL     1     -32.917  15.503  -5.269  1.00 20.00     0.014 C 
HETATM    4  C6  UNL     1     -33.994  16.367  -5.970  1.00 20.00     0.012 C 
HETATM    5  C7  UNL     1     -33.546  15.220  -3.881  1.00 20.00    -0.006 C 
HETATM    6  C8  UNL     1     -35.131  16.392  -4.906  1.00 20.00     0.001 C 
HETATM    7  C9  UNL     1     -34.345  16.509  -3.569  1.00 20.00    -0.040 C 
HETATM    8  C10 UNL     1     -33.482  17.777  -3.423  1.00 20.00     0.015 C 
HETATM    9  C11 UNL     1     -35.218  16.437  -2.301  1.00 20.00     0.015 C 
ENDROOT
BRANCH   4  10
HETATM   10  C2  UNL     1     -34.381  15.876  -7.326  1.00 20.00    -0.032 C 
HETATM   11  C1  UNL     1     -33.839  14.805  -7.916  1.00 20.00     0.007 C 
ENDBRANCH   4  10
TORSDOF 1
ENDMDL
MODEL 7
REMARK VINA RESULT:      -4.3     10.519     11.865
REMARK  1 active torsions:
REMARK  status: ('A' for Active; 'I' for Inactive)
REMARK    1  A    between atoms: C2_2  and  C6_6 
ROOT
HETATM    1  C3  UNL     1     -35.945  17.966  -4.023  1.00 20.00     0.006 C 
HETATM    2  C4  UNL     1     -36.293  17.452  -2.616  1.00 20.00     0.006 C 
HETATM    3  C5  UNL     1     -33.584  17.293  -3.702  1.00 20.00     0.014 C 
HETATM    4  C6  UNL     1     -33.892  16.737  -2.290  1.00 20.00     0.012 C 
HETATM    5  C7  UNL     1     -34.872  16.960  -4.498  1.00 20.00    -0.006 C 
HETATM    6  C8  UNL     1     -35.355  16.229  -2.456  1.00 20.00     0.001 C 
HETATM    7  C9  UNL     1     -35.345  15.618  -3.886  1.00 20.00    -0.040 C 
HETATM    8  C10 UNL     1     -34.370  14.443  -4.091  1.00 20.00     0.015 C 
HETATM    9  C11 UNL     1     -36.718  15.129  -4.386  1.00 20.00     0.015 C 
ENDROOT
BRANCH   4  10
HETATM   10  C2  UNL     1     -33.663  17.716  -1.187  1.00 20.00    -0.032 C 
HETATM   11  C1  UNL     1     -32.513  18.373  -0.996  1.00 20.00     0.007 C 
ENDBRANCH   4  10
TORSDOF 1
ENDMDL
MODEL 8
REMARK VINA RESULT:      -4.3     10.438     11.804
REMARK  1 active torsions:
REMARK  status: ('A' for Active; 'I' for Inactive)
REMARK    1  A    between atoms: C2_2  and  C6_6 
ROOT
HETATM    1  C3  UNL     1     -35.127  17.045  -5.516  1.00 20.00     0.006 C 
HETATM    2  C4  UNL     1     -36.109  16.134  -4.761  1.00 20.00     0.006 C 
HETATM    3  C5  UNL     1     -33.607  17.053  -3.561  1.00 20.00     0.014 C 
HETATM    4  C6  UNL     1     -34.552  16.114  -2.771  1.00 20.00     0.012 C 
HETATM    5  C7  UNL     1     -33.750  16.547  -5.019  1.00 20.00    -0.006 C 
HETATM    6  C8  UNL     1     -35.168  15.246  -3.909  1.00 20.00     0.001 C 
HETATM    7  C9  UNL     1     -33.959  15.020  -4.860  1.00 20.00    -0.040 C 
HETATM    8  C10 UNL     1     -32.764  14.273  -4.237  1.00 20.00     0.015 C 
HETATM    9  C11 UNL     1     -34.298  14.275  -6.166  1.00 20.00     0.015 C 
ENDROOT
BRANCH   4  10
HETATM   10  C2  UNL     1     -35.528  16.828  -1.895  1.00 20.00    -0.032 C 
HETATM   11  C1  UNL     1     -35.271  17.197  -0.635  1.00 20.00     0.007 C 
ENDBRANCH   4  10
TORSDOF 1
ENDMDL
MODEL 9
REMARK VINA RESULT:      -4.2     10.987     12.043
REMARK  1 active torsions:
REMARK  status: ('A' for Active; 'I' for Inactive)
REMARK    1  A    between atoms: C2_2  and  C6_6 
ROOT
HETATM    1  C3  UNL     1     -35.868  18.377  -3.061  1.00 20.00     0.006 C 
HETATM    2  C4  UNL     1     -35.826  17.585  -1.744  1.00 20.00     0.006 C 
HETATM    3  C5  UNL     1     -33.395  18.346  -3.177  1.00 20.00     0.014 C 
HETATM    4  C6  UNL     1     -33.303  17.524  -1.867  1.00 20.00     0.012 C 
HETATM    5  C7  UNL     1     -34.675  17.789  -3.850  1.00 20.00    -0.006 C 
HETATM    6  C8  UNL     1     -34.597  16.660  -1.938  1.00 20.00     0.001 C 
HETATM    7  C9  UNL     1     -34.682  16.293  -3.446  1.00 20.00    -0.040 C 
HETATM    8  C10 UNL     1     -33.494  15.478  -3.992  1.00 20.00     0.015 C 
HETATM    9  C11 UNL     1     -35.954  15.522  -3.850  1.00 20.00     0.015 C 
ENDROOT
BRANCH   4  10
HETATM   10  C2  UNL     1     -33.140  18.355  -0.638  1.00 20.00    -0.032 C 
HETATM   11  C1  UNL     1     -31.967  18.574  -0.033  1.00 20.00     0.007 C 
ENDBRANCH   4  10
TORSDOF 1
ENDMDL
