MODEL 1
REMARK VINA RESULT:      -5.1      0.000      0.000
REMARK  1 active torsions:
REMARK  status: ('A' for Active; 'I' for Inactive)
REMARK    1  A    between atoms: C4_4  and  C6_6 
ROOT
HETATM    1  C1  UNL     1     -32.807  10.223   1.205  1.00 20.00     0.012 C 
HETATM    2  C2  UNL     1     -32.412   9.242   1.773  1.00 20.00    -0.109 C 
HETATM    3  C3  UNL     1     -32.413   8.077   3.895  1.00 20.00    -0.003 C 
HETATM    4  C4  UNL     1     -33.331   7.230   4.395  1.00 20.00    -0.061 C 
HETATM    5  C7  UNL     1     -33.995   6.170   3.553  1.00 20.00     0.038 C 
HETATM    6  C8  UNL     1     -33.796   6.376   2.049  1.00 20.00     0.006 C 
HETATM    7  C9  UNL     1     -32.354   6.764   1.728  1.00 20.00     0.021 C 
HETATM    8  C10 UNL     1     -31.926   8.038   2.471  1.00 20.00     0.087 C 
ENDROOT
BRANCH   4   9
HETATM    9  C6  UNL     1     -33.734   7.294   5.779  1.00 20.00    -0.004 C 
HETATM   10  C5  UNL     1     -34.514   6.326   6.288  1.00 20.00     0.012 C 
ENDBRANCH   4   9
TORSDOF 1
ENDMDL
MODEL 2
REMARK VINA RESULT:      -4.8     10.712     11.640
REMARK  1 active torsions:
REMARK  status: ('A' for Active; 'I' for Inactive)
REMARK    1  A    between atoms: C4_4  and  C6_6 
ROOT
HETATM    1  C1  UNL     1     -31.119  18.621   1.276  1.00 20.00     0.012 C 
HETATM    2  C2  UNL     1     -31.953  18.870   0.448  1.00 20.00    -0.109 C 
HETATM    3  C3  UNL     1     -32.874  18.163  -1.675  1.00 20.00    -0.003 C 
HETATM    4  C4  UNL     1     -33.811  17.230  -1.923  1.00 20.00    -0.061 C 
HETATM    5  C7  UNL     1     -35.051  17.087  -1.077  1.00 20.00     0.038 C 
HETATM    6  C8  UNL     1     -34.971  17.841   0.252  1.00 20.00     0.006 C 
HETATM    7  C9  UNL     1     -34.375  19.235   0.064  1.00 20.00     0.021 C 
HETATM    8  C10 UNL     1     -32.976  19.178  -0.567  1.00 20.00     0.087 C 
ENDROOT
BRANCH   4   9
HETATM    9  C6  UNL     1     -33.674  16.305  -3.022  1.00 20.00    -0.004 C 
HETATM   10  C5  UNL     1     -34.742  15.602  -3.432  1.00 20.00     0.012 C 
ENDBRANCH   4   9
TORSDOF 1
ENDMDL
MODEL 3
REMARK VINA RESULT:      -4.7      0.980      3.998
REMARK  1 active torsions:
REMARK  status: ('A' for Active; 'I' for Inactive)
REMARK    1  A    between atoms: C4_4  and  C6_6 
ROOT
HETATM    1  C1  UNL     1     -33.713   6.927   6.676  1.00 20.00     0.012 C 
HETATM    2  C2  UNL     1     -34.067   7.029   5.533  1.00 20.00    -0.109 C 
HETATM    3  C3  UNL     1     -33.486   7.977   3.383  1.00 20.00    -0.003 C 
HETATM    4  C4  UNL     1     -32.677   7.481   2.430  1.00 20.00    -0.061 C 
HETATM    5  C7  UNL     1     -32.686   6.025   2.041  1.00 20.00     0.038 C 
HETATM    6  C8  UNL     1     -33.421   5.132   3.045  1.00 20.00     0.006 C 
HETATM    7  C9  UNL     1     -34.731   5.773   3.501  1.00 20.00     0.021 C 
HETATM    8  C10 UNL     1     -34.502   7.155   4.131  1.00 20.00     0.087 C 
ENDROOT
BRANCH   4   9
HETATM    9  C6  UNL     1     -31.746   8.327   1.723  1.00 20.00    -0.004 C 
HETATM   10  C5  UNL     1     -32.208   9.349   0.984  1.00 20.00     0.012 C 
ENDBRANCH   4   9
TORSDOF 1
ENDMDL
MODEL 4
REMARK VINA RESULT:      -4.5     10.740     11.307
REMARK  1 active torsions:
REMARK  status: ('A' for Active; 'I' for Inactive)
REMARK    1  A    between atoms: C4_4  and  C6_6 
ROOT
HETATM    1  C1  UNL     1     -33.909  15.387  -7.549  1.00 20.00     0.012 C 
HETATM    2  C2  UNL     1     -34.000  14.947  -6.435  1.00 20.00    -0.109 C 
HETATM    3  C3  UNL     1     -33.501  15.393  -4.110  1.00 20.00    -0.003 C 
HETATM    4  C4  UNL     1     -34.210  16.100  -3.212  1.00 20.00    -0.061 C 
HETATM    5  C7  UNL     1     -35.711  15.997  -3.107  1.00 20.00     0.038 C 
HETATM    6  C8  UNL     1     -36.359  15.308  -4.310  1.00 20.00     0.006 C 
HETATM    7  C9  UNL     1     -35.571  14.068  -4.730  1.00 20.00     0.021 C 
HETATM    8  C10 UNL     1     -34.111  14.406  -5.069  1.00 20.00     0.087 C 
ENDROOT
BRANCH   4   9
HETATM    9  C6  UNL     1     -33.565  17.007  -2.294  1.00 20.00    -0.004 C 
HETATM   10  C5  UNL     1     -34.198  17.371  -1.167  1.00 20.00     0.012 C 
ENDBRANCH   4   9
TORSDOF 1
ENDMDL
MODEL 5
REMARK VINA RESULT:      -4.4     10.594     11.718
REMARK  1 active torsions:
REMARK  status: ('A' for Active; 'I' for Inactive)
REMARK    1  A    between atoms: C4_4  and  C6_6 
ROOT
HETATM    1  C1  UNL     1     -37.601  19.102  -0.695  1.00 20.00     0.012 C 
HETATM    2  C2  UNL     1     -36.707  18.333  -0.469  1.00 20.00    -0.109 C 
HETATM    3  C3  UNL     1     -35.199  16.735  -1.484  1.00 20.00    -0.003 C 
HETATM    4  C4  UNL     1     -34.018  16.952  -2.090  1.00 20.00    -0.061 C 
HETATM    5  C7  UNL     1     -32.995  17.914  -1.542  1.00 20.00     0.038 C 
HETATM    6  C8  UNL     1     -33.554  18.851  -0.468  1.00 20.00     0.006 C 
HETATM    7  C9  UNL     1     -34.445  18.095   0.517  1.00 20.00     0.021 C 
HETATM    8  C10 UNL     1     -35.610  17.389  -0.192  1.00 20.00     0.087 C 
ENDROOT
BRANCH   4   9
HETATM    9  C6  UNL     1     -33.666  16.269  -3.311  1.00 20.00    -0.004 C 
HETATM   10  C5  UNL     1     -34.433  15.257  -3.749  1.00 20.00     0.012 C 
ENDBRANCH   4   9
TORSDOF 1
ENDMDL
MODEL 6
REMARK VINA RESULT:      -4.3     10.784     11.495
REMARK  1 active torsions:
REMARK  status: ('A' for Active; 'I' for Inactive)
REMARK    1  A    between atoms: C4_4  and  C6_6 
ROOT
HETATM    1  C1  UNL     1     -33.709  17.813  -5.755  1.00 20.00     0.012 C 
HETATM    2  C2  UNL     1     -33.692  17.116  -4.777  1.00 20.00    -0.109 C 
HETATM    3  C3  UNL     1     -33.235  17.092  -2.401  1.00 20.00    -0.003 C 
HETATM    4  C4  UNL     1     -34.045  17.424  -1.380  1.00 20.00    -0.061 C 
HETATM    5  C7  UNL     1     -35.497  17.019  -1.337  1.00 20.00     0.038 C 
HETATM    6  C8  UNL     1     -36.030  16.521  -2.682  1.00 20.00     0.006 C 
HETATM    7  C9  UNL     1     -35.032  15.584  -3.361  1.00 20.00     0.021 C 
HETATM    8  C10 UNL     1     -33.669  16.260  -3.578  1.00 20.00     0.087 C 
ENDROOT
BRANCH   4   9
HETATM    9  C6  UNL     1     -33.562  18.196  -0.260  1.00 20.00    -0.004 C 
HETATM   10  C5  UNL     1     -32.315  18.695  -0.289  1.00 20.00     0.012 C 
ENDBRANCH   4   9
TORSDOF 1
ENDMDL
MODEL 7
REMARK VINA RESULT:      -4.2      1.192      4.070
REMARK  1 active torsions:
REMARK  status: ('A' for Active; 'I' for Inactive)
REMARK    1  A    between atoms: C4_4  and  C6_6 
ROOT
HETATM    1  C1  UNL     1     -36.629   6.184   3.232  1.00 20.00     0.012 C 
HETATM    2  C2  UNL     1     -35.496   5.979   3.574  1.00 20.00    -0.109 C 
HETATM    3  C3  UNL     1     -33.187   6.565   3.145  1.00 20.00    -0.003 C 
HETATM    4  C4  UNL     1     -32.476   7.605   3.615  1.00 20.00    -0.061 C 
HETATM    5  C7  UNL     1     -32.563   8.059   5.050  1.00 20.00     0.038 C 
HETATM    6  C8  UNL     1     -33.760   7.472   5.803  1.00 20.00     0.006 C 
HETATM    7  C9  UNL     1     -33.931   5.984   5.497  1.00 20.00     0.021 C 
HETATM    8  C10 UNL     1     -34.106   5.726   3.993  1.00 20.00     0.087 C 
ENDROOT
BRANCH   4   9
HETATM    9  C6  UNL     1     -31.585   8.352   2.760  1.00 20.00    -0.004 C 
HETATM   10  C5  UNL     1     -32.013   8.763   1.556  1.00 20.00     0.012 C 
ENDBRANCH   4   9
TORSDOF 1
ENDMDL
MODEL 8
REMARK VINA RESULT:      -4.1     10.540     11.842
REMARK  1 active torsions:
REMARK  status: ('A' for Active; 'I' for Inactive)
REMARK    1  A    between atoms: C4_4  and  C6_6 
ROOT
HETATM    1  C1  UNL     1     -35.152  17.020  -1.219  1.00 20.00     0.012 C 
HETATM    2  C2  UNL     1     -34.536  16.629  -2.173  1.00 20.00    -0.109 C 
HETATM    3  C3  UNL     1     -34.448  14.909  -3.873  1.00 20.00    -0.003 C 
HETATM    4  C4  UNL     1     -35.089  14.852  -5.054  1.00 20.00    -0.061 C 
HETATM    5  C7  UNL     1     -35.232  16.054  -5.953  1.00 20.00     0.038 C 
HETATM    6  C8  UNL     1     -34.903  17.377  -5.257  1.00 20.00     0.006 C 
HETATM    7  C9  UNL     1     -33.644  17.254  -4.400  1.00 20.00     0.021 C 
HETATM    8  C10 UNL     1     -33.778  16.149  -3.342  1.00 20.00     0.087 C 
ENDROOT
BRANCH   4   9
HETATM    9  C6  UNL     1     -35.683  13.624  -5.526  1.00 20.00    -0.004 C 
HETATM   10  C5  UNL     1     -35.456  13.220  -6.786  1.00 20.00     0.012 C 
ENDBRANCH   4   9
TORSDOF 1
ENDMDL
MODEL 9
REMARK VINA RESULT:      -4.1     10.724     11.821
REMARK  1 active torsions:
REMARK  status: ('A' for Active; 'I' for Inactive)
REMARK    1  A    between atoms: C4_4  and  C6_6 
ROOT
HETATM    1  C1  UNL     1     -34.003  16.993  -2.152  1.00 20.00     0.012 C 
HETATM    2  C2  UNL     1     -33.887  16.146  -2.995  1.00 20.00    -0.109 C 
HETATM    3  C3  UNL     1     -35.108  14.561  -4.356  1.00 20.00    -0.003 C 
HETATM    4  C4  UNL     1     -35.731  14.757  -5.532  1.00 20.00    -0.061 C 
HETATM    5  C7  UNL     1     -35.126  15.586  -6.636  1.00 20.00     0.038 C 
HETATM    6  C8  UNL     1     -33.945  16.444  -6.176  1.00 20.00     0.006 C 
HETATM    7  C9  UNL     1     -33.009  15.654  -5.262  1.00 20.00     0.021 C 
HETATM    8  C10 UNL     1     -33.744  15.105  -4.029  1.00 20.00     0.087 C 
ENDROOT
BRANCH   4   9
HETATM    9  C6  UNL     1     -37.026  14.180  -5.800  1.00 20.00    -0.004 C 
HETATM   10  C5  UNL     1     -38.082  14.547  -5.055  1.00 20.00     0.012 C 
ENDBRANCH   4   9
TORSDOF 1
ENDMDL
