MODEL 1
REMARK VINA RESULT:      -6.7      0.000      0.000
REMARK  0 active torsions:
REMARK  status: ('A' for Active; 'I' for Inactive)
ROOT
HETATM    1  C1  UNL     1     -33.027   7.681   4.153  1.00 20.00     0.019 A 
HETATM    2  C2  UNL     1     -32.915   6.963   3.026  1.00 20.00     0.054 A 
HETATM    3  C3  UNL     1     -34.362   5.166   4.029  1.00 20.00     0.096 A 
HETATM    4  C4  UNL     1     -34.471   5.885   5.155  1.00 20.00     0.133 A 
HETATM    5  C5  UNL     1     -33.818   7.222   5.343  1.00 20.00     0.254 A 
HETATM    6  C6  UNL     1     -33.572   5.626   2.839  1.00 20.00     0.282 A 
HETATM    7  F7  UNL     1     -35.206   5.382   6.170  1.00 20.00    -0.207 F 
HETATM    8  F8  UNL     1     -33.005   7.178   6.438  1.00 20.00    -0.238 F 
HETATM    9  F9  UNL     1     -34.386   5.672   1.745  1.00 20.00    -0.197 F 
HETATM   10  F10 UNL     1     -32.620   4.695   2.541  1.00 20.00    -0.197 F 
ENDROOT
TORSDOF 0
ENDMDL
MODEL 2
REMARK VINA RESULT:      -6.6      1.596      3.229
REMARK  0 active torsions:
REMARK  status: ('A' for Active; 'I' for Inactive)
ROOT
HETATM    1  C1  UNL     1     -34.646   5.420   5.231  1.00 20.00     0.019 A 
HETATM    2  C2  UNL     1     -34.247   6.699   5.194  1.00 20.00     0.054 A 
HETATM    3  C3  UNL     1     -33.035   6.259   3.035  1.00 20.00     0.096 A 
HETATM    4  C4  UNL     1     -33.434   4.980   3.075  1.00 20.00     0.133 A 
HETATM    5  C5  UNL     1     -34.284   4.417   4.174  1.00 20.00     0.254 A 
HETATM    6  C6  UNL     1     -33.398   7.261   4.091  1.00 20.00     0.282 A 
HETATM    7  F7  UNL     1     -33.052   4.156   2.074  1.00 20.00    -0.207 F 
HETATM    8  F8  UNL     1     -33.637   3.364   4.752  1.00 20.00    -0.238 F 
HETATM    9  F9  UNL     1     -34.048   8.313   3.512  1.00 20.00    -0.197 F 
HETATM   10  F10 UNL     1     -32.259   7.789   4.624  1.00 20.00    -0.197 F 
ENDROOT
TORSDOF 0
ENDMDL
MODEL 3
REMARK VINA RESULT:      -6.6      1.535      2.214
REMARK  0 active torsions:
REMARK  status: ('A' for Active; 'I' for Inactive)
ROOT
HETATM    1  C1  UNL     1     -33.224   6.514   2.942  1.00 20.00     0.019 A 
HETATM    2  C2  UNL     1     -33.810   5.319   3.101  1.00 20.00     0.054 A 
HETATM    3  C3  UNL     1     -34.346   5.899   5.489  1.00 20.00     0.096 A 
HETATM    4  C4  UNL     1     -33.758   7.093   5.328  1.00 20.00     0.133 A 
HETATM    5  C5  UNL     1     -33.133   7.535   4.039  1.00 20.00     0.254 A 
HETATM    6  C6  UNL     1     -34.438   4.879   4.392  1.00 20.00     0.282 A 
HETATM    7  F7  UNL     1     -33.728   7.942   6.379  1.00 20.00    -0.207 F 
HETATM    8  F8  UNL     1     -31.824   7.851   4.256  1.00 20.00    -0.238 F 
HETATM    9  F9  UNL     1     -35.747   4.566   4.174  1.00 20.00    -0.197 F 
HETATM   10  F10 UNL     1     -33.852   3.718   4.805  1.00 20.00    -0.197 F 
ENDROOT
TORSDOF 0
ENDMDL
MODEL 4
REMARK VINA RESULT:      -6.5      1.070      2.466
REMARK  0 active torsions:
REMARK  status: ('A' for Active; 'I' for Inactive)
ROOT
HETATM    1  C1  UNL     1     -34.445   5.829   5.327  1.00 20.00     0.019 A 
HETATM    2  C2  UNL     1     -34.567   5.242   4.128  1.00 20.00     0.054 A 
HETATM    3  C3  UNL     1     -32.849   6.815   3.182  1.00 20.00     0.096 A 
HETATM    4  C4  UNL     1     -32.729   7.402   4.381  1.00 20.00     0.133 A 
HETATM    5  C5  UNL     1     -33.511   6.976   5.587  1.00 20.00     0.254 A 
HETATM    6  C6  UNL     1     -33.782   5.669   2.923  1.00 20.00     0.282 A 
HETATM    7  F7  UNL     1     -31.859   8.428   4.511  1.00 20.00    -0.207 F 
HETATM    8  F8  UNL     1     -34.220   8.038   6.066  1.00 20.00    -0.238 F 
HETATM    9  F9  UNL     1     -33.071   4.606   2.447  1.00 20.00    -0.197 F 
HETATM   10  F10 UNL     1     -34.643   6.006   1.920  1.00 20.00    -0.197 F 
ENDROOT
TORSDOF 0
ENDMDL
MODEL 5
REMARK VINA RESULT:      -6.4      1.753      2.761
REMARK  0 active torsions:
REMARK  status: ('A' for Active; 'I' for Inactive)
ROOT
HETATM    1  C1  UNL     1     -33.727   5.394   3.067  1.00 20.00     0.019 A 
HETATM    2  C2  UNL     1     -32.951   6.341   2.522  1.00 20.00     0.054 A 
HETATM    3  C3  UNL     1     -33.161   7.719   4.615  1.00 20.00     0.096 A 
HETATM    4  C4  UNL     1     -33.938   6.771   5.159  1.00 20.00     0.133 A 
HETATM    5  C5  UNL     1     -34.307   5.503   4.448  1.00 20.00     0.254 A 
HETATM    6  C6  UNL     1     -32.581   7.608   3.236  1.00 20.00     0.282 A 
HETATM    7  F7  UNL     1     -34.412   6.967   6.409  1.00 20.00    -0.207 F 
HETATM    8  F8  UNL     1     -35.666   5.404   4.378  1.00 20.00    -0.238 F 
HETATM    9  F9  UNL     1     -31.222   7.706   3.308  1.00 20.00    -0.197 F 
HETATM   10  F10 UNL     1     -32.981   8.679   2.491  1.00 20.00    -0.197 F 
ENDROOT
TORSDOF 0
ENDMDL
MODEL 6
REMARK VINA RESULT:      -6.2      1.632      2.440
REMARK  0 active torsions:
REMARK  status: ('A' for Active; 'I' for Inactive)
ROOT
HETATM    1  C1  UNL     1     -34.301   6.615   5.905  1.00 20.00     0.019 A 
HETATM    2  C2  UNL     1     -33.672   7.511   5.132  1.00 20.00     0.054 A 
HETATM    3  C3  UNL     1     -33.502   5.804   3.293  1.00 20.00     0.096 A 
HETATM    4  C4  UNL     1     -34.130   4.909   4.068  1.00 20.00     0.133 A 
HETATM    5  C5  UNL     1     -34.601   5.213   5.459  1.00 20.00     0.254 A 
HETATM    6  C6  UNL     1     -33.203   7.205   3.739  1.00 20.00     0.282 A 
HETATM    7  F7  UNL     1     -34.351   3.672   3.572  1.00 20.00    -0.207 F 
HETATM    8  F8  UNL     1     -34.036   4.329   6.331  1.00 20.00    -0.238 F 
HETATM    9  F9  UNL     1     -33.772   8.088   2.868  1.00 20.00    -0.197 F 
HETATM   10  F10 UNL     1     -31.860   7.429   3.656  1.00 20.00    -0.197 F 
ENDROOT
TORSDOF 0
ENDMDL
MODEL 7
REMARK VINA RESULT:      -5.9      1.119      3.818
REMARK  0 active torsions:
REMARK  status: ('A' for Active; 'I' for Inactive)
ROOT
HETATM    1  C1  UNL     1     -34.550   5.222   4.137  1.00 20.00     0.019 A 
HETATM    2  C2  UNL     1     -34.509   5.908   5.288  1.00 20.00     0.054 A 
HETATM    3  C3  UNL     1     -32.913   7.552   4.252  1.00 20.00     0.096 A 
HETATM    4  C4  UNL     1     -32.955   6.865   3.102  1.00 20.00     0.133 A 
HETATM    5  C5  UNL     1     -33.777   5.625   2.914  1.00 20.00     0.254 A 
HETATM    6  C6  UNL     1     -33.687   7.150   5.473  1.00 20.00     0.282 A 
HETATM    7  F7  UNL     1     -32.220   7.311   2.059  1.00 20.00    -0.207 F 
HETATM    8  F8  UNL     1     -32.965   4.597   2.533  1.00 20.00    -0.238 F 
HETATM    9  F9  UNL     1     -34.501   8.177   5.852  1.00 20.00    -0.197 F 
HETATM   10  F10 UNL     1     -32.824   6.969   6.515  1.00 20.00    -0.197 F 
ENDROOT
TORSDOF 0
ENDMDL
MODEL 8
REMARK VINA RESULT:      -5.7      1.671      2.990
REMARK  0 active torsions:
REMARK  status: ('A' for Active; 'I' for Inactive)
ROOT
HETATM    1  C1  UNL     1     -33.375   7.233   5.410  1.00 20.00     0.019 A 
HETATM    2  C2  UNL     1     -34.390   6.359   5.360  1.00 20.00     0.054 A 
HETATM    3  C3  UNL     1     -33.871   5.894   2.944  1.00 20.00     0.096 A 
HETATM    4  C4  UNL     1     -32.857   6.770   2.995  1.00 20.00     0.133 A 
HETATM    5  C5  UNL     1     -32.494   7.536   4.232  1.00 20.00     0.254 A 
HETATM    6  C6  UNL     1     -34.750   5.591   4.122  1.00 20.00     0.282 A 
HETATM    7  F7  UNL     1     -32.125   6.972   1.877  1.00 20.00    -0.207 F 
HETATM    8  F8  UNL     1     -32.539   8.873   3.965  1.00 20.00    -0.238 F 
HETATM    9  F9  UNL     1     -34.702   4.254   4.389  1.00 20.00    -0.197 F 
HETATM   10  F10 UNL     1     -36.049   5.849   3.794  1.00 20.00    -0.197 F 
ENDROOT
TORSDOF 0
ENDMDL
MODEL 9
REMARK VINA RESULT:      -5.4      1.023      3.312
REMARK  0 active torsions:
REMARK  status: ('A' for Active; 'I' for Inactive)
ROOT
HETATM    1  C1  UNL     1     -32.816   6.907   3.104  1.00 20.00     0.019 A 
HETATM    2  C2  UNL     1     -32.826   7.664   4.210  1.00 20.00     0.054 A 
HETATM    3  C3  UNL     1     -34.355   6.011   5.329  1.00 20.00     0.096 A 
HETATM    4  C4  UNL     1     -34.346   5.255   4.221  1.00 20.00     0.133 A 
HETATM    5  C5  UNL     1     -33.576   5.617   2.986  1.00 20.00     0.254 A 
HETATM    6  C6  UNL     1     -33.595   7.299   5.446  1.00 20.00     0.282 A 
HETATM    7  F7  UNL     1     -35.065   4.112   4.217  1.00 20.00    -0.207 F 
HETATM    8  F8  UNL     1     -34.431   5.690   1.926  1.00 20.00    -0.238 F 
HETATM    9  F9  UNL     1     -32.738   7.224   6.505  1.00 20.00    -0.197 F 
HETATM   10  F10 UNL     1     -34.461   8.308   5.752  1.00 20.00    -0.197 F 
ENDROOT
TORSDOF 0
ENDMDL
