MODEL 1
REMARK VINA RESULT:      -5.2      0.000      0.000
REMARK  0 active torsions:
REMARK  status: ('A' for Active; 'I' for Inactive)
ROOT
HETATM    1  C1  UNL     1     -33.893   7.328   6.236  1.00 20.00     0.013 C 
HETATM    2  C2  UNL     1     -34.052   6.582   5.309  1.00 20.00    -0.106 C 
HETATM    3  C3  UNL     1     -35.086   6.196   3.047  1.00 20.00     0.041 A 
HETATM    4  C4  UNL     1     -33.608   6.002   2.855  1.00 20.00     0.079 A 
HETATM    5  C5  UNL     1     -34.243   5.688   4.195  1.00 20.00     0.033 A 
HETATM    6  C6  UNL     1     -34.379   4.239   4.576  1.00 20.00     0.030 C 
HETATM    7 BR7  UNL     1     -32.526   7.558   2.605  1.00 20.00    -0.089 Br
ENDROOT
TORSDOF 0
ENDMDL
MODEL 2
REMARK VINA RESULT:      -4.7      1.783      2.489
REMARK  0 active torsions:
REMARK  status: ('A' for Active; 'I' for Inactive)
ROOT
HETATM    1  C1  UNL     1     -32.119   8.105   2.961  1.00 20.00     0.013 C 
HETATM    2  C2  UNL     1     -32.893   7.447   3.601  1.00 20.00    -0.106 C 
HETATM    3  C3  UNL     1     -35.089   6.219   3.667  1.00 20.00     0.041 A 
HETATM    4  C4  UNL     1     -34.043   5.198   4.018  1.00 20.00     0.079 A 
HETATM    5  C5  UNL     1     -33.822   6.657   4.368  1.00 20.00     0.033 A 
HETATM    6  C6  UNL     1     -33.922   7.045   5.818  1.00 20.00     0.030 C 
HETATM    7 BR7  UNL     1     -33.094   4.361   2.586  1.00 20.00    -0.089 Br
ENDROOT
TORSDOF 0
ENDMDL
MODEL 3
REMARK VINA RESULT:      -4.1      2.163      3.411
REMARK  0 active torsions:
REMARK  status: ('A' for Active; 'I' for Inactive)
ROOT
HETATM    1  C1  UNL     1     -32.945   4.563   2.316  1.00 20.00     0.013 C 
HETATM    2  C2  UNL     1     -33.014   5.626   2.870  1.00 20.00    -0.106 C 
HETATM    3  C3  UNL     1     -34.470   7.523   3.654  1.00 20.00     0.041 A 
HETATM    4  C4  UNL     1     -33.779   7.009   4.885  1.00 20.00     0.079 A 
HETATM    5  C5  UNL     1     -33.096   6.902   3.535  1.00 20.00     0.033 A 
HETATM    6  C6  UNL     1     -31.933   7.819   3.271  1.00 20.00     0.030 C 
HETATM    7 BR7  UNL     1     -34.519   5.475   5.752  1.00 20.00    -0.089 Br
ENDROOT
TORSDOF 0
ENDMDL
MODEL 4
REMARK VINA RESULT:      -4.0      1.231      2.635
REMARK  0 active torsions:
REMARK  status: ('A' for Active; 'I' for Inactive)
ROOT
HETATM    1  C1  UNL     1     -32.774   4.357   2.455  1.00 20.00     0.013 C 
HETATM    2  C2  UNL     1     -33.373   5.236   3.009  1.00 20.00    -0.106 C 
HETATM    3  C3  UNL     1     -33.384   6.987   4.818  1.00 20.00     0.041 A 
HETATM    4  C4  UNL     1     -33.628   7.730   3.535  1.00 20.00     0.079 A 
HETATM    5  C5  UNL     1     -34.092   6.293   3.675  1.00 20.00     0.033 A 
HETATM    6  C6  UNL     1     -35.571   6.052   3.810  1.00 20.00     0.030 C 
HETATM    7 BR7  UNL     1     -32.111   8.187   2.464  1.00 20.00    -0.089 Br
ENDROOT
TORSDOF 0
ENDMDL
MODEL 5
REMARK VINA RESULT:      -3.9      2.010      3.253
REMARK  0 active torsions:
REMARK  status: ('A' for Active; 'I' for Inactive)
ROOT
HETATM    1  C1  UNL     1     -33.052   5.111   2.365  1.00 20.00     0.013 C 
HETATM    2  C2  UNL     1     -32.934   6.156   2.944  1.00 20.00    -0.106 C 
HETATM    3  C3  UNL     1     -31.417   8.043   3.633  1.00 20.00     0.041 A 
HETATM    4  C4  UNL     1     -32.533   8.683   2.856  1.00 20.00     0.079 A 
HETATM    5  C5  UNL     1     -32.791   7.411   3.638  1.00 20.00     0.033 A 
HETATM    6  C6  UNL     1     -33.609   7.523   4.896  1.00 20.00     0.030 C 
HETATM    7 BR7  UNL     1     -32.415   8.675   0.949  1.00 20.00    -0.089 Br
ENDROOT
TORSDOF 0
ENDMDL
MODEL 6
REMARK VINA RESULT:      -3.8      1.933      2.891
REMARK  0 active torsions:
REMARK  status: ('A' for Active; 'I' for Inactive)
ROOT
HETATM    1  C1  UNL     1     -31.840   7.908   2.896  1.00 20.00     0.013 C 
HETATM    2  C2  UNL     1     -32.748   7.122   2.904  1.00 20.00    -0.106 C 
HETATM    3  C3  UNL     1     -33.602   4.871   3.636  1.00 20.00     0.041 A 
HETATM    4  C4  UNL     1     -34.562   5.874   4.211  1.00 20.00     0.079 A 
HETATM    5  C5  UNL     1     -33.837   6.179   2.915  1.00 20.00     0.033 A 
HETATM    6  C6  UNL     1     -34.642   6.143   1.644  1.00 20.00     0.030 C 
HETATM    7 BR7  UNL     1     -34.083   6.736   5.848  1.00 20.00    -0.089 Br
ENDROOT
TORSDOF 0
ENDMDL
MODEL 7
REMARK VINA RESULT:      -3.7      1.643      1.953
REMARK  0 active torsions:
REMARK  status: ('A' for Active; 'I' for Inactive)
ROOT
HETATM    1  C1  UNL     1     -34.746   4.671   5.434  1.00 20.00     0.013 C 
HETATM    2  C2  UNL     1     -34.206   5.003   4.415  1.00 20.00    -0.106 C 
HETATM    3  C3  UNL     1     -34.194   6.538   2.420  1.00 20.00     0.041 A 
HETATM    4  C4  UNL     1     -32.873   6.752   3.103  1.00 20.00     0.079 A 
HETATM    5  C5  UNL     1     -33.558   5.403   3.191  1.00 20.00     0.033 A 
HETATM    6  C6  UNL     1     -32.962   4.269   2.403  1.00 20.00     0.030 C 
HETATM    7 BR7  UNL     1     -32.820   7.943   4.597  1.00 20.00    -0.089 Br
ENDROOT
TORSDOF 0
ENDMDL
MODEL 8
REMARK VINA RESULT:      -3.5      2.033      2.765
REMARK  0 active torsions:
REMARK  status: ('A' for Active; 'I' for Inactive)
ROOT
HETATM    1  C1  UNL     1     -32.944   7.928   5.700  1.00 20.00     0.013 C 
HETATM    2  C2  UNL     1     -33.008   7.542   4.565  1.00 20.00    -0.106 C 
HETATM    3  C3  UNL     1     -32.651   5.653   2.941  1.00 20.00     0.041 A 
HETATM    4  C4  UNL     1     -34.104   6.021   2.821  1.00 20.00     0.079 A 
HETATM    5  C5  UNL     1     -33.086   7.077   3.203  1.00 20.00     0.033 A 
HETATM    6  C6  UNL     1     -32.743   8.116   2.170  1.00 20.00     0.030 C 
HETATM    7 BR7  UNL     1     -35.320   5.297   4.105  1.00 20.00    -0.089 Br
ENDROOT
TORSDOF 0
ENDMDL
MODEL 9
REMARK VINA RESULT:      -3.3     12.511     13.225
REMARK  0 active torsions:
REMARK  status: ('A' for Active; 'I' for Inactive)
ROOT
HETATM    1  C1  UNL     1     -34.054  15.404  -3.762  1.00 20.00     0.013 C 
HETATM    2  C2  UNL     1     -34.125  16.262  -2.925  1.00 20.00    -0.106 C 
HETATM    3  C3  UNL     1     -32.904  17.876  -1.428  1.00 20.00     0.041 A 
HETATM    4  C4  UNL     1     -33.825  18.718  -2.265  1.00 20.00     0.079 A 
HETATM    5  C5  UNL     1     -34.210  17.292  -1.921  1.00 20.00     0.033 A 
HETATM    6  C6  UNL     1     -35.312  17.094  -0.917  1.00 20.00     0.030 C 
HETATM    7 BR7  UNL     1     -33.248  19.198  -4.023  1.00 20.00    -0.089 Br
ENDROOT
TORSDOF 0
ENDMDL
