MODEL 1
REMARK VINA RESULT:      -4.9      0.000      0.000
REMARK  0 active torsions:
REMARK  status: ('A' for Active; 'I' for Inactive)
ROOT
HETATM    1  C1  UNL     1     -32.884   6.975   3.534  1.00 20.00    -0.059 A 
HETATM    2  C2  UNL     1     -33.737   6.866   4.572  1.00 20.00    -0.055 A 
HETATM    3  C3  UNL     1     -33.622   5.955   2.686  1.00 20.00     0.138 A 
HETATM    4  C4  UNL     1     -34.548   5.732   3.928  1.00 20.00     0.077 A 
HETATM    5  C5  UNL     1     -31.651   7.863   3.267  1.00 20.00     0.045 C 
HETATM    6  C6  UNL     1     -33.832   7.569   5.943  1.00 20.00     0.046 C 
HETATM    7  C7  UNL     1     -34.404   4.399   4.671  1.00 20.00     0.039 C 
HETATM    8 CL8  UNL     1     -32.673   4.574   1.991  1.00 20.00    -0.118 Cl
HETATM    9 CL9  UNL     1     -36.301   6.094   3.644  1.00 20.00    -0.113 Cl
ENDROOT
TORSDOF 0
ENDMDL
MODEL 2
REMARK VINA RESULT:      -4.6      1.594      2.565
REMARK  0 active torsions:
REMARK  status: ('A' for Active; 'I' for Inactive)
ROOT
HETATM    1  C1  UNL     1     -33.710   7.007   4.812  1.00 20.00    -0.059 A 
HETATM    2  C2  UNL     1     -34.222   5.840   4.370  1.00 20.00    -0.055 A 
HETATM    3  C3  UNL     1     -33.277   7.459   3.429  1.00 20.00     0.138 A 
HETATM    4  C4  UNL     1     -33.758   6.060   2.922  1.00 20.00     0.077 A 
HETATM    5  C5  UNL     1     -33.652   7.678   6.200  1.00 20.00     0.045 C 
HETATM    6  C6  UNL     1     -34.949   4.671   5.068  1.00 20.00     0.046 C 
HETATM    7  C7  UNL     1     -32.673   5.068   2.487  1.00 20.00     0.039 C 
HETATM    8 CL8  UNL     1     -31.553   7.974   3.200  1.00 20.00    -0.118 Cl
HETATM    9 CL9  UNL     1     -35.079   6.112   1.682  1.00 20.00    -0.113 Cl
ENDROOT
TORSDOF 0
ENDMDL
MODEL 3
REMARK VINA RESULT:      -4.2      1.998      3.774
REMARK  0 active torsions:
REMARK  status: ('A' for Active; 'I' for Inactive)
ROOT
HETATM    1  C1  UNL     1     -34.084   5.763   4.128  1.00 20.00    -0.059 A 
HETATM    2  C2  UNL     1     -33.301   5.852   3.034  1.00 20.00    -0.055 A 
HETATM    3  C3  UNL     1     -34.019   7.251   4.423  1.00 20.00     0.138 A 
HETATM    4  C4  UNL     1     -33.013   7.349   3.229  1.00 20.00     0.077 A 
HETATM    5  C5  UNL     1     -34.838   4.595   4.796  1.00 20.00     0.045 C 
HETATM    6  C6  UNL     1     -32.807   4.820   1.999  1.00 20.00     0.046 C 
HETATM    7  C7  UNL     1     -31.547   7.634   3.577  1.00 20.00     0.039 C 
HETATM    8 CL8  UNL     1     -33.519   7.770   6.087  1.00 20.00    -0.118 Cl
HETATM    9 CL9  UNL     1     -33.546   8.425   1.871  1.00 20.00    -0.113 Cl
ENDROOT
TORSDOF 0
ENDMDL
MODEL 4
REMARK VINA RESULT:      -3.7     11.852     12.792
REMARK  0 active torsions:
REMARK  status: ('A' for Active; 'I' for Inactive)
ROOT
HETATM    1  C1  UNL     1     -34.940  16.005  -3.254  1.00 20.00    -0.059 A 
HETATM    2  C2  UNL     1     -34.337  15.235  -4.182  1.00 20.00    -0.055 A 
HETATM    3  C3  UNL     1     -36.321  15.837  -3.862  1.00 20.00     0.138 A 
HETATM    4  C4  UNL     1     -35.616  15.041  -5.010  1.00 20.00     0.077 A 
HETATM    5  C5  UNL     1     -34.432  16.732  -1.992  1.00 20.00     0.045 C 
HETATM    6  C6  UNL     1     -32.880  14.769  -4.387  1.00 20.00     0.046 C 
HETATM    7  C7  UNL     1     -35.546  15.720  -6.383  1.00 20.00     0.039 C 
HETATM    8 CL8  UNL     1     -37.277  17.332  -4.235  1.00 20.00    -0.118 Cl
HETATM    9 CL9  UNL     1     -36.169  13.325  -5.197  1.00 20.00    -0.113 Cl
ENDROOT
TORSDOF 0
ENDMDL
MODEL 5
REMARK VINA RESULT:      -3.7     12.059     12.938
REMARK  0 active torsions:
REMARK  status: ('A' for Active; 'I' for Inactive)
ROOT
HETATM    1  C1  UNL     1     -35.106  17.123  -1.401  1.00 20.00    -0.059 A 
HETATM    2  C2  UNL     1     -33.877  17.342  -1.913  1.00 20.00    -0.055 A 
HETATM    3  C3  UNL     1     -35.628  16.467  -2.667  1.00 20.00     0.138 A 
HETATM    4  C4  UNL     1     -34.248  16.823  -3.311  1.00 20.00     0.077 A 
HETATM    5  C5  UNL     1     -35.734  17.374  -0.015  1.00 20.00     0.045 C 
HETATM    6  C6  UNL     1     -32.585  17.956  -1.336  1.00 20.00     0.046 C 
HETATM    7  C7  UNL     1     -34.242  17.925  -4.377  1.00 20.00     0.039 C 
HETATM    8 CL8  UNL     1     -37.167  17.104  -3.386  1.00 20.00    -0.118 Cl
HETATM    9 CL9  UNL     1     -33.288  15.398  -3.890  1.00 20.00    -0.113 Cl
ENDROOT
TORSDOF 0
ENDMDL
MODEL 6
REMARK VINA RESULT:      -3.6     11.865     13.147
REMARK  0 active torsions:
REMARK  status: ('A' for Active; 'I' for Inactive)
ROOT
HETATM    1  C1  UNL     1     -33.634  17.236  -4.416  1.00 20.00    -0.059 A 
HETATM    2  C2  UNL     1     -33.610  16.217  -5.298  1.00 20.00    -0.055 A 
HETATM    3  C3  UNL     1     -33.648  16.323  -3.204  1.00 20.00     0.138 A 
HETATM    4  C4  UNL     1     -33.742  15.134  -4.217  1.00 20.00     0.077 A 
HETATM    5  C5  UNL     1     -33.586  18.770  -4.571  1.00 20.00     0.045 C 
HETATM    6  C6  UNL     1     -33.546  16.152  -6.839  1.00 20.00     0.046 C 
HETATM    7  C7  UNL     1     -35.077  14.383  -4.285  1.00 20.00     0.039 C 
HETATM    8 CL8  UNL     1     -34.946  16.573  -1.962  1.00 20.00    -0.118 Cl
HETATM    9 CL9  UNL     1     -32.372  13.951  -4.131  1.00 20.00    -0.113 Cl
ENDROOT
TORSDOF 0
ENDMDL
MODEL 7
REMARK VINA RESULT:      -3.6     12.000     12.723
REMARK  0 active torsions:
REMARK  status: ('A' for Active; 'I' for Inactive)
ROOT
HETATM    1  C1  UNL     1     -35.918  14.633  -4.883  1.00 20.00    -0.059 A 
HETATM    2  C2  UNL     1     -35.031  15.293  -4.111  1.00 20.00    -0.055 A 
HETATM    3  C3  UNL     1     -34.848  14.034  -5.779  1.00 20.00     0.138 A 
HETATM    4  C4  UNL     1     -33.821  14.890  -4.966  1.00 20.00     0.077 A 
HETATM    5  C5  UNL     1     -37.451  14.475  -4.835  1.00 20.00     0.045 C 
HETATM    6  C6  UNL     1     -35.177  16.189  -2.863  1.00 20.00     0.046 C 
HETATM    7  C7  UNL     1     -33.179  16.079  -5.690  1.00 20.00     0.039 C 
HETATM    8 CL8  UNL     1     -35.011  14.258  -7.571  1.00 20.00    -0.118 Cl
HETATM    9 CL9  UNL     1     -32.546  13.931  -4.104  1.00 20.00    -0.113 Cl
ENDROOT
TORSDOF 0
ENDMDL
MODEL 8
REMARK VINA RESULT:      -3.6     11.761     12.525
REMARK  0 active torsions:
REMARK  status: ('A' for Active; 'I' for Inactive)
ROOT
HETATM    1  C1  UNL     1     -34.135  16.237  -3.404  1.00 20.00    -0.059 A 
HETATM    2  C2  UNL     1     -35.388  16.121  -3.888  1.00 20.00    -0.055 A 
HETATM    3  C3  UNL     1     -33.515  15.430  -4.530  1.00 20.00     0.138 A 
HETATM    4  C4  UNL     1     -34.975  15.186  -5.035  1.00 20.00     0.077 A 
HETATM    5  C5  UNL     1     -33.534  16.981  -2.194  1.00 20.00     0.045 C 
HETATM    6  C6  UNL     1     -36.756  16.665  -3.425  1.00 20.00     0.046 C 
HETATM    7  C7  UNL     1     -35.537  13.768  -4.881  1.00 20.00     0.039 C 
HETATM    8 CL8  UNL     1     -32.452  14.028  -4.090  1.00 20.00    -0.118 Cl
HETATM    9 CL9  UNL     1     -35.317  15.807  -6.704  1.00 20.00    -0.113 Cl
ENDROOT
TORSDOF 0
ENDMDL
MODEL 9
REMARK VINA RESULT:      -3.5     11.913     12.696
REMARK  0 active torsions:
REMARK  status: ('A' for Active; 'I' for Inactive)
ROOT
HETATM    1  C1  UNL     1     -35.583  14.594  -4.522  1.00 20.00    -0.059 A 
HETATM    2  C2  UNL     1     -36.322  15.632  -4.081  1.00 20.00    -0.055 A 
HETATM    3  C3  UNL     1     -34.309  15.086  -3.859  1.00 20.00     0.138 A 
HETATM    4  C4  UNL     1     -35.126  16.354  -3.444  1.00 20.00     0.077 A 
HETATM    5  C5  UNL     1     -35.918  13.327  -5.336  1.00 20.00     0.045 C 
HETATM    6  C6  UNL     1     -37.813  16.005  -4.222  1.00 20.00     0.046 C 
HETATM    7  C7  UNL     1     -34.776  17.668  -4.152  1.00 20.00     0.039 C 
HETATM    8 CL8  UNL     1     -32.821  15.249  -4.883  1.00 20.00    -0.118 Cl
HETATM    9 CL9  UNL     1     -35.248  16.629  -1.656  1.00 20.00    -0.113 Cl
ENDROOT
TORSDOF 0
ENDMDL
