MODEL 1
REMARK VINA RESULT:      -6.2      0.000      0.000
REMARK  1 active torsions:
REMARK  status: ('A' for Active; 'I' for Inactive)
REMARK    1  A    between atoms: C8_8  and  C11_11 
ROOT
HETATM    1  C1  UNL     1     -33.551   4.884   3.186  1.00 20.00    -0.084 C 
HETATM    2  C2  UNL     1     -32.870   4.172   2.284  1.00 20.00     0.014 C 
HETATM    3  C3  UNL     1     -33.710   4.548   4.648  1.00 20.00     0.038 C 
HETATM    4  C4  UNL     1     -35.525   5.894   3.887  1.00 20.00     0.014 C 
HETATM    5  C5  UNL     1     -33.799   7.029   5.091  1.00 20.00     0.010 C 
HETATM    6  C6  UNL     1     -34.361   6.135   2.921  1.00 20.00     0.018 C 
HETATM    7  C7  UNL     1     -34.610   5.713   5.103  1.00 20.00    -0.010 C 
HETATM    8  C8  UNL     1     -33.680   7.354   3.582  1.00 20.00    -0.003 C 
ENDROOT
BRANCH   8   9
HETATM    9  C11 UNL     1     -32.254   7.633   3.132  1.00 20.00    -0.018 C 
HETATM   10  C9  UNL     1     -32.242   8.344   1.779  1.00 20.00     0.010 C 
HETATM   11  C10 UNL     1     -31.507   8.463   4.177  1.00 20.00     0.010 C 
ENDBRANCH   8   9
TORSDOF 1
ENDMDL
MODEL 2
REMARK VINA RESULT:      -4.5      0.969      2.612
REMARK  1 active torsions:
REMARK  status: ('A' for Active; 'I' for Inactive)
REMARK    1  A    between atoms: C8_8  and  C11_11 
ROOT
HETATM    1  C1  UNL     1     -33.945   6.619   4.763  1.00 20.00    -0.084 C 
HETATM    2  C2  UNL     1     -33.749   7.289   5.901  1.00 20.00     0.014 C 
HETATM    3  C3  UNL     1     -35.281   6.262   4.160  1.00 20.00     0.038 C 
HETATM    4  C4  UNL     1     -33.595   4.737   3.442  1.00 20.00     0.014 C 
HETATM    5  C5  UNL     1     -34.185   6.464   1.898  1.00 20.00     0.010 C 
HETATM    6  C6  UNL     1     -32.876   6.019   3.876  1.00 20.00     0.018 C 
HETATM    7  C7  UNL     1     -34.821   5.485   2.911  1.00 20.00    -0.010 C 
HETATM    8  C8  UNL     1     -32.812   6.785   2.535  1.00 20.00    -0.003 C 
ENDROOT
BRANCH   8   9
HETATM    9  C11 UNL     1     -32.527   8.275   2.644  1.00 20.00    -0.018 C 
HETATM   10  C9  UNL     1     -31.248   8.526   3.443  1.00 20.00     0.010 C 
HETATM   11  C10 UNL     1     -32.422   8.911   1.258  1.00 20.00     0.010 C 
ENDBRANCH   8   9
TORSDOF 1
ENDMDL
MODEL 3
REMARK VINA RESULT:      -4.5     11.340     12.586
REMARK  1 active torsions:
REMARK  status: ('A' for Active; 'I' for Inactive)
REMARK    1  A    between atoms: C8_8  and  C11_11 
ROOT
HETATM    1  C1  UNL     1     -35.224  14.643  -5.009  1.00 20.00    -0.084 C 
HETATM    2  C2  UNL     1     -36.408  14.030  -5.076  1.00 20.00     0.014 C 
HETATM    3  C3  UNL     1     -34.564  15.425  -6.118  1.00 20.00     0.038 C 
HETATM    4  C4  UNL     1     -32.936  14.575  -4.597  1.00 20.00     0.014 C 
HETATM    5  C5  UNL     1     -33.536  16.874  -4.328  1.00 20.00     0.010 C 
HETATM    6  C6  UNL     1     -34.266  14.626  -3.837  1.00 20.00     0.018 C 
HETATM    7  C7  UNL     1     -33.246  15.825  -5.426  1.00 20.00    -0.010 C 
HETATM    8  C8  UNL     1     -34.184  16.033  -3.203  1.00 20.00    -0.003 C 
ENDROOT
BRANCH   8   9
HETATM    9  C11 UNL     1     -35.503  16.603  -2.703  1.00 20.00    -0.018 C 
HETATM   10  C9  UNL     1     -35.419  16.940  -1.214  1.00 20.00     0.010 C 
HETATM   11  C10 UNL     1     -35.899  17.842  -3.507  1.00 20.00     0.010 C 
ENDBRANCH   8   9
TORSDOF 1
ENDMDL
MODEL 4
REMARK VINA RESULT:      -4.5     11.298     12.295
REMARK  1 active torsions:
REMARK  status: ('A' for Active; 'I' for Inactive)
REMARK    1  A    between atoms: C8_8  and  C11_11 
ROOT
HETATM    1  C1  UNL     1     -33.950  14.798  -4.433  1.00 20.00    -0.084 C 
HETATM    2  C2  UNL     1     -32.750  14.262  -4.198  1.00 20.00     0.014 C 
HETATM    3  C3  UNL     1     -35.245  14.041  -4.593  1.00 20.00     0.038 C 
HETATM    4  C4  UNL     1     -35.344  16.137  -5.725  1.00 20.00     0.014 C 
HETATM    5  C5  UNL     1     -36.405  16.042  -3.585  1.00 20.00     0.010 C 
HETATM    6  C6  UNL     1     -34.254  16.264  -4.656  1.00 20.00     0.018 C 
HETATM    7  C7  UNL     1     -36.213  15.208  -4.873  1.00 20.00    -0.010 C 
HETATM    8  C8  UNL     1     -35.072  16.820  -3.470  1.00 20.00    -0.003 C 
ENDROOT
BRANCH   8   9
HETATM    9  C11 UNL     1     -34.413  16.696  -2.104  1.00 20.00    -0.018 C 
HETATM   10  C9  UNL     1     -33.181  17.597  -2.013  1.00 20.00     0.010 C 
HETATM   11  C10 UNL     1     -35.405  17.035  -0.990  1.00 20.00     0.010 C 
ENDBRANCH   8   9
TORSDOF 1
ENDMDL
MODEL 5
REMARK VINA RESULT:      -4.2     11.653     12.751
REMARK  1 active torsions:
REMARK  status: ('A' for Active; 'I' for Inactive)
REMARK    1  A    between atoms: C8_8  and  C11_11 
ROOT
HETATM    1  C1  UNL     1     -35.885  16.197  -5.334  1.00 20.00    -0.084 C 
HETATM    2  C2  UNL     1     -36.849  17.106  -5.495  1.00 20.00     0.014 C 
HETATM    3  C3  UNL     1     -34.728  15.952  -6.272  1.00 20.00     0.038 C 
HETATM    4  C4  UNL     1     -35.224  13.991  -5.010  1.00 20.00     0.014 C 
HETATM    5  C5  UNL     1     -33.374  15.299  -4.247  1.00 20.00     0.010 C 
HETATM    6  C6  UNL     1     -35.784  15.178  -4.219  1.00 20.00     0.018 C 
HETATM    7  C7  UNL     1     -34.030  14.783  -5.549  1.00 20.00    -0.010 C 
HETATM    8  C8  UNL     1     -34.583  15.512  -3.306  1.00 20.00    -0.003 C 
ENDROOT
BRANCH   8   9
HETATM    9  C11 UNL     1     -34.614  16.889  -2.661  1.00 20.00    -0.018 C 
HETATM   10  C9  UNL     1     -35.541  16.898  -1.445  1.00 20.00     0.010 C 
HETATM   11  C10 UNL     1     -33.207  17.333  -2.260  1.00 20.00     0.010 C 
ENDBRANCH   8   9
TORSDOF 1
ENDMDL
MODEL 6
REMARK VINA RESULT:      -4.1     11.405     12.947
REMARK  1 active torsions:
REMARK  status: ('A' for Active; 'I' for Inactive)
REMARK    1  A    between atoms: C8_8  and  C11_11 
ROOT
HETATM    1  C1  UNL     1     -33.778  18.041  -1.606  1.00 20.00    -0.084 C 
HETATM    2  C2  UNL     1     -32.533  18.138  -1.133  1.00 20.00     0.014 C 
HETATM    3  C3  UNL     1     -34.589  19.161  -2.211  1.00 20.00     0.038 C 
HETATM    4  C4  UNL     1     -36.014  17.479  -1.304  1.00 20.00     0.014 C 
HETATM    5  C5  UNL     1     -35.687  17.421  -3.671  1.00 20.00     0.010 C 
HETATM    6  C6  UNL     1     -34.661  16.812  -1.573  1.00 20.00     0.018 C 
HETATM    7  C7  UNL     1     -35.906  18.417  -2.509  1.00 20.00    -0.010 C 
HETATM    8  C8  UNL     1     -34.879  16.281  -3.007  1.00 20.00    -0.003 C 
ENDROOT
BRANCH   8   9
HETATM    9  C11 UNL     1     -33.615  15.911  -3.768  1.00 20.00    -0.018 C 
HETATM   10  C9  UNL     1     -33.639  14.437  -4.176  1.00 20.00     0.010 C 
HETATM   11  C10 UNL     1     -33.441  16.801  -4.999  1.00 20.00     0.010 C 
ENDBRANCH   8   9
TORSDOF 1
ENDMDL
MODEL 7
REMARK VINA RESULT:      -4.1     11.386     13.142
REMARK  1 active torsions:
REMARK  status: ('A' for Active; 'I' for Inactive)
REMARK    1  A    between atoms: C8_8  and  C11_11 
ROOT
HETATM    1  C1  UNL     1     -33.935  18.704  -3.168  1.00 20.00    -0.084 C 
HETATM    2  C2  UNL     1     -33.654  19.220  -4.367  1.00 20.00     0.014 C 
HETATM    3  C3  UNL     1     -34.917  19.263  -2.168  1.00 20.00     0.038 C 
HETATM    4  C4  UNL     1     -33.242  17.964  -1.075  1.00 20.00     0.014 C 
HETATM    5  C5  UNL     1     -35.347  16.888  -1.435  1.00 20.00     0.010 C 
HETATM    6  C6  UNL     1     -33.284  17.494  -2.533  1.00 20.00     0.018 C 
HETATM    7  C7  UNL     1     -34.746  18.250  -1.018  1.00 20.00    -0.010 C 
HETATM    8  C8  UNL     1     -34.303  16.336  -2.436  1.00 20.00    -0.003 C 
ENDROOT
BRANCH   8   9
HETATM    9  C11 UNL     1     -34.909  15.885  -3.757  1.00 20.00    -0.018 C 
HETATM   10  C9  UNL     1     -34.506  14.444  -4.074  1.00 20.00     0.010 C 
HETATM   11  C10 UNL     1     -36.432  16.018  -3.729  1.00 20.00     0.010 C 
ENDBRANCH   8   9
TORSDOF 1
ENDMDL
MODEL 8
REMARK VINA RESULT:      -4.1     11.387     12.926
REMARK  1 active torsions:
REMARK  status: ('A' for Active; 'I' for Inactive)
REMARK    1  A    between atoms: C8_8  and  C11_11 
ROOT
HETATM    1  C1  UNL     1     -34.905  15.306  -7.103  1.00 20.00    -0.084 C 
HETATM    2  C2  UNL     1     -34.137  16.088  -7.866  1.00 20.00     0.014 C 
HETATM    3  C3  UNL     1     -35.078  13.815  -7.251  1.00 20.00     0.038 C 
HETATM    4  C4  UNL     1     -36.980  14.788  -6.190  1.00 20.00     0.014 C 
HETATM    5  C5  UNL     1     -35.397  13.721  -4.751  1.00 20.00     0.010 C 
HETATM    6  C6  UNL     1     -35.812  15.757  -5.978  1.00 20.00     0.018 C 
HETATM    7  C7  UNL     1     -36.091  13.542  -6.121  1.00 20.00    -0.010 C 
HETATM    8  C8  UNL     1     -35.261  15.257  -4.624  1.00 20.00    -0.003 C 
ENDROOT
BRANCH   8   9
HETATM    9  C11 UNL     1     -33.852  15.715  -4.281  1.00 20.00    -0.018 C 
HETATM   10  C9  UNL     1     -33.832  16.452  -2.941  1.00 20.00     0.010 C 
HETATM   11  C10 UNL     1     -32.888  14.528  -4.249  1.00 20.00     0.010 C 
ENDBRANCH   8   9
TORSDOF 1
ENDMDL
MODEL 9
REMARK VINA RESULT:      -4.1     11.753     12.955
REMARK  1 active torsions:
REMARK  status: ('A' for Active; 'I' for Inactive)
REMARK    1  A    between atoms: C8_8  and  C11_11 
ROOT
HETATM    1  C1  UNL     1     -35.887  17.775  -2.969  1.00 20.00    -0.084 C 
HETATM    2  C2  UNL     1     -37.127  18.270  -2.978  1.00 20.00     0.014 C 
HETATM    3  C3  UNL     1     -34.747  18.218  -3.851  1.00 20.00     0.038 C 
HETATM    4  C4  UNL     1     -34.435  15.966  -3.130  1.00 20.00     0.014 C 
HETATM    5  C5  UNL     1     -33.198  17.636  -1.947  1.00 20.00     0.010 C 
HETATM    6  C6  UNL     1     -35.383  16.625  -2.123  1.00 20.00     0.018 C 
HETATM    7  C7  UNL     1     -33.641  17.253  -3.378  1.00 20.00    -0.010 C 
HETATM    8  C8  UNL     1     -34.376  17.144  -1.072  1.00 20.00    -0.003 C 
ENDROOT
BRANCH   8   9
HETATM    9  C11 UNL     1     -34.910  18.206  -0.122  1.00 20.00    -0.018 C 
HETATM   10  C9  UNL     1     -35.807  17.577   0.945  1.00 20.00     0.010 C 
HETATM   11  C10 UNL     1     -33.763  18.975   0.533  1.00 20.00     0.010 C 
ENDBRANCH   8   9
TORSDOF 1
ENDMDL
