MODEL 1
REMARK VINA RESULT:      -6.7      0.000      0.000
REMARK  0 active torsions:
REMARK  status: ('A' for Active; 'I' for Inactive)
ROOT
HETATM    1  C1  UNL     1     -34.231   5.150   3.624  1.00 20.00     0.019 A 
HETATM    2  C2  UNL     1     -33.463   5.930   2.850  1.00 20.00     0.054 A 
HETATM    3  C3  UNL     1     -33.271   7.597   4.722  1.00 20.00     0.096 A 
HETATM    4  C4  UNL     1     -34.040   6.816   5.494  1.00 20.00     0.133 A 
HETATM    5  C5  UNL     1     -34.606   5.506   5.033  1.00 20.00     0.254 A 
HETATM    6  C6  UNL     1     -32.898   7.241   3.313  1.00 20.00     0.282 A 
HETATM    7  F7  UNL     1     -34.318   7.228   6.751  1.00 20.00    -0.207 F 
HETATM    8  F8  UNL     1     -34.196   4.515   5.876  1.00 20.00    -0.238 F 
HETATM    9  F9  UNL     1     -31.538   7.212   3.200  1.00 20.00    -0.197 F 
HETATM   10  F10 UNL     1     -33.309   8.233   2.472  1.00 20.00    -0.197 F 
ENDROOT
TORSDOF 0
ENDMDL
MODEL 2
REMARK VINA RESULT:      -6.5      1.389      2.586
REMARK  0 active torsions:
REMARK  status: ('A' for Active; 'I' for Inactive)
ROOT
HETATM    1  C1  UNL     1     -32.788   7.502   4.368  1.00 20.00     0.019 A 
HETATM    2  C2  UNL     1     -32.862   6.934   3.156  1.00 20.00     0.054 A 
HETATM    3  C3  UNL     1     -34.416   5.183   4.071  1.00 20.00     0.096 A 
HETATM    4  C4  UNL     1     -34.341   5.752   5.282  1.00 20.00     0.133 A 
HETATM    5  C5  UNL     1     -33.519   6.974   5.568  1.00 20.00     0.254 A 
HETATM    6  C6  UNL     1     -33.684   5.710   2.872  1.00 20.00     0.282 A 
HETATM    7  F7  UNL     1     -35.041   5.198   6.298  1.00 20.00    -0.207 F 
HETATM    8  F8  UNL     1     -34.324   7.951   6.075  1.00 20.00    -0.238 F 
HETATM    9  F9  UNL     1     -34.581   5.989   1.882  1.00 20.00    -0.197 F 
HETATM   10  F10 UNL     1     -32.880   4.732   2.367  1.00 20.00    -0.197 F 
ENDROOT
TORSDOF 0
ENDMDL
MODEL 3
REMARK VINA RESULT:      -6.5      1.431      3.579
REMARK  0 active torsions:
REMARK  status: ('A' for Active; 'I' for Inactive)
ROOT
HETATM    1  C1  UNL     1     -33.640   7.308   5.595  1.00 20.00     0.019 A 
HETATM    2  C2  UNL     1     -34.305   6.144   5.583  1.00 20.00     0.054 A 
HETATM    3  C3  UNL     1     -33.904   5.939   3.110  1.00 20.00     0.096 A 
HETATM    4  C4  UNL     1     -33.240   7.103   3.123  1.00 20.00     0.133 A 
HETATM    5  C5  UNL     1     -33.034   7.919   4.365  1.00 20.00     0.254 A 
HETATM    6  C6  UNL     1     -34.512   5.330   4.340  1.00 20.00     0.282 A 
HETATM    7  F7  UNL     1     -32.730   7.566   1.960  1.00 20.00    -0.207 F 
HETATM    8  F8  UNL     1     -31.698   8.108   4.564  1.00 20.00    -0.238 F 
HETATM    9  F9  UNL     1     -33.995   4.081   4.527  1.00 20.00    -0.197 F 
HETATM   10  F10 UNL     1     -35.847   5.142   4.139  1.00 20.00    -0.197 F 
ENDROOT
TORSDOF 0
ENDMDL
MODEL 4
REMARK VINA RESULT:      -6.5      1.568      2.490
REMARK  0 active torsions:
REMARK  status: ('A' for Active; 'I' for Inactive)
ROOT
HETATM    1  C1  UNL     1     -34.643   6.172   5.064  1.00 20.00     0.019 A 
HETATM    2  C2  UNL     1     -34.632   5.405   3.964  1.00 20.00     0.054 A 
HETATM    3  C3  UNL     1     -32.740   6.770   3.029  1.00 20.00     0.096 A 
HETATM    4  C4  UNL     1     -32.752   7.536   4.129  1.00 20.00     0.133 A 
HETATM    5  C5  UNL     1     -33.703   7.324   5.269  1.00 20.00     0.254 A 
HETATM    6  C6  UNL     1     -33.680   5.619   2.824  1.00 20.00     0.282 A 
HETATM    7  F7  UNL     1     -31.862   8.550   4.217  1.00 20.00    -0.207 F 
HETATM    8  F8  UNL     1     -32.995   7.133   6.418  1.00 20.00    -0.238 F 
HETATM    9  F9  UNL     1     -32.959   4.479   2.617  1.00 20.00    -0.197 F 
HETATM   10  F10 UNL     1     -34.388   5.812   1.674  1.00 20.00    -0.197 F 
ENDROOT
TORSDOF 0
ENDMDL
MODEL 5
REMARK VINA RESULT:      -6.3      1.363      3.186
REMARK  0 active torsions:
REMARK  status: ('A' for Active; 'I' for Inactive)
ROOT
HETATM    1  C1  UNL     1     -32.913   6.363   2.614  1.00 20.00     0.019 A 
HETATM    2  C2  UNL     1     -33.956   5.545   2.814  1.00 20.00     0.054 A 
HETATM    3  C3  UNL     1     -34.273   6.510   5.113  1.00 20.00     0.096 A 
HETATM    4  C4  UNL     1     -33.230   7.327   4.912  1.00 20.00     0.133 A 
HETATM    5  C5  UNL     1     -32.433   7.346   3.642  1.00 20.00     0.254 A 
HETATM    6  C6  UNL     1     -34.752   5.527   4.086  1.00 20.00     0.282 A 
HETATM    7  F7  UNL     1     -32.878   8.178   5.902  1.00 20.00    -0.207 F 
HETATM    8  F8  UNL     1     -32.456   8.603   3.113  1.00 20.00    -0.238 F 
HETATM    9  F9  UNL     1     -36.064   5.774   3.802  1.00 20.00    -0.197 F 
HETATM   10  F10 UNL     1     -34.728   4.271   4.617  1.00 20.00    -0.197 F 
ENDROOT
TORSDOF 0
ENDMDL
MODEL 6
REMARK VINA RESULT:      -5.9      1.690      2.833
REMARK  0 active torsions:
REMARK  status: ('A' for Active; 'I' for Inactive)
ROOT
HETATM    1  C1  UNL     1     -32.888   6.723   2.922  1.00 20.00     0.019 A 
HETATM    2  C2  UNL     1     -32.919   7.553   3.974  1.00 20.00     0.054 A 
HETATM    3  C3  UNL     1     -34.330   5.899   5.237  1.00 20.00     0.096 A 
HETATM    4  C4  UNL     1     -34.298   5.071   4.184  1.00 20.00     0.133 A 
HETATM    5  C5  UNL     1     -33.575   5.389   2.909  1.00 20.00     0.254 A 
HETATM    6  C6  UNL     1     -33.645   7.234   5.249  1.00 20.00     0.282 A 
HETATM    7  F7  UNL     1     -34.950   3.889   4.275  1.00 20.00    -0.207 F 
HETATM    8  F8  UNL     1     -32.661   4.410   2.652  1.00 20.00    -0.238 F 
HETATM    9  F9  UNL     1     -32.766   7.280   6.292  1.00 20.00    -0.197 F 
HETATM   10  F10 UNL     1     -34.561   8.211   5.505  1.00 20.00    -0.197 F 
ENDROOT
TORSDOF 0
ENDMDL
MODEL 7
REMARK VINA RESULT:      -5.8      1.558      2.722
REMARK  0 active torsions:
REMARK  status: ('A' for Active; 'I' for Inactive)
ROOT
HETATM    1  C1  UNL     1     -34.310   5.661   5.530  1.00 20.00     0.019 A 
HETATM    2  C2  UNL     1     -33.965   6.936   5.303  1.00 20.00     0.054 A 
HETATM    3  C3  UNL     1     -33.062   6.291   3.048  1.00 20.00     0.096 A 
HETATM    4  C4  UNL     1     -33.407   5.017   3.276  1.00 20.00     0.133 A 
HETATM    5  C5  UNL     1     -34.069   4.558   4.541  1.00 20.00     0.254 A 
HETATM    6  C6  UNL     1     -33.301   7.394   4.036  1.00 20.00     0.282 A 
HETATM    7  F7  UNL     1     -33.148   4.097   2.319  1.00 20.00    -0.207 F 
HETATM    8  F8  UNL     1     -35.254   3.954   4.239  1.00 20.00    -0.238 F 
HETATM    9  F9  UNL     1     -34.062   8.365   3.454  1.00 20.00    -0.197 F 
HETATM   10  F10 UNL     1     -32.116   7.996   4.339  1.00 20.00    -0.197 F 
ENDROOT
TORSDOF 0
ENDMDL
MODEL 8
REMARK VINA RESULT:      -5.8      0.974      2.422
REMARK  0 active torsions:
REMARK  status: ('A' for Active; 'I' for Inactive)
ROOT
HETATM    1  C1  UNL     1     -33.737   6.895   5.807  1.00 20.00     0.019 A 
HETATM    2  C2  UNL     1     -33.241   7.675   4.836  1.00 20.00     0.054 A 
HETATM    3  C3  UNL     1     -33.469   5.782   3.198  1.00 20.00     0.096 A 
HETATM    4  C4  UNL     1     -33.965   5.003   4.170  1.00 20.00     0.133 A 
HETATM    5  C5  UNL     1     -34.154   5.471   5.582  1.00 20.00     0.254 A 
HETATM    6  C6  UNL     1     -33.051   7.205   3.423  1.00 20.00     0.282 A 
HETATM    7  F7  UNL     1     -34.313   3.733   3.863  1.00 20.00    -0.207 F 
HETATM    8  F8  UNL     1     -35.463   5.320   5.936  1.00 20.00    -0.238 F 
HETATM    9  F9  UNL     1     -33.749   8.020   2.579  1.00 20.00    -0.197 F 
HETATM   10  F10 UNL     1     -31.742   7.354   3.070  1.00 20.00    -0.197 F 
ENDROOT
TORSDOF 0
ENDMDL
MODEL 9
REMARK VINA RESULT:      -5.5      1.240      3.245
REMARK  0 active torsions:
REMARK  status: ('A' for Active; 'I' for Inactive)
ROOT
HETATM    1  C1  UNL     1     -34.527   5.300   4.078  1.00 20.00     0.019 A 
HETATM    2  C2  UNL     1     -34.509   5.962   5.243  1.00 20.00     0.054 A 
HETATM    3  C3  UNL     1     -32.856   7.599   4.290  1.00 20.00     0.096 A 
HETATM    4  C4  UNL     1     -32.875   6.936   3.125  1.00 20.00     0.133 A 
HETATM    5  C5  UNL     1     -33.711   5.714   2.888  1.00 20.00     0.254 A 
HETATM    6  C6  UNL     1     -33.671   7.185   5.480  1.00 20.00     0.282 A 
HETATM    7  F7  UNL     1     -32.103   7.392   2.113  1.00 20.00    -0.207 F 
HETATM    8  F8  UNL     1     -34.537   5.930   1.825  1.00 20.00    -0.238 F 
HETATM    9  F9  UNL     1     -34.478   8.219   5.856  1.00 20.00    -0.197 F 
HETATM   10  F10 UNL     1     -32.843   6.968   6.542  1.00 20.00    -0.197 F 
ENDROOT
TORSDOF 0
ENDMDL
