MODEL 1
REMARK VINA RESULT:      -5.5      0.000      0.000
REMARK  1 active torsions:
REMARK  status: ('A' for Active; 'I' for Inactive)
REMARK    1  A    between atoms: C4_4  and  C6_6 
ROOT
HETATM    1  C1  UNL     1     -32.572   6.107   2.956  1.00 20.00     0.062 C 
HETATM    2  C2  UNL     1     -34.023   7.661   2.862  1.00 20.00     0.062 C 
HETATM    3  C3  UNL     1     -32.845   7.411   4.617  1.00 20.00     0.062 C 
HETATM    4  C4  UNL     1     -33.836   6.440   3.852  1.00 20.00     0.067 C 
HETATM    5  C5  UNL     1     -32.497   7.645   3.125  1.00 20.00     0.106 C 
HETATM    6  F7  UNL     1     -31.584   8.466   2.630  1.00 20.00    -0.243 F 
ENDROOT
BRANCH   4   7
HETATM    7  C6  UNL     1     -34.855   5.523   4.405  1.00 20.00     0.395 C 
HETATM    8  F8  UNL     1     -34.966   5.637   5.755  1.00 20.00    -0.170 F 
HETATM    9  F9  UNL     1     -36.089   5.761   3.888  1.00 20.00    -0.170 F 
HETATM   10  F10 UNL     1     -34.564   4.221   4.144  1.00 20.00    -0.170 F 
ENDBRANCH   4   7
TORSDOF 1
ENDMDL
MODEL 2
REMARK VINA RESULT:      -5.5      0.009      1.196
REMARK  1 active torsions:
REMARK  status: ('A' for Active; 'I' for Inactive)
REMARK    1  A    between atoms: C4_4  and  C6_6 
ROOT
HETATM    1  C1  UNL     1     -32.569   6.103   2.952  1.00 20.00     0.062 C 
HETATM    2  C2  UNL     1     -34.022   7.656   2.853  1.00 20.00     0.062 C 
HETATM    3  C3  UNL     1     -32.847   7.409   4.611  1.00 20.00     0.062 C 
HETATM    4  C4  UNL     1     -33.836   6.436   3.845  1.00 20.00     0.067 C 
HETATM    5  C5  UNL     1     -32.496   7.641   3.119  1.00 20.00     0.106 C 
HETATM    6  F7  UNL     1     -31.583   8.463   2.625  1.00 20.00    -0.243 F 
ENDROOT
BRANCH   4   7
HETATM    7  C6  UNL     1     -34.855   5.518   4.397  1.00 20.00     0.395 C 
HETATM    8  F8  UNL     1     -34.566   4.217   4.132  1.00 20.00    -0.170 F 
HETATM    9  F9  UNL     1     -34.965   5.631   5.746  1.00 20.00    -0.170 F 
HETATM   10  F10 UNL     1     -36.089   5.760   3.880  1.00 20.00    -0.170 F 
ENDBRANCH   4   7
TORSDOF 1
ENDMDL
MODEL 3
REMARK VINA RESULT:      -5.2      1.161      3.869
REMARK  1 active torsions:
REMARK  status: ('A' for Active; 'I' for Inactive)
REMARK    1  A    between atoms: C4_4  and  C6_6 
ROOT
HETATM    1  C1  UNL     1     -34.754   6.437   2.876  1.00 20.00     0.062 C 
HETATM    2  C2  UNL     1     -32.983   5.275   3.087  1.00 20.00     0.062 C 
HETATM    3  C3  UNL     1     -33.641   6.511   4.690  1.00 20.00     0.062 C 
HETATM    4  C4  UNL     1     -33.251   6.832   3.188  1.00 20.00     0.067 C 
HETATM    5  C5  UNL     1     -34.303   5.358   3.892  1.00 20.00     0.106 C 
HETATM    6  F7  UNL     1     -35.020   4.354   4.373  1.00 20.00    -0.243 F 
ENDROOT
BRANCH   4   7
HETATM    7  C6  UNL     1     -32.450   7.953   2.652  1.00 20.00     0.395 C 
HETATM    8  F8  UNL     1     -31.589   8.453   3.577  1.00 20.00    -0.170 F 
HETATM    9  F9  UNL     1     -31.704   7.579   1.581  1.00 20.00    -0.170 F 
HETATM   10  F10 UNL     1     -33.232   8.988   2.244  1.00 20.00    -0.170 F 
ENDBRANCH   4   7
TORSDOF 1
ENDMDL
MODEL 4
REMARK VINA RESULT:      -5.2      1.129      3.883
REMARK  1 active torsions:
REMARK  status: ('A' for Active; 'I' for Inactive)
REMARK    1  A    between atoms: C4_4  and  C6_6 
ROOT
HETATM    1  C1  UNL     1     -33.657   6.605   4.679  1.00 20.00     0.062 C 
HETATM    2  C2  UNL     1     -34.721   6.480   2.840  1.00 20.00     0.062 C 
HETATM    3  C3  UNL     1     -32.955   5.327   3.128  1.00 20.00     0.062 C 
HETATM    4  C4  UNL     1     -33.228   6.887   3.179  1.00 20.00     0.067 C 
HETATM    5  C5  UNL     1     -34.296   5.431   3.897  1.00 20.00     0.106 C 
HETATM    6  F7  UNL     1     -35.023   4.438   4.386  1.00 20.00    -0.243 F 
ENDROOT
BRANCH   4   7
HETATM    7  C6  UNL     1     -32.417   7.995   2.633  1.00 20.00     0.395 C 
HETATM    8  F8  UNL     1     -31.671   7.603   1.566  1.00 20.00    -0.170 F 
HETATM    9  F9  UNL     1     -33.187   9.032   2.215  1.00 20.00    -0.170 F 
HETATM   10  F10 UNL     1     -31.551   8.494   3.555  1.00 20.00    -0.170 F 
ENDBRANCH   4   7
TORSDOF 1
ENDMDL
MODEL 5
REMARK VINA RESULT:      -4.9      1.857      3.640
REMARK  1 active torsions:
REMARK  status: ('A' for Active; 'I' for Inactive)
REMARK    1  A    between atoms: C4_4  and  C6_6 
ROOT
HETATM    1  C1  UNL     1     -33.691   6.489   5.106  1.00 20.00     0.062 C 
HETATM    2  C2  UNL     1     -35.463   5.778   4.165  1.00 20.00     0.062 C 
HETATM    3  C3  UNL     1     -33.982   4.399   4.825  1.00 20.00     0.062 C 
HETATM    4  C4  UNL     1     -33.929   5.612   3.807  1.00 20.00     0.067 C 
HETATM    5  C5  UNL     1     -34.804   5.503   5.539  1.00 20.00     0.106 C 
HETATM    6  F7  UNL     1     -35.399   5.428   6.719  1.00 20.00    -0.243 F 
ENDROOT
BRANCH   4   7
HETATM    7  C6  UNL     1     -33.264   5.696   2.490  1.00 20.00     0.395 C 
HETATM    8  F8  UNL     1     -32.297   6.651   2.466  1.00 20.00    -0.170 F 
HETATM    9  F9  UNL     1     -32.669   4.524   2.144  1.00 20.00    -0.170 F 
HETATM   10  F10 UNL     1     -34.141   5.999   1.496  1.00 20.00    -0.170 F 
ENDBRANCH   4   7
TORSDOF 1
ENDMDL
MODEL 6
REMARK VINA RESULT:      -4.7      1.900      4.405
REMARK  1 active torsions:
REMARK  status: ('A' for Active; 'I' for Inactive)
REMARK    1  A    between atoms: C4_4  and  C6_6 
ROOT
HETATM    1  C1  UNL     1     -32.889   6.657   2.511  1.00 20.00     0.062 C 
HETATM    2  C2  UNL     1     -31.778   8.063   3.658  1.00 20.00     0.062 C 
HETATM    3  C3  UNL     1     -33.832   8.425   3.232  1.00 20.00     0.062 C 
HETATM    4  C4  UNL     1     -32.574   8.195   2.296  1.00 20.00     0.067 C 
HETATM    5  C5  UNL     1     -33.076   7.262   3.925  1.00 20.00     0.106 C 
HETATM    6  F7  UNL     1     -33.419   6.626   5.034  1.00 20.00    -0.243 F 
ENDROOT
BRANCH   4   7
HETATM    7  C6  UNL     1     -32.191   8.905   1.057  1.00 20.00     0.395 C 
HETATM    8  F8  UNL     1     -32.099  10.248   1.247  1.00 20.00    -0.170 F 
HETATM    9  F9  UNL     1     -30.987   8.491   0.584  1.00 20.00    -0.170 F 
HETATM   10  F10 UNL     1     -33.094   8.710   0.059  1.00 20.00    -0.170 F 
ENDBRANCH   4   7
TORSDOF 1
ENDMDL
MODEL 7
REMARK VINA RESULT:      -4.4      1.983      2.534
REMARK  1 active torsions:
REMARK  status: ('A' for Active; 'I' for Inactive)
REMARK    1  A    between atoms: C4_4  and  C6_6 
ROOT
HETATM    1  C1  UNL     1     -33.614   5.006   3.405  1.00 20.00     0.062 C 
HETATM    2  C2  UNL     1     -35.457   6.065   3.517  1.00 20.00     0.062 C 
HETATM    3  C3  UNL     1     -33.622   7.135   3.390  1.00 20.00     0.062 C 
HETATM    4  C4  UNL     1     -34.167   6.077   4.435  1.00 20.00     0.067 C 
HETATM    5  C5  UNL     1     -34.293   6.061   2.496  1.00 20.00     0.106 C 
HETATM    6  F7  UNL     1     -34.378   6.051   1.175  1.00 20.00    -0.243 F 
ENDROOT
BRANCH   4   7
HETATM    7  C6  UNL     1     -34.072   6.088   5.910  1.00 20.00     0.395 C 
HETATM    8  F8  UNL     1     -35.271   6.349   6.496  1.00 20.00    -0.170 F 
HETATM    9  F9  UNL     1     -33.645   4.895   6.402  1.00 20.00    -0.170 F 
HETATM   10  F10 UNL     1     -33.202   7.032   6.357  1.00 20.00    -0.170 F 
ENDBRANCH   4   7
TORSDOF 1
ENDMDL
MODEL 8
REMARK VINA RESULT:      -4.4      2.592      3.825
REMARK  1 active torsions:
REMARK  status: ('A' for Active; 'I' for Inactive)
REMARK    1  A    between atoms: C4_4  and  C6_6 
ROOT
HETATM    1  C1  UNL     1     -31.404   8.843   0.658  1.00 20.00     0.062 C 
HETATM    2  C2  UNL     1     -33.493   8.434   0.615  1.00 20.00     0.062 C 
HETATM    3  C3  UNL     1     -32.765  10.147   1.648  1.00 20.00     0.062 C 
HETATM    4  C4  UNL     1     -32.466   8.599   1.809  1.00 20.00     0.067 C 
HETATM    5  C5  UNL     1     -32.638   9.652   0.185  1.00 20.00     0.106 C 
HETATM    6  F7  UNL     1     -32.755  10.369  -0.921  1.00 20.00    -0.243 F 
ENDROOT
BRANCH   4   7
HETATM    7  C6  UNL     1     -32.335   7.798   3.044  1.00 20.00     0.395 C 
HETATM    8  F8  UNL     1     -33.466   7.835   3.798  1.00 20.00    -0.170 F 
HETATM    9  F9  UNL     1     -32.082   6.490   2.778  1.00 20.00    -0.170 F 
HETATM   10  F10 UNL     1     -31.321   8.242   3.834  1.00 20.00    -0.170 F 
ENDBRANCH   4   7
TORSDOF 1
ENDMDL
MODEL 9
REMARK VINA RESULT:      -4.1      1.873      3.619
REMARK  1 active torsions:
REMARK  status: ('A' for Active; 'I' for Inactive)
REMARK    1  A    between atoms: C4_4  and  C6_6 
ROOT
HETATM    1  C1  UNL     1     -33.138   5.203   3.606  1.00 20.00     0.062 C 
HETATM    2  C2  UNL     1     -33.976   4.923   5.543  1.00 20.00     0.062 C 
HETATM    3  C3  UNL     1     -35.216   5.537   3.926  1.00 20.00     0.062 C 
HETATM    4  C4  UNL     1     -33.923   6.178   4.579  1.00 20.00     0.067 C 
HETATM    5  C5  UNL     1     -34.286   4.318   4.151  1.00 20.00     0.106 C 
HETATM    6  F7  UNL     1     -34.534   3.050   3.860  1.00 20.00    -0.243 F 
ENDROOT
BRANCH   4   7
HETATM    7  C6  UNL     1     -33.646   7.593   4.905  1.00 20.00     0.395 C 
HETATM    8  F8  UNL     1     -34.014   7.905   6.176  1.00 20.00    -0.170 F 
HETATM    9  F9  UNL     1     -32.325   7.892   4.794  1.00 20.00    -0.170 F 
HETATM   10  F10 UNL     1     -34.313   8.445   4.082  1.00 20.00    -0.170 F 
ENDBRANCH   4   7
TORSDOF 1
ENDMDL
