MODEL 1
REMARK VINA RESULT:      -4.7      0.000      0.000
REMARK  1 active torsions:
REMARK  status: ('A' for Active; 'I' for Inactive)
REMARK    1  A    between atoms: C1_1  and  C5_5 
ROOT
HETATM    1  C2  UNL     1     -33.494  14.287  -4.563  1.00 20.00     0.006 C 
HETATM    2  C3  UNL     1     -33.447  15.608  -3.786  1.00 20.00     0.006 C 
HETATM    3  C4  UNL     1     -33.494  16.103  -6.085  1.00 20.00     0.011 C 
HETATM    4  C5  UNL     1     -35.589  15.029  -5.846  1.00 20.00     0.084 C 
HETATM    5  C6  UNL     1     -34.081  14.698  -5.928  1.00 20.00    -0.001 C 
HETATM    6  C7  UNL     1     -34.100  16.601  -4.763  1.00 20.00    -0.006 C 
HETATM    7  C8  UNL     1     -35.628  16.306  -4.951  1.00 20.00    -0.032 C 
HETATM    8  C9  UNL     1     -36.301  17.468  -5.714  1.00 20.00     0.016 C 
HETATM    9  C10 UNL     1     -36.378  16.147  -3.619  1.00 20.00     0.016 C 
ENDROOT
BRANCH   4  10
HETATM   10  C1  UNL     1     -36.418  13.863  -5.401  1.00 20.00     0.224 C 
HETATM   11  O11 UNL     1     -35.913  12.777  -5.133  1.00 20.00    -0.279 OA
HETATM   12 CL12 UNL     1     -38.109  14.254  -5.323  1.00 20.00    -0.043 Cl
ENDBRANCH   4  10
TORSDOF 1
ENDMDL
MODEL 2
REMARK VINA RESULT:      -4.6      1.535      2.457
REMARK  1 active torsions:
REMARK  status: ('A' for Active; 'I' for Inactive)
REMARK    1  A    between atoms: C1_1  and  C5_5 
ROOT
HETATM    1  C2  UNL     1     -34.099  16.426  -3.588  1.00 20.00     0.006 C 
HETATM    2  C3  UNL     1     -33.333  16.808  -4.860  1.00 20.00     0.006 C 
HETATM    3  C4  UNL     1     -32.991  14.517  -4.450  1.00 20.00     0.011 C 
HETATM    4  C5  UNL     1     -35.329  14.533  -4.808  1.00 20.00     0.084 C 
HETATM    5  C6  UNL     1     -34.285  14.902  -3.729  1.00 20.00    -0.001 C 
HETATM    6  C7  UNL     1     -33.253  15.475  -5.623  1.00 20.00    -0.006 C 
HETATM    7  C8  UNL     1     -34.664  15.016  -6.133  1.00 20.00    -0.032 C 
HETATM    8  C9  UNL     1     -34.512  13.833  -7.113  1.00 20.00     0.016 C 
HETATM    9  C10 UNL     1     -35.423  16.126  -6.878  1.00 20.00     0.016 C 
ENDROOT
BRANCH   4  10
HETATM   10  C1  UNL     1     -36.696  15.065  -4.502  1.00 20.00     0.224 C 
HETATM   11  O11 UNL     1     -36.867  15.983  -3.706  1.00 20.00    -0.279 OA
HETATM   12 CL12 UNL     1     -37.936  14.236  -5.393  1.00 20.00    -0.043 Cl
ENDBRANCH   4  10
TORSDOF 1
ENDMDL
MODEL 3
REMARK VINA RESULT:      -4.5      0.982      2.785
REMARK  1 active torsions:
REMARK  status: ('A' for Active; 'I' for Inactive)
REMARK    1  A    between atoms: C1_1  and  C5_5 
ROOT
HETATM    1  C2  UNL     1     -36.099  16.723  -4.436  1.00 20.00     0.006 C 
HETATM    2  C3  UNL     1     -34.801  17.340  -4.972  1.00 20.00     0.006 C 
HETATM    3  C4  UNL     1     -34.340  16.333  -2.897  1.00 20.00     0.011 C 
HETATM    4  C5  UNL     1     -34.980  14.432  -4.150  1.00 20.00     0.084 C 
HETATM    5  C6  UNL     1     -35.601  15.657  -3.441  1.00 20.00    -0.001 C 
HETATM    6  C7  UNL     1     -33.714  16.490  -4.292  1.00 20.00    -0.006 C 
HETATM    7  C8  UNL     1     -33.707  15.019  -4.834  1.00 20.00    -0.032 C 
HETATM    8  C9  UNL     1     -32.447  14.278  -4.335  1.00 20.00     0.016 C 
HETATM    9  C10 UNL     1     -33.697  14.945  -6.369  1.00 20.00     0.016 C 
ENDROOT
BRANCH   4  10
HETATM   10  C1  UNL     1     -35.954  13.714  -5.034  1.00 20.00     0.224 C 
HETATM   11  O11 UNL     1     -35.617  12.754  -5.720  1.00 20.00    -0.279 OA
HETATM   12 CL12 UNL     1     -37.547  14.403  -4.948  1.00 20.00    -0.043 Cl
ENDBRANCH   4  10
TORSDOF 1
ENDMDL
MODEL 4
REMARK VINA RESULT:      -4.4      2.522      3.209
REMARK  1 active torsions:
REMARK  status: ('A' for Active; 'I' for Inactive)
REMARK    1  A    between atoms: C1_1  and  C5_5 
ROOT
HETATM    1  C2  UNL     1     -33.015  15.659  -5.104  1.00 20.00     0.006 C 
HETATM    2  C3  UNL     1     -33.987  16.012  -6.236  1.00 20.00     0.006 C 
HETATM    3  C4  UNL     1     -34.731  14.028  -5.214  1.00 20.00     0.011 C 
HETATM    4  C5  UNL     1     -34.929  15.533  -3.399  1.00 20.00     0.084 C 
HETATM    5  C6  UNL     1     -33.854  14.748  -4.186  1.00 20.00    -0.001 C 
HETATM    6  C7  UNL     1     -35.295  15.339  -5.784  1.00 20.00    -0.006 C 
HETATM    7  C8  UNL     1     -35.895  16.038  -4.515  1.00 20.00    -0.032 C 
HETATM    8  C9  UNL     1     -37.325  15.519  -4.253  1.00 20.00     0.016 C 
HETATM    9  C10 UNL     1     -35.987  17.565  -4.658  1.00 20.00     0.016 C 
ENDROOT
BRANCH   4  10
HETATM   10  C1  UNL     1     -34.343  16.570  -2.490  1.00 20.00     0.224 C 
HETATM   11  O11 UNL     1     -33.260  17.097  -2.725  1.00 20.00    -0.279 OA
HETATM   12 CL12 UNL     1     -35.369  16.901  -1.126  1.00 20.00    -0.043 Cl
ENDBRANCH   4  10
TORSDOF 1
ENDMDL
MODEL 5
REMARK VINA RESULT:      -4.4      1.533      2.097
REMARK  1 active torsions:
REMARK  status: ('A' for Active; 'I' for Inactive)
REMARK    1  A    between atoms: C1_1  and  C5_5 
ROOT
HETATM    1  C2  UNL     1     -35.072  14.995  -3.667  1.00 20.00     0.006 C 
HETATM    2  C3  UNL     1     -35.340  16.462  -4.028  1.00 20.00     0.006 C 
HETATM    3  C4  UNL     1     -33.162  15.913  -4.730  1.00 20.00     0.011 C 
HETATM    4  C5  UNL     1     -34.422  14.441  -6.087  1.00 20.00     0.084 C 
HETATM    5  C6  UNL     1     -33.935  14.595  -4.628  1.00 20.00    -0.001 C 
HETATM    6  C7  UNL     1     -34.390  16.699  -5.215  1.00 20.00    -0.006 C 
HETATM    7  C8  UNL     1     -34.838  15.891  -6.483  1.00 20.00    -0.032 C 
HETATM    8  C9  UNL     1     -34.034  16.356  -7.716  1.00 20.00     0.016 C 
HETATM    9  C10 UNL     1     -36.326  16.076  -6.818  1.00 20.00     0.016 C 
ENDROOT
BRANCH   4  10
HETATM   10  C1  UNL     1     -35.460  13.372  -6.245  1.00 20.00     0.224 C 
HETATM   11  O11 UNL     1     -35.945  12.796  -5.275  1.00 20.00    -0.279 OA
HETATM   12 CL12 UNL     1     -35.855  13.082  -7.912  1.00 20.00    -0.043 Cl
ENDBRANCH   4  10
TORSDOF 1
ENDMDL
MODEL 6
REMARK VINA RESULT:      -4.4      1.401      1.518
REMARK  1 active torsions:
REMARK  status: ('A' for Active; 'I' for Inactive)
REMARK    1  A    between atoms: C1_1  and  C5_5 
ROOT
HETATM    1  C2  UNL     1     -33.089  14.934  -4.505  1.00 20.00     0.006 C 
HETATM    2  C3  UNL     1     -33.964  15.617  -3.447  1.00 20.00     0.006 C 
HETATM    3  C4  UNL     1     -33.560  17.155  -5.181  1.00 20.00     0.011 C 
HETATM    4  C5  UNL     1     -34.764  15.498  -6.364  1.00 20.00     0.084 C 
HETATM    5  C6  UNL     1     -33.358  15.760  -5.777  1.00 20.00    -0.001 C 
HETATM    6  C7  UNL     1     -34.702  16.695  -4.260  1.00 20.00    -0.006 C 
HETATM    7  C8  UNL     1     -35.722  16.059  -5.268  1.00 20.00    -0.032 C 
HETATM    8  C9  UNL     1     -36.627  17.158  -5.866  1.00 20.00     0.016 C 
HETATM    9  C10 UNL     1     -36.645  15.020  -4.612  1.00 20.00     0.016 C 
ENDROOT
BRANCH   4  10
HETATM   10  C1  UNL     1     -34.967  14.072  -6.776  1.00 20.00     0.224 C 
HETATM   11  O11 UNL     1     -34.270  13.166  -6.328  1.00 20.00    -0.279 OA
HETATM   12 CL12 UNL     1     -36.266  13.897  -7.917  1.00 20.00    -0.043 Cl
ENDBRANCH   4  10
TORSDOF 1
ENDMDL
MODEL 7
REMARK VINA RESULT:      -4.3      2.540      3.342
REMARK  1 active torsions:
REMARK  status: ('A' for Active; 'I' for Inactive)
REMARK    1  A    between atoms: C1_1  and  C5_5 
ROOT
HETATM    1  C2  UNL     1     -34.392  14.595  -6.195  1.00 20.00     0.006 C 
HETATM    2  C3  UNL     1     -35.161  14.016  -5.001  1.00 20.00     0.006 C 
HETATM    3  C4  UNL     1     -32.957  14.469  -4.312  1.00 20.00     0.011 C 
HETATM    4  C5  UNL     1     -33.689  16.657  -4.838  1.00 20.00     0.084 C 
HETATM    5  C6  UNL     1     -33.226  15.355  -5.532  1.00 20.00    -0.001 C 
HETATM    6  C7  UNL     1     -34.399  14.592  -3.794  1.00 20.00    -0.006 C 
HETATM    7  C8  UNL     1     -34.592  16.143  -3.675  1.00 20.00    -0.032 C 
HETATM    8  C9  UNL     1     -34.047  16.641  -2.320  1.00 20.00     0.016 C 
HETATM    9  C10 UNL     1     -36.066  16.572  -3.755  1.00 20.00     0.016 C 
ENDROOT
BRANCH   4  10
HETATM   10  C1  UNL     1     -34.302  17.638  -5.790  1.00 20.00     0.224 C 
HETATM   11  O11 UNL     1     -34.770  17.284  -6.869  1.00 20.00    -0.279 OA
HETATM   12 CL12 UNL     1     -34.257  19.263  -5.176  1.00 20.00    -0.043 Cl
ENDBRANCH   4  10
TORSDOF 1
ENDMDL
MODEL 8
REMARK VINA RESULT:      -4.2      2.137      3.093
REMARK  1 active torsions:
REMARK  status: ('A' for Active; 'I' for Inactive)
REMARK    1  A    between atoms: C1_1  and  C5_5 
ROOT
HETATM    1  C2  UNL     1     -33.380  16.886  -4.530  1.00 20.00     0.006 C 
HETATM    2  C3  UNL     1     -33.566  16.410  -5.976  1.00 20.00     0.006 C 
HETATM    3  C4  UNL     1     -33.110  14.534  -4.633  1.00 20.00     0.011 C 
HETATM    4  C5  UNL     1     -35.157  15.241  -3.681  1.00 20.00     0.084 C 
HETATM    5  C6  UNL     1     -33.658  15.618  -3.700  1.00 20.00    -0.001 C 
HETATM    6  C7  UNL     1     -34.021  14.951  -5.798  1.00 20.00    -0.006 C 
HETATM    7  C8  UNL     1     -35.452  14.865  -5.165  1.00 20.00    -0.032 C 
HETATM    8  C9  UNL     1     -35.981  13.417  -5.250  1.00 20.00     0.016 C 
HETATM    9  C10 UNL     1     -36.478  15.764  -5.875  1.00 20.00     0.016 C 
ENDROOT
BRANCH   4  10
HETATM   10  C1  UNL     1     -36.017  16.305  -3.067  1.00 20.00     0.224 C 
HETATM   11  O11 UNL     1     -37.039  16.704  -3.616  1.00 20.00    -0.279 OA
HETATM   12 CL12 UNL     1     -35.387  16.859  -1.545  1.00 20.00    -0.043 Cl
ENDBRANCH   4  10
TORSDOF 1
ENDMDL
MODEL 9
REMARK VINA RESULT:      -4.2      1.000      2.164
REMARK  1 active torsions:
REMARK  status: ('A' for Active; 'I' for Inactive)
REMARK    1  A    between atoms: C1_1  and  C5_5 
ROOT
HETATM    1  C2  UNL     1     -34.776  15.525  -7.225  1.00 20.00     0.006 C 
HETATM    2  C3  UNL     1     -33.373  15.731  -6.642  1.00 20.00     0.006 C 
HETATM    3  C4  UNL     1     -34.788  17.394  -5.768  1.00 20.00     0.011 C 
HETATM    4  C5  UNL     1     -35.821  15.459  -4.883  1.00 20.00     0.084 C 
HETATM    5  C6  UNL     1     -35.690  16.240  -6.211  1.00 20.00    -0.001 C 
HETATM    6  C7  UNL     1     -33.658  16.456  -5.315  1.00 20.00    -0.006 C 
HETATM    7  C8  UNL     1     -34.381  15.517  -4.288  1.00 20.00    -0.032 C 
HETATM    8  C9  UNL     1     -34.408  16.181  -2.894  1.00 20.00     0.016 C 
HETATM    9  C10 UNL     1     -33.685  14.156  -4.127  1.00 20.00     0.016 C 
ENDROOT
BRANCH   4  10
HETATM   10  C1  UNL     1     -36.426  14.100  -5.063  1.00 20.00     0.224 C 
HETATM   11  O11 UNL     1     -35.736  13.086  -5.100  1.00 20.00    -0.279 OA
HETATM   12 CL12 UNL     1     -38.157  14.167  -5.203  1.00 20.00    -0.043 Cl
ENDBRANCH   4  10
TORSDOF 1
ENDMDL
