MODEL 1
REMARK VINA RESULT:      -5.4      0.000      0.000
REMARK  1 active torsions:
REMARK  status: ('A' for Active; 'I' for Inactive)
REMARK    1  A    between atoms: C3_3  and  C6_6 
ROOT
HETATM    1  C1  UNL     1     -34.663   5.227   5.927  1.00 20.00     0.013 C 
HETATM    2  C2  UNL     1     -34.295   5.477   4.812  1.00 20.00    -0.107 C 
HETATM    3  C5  UNL     1     -34.764   6.632   2.619  1.00 20.00     0.033 A 
HETATM    4  C6  UNL     1     -33.506   7.231   3.185  1.00 20.00     0.030 A 
HETATM    5  C7  UNL     1     -33.854   5.777   3.472  1.00 20.00     0.027 A 
HETATM    6  C10 UNL     1     -33.107   4.659   2.795  1.00 20.00     0.030 C 
ENDROOT
BRANCH   4   7
HETATM    7  C3  UNL     1     -32.418   7.575   2.280  1.00 20.00    -0.018 C 
HETATM    8  C4  UNL     1     -32.288   8.691   1.535  1.00 20.00    -0.091 C 
HETATM    9  C8  UNL     1     -31.094   8.896   0.645  1.00 20.00     0.042 C 
HETATM   10  C9  UNL     1     -33.293   9.808   1.521  1.00 20.00     0.042 C 
ENDBRANCH   4   7
TORSDOF 1
ENDMDL
MODEL 2
REMARK VINA RESULT:      -5.3      1.218      4.735
REMARK  1 active torsions:
REMARK  status: ('A' for Active; 'I' for Inactive)
REMARK    1  A    between atoms: C3_3  and  C6_6 
ROOT
HETATM    1  C1  UNL     1     -32.599  10.657   1.066  1.00 20.00     0.013 C 
HETATM    2  C2  UNL     1     -32.463   9.561   1.538  1.00 20.00    -0.107 C 
HETATM    3  C5  UNL     1     -31.684   8.158   3.484  1.00 20.00     0.033 A 
HETATM    4  C6  UNL     1     -33.160   7.919   3.317  1.00 20.00     0.030 A 
HETATM    5  C7  UNL     1     -32.298   8.245   2.105  1.00 20.00     0.027 A 
HETATM    6  C10 UNL     1     -31.936   7.176   1.109  1.00 20.00     0.030 C 
ENDROOT
BRANCH   4   7
HETATM    7  C3  UNL     1     -33.686   6.577   3.522  1.00 20.00    -0.018 C 
HETATM    8  C4  UNL     1     -34.121   6.030   4.674  1.00 20.00    -0.091 C 
HETATM    9  C8  UNL     1     -34.639   4.619   4.717  1.00 20.00     0.042 C 
HETATM   10  C9  UNL     1     -34.132   6.753   5.991  1.00 20.00     0.042 C 
ENDBRANCH   4   7
TORSDOF 1
ENDMDL
MODEL 3
REMARK VINA RESULT:      -5.0      1.323      2.014
REMARK  1 active torsions:
REMARK  status: ('A' for Active; 'I' for Inactive)
REMARK    1  A    between atoms: C3_3  and  C6_6 
ROOT
HETATM    1  C1  UNL     1     -35.300   5.246   4.252  1.00 20.00     0.013 C 
HETATM    2  C2  UNL     1     -34.400   6.017   4.060  1.00 20.00    -0.107 C 
HETATM    3  C5  UNL     1     -32.235   6.515   2.864  1.00 20.00     0.033 A 
HETATM    4  C6  UNL     1     -33.237   7.555   2.439  1.00 20.00     0.030 A 
HETATM    5  C7  UNL     1     -33.317   6.942   3.830  1.00 20.00     0.027 A 
HETATM    6  C10 UNL     1     -32.900   7.731   5.043  1.00 20.00     0.030 C 
ENDROOT
BRANCH   4   7
HETATM    7  C3  UNL     1     -32.791   8.929   2.251  1.00 20.00    -0.018 C 
HETATM    8  C4  UNL     1     -32.697   9.613   1.094  1.00 20.00    -0.091 C 
HETATM    9  C8  UNL     1     -32.216  11.037   1.070  1.00 20.00     0.042 C 
HETATM   10  C9  UNL     1     -33.053   9.039  -0.248  1.00 20.00     0.042 C 
ENDBRANCH   4   7
TORSDOF 1
ENDMDL
MODEL 4
REMARK VINA RESULT:      -4.9     10.563     11.772
REMARK  1 active torsions:
REMARK  status: ('A' for Active; 'I' for Inactive)
REMARK    1  A    between atoms: C3_3  and  C6_6 
ROOT
HETATM    1  C1  UNL     1     -33.863  14.981  -7.728  1.00 20.00     0.013 C 
HETATM    2  C2  UNL     1     -34.081  14.803  -6.561  1.00 20.00    -0.107 C 
HETATM    3  C5  UNL     1     -33.145  14.429  -4.248  1.00 20.00     0.033 A 
HETATM    4  C6  UNL     1     -33.932  15.711  -4.215  1.00 20.00     0.030 A 
HETATM    5  C7  UNL     1     -34.342  14.588  -5.158  1.00 20.00     0.027 A 
HETATM    6  C10 UNL     1     -35.557  13.747  -4.870  1.00 20.00     0.030 C 
ENDROOT
BRANCH   4   7
HETATM    7  C3  UNL     1     -34.725  16.022  -3.034  1.00 20.00    -0.018 C 
HETATM    8  C4  UNL     1     -34.412  16.867  -2.031  1.00 20.00    -0.091 C 
HETATM    9  C8  UNL     1     -35.348  17.080  -0.874  1.00 20.00     0.042 C 
HETATM   10  C9  UNL     1     -33.135  17.657  -1.971  1.00 20.00     0.042 C 
ENDBRANCH   4   7
TORSDOF 1
ENDMDL
MODEL 5
REMARK VINA RESULT:      -4.7      1.081      4.623
REMARK  1 active torsions:
REMARK  status: ('A' for Active; 'I' for Inactive)
REMARK    1  A    between atoms: C3_3  and  C6_6 
ROOT
HETATM    1  C1  UNL     1     -32.513   9.970   0.693  1.00 20.00     0.013 C 
HETATM    2  C2  UNL     1     -32.536   9.139   1.560  1.00 20.00    -0.107 C 
HETATM    3  C5  UNL     1     -33.773   8.121   3.509  1.00 20.00     0.033 A 
HETATM    4  C6  UNL     1     -33.617   7.050   2.464  1.00 20.00     0.030 A 
HETATM    5  C7  UNL     1     -32.564   8.141   2.601  1.00 20.00     0.027 A 
HETATM    6  C10 UNL     1     -31.222   7.841   3.216  1.00 20.00     0.030 C 
ENDROOT
BRANCH   4   7
HETATM    7  C3  UNL     1     -33.340   5.685   2.888  1.00 20.00    -0.018 C 
HETATM    8  C4  UNL     1     -34.014   4.951   3.795  1.00 20.00    -0.091 C 
HETATM    9  C8  UNL     1     -33.597   3.544   4.122  1.00 20.00     0.042 C 
HETATM   10  C9  UNL     1     -35.214   5.451   4.549  1.00 20.00     0.042 C 
ENDBRANCH   4   7
TORSDOF 1
ENDMDL
MODEL 6
REMARK VINA RESULT:      -4.6     10.650     11.737
REMARK  1 active torsions:
REMARK  status: ('A' for Active; 'I' for Inactive)
REMARK    1  A    between atoms: C3_3  and  C6_6 
ROOT
HETATM    1  C1  UNL     1     -31.857  18.612   0.075  1.00 20.00     0.013 C 
HETATM    2  C2  UNL     1     -32.802  18.223  -0.556  1.00 20.00    -0.107 C 
HETATM    3  C5  UNL     1     -34.225  18.449  -2.626  1.00 20.00     0.033 A 
HETATM    4  C6  UNL     1     -33.630  17.067  -2.635  1.00 20.00     0.030 A 
HETATM    5  C7  UNL     1     -33.938  17.757  -1.313  1.00 20.00     0.027 A 
HETATM    6  C10 UNL     1     -35.113  17.327  -0.476  1.00 20.00     0.030 C 
ENDROOT
BRANCH   4   7
HETATM    7  C3  UNL     1     -34.442  15.952  -3.104  1.00 20.00    -0.018 C 
HETATM    8  C4  UNL     1     -34.199  15.140  -4.152  1.00 20.00    -0.091 C 
HETATM    9  C8  UNL     1     -35.144  14.026  -4.506  1.00 20.00     0.042 C 
HETATM   10  C9  UNL     1     -32.997  15.264  -5.045  1.00 20.00     0.042 C 
ENDBRANCH   4   7
TORSDOF 1
ENDMDL
MODEL 7
REMARK VINA RESULT:      -4.5     10.521     11.490
REMARK  1 active torsions:
REMARK  status: ('A' for Active; 'I' for Inactive)
REMARK    1  A    between atoms: C3_3  and  C6_6 
ROOT
HETATM    1  C1  UNL     1     -35.980  13.352  -5.288  1.00 20.00     0.013 C 
HETATM    2  C2  UNL     1     -35.082  14.105  -5.026  1.00 20.00    -0.107 C 
HETATM    3  C5  UNL     1     -33.857  16.240  -5.577  1.00 20.00     0.033 A 
HETATM    4  C6  UNL     1     -34.401  16.378  -4.181  1.00 20.00     0.030 A 
HETATM    5  C7  UNL     1     -34.002  15.008  -4.712  1.00 20.00     0.027 A 
HETATM    6  C10 UNL     1     -32.742  14.335  -4.235  1.00 20.00     0.030 C 
ENDROOT
BRANCH   4   7
HETATM    7  C3  UNL     1     -33.595  17.053  -3.173  1.00 20.00    -0.018 C 
HETATM    8  C4  UNL     1     -33.920  17.301  -1.888  1.00 20.00    -0.091 C 
HETATM    9  C8  UNL     1     -32.968  18.015  -0.969  1.00 20.00     0.042 C 
HETATM   10  C9  UNL     1     -35.228  16.901  -1.265  1.00 20.00     0.042 C 
ENDBRANCH   4   7
TORSDOF 1
ENDMDL
MODEL 8
REMARK VINA RESULT:      -4.5      1.243      1.870
REMARK  1 active torsions:
REMARK  status: ('A' for Active; 'I' for Inactive)
REMARK    1  A    between atoms: C3_3  and  C6_6 
ROOT
HETATM    1  C1  UNL     1     -34.006   3.528   4.528  1.00 20.00     0.013 C 
HETATM    2  C2  UNL     1     -34.190   4.679   4.238  1.00 20.00    -0.107 C 
HETATM    3  C5  UNL     1     -33.745   7.107   4.755  1.00 20.00     0.033 A 
HETATM    4  C6  UNL     1     -33.203   6.831   3.379  1.00 20.00     0.030 A 
HETATM    5  C7  UNL     1     -34.412   6.061   3.891  1.00 20.00     0.027 A 
HETATM    6  C10 UNL     1     -35.792   6.361   3.369  1.00 20.00     0.030 C 
ENDROOT
BRANCH   4   7
HETATM    7  C3  UNL     1     -33.346   7.848   2.347  1.00 20.00    -0.018 C 
HETATM    8  C4  UNL     1     -32.419   8.732   1.927  1.00 20.00    -0.091 C 
HETATM    9  C8  UNL     1     -32.728   9.725   0.841  1.00 20.00     0.042 C 
HETATM   10  C9  UNL     1     -31.026   8.811   2.486  1.00 20.00     0.042 C 
ENDBRANCH   4   7
TORSDOF 1
ENDMDL
MODEL 9
REMARK VINA RESULT:      -4.2     10.578     11.861
REMARK  1 active torsions:
REMARK  status: ('A' for Active; 'I' for Inactive)
REMARK    1  A    between atoms: C3_3  and  C6_6 
ROOT
HETATM    1  C1  UNL     1     -34.331  16.849  -1.936  1.00 20.00     0.013 C 
HETATM    2  C2  UNL     1     -34.054  16.344  -2.989  1.00 20.00    -0.107 C 
HETATM    3  C5  UNL     1     -32.964  14.428  -4.217  1.00 20.00     0.033 A 
HETATM    4  C6  UNL     1     -34.423  14.429  -4.583  1.00 20.00     0.030 A 
HETATM    5  C7  UNL     1     -33.719  15.738  -4.255  1.00 20.00     0.027 A 
HETATM    6  C10 UNL     1     -33.368  16.717  -5.344  1.00 20.00     0.030 C 
ENDROOT
BRANCH   4   7
HETATM    7  C3  UNL     1     -34.808  14.109  -5.951  1.00 20.00    -0.018 C 
HETATM    8  C4  UNL     1     -36.050  14.089  -6.475  1.00 20.00    -0.091 C 
HETATM    9  C8  UNL     1     -36.279  13.735  -7.918  1.00 20.00     0.042 C 
HETATM   10  C9  UNL     1     -37.292  14.409  -5.692  1.00 20.00     0.042 C 
ENDBRANCH   4   7
TORSDOF 1
ENDMDL
