MODEL 1
REMARK VINA RESULT:      -5.7      0.000      0.000
REMARK  0 active torsions:
REMARK  status: ('A' for Active; 'I' for Inactive)
ROOT
HETATM    1  C1  UNL     1     -31.801   7.944   2.605  1.00 20.00     0.013 C 
HETATM    2  C2  UNL     1     -32.715   7.306   3.047  1.00 20.00    -0.103 C 
HETATM    3  C3  UNL     1     -34.597   4.584   5.620  1.00 20.00    -0.004 C 
HETATM    4  C4  UNL     1     -33.930   4.154   4.419  1.00 20.00     0.004 C 
HETATM    5  C5  UNL     1     -34.653   5.880   5.953  1.00 20.00    -0.025 C 
HETATM    6  C6  UNL     1     -33.566   5.015   3.448  1.00 20.00    -0.063 C 
HETATM    7  C7  UNL     1     -34.039   6.940   5.085  1.00 20.00     0.054 C 
HETATM    8  C8  UNL     1     -33.845   6.518   3.594  1.00 20.00     0.045 C 
HETATM    9  C9  UNL     1     -32.928   4.503   2.183  1.00 20.00     0.045 C 
HETATM   10  C10 UNL     1     -35.119   6.863   2.796  1.00 20.00     0.034 C 
ENDROOT
TORSDOF 0
ENDMDL
MODEL 2
REMARK VINA RESULT:      -5.0      0.987      3.742
REMARK  0 active torsions:
REMARK  status: ('A' for Active; 'I' for Inactive)
ROOT
HETATM    1  C1  UNL     1     -34.108   3.582   4.477  1.00 20.00     0.013 C 
HETATM    2  C2  UNL     1     -34.017   4.714   4.091  1.00 20.00    -0.103 C 
HETATM    3  C3  UNL     1     -32.079   8.339   3.273  1.00 20.00    -0.004 C 
HETATM    4  C4  UNL     1     -32.648   8.059   4.566  1.00 20.00     0.004 C 
HETATM    5  C5  UNL     1     -32.162   7.451   2.275  1.00 20.00    -0.025 C 
HETATM    6  C6  UNL     1     -33.505   7.039   4.771  1.00 20.00    -0.063 C 
HETATM    7  C7  UNL     1     -32.863   6.135   2.452  1.00 20.00     0.054 C 
HETATM    8  C8  UNL     1     -33.905   6.113   3.615  1.00 20.00     0.045 C 
HETATM    9  C9  UNL     1     -34.120   6.830   6.131  1.00 20.00     0.045 C 
HETATM   10  C10 UNL     1     -35.279   6.561   3.076  1.00 20.00     0.034 C 
ENDROOT
TORSDOF 0
ENDMDL
MODEL 3
REMARK VINA RESULT:      -5.0      0.943      2.700
REMARK  0 active torsions:
REMARK  status: ('A' for Active; 'I' for Inactive)
ROOT
HETATM    1  C1  UNL     1     -33.797   7.705   6.301  1.00 20.00     0.013 C 
HETATM    2  C2  UNL     1     -34.017   6.953   5.393  1.00 20.00    -0.103 C 
HETATM    3  C3  UNL     1     -33.195   3.833   2.718  1.00 20.00    -0.004 C 
HETATM    4  C4  UNL     1     -32.785   5.187   2.451  1.00 20.00     0.004 C 
HETATM    5  C5  UNL     1     -33.871   3.522   3.830  1.00 20.00    -0.025 C 
HETATM    6  C6  UNL     1     -33.270   6.237   3.144  1.00 20.00    -0.063 C 
HETATM    7  C7  UNL     1     -34.245   4.570   4.840  1.00 20.00     0.054 C 
HETATM    8  C8  UNL     1     -34.289   6.024   4.271  1.00 20.00     0.045 C 
HETATM    9  C9  UNL     1     -32.853   7.639   2.780  1.00 20.00     0.045 C 
HETATM   10  C10 UNL     1     -35.701   6.314   3.722  1.00 20.00     0.034 C 
ENDROOT
TORSDOF 0
ENDMDL
MODEL 4
REMARK VINA RESULT:      -4.9      0.922      2.644
REMARK  0 active torsions:
REMARK  status: ('A' for Active; 'I' for Inactive)
ROOT
HETATM    1  C1  UNL     1     -32.668   4.008   2.121  1.00 20.00     0.013 C 
HETATM    2  C2  UNL     1     -33.155   4.926   2.721  1.00 20.00    -0.103 C 
HETATM    3  C3  UNL     1     -33.498   7.724   5.822  1.00 20.00    -0.004 C 
HETATM    4  C4  UNL     1     -34.074   6.407   5.923  1.00 20.00     0.004 C 
HETATM    5  C5  UNL     1     -32.842   8.109   4.722  1.00 20.00    -0.025 C 
HETATM    6  C6  UNL     1     -34.218   5.600   4.853  1.00 20.00    -0.063 C 
HETATM    7  C7  UNL     1     -32.688   7.195   3.540  1.00 20.00     0.054 C 
HETATM    8  C8  UNL     1     -33.757   6.058   3.463  1.00 20.00     0.045 C 
HETATM    9  C9  UNL     1     -34.885   4.257   5.004  1.00 20.00     0.045 C 
HETATM   10  C10 UNL     1     -34.984   6.565   2.677  1.00 20.00     0.034 C 
ENDROOT
TORSDOF 0
ENDMDL
MODEL 5
REMARK VINA RESULT:      -4.5      1.379      2.587
REMARK  0 active torsions:
REMARK  status: ('A' for Active; 'I' for Inactive)
ROOT
HETATM    1  C1  UNL     1     -32.975   8.843   1.244  1.00 20.00     0.013 C 
HETATM    2  C2  UNL     1     -33.092   7.973   2.063  1.00 20.00    -0.103 C 
HETATM    3  C3  UNL     1     -34.741   6.054   5.404  1.00 20.00    -0.004 C 
HETATM    4  C4  UNL     1     -33.693   7.033   5.533  1.00 20.00     0.004 C 
HETATM    5  C5  UNL     1     -35.219   5.709   4.202  1.00 20.00    -0.025 C 
HETATM    6  C6  UNL     1     -32.964   7.452   4.480  1.00 20.00    -0.063 C 
HETATM    7  C7  UNL     1     -34.677   6.312   2.938  1.00 20.00     0.054 C 
HETATM    8  C8  UNL     1     -33.236   6.900   3.074  1.00 20.00     0.045 C 
HETATM    9  C9  UNL     1     -31.837   8.432   4.683  1.00 20.00     0.045 C 
HETATM   10  C10 UNL     1     -32.203   5.795   2.770  1.00 20.00     0.034 C 
ENDROOT
TORSDOF 0
ENDMDL
MODEL 6
REMARK VINA RESULT:      -4.4     11.938     12.666
REMARK  0 active torsions:
REMARK  status: ('A' for Active; 'I' for Inactive)
ROOT
HETATM    1  C1  UNL     1     -34.039  16.985  -1.718  1.00 20.00     0.013 C 
HETATM    2  C2  UNL     1     -34.550  16.590  -2.728  1.00 20.00    -0.103 C 
HETATM    3  C3  UNL     1     -36.773  13.966  -5.124  1.00 20.00    -0.004 C 
HETATM    4  C4  UNL     1     -35.362  13.781  -4.907  1.00 20.00     0.004 C 
HETATM    5  C5  UNL     1     -37.428  14.997  -4.577  1.00 20.00    -0.025 C 
HETATM    6  C6  UNL     1     -34.581  14.746  -4.381  1.00 20.00    -0.063 C 
HETATM    7  C7  UNL     1     -36.720  16.014  -3.728  1.00 20.00     0.054 C 
HETATM    8  C8  UNL     1     -35.180  16.100  -3.977  1.00 20.00     0.045 C 
HETATM    9  C9  UNL     1     -33.098  14.522  -4.235  1.00 20.00     0.045 C 
HETATM   10  C10 UNL     1     -34.902  17.119  -5.102  1.00 20.00     0.034 C 
ENDROOT
TORSDOF 0
ENDMDL
MODEL 7
REMARK VINA RESULT:      -4.2     12.374     12.951
REMARK  0 active torsions:
REMARK  status: ('A' for Active; 'I' for Inactive)
ROOT
HETATM    1  C1  UNL     1     -33.006  15.014  -4.516  1.00 20.00     0.013 C 
HETATM    2  C2  UNL     1     -33.452  15.926  -3.877  1.00 20.00    -0.103 C 
HETATM    3  C3  UNL     1     -34.942  17.842  -0.460  1.00 20.00    -0.004 C 
HETATM    4  C4  UNL     1     -35.798  17.090  -1.341  1.00 20.00     0.004 C 
HETATM    5  C5  UNL     1     -33.633  17.970  -0.711  1.00 20.00    -0.025 C 
HETATM    6  C6  UNL     1     -35.406  16.706  -2.572  1.00 20.00    -0.063 C 
HETATM    7  C7  UNL     1     -33.003  17.350  -1.925  1.00 20.00     0.054 C 
HETATM    8  C8  UNL     1     -34.003  17.053  -3.088  1.00 20.00     0.045 C 
HETATM    9  C9  UNL     1     -36.365  15.976  -3.476  1.00 20.00     0.045 C 
HETATM   10  C10 UNL     1     -34.105  18.291  -4.001  1.00 20.00     0.034 C 
ENDROOT
TORSDOF 0
ENDMDL
MODEL 8
REMARK VINA RESULT:      -4.2     11.840     13.340
REMARK  0 active torsions:
REMARK  status: ('A' for Active; 'I' for Inactive)
ROOT
HETATM    1  C1  UNL     1     -36.048  13.532  -5.309  1.00 20.00     0.013 C 
HETATM    2  C2  UNL     1     -35.181  14.262  -4.915  1.00 20.00    -0.103 C 
HETATM    3  C3  UNL     1     -33.498  17.903  -3.700  1.00 20.00    -0.004 C 
HETATM    4  C4  UNL     1     -33.542  17.514  -5.086  1.00 20.00     0.004 C 
HETATM    5  C5  UNL     1     -33.982  17.103  -2.742  1.00 20.00    -0.025 C 
HETATM    6  C6  UNL     1     -33.818  16.252  -5.472  1.00 20.00    -0.063 C 
HETATM    7  C7  UNL     1     -34.578  15.763  -3.066  1.00 20.00     0.054 C 
HETATM    8  C8  UNL     1     -34.110  15.164  -4.430  1.00 20.00     0.045 C 
HETATM    9  C9  UNL     1     -33.789  15.886  -6.934  1.00 20.00     0.045 C 
HETATM   10  C10 UNL     1     -32.829  14.334  -4.210  1.00 20.00     0.034 C 
ENDROOT
TORSDOF 0
ENDMDL
MODEL 9
REMARK VINA RESULT:      -4.1     11.727     13.746
REMARK  0 active torsions:
REMARK  status: ('A' for Active; 'I' for Inactive)
ROOT
HETATM    1  C1  UNL     1     -37.572  15.429  -7.376  1.00 20.00     0.013 C 
HETATM    2  C2  UNL     1     -36.534  15.004  -6.949  1.00 20.00    -0.103 C 
HETATM    3  C3  UNL     1     -33.184  14.893  -4.434  1.00 20.00    -0.004 C 
HETATM    4  C4  UNL     1     -33.201  15.682  -5.639  1.00 20.00     0.004 C 
HETATM    5  C5  UNL     1     -34.239  14.149  -4.080  1.00 20.00    -0.025 C 
HETATM    6  C6  UNL     1     -34.140  15.521  -6.593  1.00 20.00    -0.063 C 
HETATM    7  C7  UNL     1     -35.478  14.092  -4.927  1.00 20.00     0.054 C 
HETATM    8  C8  UNL     1     -35.253  14.478  -6.423  1.00 20.00     0.045 C 
HETATM    9  C9  UNL     1     -34.073  16.331  -7.862  1.00 20.00     0.045 C 
HETATM   10  C10 UNL     1     -34.872  13.216  -7.224  1.00 20.00     0.034 C 
ENDROOT
TORSDOF 0
ENDMDL
