MODEL 1
REMARK VINA RESULT:      -5.0      0.000      0.000
REMARK  0 active torsions:
REMARK  status: ('A' for Active; 'I' for Inactive)
ROOT
HETATM    1  C1  UNL     1     -32.280   8.369   4.542  1.00 20.00     0.009 A 
HETATM    2  C2  UNL     1     -31.873   8.876   3.305  1.00 20.00     0.019 A 
HETATM    3  C3  UNL     1     -33.051   7.095   2.166  1.00 20.00     0.032 A 
HETATM    4  C4  UNL     1     -33.461   6.608   3.404  1.00 20.00    -0.011 A 
HETATM    5  C5  UNL     1     -33.087   7.232   4.596  1.00 20.00    -0.045 A 
HETATM    6  C6  UNL     1     -32.257   8.240   2.121  1.00 20.00     0.011 A 
HETATM    7  C7  UNL     1     -34.274   5.392   3.500  1.00 20.00     0.122 C 
HETATM    8  C8  UNL     1     -33.504   6.603   5.892  1.00 20.00     0.061 C 
HETATM    9  C9  UNL     1     -34.854   5.914   5.724  1.00 20.00     0.153 C 
HETATM   10  N10 UNL     1     -34.894   5.009   4.565  1.00 20.00    -0.300 NA
HETATM   11 BR11 UNL     1     -31.692   8.931   0.454  1.00 20.00    -0.051 Br
ENDROOT
TORSDOF 0
ENDMDL
MODEL 2
REMARK VINA RESULT:      -4.9      1.164      2.231
REMARK  0 active torsions:
REMARK  status: ('A' for Active; 'I' for Inactive)
ROOT
HETATM    1  C1  UNL     1     -33.859   5.653   2.361  1.00 20.00     0.009 A 
HETATM    2  C2  UNL     1     -33.086   6.526   1.592  1.00 20.00     0.019 A 
HETATM    3  C3  UNL     1     -32.782   7.975   3.506  1.00 20.00     0.032 A 
HETATM    4  C4  UNL     1     -33.544   7.090   4.265  1.00 20.00    -0.011 A 
HETATM    5  C5  UNL     1     -34.085   5.929   3.710  1.00 20.00    -0.045 A 
HETATM    6  C6  UNL     1     -32.550   7.683   2.163  1.00 20.00     0.011 A 
HETATM    7  C7  UNL     1     -33.837   7.370   5.674  1.00 20.00     0.122 C 
HETATM    8  C8  UNL     1     -34.958   5.066   4.572  1.00 20.00     0.061 C 
HETATM    9  C9  UNL     1     -34.484   5.130   6.020  1.00 20.00     0.153 C 
HETATM   10  N10 UNL     1     -34.317   6.508   6.507  1.00 20.00    -0.300 NA
HETATM   11 BR11 UNL     1     -31.512   8.861   1.108  1.00 20.00    -0.051 Br
ENDROOT
TORSDOF 0
ENDMDL
MODEL 3
REMARK VINA RESULT:      -4.8     11.282     12.422
REMARK  0 active torsions:
REMARK  status: ('A' for Active; 'I' for Inactive)
ROOT
HETATM    1  C1  UNL     1     -33.648  16.637  -5.911  1.00 20.00     0.009 A 
HETATM    2  C2  UNL     1     -33.416  17.226  -4.665  1.00 20.00     0.019 A 
HETATM    3  C3  UNL     1     -34.584  15.413  -3.568  1.00 20.00     0.032 A 
HETATM    4  C4  UNL     1     -34.797  14.830  -4.815  1.00 20.00    -0.011 A 
HETATM    5  C5  UNL     1     -34.336  15.426  -5.990  1.00 20.00    -0.045 A 
HETATM    6  C6  UNL     1     -33.883  16.616  -3.499  1.00 20.00     0.011 A 
HETATM    7  C7  UNL     1     -35.552  13.579  -4.939  1.00 20.00     0.122 C 
HETATM    8  C8  UNL     1     -34.672  14.776  -7.300  1.00 20.00     0.061 C 
HETATM    9  C9  UNL     1     -34.736  13.262  -7.127  1.00 20.00     0.153 C 
HETATM   10  N10 UNL     1     -35.590  12.850  -6.003  1.00 20.00    -0.300 NA
HETATM   11 BR11 UNL     1     -33.569  17.428  -1.820  1.00 20.00    -0.051 Br
ENDROOT
TORSDOF 0
ENDMDL
MODEL 4
REMARK VINA RESULT:      -4.8     11.532     11.904
REMARK  0 active torsions:
REMARK  status: ('A' for Active; 'I' for Inactive)
ROOT
HETATM    1  C1  UNL     1     -35.484  17.342  -0.330  1.00 20.00     0.009 A 
HETATM    2  C2  UNL     1     -35.278  16.790  -1.597  1.00 20.00     0.019 A 
HETATM    3  C3  UNL     1     -33.013  17.640  -1.622  1.00 20.00     0.032 A 
HETATM    4  C4  UNL     1     -33.226  18.175  -0.354  1.00 20.00    -0.011 A 
HETATM    5  C5  UNL     1     -34.450  18.034   0.303  1.00 20.00    -0.045 A 
HETATM    6  C6  UNL     1     -34.047  16.939  -2.240  1.00 20.00     0.011 A 
HETATM    7  C7  UNL     1     -32.176  18.943   0.322  1.00 20.00     0.122 C 
HETATM    8  C8  UNL     1     -34.627  18.703   1.633  1.00 20.00     0.061 C 
HETATM    9  C9  UNL     1     -33.299  18.728   2.383  1.00 20.00     0.153 C 
HETATM   10  N10 UNL     1     -32.194  19.262   1.573  1.00 20.00    -0.300 NA
HETATM   11 BR11 UNL     1     -33.785  16.193  -3.959  1.00 20.00    -0.051 Br
ENDROOT
TORSDOF 0
ENDMDL
MODEL 5
REMARK VINA RESULT:      -4.6     11.562     11.857
REMARK  0 active torsions:
REMARK  status: ('A' for Active; 'I' for Inactive)
ROOT
HETATM    1  C1  UNL     1     -33.586  15.691  -3.795  1.00 20.00     0.009 A 
HETATM    2  C2  UNL     1     -33.615  16.588  -2.724  1.00 20.00     0.019 A 
HETATM    3  C3  UNL     1     -36.034  16.509  -2.697  1.00 20.00     0.032 A 
HETATM    4  C4  UNL     1     -35.991  15.606  -3.756  1.00 20.00    -0.011 A 
HETATM    5  C5  UNL     1     -34.781  15.187  -4.312  1.00 20.00    -0.045 A 
HETATM    6  C6  UNL     1     -34.835  16.996  -2.178  1.00 20.00     0.011 A 
HETATM    7  C7  UNL     1     -37.227  15.089  -4.351  1.00 20.00     0.122 C 
HETATM    8  C8  UNL     1     -34.820  14.272  -5.500  1.00 20.00     0.061 C 
HETATM    9  C9  UNL     1     -36.033  13.353  -5.407  1.00 20.00     0.153 C 
HETATM   10  N10 UNL     1     -37.286  14.082  -5.156  1.00 20.00    -0.300 NA
HETATM   11 BR11 UNL     1     -34.860  18.218  -0.735  1.00 20.00    -0.051 Br
ENDROOT
TORSDOF 0
ENDMDL
MODEL 6
REMARK VINA RESULT:      -4.6     11.651     11.982
REMARK  0 active torsions:
REMARK  status: ('A' for Active; 'I' for Inactive)
ROOT
HETATM    1  C1  UNL     1     -35.126  18.082   1.076  1.00 20.00     0.009 A 
HETATM    2  C2  UNL     1     -35.682  17.509  -0.072  1.00 20.00     0.019 A 
HETATM    3  C3  UNL     1     -33.549  17.660  -1.204  1.00 20.00     0.032 A 
HETATM    4  C4  UNL     1     -33.004  18.218  -0.051  1.00 20.00    -0.011 A 
HETATM    5  C5  UNL     1     -33.776  18.433   1.093  1.00 20.00    -0.045 A 
HETATM    6  C6  UNL     1     -34.895  17.299  -1.207  1.00 20.00     0.011 A 
HETATM    7  C7  UNL     1     -31.599  18.637  -0.011  1.00 20.00     0.122 C 
HETATM    8  C8  UNL     1     -33.136  19.109   2.269  1.00 20.00     0.061 C 
HETATM    9  C9  UNL     1     -31.659  18.734   2.343  1.00 20.00     0.153 C 
HETATM   10  N10 UNL     1     -30.954  18.931   1.067  1.00 20.00    -0.300 NA
HETATM   11 BR11 UNL     1     -35.662  16.531  -2.756  1.00 20.00    -0.051 Br
ENDROOT
TORSDOF 0
ENDMDL
MODEL 7
REMARK VINA RESULT:      -4.6     11.564     11.974
REMARK  0 active torsions:
REMARK  status: ('A' for Active; 'I' for Inactive)
ROOT
HETATM    1  C1  UNL     1     -32.987  17.731  -1.885  1.00 20.00     0.009 A 
HETATM    2  C2  UNL     1     -33.412  18.109  -0.608  1.00 20.00     0.019 A 
HETATM    3  C3  UNL     1     -35.561  17.067  -0.993  1.00 20.00     0.032 A 
HETATM    4  C4  UNL     1     -35.122  16.686  -2.258  1.00 20.00    -0.011 A 
HETATM    5  C5  UNL     1     -33.842  17.007  -2.716  1.00 20.00    -0.045 A 
HETATM    6  C6  UNL     1     -34.694  17.778  -0.165  1.00 20.00     0.011 A 
HETATM    7  C7  UNL     1     -36.008  15.960  -3.173  1.00 20.00     0.122 C 
HETATM    8  C8  UNL     1     -33.470  16.627  -4.118  1.00 20.00     0.061 C 
HETATM    9  C9  UNL     1     -34.171  15.331  -4.509  1.00 20.00     0.153 C 
HETATM   10  N10 UNL     1     -35.619  15.362  -4.249  1.00 20.00    -0.300 NA
HETATM   11 BR11 UNL     1     -35.259  18.303   1.562  1.00 20.00    -0.051 Br
ENDROOT
TORSDOF 0
ENDMDL
MODEL 8
REMARK VINA RESULT:      -4.6     11.703     12.220
REMARK  0 active torsions:
REMARK  status: ('A' for Active; 'I' for Inactive)
ROOT
HETATM    1  C1  UNL     1     -35.589  17.024  -1.084  1.00 20.00     0.009 A 
HETATM    2  C2  UNL     1     -34.720  17.710  -0.232  1.00 20.00     0.019 A 
HETATM    3  C3  UNL     1     -33.011  17.712  -1.945  1.00 20.00     0.032 A 
HETATM    4  C4  UNL     1     -33.891  17.039  -2.789  1.00 20.00    -0.011 A 
HETATM    5  C5  UNL     1     -35.178  16.691  -2.375  1.00 20.00    -0.045 A 
HETATM    6  C6  UNL     1     -33.435  18.052  -0.661  1.00 20.00     0.011 A 
HETATM    7  C7  UNL     1     -33.478  16.638  -4.137  1.00 20.00     0.122 C 
HETATM    8  C8  UNL     1     -36.040  15.901  -3.315  1.00 20.00     0.061 C 
HETATM    9  C9  UNL     1     -35.725  16.285  -4.757  1.00 20.00     0.153 C 
HETATM   10  N10 UNL     1     -34.286  16.237  -5.060  1.00 20.00    -0.300 NA
HETATM   11 BR11 UNL     1     -32.266  18.974   0.505  1.00 20.00    -0.051 Br
ENDROOT
TORSDOF 0
ENDMDL
MODEL 9
REMARK VINA RESULT:      -4.5     11.642     12.772
REMARK  0 active torsions:
REMARK  status: ('A' for Active; 'I' for Inactive)
ROOT
HETATM    1  C1  UNL     1     -34.401  15.065  -3.660  1.00 20.00     0.009 A 
HETATM    2  C2  UNL     1     -34.394  14.609  -4.980  1.00 20.00     0.019 A 
HETATM    3  C3  UNL     1     -33.592  16.761  -5.742  1.00 20.00     0.032 A 
HETATM    4  C4  UNL     1     -33.592  17.200  -4.420  1.00 20.00    -0.011 A 
HETATM    5  C5  UNL     1     -33.990  16.368  -3.373  1.00 20.00    -0.045 A 
HETATM    6  C6  UNL     1     -33.991  15.454  -6.017  1.00 20.00     0.011 A 
HETATM    7  C7  UNL     1     -33.205  18.575  -4.086  1.00 20.00     0.122 C 
HETATM    8  C8  UNL     1     -34.035  16.937  -1.986  1.00 20.00     0.061 C 
HETATM    9  C9  UNL     1     -32.941  17.986  -1.819  1.00 20.00     0.153 C 
HETATM   10  N10 UNL     1     -32.944  18.992  -2.893  1.00 20.00    -0.300 NA
HETATM   11 BR11 UNL     1     -33.994  14.826  -7.801  1.00 20.00    -0.051 Br
ENDROOT
TORSDOF 0
ENDMDL
