MODEL 1
REMARK VINA RESULT:      -5.8      0.000      0.000
REMARK  6 active torsions:
REMARK  status: ('A' for Active; 'I' for Inactive)
REMARK    1  A    between atoms: C2_2  and  C6_6 
REMARK    2  A    between atoms: C6_6  and  C11_11 
REMARK    3  A    between atoms: C7_7  and  C9_9 
REMARK    4  A    between atoms: C8_8  and  C11_11 
REMARK    5  A    between atoms: C9_9  and  C10_10 
REMARK    6  A    between atoms: C10_10  and  C11_11 
ROOT
HETATM    1  C11 UNL     1     -32.669   6.964   3.241  1.00 20.00    -0.011 C 
ENDROOT
BRANCH   1   2
HETATM    2  C6  UNL     1     -34.009   7.269   3.956  1.00 20.00     0.037 C 
BRANCH   2   3
HETATM    3  C2  UNL     1     -34.098   6.767   5.381  1.00 20.00    -0.093 C 
HETATM    4  C1  UNL     1     -33.666   7.509   6.414  1.00 20.00     0.014 C 
HETATM    5  C3  UNL     1     -34.648   5.386   5.589  1.00 20.00     0.042 C 
ENDBRANCH   2   3
ENDBRANCH   1   2
BRANCH   1   6
HETATM    6  C8  UNL     1     -32.874   5.992   2.057  1.00 20.00     0.000 C 
HETATM    7  C5  UNL     1     -33.013   4.534   2.474  1.00 20.00     0.005 C 
ENDBRANCH   1   6
BRANCH   1   8
HETATM    8  C10 UNL     1     -31.947   8.279   2.855  1.00 20.00     0.005 C 
BRANCH   8   9
HETATM    9  C9  UNL     1     -31.727   8.489   1.353  1.00 20.00     0.000 C 
BRANCH   9  10
HETATM   10  C7  UNL     1     -32.471   9.711   0.803  1.00 20.00    -0.005 C 
HETATM   11  C4  UNL     1     -33.206   9.441  -0.501  1.00 20.00     0.005 C 
ENDBRANCH   9  10
ENDBRANCH   8   9
ENDBRANCH   1   8
TORSDOF 6
ENDMDL
MODEL 2
REMARK VINA RESULT:      -5.6      1.011      2.517
REMARK  6 active torsions:
REMARK  status: ('A' for Active; 'I' for Inactive)
REMARK    1  A    between atoms: C2_2  and  C6_6 
REMARK    2  A    between atoms: C6_6  and  C11_11 
REMARK    3  A    between atoms: C7_7  and  C9_9 
REMARK    4  A    between atoms: C8_8  and  C11_11 
REMARK    5  A    between atoms: C9_9  and  C10_10 
REMARK    6  A    between atoms: C10_10  and  C11_11 
ROOT
HETATM    1  C11 UNL     1     -33.538   7.578   3.441  1.00 20.00    -0.011 C 
ENDROOT
BRANCH   1   2
HETATM    2  C6  UNL     1     -34.514   6.390   3.254  1.00 20.00     0.037 C 
BRANCH   2   3
HETATM    3  C2  UNL     1     -33.890   5.021   3.420  1.00 20.00    -0.093 C 
HETATM    4  C1  UNL     1     -32.965   4.564   2.562  1.00 20.00     0.014 C 
HETATM    5  C3  UNL     1     -34.384   4.177   4.560  1.00 20.00     0.042 C 
ENDBRANCH   2   3
ENDBRANCH   1   2
BRANCH   1   6
HETATM    6  C8  UNL     1     -32.850   7.526   4.824  1.00 20.00     0.000 C 
HETATM    7  C5  UNL     1     -33.821   7.394   5.990  1.00 20.00     0.005 C 
ENDBRANCH   1   6
BRANCH   1   8
HETATM    8  C10 UNL     1     -32.549   7.662   2.252  1.00 20.00     0.005 C 
BRANCH   8   9
HETATM    9  C9  UNL     1     -31.942   9.047   2.001  1.00 20.00     0.000 C 
BRANCH   9  10
HETATM   10  C7  UNL     1     -32.833   9.946   1.138  1.00 20.00    -0.005 C 
HETATM   11  C4  UNL     1     -33.012   9.441  -0.285  1.00 20.00     0.005 C 
ENDBRANCH   9  10
ENDBRANCH   8   9
ENDBRANCH   1   8
TORSDOF 6
ENDMDL
MODEL 3
REMARK VINA RESULT:      -5.6      0.830      4.770
REMARK  6 active torsions:
REMARK  status: ('A' for Active; 'I' for Inactive)
REMARK    1  A    between atoms: C2_2  and  C6_6 
REMARK    2  A    between atoms: C6_6  and  C11_11 
REMARK    3  A    between atoms: C7_7  and  C9_9 
REMARK    4  A    between atoms: C8_8  and  C11_11 
REMARK    5  A    between atoms: C9_9  and  C10_10 
REMARK    6  A    between atoms: C10_10  and  C11_11 
ROOT
HETATM    1  C11 UNL     1     -33.231   7.608   2.759  1.00 20.00    -0.011 C 
ENDROOT
BRANCH   1   2
HETATM    2  C6  UNL     1     -32.107   8.252   1.909  1.00 20.00     0.037 C 
BRANCH   2   3
HETATM    3  C2  UNL     1     -32.555   9.395   1.023  1.00 20.00    -0.093 C 
HETATM    4  C1  UNL     1     -32.678  10.644   1.499  1.00 20.00     0.014 C 
HETATM    5  C3  UNL     1     -32.901   9.064  -0.400  1.00 20.00     0.042 C 
ENDBRANCH   2   3
ENDBRANCH   1   2
BRANCH   1   6
HETATM    6  C8  UNL     1     -33.715   6.280   2.134  1.00 20.00     0.000 C 
HETATM    7  C5  UNL     1     -32.912   5.063   2.574  1.00 20.00     0.005 C 
ENDBRANCH   1   6
BRANCH   1   8
HETATM    8  C10 UNL     1     -32.790   7.481   4.238  1.00 20.00     0.005 C 
BRANCH   8   9
HETATM    9  C9  UNL     1     -33.930   7.447   5.262  1.00 20.00     0.000 C 
BRANCH   9  10
HETATM   10  C7  UNL     1     -33.986   6.136   6.054  1.00 20.00    -0.005 C 
HETATM   11  C4  UNL     1     -34.842   5.064   5.399  1.00 20.00     0.005 C 
ENDBRANCH   9  10
ENDBRANCH   8   9
ENDBRANCH   1   8
TORSDOF 6
ENDMDL
MODEL 4
REMARK VINA RESULT:      -5.3      1.231      4.914
REMARK  6 active torsions:
REMARK  status: ('A' for Active; 'I' for Inactive)
REMARK    1  A    between atoms: C2_2  and  C6_6 
REMARK    2  A    between atoms: C6_6  and  C11_11 
REMARK    3  A    between atoms: C7_7  and  C9_9 
REMARK    4  A    between atoms: C8_8  and  C11_11 
REMARK    5  A    between atoms: C9_9  and  C10_10 
REMARK    6  A    between atoms: C10_10  and  C11_11 
ROOT
HETATM    1  C11 UNL     1     -31.949   7.693   2.466  1.00 20.00    -0.011 C 
ENDROOT
BRANCH   1   2
HETATM    2  C6  UNL     1     -31.516   8.527   1.234  1.00 20.00     0.037 C 
BRANCH   2   3
HETATM    3  C2  UNL     1     -32.519   9.569   0.787  1.00 20.00    -0.093 C 
HETATM    4  C1  UNL     1     -32.781  10.655   1.532  1.00 20.00     0.014 C 
HETATM    5  C3  UNL     1     -33.243   9.314  -0.503  1.00 20.00     0.042 C 
ENDBRANCH   2   3
ENDBRANCH   1   2
BRANCH   1   6
HETATM    6  C8  UNL     1     -31.506   8.370   3.783  1.00 20.00     0.000 C 
HETATM    7  C5  UNL     1     -32.499   8.204   4.925  1.00 20.00     0.005 C 
ENDBRANCH   1   6
BRANCH   1   8
HETATM    8  C10 UNL     1     -33.463   7.374   2.403  1.00 20.00     0.005 C 
BRANCH   8   9
HETATM    9  C9  UNL     1     -33.843   5.931   2.752  1.00 20.00     0.000 C 
BRANCH   9  10
HETATM   10  C7  UNL     1     -34.991   5.840   3.763  1.00 20.00    -0.005 C 
HETATM   11  C4  UNL     1     -34.629   5.081   5.030  1.00 20.00     0.005 C 
ENDBRANCH   9  10
ENDBRANCH   8   9
ENDBRANCH   1   8
TORSDOF 6
ENDMDL
MODEL 5
REMARK VINA RESULT:      -5.2      1.206      5.100
REMARK  6 active torsions:
REMARK  status: ('A' for Active; 'I' for Inactive)
REMARK    1  A    between atoms: C2_2  and  C6_6 
REMARK    2  A    between atoms: C6_6  and  C11_11 
REMARK    3  A    between atoms: C7_7  and  C9_9 
REMARK    4  A    between atoms: C8_8  and  C11_11 
REMARK    5  A    between atoms: C9_9  and  C10_10 
REMARK    6  A    between atoms: C10_10  and  C11_11 
ROOT
HETATM    1  C11 UNL     1     -32.873   7.277   2.830  1.00 20.00    -0.011 C 
ENDROOT
BRANCH   1   2
HETATM    2  C6  UNL     1     -33.410   8.389   1.893  1.00 20.00     0.037 C 
BRANCH   2   3
HETATM    3  C2  UNL     1     -32.342   9.221   1.217  1.00 20.00    -0.093 C 
HETATM    4  C1  UNL     1     -31.266   8.655   0.649  1.00 20.00     0.014 C 
HETATM    5  C3  UNL     1     -32.514  10.712   1.247  1.00 20.00     0.042 C 
ENDBRANCH   2   3
ENDBRANCH   1   2
BRANCH   1   6
HETATM    6  C8  UNL     1     -32.251   7.876   4.111  1.00 20.00     0.000 C 
HETATM    7  C5  UNL     1     -33.148   7.775   5.337  1.00 20.00     0.005 C 
ENDBRANCH   1   6
BRANCH   1   8
HETATM    8  C10 UNL     1     -33.970   6.218   3.101  1.00 20.00     0.005 C 
BRANCH   8   9
HETATM    9  C9  UNL     1     -33.484   4.765   3.134  1.00 20.00     0.000 C 
BRANCH   9  10
HETATM   10  C7  UNL     1     -34.091   3.955   4.285  1.00 20.00    -0.005 C 
HETATM   11  C4  UNL     1     -34.723   4.815   5.368  1.00 20.00     0.005 C 
ENDBRANCH   9  10
ENDBRANCH   8   9
ENDBRANCH   1   8
TORSDOF 6
ENDMDL
MODEL 6
REMARK VINA RESULT:      -4.9      0.922      4.695
REMARK  6 active torsions:
REMARK  status: ('A' for Active; 'I' for Inactive)
REMARK    1  A    between atoms: C2_2  and  C6_6 
REMARK    2  A    between atoms: C6_6  and  C11_11 
REMARK    3  A    between atoms: C7_7  and  C9_9 
REMARK    4  A    between atoms: C8_8  and  C11_11 
REMARK    5  A    between atoms: C9_9  and  C10_10 
REMARK    6  A    between atoms: C10_10  and  C11_11 
ROOT
HETATM    1  C11 UNL     1     -33.262   6.855   2.618  1.00 20.00    -0.011 C 
ENDROOT
BRANCH   1   2
HETATM    2  C6  UNL     1     -32.322   8.080   2.735  1.00 20.00     0.037 C 
BRANCH   2   3
HETATM    3  C2  UNL     1     -32.163   8.884   1.462  1.00 20.00    -0.093 C 
HETATM    4  C1  UNL     1     -31.336   8.488   0.481  1.00 20.00     0.014 C 
HETATM    5  C3  UNL     1     -32.934  10.168   1.362  1.00 20.00     0.042 C 
ENDBRANCH   2   3
ENDBRANCH   1   2
BRANCH   1   6
HETATM    6  C8  UNL     1     -32.505   5.538   2.902  1.00 20.00     0.000 C 
HETATM    7  C5  UNL     1     -32.985   4.358   2.068  1.00 20.00     0.005 C 
ENDBRANCH   1   6
BRANCH   1   8
HETATM    8  C10 UNL     1     -34.525   7.053   3.492  1.00 20.00     0.005 C 
BRANCH   8   9
HETATM    9  C9  UNL     1     -34.928   5.845   4.345  1.00 20.00     0.000 C 
BRANCH   9  10
HETATM   10  C7  UNL     1     -34.475   5.962   5.804  1.00 20.00    -0.005 C 
HETATM   11  C4  UNL     1     -33.747   7.261   6.113  1.00 20.00     0.005 C 
ENDBRANCH   9  10
ENDBRANCH   8   9
ENDBRANCH   1   8
TORSDOF 6
ENDMDL
MODEL 7
REMARK VINA RESULT:      -4.1     10.610     11.677
REMARK  6 active torsions:
REMARK  status: ('A' for Active; 'I' for Inactive)
REMARK    1  A    between atoms: C2_2  and  C6_6 
REMARK    2  A    between atoms: C6_6  and  C11_11 
REMARK    3  A    between atoms: C7_7  and  C9_9 
REMARK    4  A    between atoms: C8_8  and  C11_11 
REMARK    5  A    between atoms: C9_9  and  C10_10 
REMARK    6  A    between atoms: C10_10  and  C11_11 
ROOT
HETATM    1  C11 UNL     1     -34.898  15.696  -3.853  1.00 20.00    -0.011 C 
ENDROOT
BRANCH   1   2
HETATM    2  C6  UNL     1     -33.691  16.158  -2.999  1.00 20.00     0.037 C 
BRANCH   2   3
HETATM    3  C2  UNL     1     -34.047  17.036  -1.818  1.00 20.00    -0.093 C 
HETATM    4  C1  UNL     1     -35.250  16.963  -1.227  1.00 20.00     0.014 C 
HETATM    5  C3  UNL     1     -33.012  18.025  -1.364  1.00 20.00     0.042 C 
ENDBRANCH   2   3
ENDBRANCH   1   2
BRANCH   1   6
HETATM    6  C8  UNL     1     -35.257  16.745  -4.929  1.00 20.00     0.000 C 
HETATM    7  C5  UNL     1     -34.090  17.133  -5.827  1.00 20.00     0.005 C 
ENDBRANCH   1   6
BRANCH   1   8
HETATM    8  C10 UNL     1     -34.651  14.276  -4.420  1.00 20.00     0.005 C 
BRANCH   8   9
HETATM    9  C9  UNL     1     -35.877  13.596  -5.040  1.00 20.00     0.000 C 
BRANCH   9  10
HETATM   10  C7  UNL     1     -35.829  13.552  -6.571  1.00 20.00    -0.005 C 
HETATM   11  C4  UNL     1     -34.420  13.618  -7.138  1.00 20.00     0.005 C 
ENDBRANCH   9  10
ENDBRANCH   8   9
ENDBRANCH   1   8
TORSDOF 6
ENDMDL
MODEL 8
REMARK VINA RESULT:      -4.1     10.661     11.475
REMARK  6 active torsions:
REMARK  status: ('A' for Active; 'I' for Inactive)
REMARK    1  A    between atoms: C2_2  and  C6_6 
REMARK    2  A    between atoms: C6_6  and  C11_11 
REMARK    3  A    between atoms: C7_7  and  C9_9 
REMARK    4  A    between atoms: C8_8  and  C11_11 
REMARK    5  A    between atoms: C9_9  and  C10_10 
REMARK    6  A    between atoms: C10_10  and  C11_11 
ROOT
HETATM    1  C11 UNL     1     -34.808  15.498  -3.477  1.00 20.00    -0.011 C 
ENDROOT
BRANCH   1   2
HETATM    2  C6  UNL     1     -34.222  16.904  -3.196  1.00 20.00     0.037 C 
BRANCH   2   3
HETATM    3  C2  UNL     1     -34.141  17.279  -1.732  1.00 20.00    -0.093 C 
HETATM    4  C1  UNL     1     -35.177  17.088  -0.901  1.00 20.00     0.014 C 
HETATM    5  C3  UNL     1     -32.867  17.917  -1.257  1.00 20.00     0.042 C 
ENDBRANCH   2   3
ENDBRANCH   1   2
BRANCH   1   6
HETATM    6  C8  UNL     1     -36.247  15.591  -4.031  1.00 20.00     0.000 C 
HETATM    7  C5  UNL     1     -36.662  14.391  -4.872  1.00 20.00     0.005 C 
ENDBRANCH   1   6
BRANCH   1   8
HETATM    8  C10 UNL     1     -33.844  14.675  -4.368  1.00 20.00     0.005 C 
BRANCH   8   9
HETATM    9  C9  UNL     1     -32.940  15.500  -5.290  1.00 20.00     0.000 C 
BRANCH   9  10
HETATM   10  C7  UNL     1     -33.596  15.831  -6.635  1.00 20.00    -0.005 C 
HETATM   11  C4  UNL     1     -33.953  14.604  -7.457  1.00 20.00     0.005 C 
ENDBRANCH   9  10
ENDBRANCH   8   9
ENDBRANCH   1   8
TORSDOF 6
ENDMDL
MODEL 9
REMARK VINA RESULT:      -4.0     10.385     11.849
REMARK  6 active torsions:
REMARK  status: ('A' for Active; 'I' for Inactive)
REMARK    1  A    between atoms: C2_2  and  C6_6 
REMARK    2  A    between atoms: C6_6  and  C11_11 
REMARK    3  A    between atoms: C7_7  and  C9_9 
REMARK    4  A    between atoms: C8_8  and  C11_11 
REMARK    5  A    between atoms: C9_9  and  C10_10 
REMARK    6  A    between atoms: C10_10  and  C11_11 
ROOT
HETATM    1  C11 UNL     1     -34.937  16.205  -2.949  1.00 20.00    -0.011 C 
ENDROOT
BRANCH   1   2
HETATM    2  C6  UNL     1     -33.632  16.577  -3.696  1.00 20.00     0.037 C 
BRANCH   2   3
HETATM    3  C2  UNL     1     -33.181  15.567  -4.730  1.00 20.00    -0.093 C 
HETATM    4  C1  UNL     1     -33.239  15.836  -6.044  1.00 20.00     0.014 C 
HETATM    5  C3  UNL     1     -32.709  14.234  -4.226  1.00 20.00     0.042 C 
ENDBRANCH   2   3
ENDBRANCH   1   2
BRANCH   1   6
HETATM    6  C8  UNL     1     -34.970  16.828  -1.535  1.00 20.00     0.000 C 
HETATM    7  C5  UNL     1     -33.714  17.611  -1.178  1.00 20.00     0.005 C 
ENDBRANCH   1   6
BRANCH   1   8
HETATM    8  C10 UNL     1     -36.176  16.546  -3.814  1.00 20.00     0.005 C 
BRANCH   8   9
HETATM    9  C9  UNL     1     -37.078  15.357  -4.163  1.00 20.00     0.000 C 
BRANCH   9  10
HETATM   10  C7  UNL     1     -36.729  14.713  -5.509  1.00 20.00    -0.005 C 
HETATM   11  C4  UNL     1     -36.065  13.351  -5.378  1.00 20.00     0.005 C 
ENDBRANCH   9  10
ENDBRANCH   8   9
ENDBRANCH   1   8
TORSDOF 6
ENDMDL
