MODEL 1
REMARK VINA RESULT:      -5.6      0.000      0.000
REMARK  0 active torsions:
REMARK  status: ('A' for Active; 'I' for Inactive)
ROOT
HETATM    1  C1  UNL     1     -31.877   8.094   2.894  1.00 20.00     0.014 C 
HETATM    2  C2  UNL     1     -32.728   7.493   3.489  1.00 20.00    -0.090 C 
HETATM    3  C3  UNL     1     -34.155   4.097   4.413  1.00 20.00     0.013 A 
HETATM    4  C4  UNL     1     -33.451   4.318   3.072  1.00 20.00     0.013 A 
HETATM    5  C5  UNL     1     -35.058   6.460   3.457  1.00 20.00     0.052 A 
HETATM    6  C6  UNL     1     -33.744   6.777   4.199  1.00 20.00     0.107 A 
HETATM    7  C7  UNL     1     -34.091   5.418   3.791  1.00 20.00    -0.005 A 
HETATM    8 CL8  UNL     1     -33.876   7.202   5.906  1.00 20.00    -0.104 Cl
ENDROOT
TORSDOF 0
ENDMDL
MODEL 2
REMARK VINA RESULT:      -5.4      1.628      2.322
REMARK  0 active torsions:
REMARK  status: ('A' for Active; 'I' for Inactive)
ROOT
HETATM    1  C1  UNL     1     -33.673   7.807   6.311  1.00 20.00     0.014 C 
HETATM    2  C2  UNL     1     -33.972   6.899   5.585  1.00 20.00    -0.090 C 
HETATM    3  C3  UNL     1     -33.087   4.900   2.479  1.00 20.00     0.013 A 
HETATM    4  C4  UNL     1     -32.739   6.387   2.585  1.00 20.00     0.013 A 
HETATM    5  C5  UNL     1     -35.260   6.119   3.528  1.00 20.00     0.052 A 
HETATM    6  C6  UNL     1     -34.328   5.817   4.719  1.00 20.00     0.107 A 
HETATM    7  C7  UNL     1     -33.847   5.804   3.339  1.00 20.00    -0.005 A 
HETATM    8 CL8  UNL     1     -34.562   4.274   5.541  1.00 20.00    -0.104 Cl
ENDROOT
TORSDOF 0
ENDMDL
MODEL 3
REMARK VINA RESULT:      -5.2      1.765      2.583
REMARK  0 active torsions:
REMARK  status: ('A' for Active; 'I' for Inactive)
ROOT
HETATM    1  C1  UNL     1     -32.714   4.034   2.178  1.00 20.00     0.014 C 
HETATM    2  C2  UNL     1     -33.182   4.995   2.725  1.00 20.00    -0.090 C 
HETATM    3  C3  UNL     1     -34.343   6.524   6.003  1.00 20.00     0.013 A 
HETATM    4  C4  UNL     1     -34.456   5.018   5.752  1.00 20.00     0.013 A 
HETATM    5  C5  UNL     1     -35.275   6.238   3.480  1.00 20.00     0.052 A 
HETATM    6  C6  UNL     1     -33.739   6.140   3.378  1.00 20.00     0.107 A 
HETATM    7  C7  UNL     1     -34.441   5.979   4.650  1.00 20.00    -0.005 A 
HETATM    8 CL8  UNL     1     -32.863   7.642   3.086  1.00 20.00    -0.104 Cl
ENDROOT
TORSDOF 0
ENDMDL
MODEL 4
REMARK VINA RESULT:      -4.6      1.638      3.812
REMARK  0 active torsions:
REMARK  status: ('A' for Active; 'I' for Inactive)
ROOT
HETATM    1  C1  UNL     1     -32.943   4.895   2.498  1.00 20.00     0.014 C 
HETATM    2  C2  UNL     1     -32.899   6.054   2.808  1.00 20.00    -0.090 C 
HETATM    3  C3  UNL     1     -32.551   9.645   1.619  1.00 20.00     0.013 A 
HETATM    4  C4  UNL     1     -31.865   8.497   0.873  1.00 20.00     0.013 A 
HETATM    5  C5  UNL     1     -31.468   8.043   3.511  1.00 20.00     0.052 A 
HETATM    6  C6  UNL     1     -32.846   7.435   3.179  1.00 20.00     0.107 A 
HETATM    7  C7  UNL     1     -32.194   8.398   2.294  1.00 20.00    -0.005 A 
HETATM    8 CL8  UNL     1     -34.212   7.980   4.152  1.00 20.00    -0.104 Cl
ENDROOT
TORSDOF 0
ENDMDL
MODEL 5
REMARK VINA RESULT:      -4.5      1.867      3.527
REMARK  0 active torsions:
REMARK  status: ('A' for Active; 'I' for Inactive)
ROOT
HETATM    1  C1  UNL     1     -34.754   4.648   5.582  1.00 20.00     0.014 C 
HETATM    2  C2  UNL     1     -34.267   5.055   4.564  1.00 20.00    -0.090 C 
HETATM    3  C3  UNL     1     -31.951   7.599   2.953  1.00 20.00     0.013 A 
HETATM    4  C4  UNL     1     -32.748   7.945   4.213  1.00 20.00     0.013 A 
HETATM    5  C5  UNL     1     -34.447   6.631   2.569  1.00 20.00     0.052 A 
HETATM    6  C6  UNL     1     -33.686   5.541   3.350  1.00 20.00     0.107 A 
HETATM    7  C7  UNL     1     -33.204   6.919   3.278  1.00 20.00    -0.005 A 
HETATM    8 CL8  UNL     1     -32.858   4.310   2.396  1.00 20.00    -0.104 Cl
ENDROOT
TORSDOF 0
ENDMDL
MODEL 6
REMARK VINA RESULT:      -4.5      2.333      4.555
REMARK  0 active torsions:
REMARK  status: ('A' for Active; 'I' for Inactive)
ROOT
HETATM    1  C1  UNL     1     -33.766   6.131   2.577  1.00 20.00     0.014 C 
HETATM    2  C2  UNL     1     -33.016   7.064   2.484  1.00 20.00    -0.090 C 
HETATM    3  C3  UNL     1     -32.533  10.636   1.286  1.00 20.00     0.013 A 
HETATM    4  C4  UNL     1     -33.476   9.679   0.552  1.00 20.00     0.013 A 
HETATM    5  C5  UNL     1     -31.236   8.269   1.114  1.00 20.00     0.052 A 
HETATM    6  C6  UNL     1     -32.122   8.176   2.373  1.00 20.00     0.107 A 
HETATM    7  C7  UNL     1     -32.349   9.187   1.342  1.00 20.00    -0.005 A 
HETATM    8 CL8  UNL     1     -31.394   8.679   3.898  1.00 20.00    -0.104 Cl
ENDROOT
TORSDOF 0
ENDMDL
MODEL 7
REMARK VINA RESULT:      -4.1      1.977      2.392
REMARK  0 active torsions:
REMARK  status: ('A' for Active; 'I' for Inactive)
ROOT
HETATM    1  C1  UNL     1     -31.961   8.371   2.532  1.00 20.00     0.014 C 
HETATM    2  C2  UNL     1     -32.687   7.416   2.569  1.00 20.00    -0.090 C 
HETATM    3  C3  UNL     1     -35.216   5.431   4.591  1.00 20.00     0.013 A 
HETATM    4  C4  UNL     1     -34.086   6.200   5.279  1.00 20.00     0.013 A 
HETATM    5  C5  UNL     1     -32.978   4.952   3.151  1.00 20.00     0.052 A 
HETATM    6  C6  UNL     1     -33.552   6.278   2.612  1.00 20.00     0.107 A 
HETATM    7  C7  UNL     1     -33.961   5.726   3.902  1.00 20.00    -0.005 A 
HETATM    8 CL8  UNL     1     -34.676   6.166   1.257  1.00 20.00    -0.104 Cl
ENDROOT
TORSDOF 0
ENDMDL
MODEL 8
REMARK VINA RESULT:      -4.1      2.720      3.729
REMARK  0 active torsions:
REMARK  status: ('A' for Active; 'I' for Inactive)
ROOT
HETATM    1  C1  UNL     1     -33.216  10.839   1.529  1.00 20.00     0.014 C 
HETATM    2  C2  UNL     1     -32.653   9.792   1.695  1.00 20.00    -0.090 C 
HETATM    3  C3  UNL     1     -32.960   6.162   2.772  1.00 20.00     0.013 A 
HETATM    4  C4  UNL     1     -33.846   7.246   3.391  1.00 20.00     0.013 A 
HETATM    5  C5  UNL     1     -31.347   8.275   3.273  1.00 20.00     0.052 A 
HETATM    6  C6  UNL     1     -31.981   8.544   1.893  1.00 20.00     0.107 A 
HETATM    7  C7  UNL     1     -32.538   7.561   2.820  1.00 20.00    -0.005 A 
HETATM    8 CL8  UNL     1     -31.097   7.961   0.483  1.00 20.00    -0.104 Cl
ENDROOT
TORSDOF 0
ENDMDL
MODEL 9
REMARK VINA RESULT:      -4.0      1.994      2.421
REMARK  0 active torsions:
REMARK  status: ('A' for Active; 'I' for Inactive)
ROOT
HETATM    1  C1  UNL     1     -32.629   9.520   0.743  1.00 20.00     0.014 C 
HETATM    2  C2  UNL     1     -32.550   8.789   1.692  1.00 20.00    -0.090 C 
HETATM    3  C3  UNL     1     -32.964   5.252   3.013  1.00 20.00     0.013 A 
HETATM    4  C4  UNL     1     -33.847   5.779   1.879  1.00 20.00     0.013 A 
HETATM    5  C5  UNL     1     -33.701   7.757   3.718  1.00 20.00     0.052 A 
HETATM    6  C6  UNL     1     -32.455   7.918   2.823  1.00 20.00     0.107 A 
HETATM    7  C7  UNL     1     -33.231   6.680   2.851  1.00 20.00    -0.005 A 
HETATM    8 CL8  UNL     1     -30.890   7.946   3.634  1.00 20.00    -0.104 Cl
ENDROOT
TORSDOF 0
ENDMDL
