MODEL 1
REMARK VINA RESULT:      -6.2      0.000      0.000
REMARK  0 active torsions:
REMARK  status: ('A' for Active; 'I' for Inactive)
ROOT
HETATM    1  C1  UNL     1     -32.171   8.111   2.557  1.00 20.00     0.013 C 
HETATM    2  C2  UNL     1     -32.827   7.166   2.897  1.00 20.00    -0.104 C 
HETATM    3  C3  UNL     1     -35.094   6.267   3.536  1.00 20.00     0.069 A 
HETATM    4  C4  UNL     1     -33.617   6.029   3.307  1.00 20.00     0.057 A 
HETATM    5  C5  UNL     1     -34.196   6.015   4.719  1.00 20.00     0.133 A 
HETATM    6  C6  UNL     1     -33.215   4.740   2.637  1.00 20.00     0.032 C 
HETATM    7 CL7  UNL     1     -34.389   4.491   5.587  1.00 20.00    -0.100 Cl
HETATM    8 CL8  UNL     1     -33.906   7.372   5.816  1.00 20.00    -0.100 Cl
ENDROOT
TORSDOF 0
ENDMDL
MODEL 2
REMARK VINA RESULT:      -5.5      1.688      2.710
REMARK  0 active torsions:
REMARK  status: ('A' for Active; 'I' for Inactive)
ROOT
HETATM    1  C1  UNL     1     -33.800   7.553   6.240  1.00 20.00     0.013 C 
HETATM    2  C2  UNL     1     -33.696   7.157   5.111  1.00 20.00    -0.104 C 
HETATM    3  C3  UNL     1     -34.842   6.235   3.065  1.00 20.00     0.069 A 
HETATM    4  C4  UNL     1     -33.572   6.682   3.754  1.00 20.00     0.057 A 
HETATM    5  C5  UNL     1     -33.824   5.203   3.474  1.00 20.00     0.133 A 
HETATM    6  C6  UNL     1     -32.568   7.451   2.933  1.00 20.00     0.032 C 
HETATM    7 CL7  UNL     1     -32.935   4.374   2.195  1.00 20.00    -0.100 Cl
HETATM    8 CL8  UNL     1     -34.268   4.109   4.791  1.00 20.00    -0.100 Cl
ENDROOT
TORSDOF 0
ENDMDL
MODEL 3
REMARK VINA RESULT:      -5.0      2.138      3.677
REMARK  0 active torsions:
REMARK  status: ('A' for Active; 'I' for Inactive)
ROOT
HETATM    1  C1  UNL     1     -34.818   4.439   5.531  1.00 20.00     0.013 C 
HETATM    2  C2  UNL     1     -34.371   5.499   5.188  1.00 20.00    -0.104 C 
HETATM    3  C3  UNL     1     -34.454   7.417   3.554  1.00 20.00     0.069 A 
HETATM    4  C4  UNL     1     -33.834   6.774   4.776  1.00 20.00     0.057 A 
HETATM    5  C5  UNL     1     -33.062   6.848   3.461  1.00 20.00     0.133 A 
HETATM    6  C6  UNL     1     -33.466   7.677   5.926  1.00 20.00     0.032 C 
HETATM    7 CL7  UNL     1     -31.722   7.982   3.278  1.00 20.00    -0.100 Cl
HETATM    8 CL8  UNL     1     -32.846   5.399   2.470  1.00 20.00    -0.100 Cl
ENDROOT
TORSDOF 0
ENDMDL
MODEL 4
REMARK VINA RESULT:      -5.0      1.660      2.486
REMARK  0 active torsions:
REMARK  status: ('A' for Active; 'I' for Inactive)
ROOT
HETATM    1  C1  UNL     1     -32.820   4.205   2.077  1.00 20.00     0.013 C 
HETATM    2  C2  UNL     1     -33.398   4.750   2.978  1.00 20.00    -0.104 C 
HETATM    3  C3  UNL     1     -35.030   6.533   3.690  1.00 20.00     0.069 A 
HETATM    4  C4  UNL     1     -34.093   5.405   4.060  1.00 20.00     0.057 A 
HETATM    5  C5  UNL     1     -33.733   6.851   4.387  1.00 20.00     0.133 A 
HETATM    6  C6  UNL     1     -34.533   4.465   5.154  1.00 20.00     0.032 C 
HETATM    7 CL7  UNL     1     -33.816   7.436   6.050  1.00 20.00    -0.100 Cl
HETATM    8 CL8  UNL     1     -32.498   7.698   3.446  1.00 20.00    -0.100 Cl
ENDROOT
TORSDOF 0
ENDMDL
MODEL 5
REMARK VINA RESULT:      -4.1      2.313      3.377
REMARK  0 active torsions:
REMARK  status: ('A' for Active; 'I' for Inactive)
ROOT
HETATM    1  C1  UNL     1     -34.002   6.853   6.110  1.00 20.00     0.013 C 
HETATM    2  C2  UNL     1     -33.899   6.786   4.916  1.00 20.00    -0.104 C 
HETATM    3  C3  UNL     1     -32.575   5.962   2.936  1.00 20.00     0.069 A 
HETATM    4  C4  UNL     1     -33.775   6.705   3.480  1.00 20.00     0.057 A 
HETATM    5  C5  UNL     1     -32.634   7.461   2.804  1.00 20.00     0.133 A 
HETATM    6  C6  UNL     1     -35.091   6.518   2.768  1.00 20.00     0.032 C 
HETATM    7 CL7  UNL     1     -32.848   8.135   1.187  1.00 20.00    -0.100 Cl
HETATM    8 CL8  UNL     1     -31.491   8.403   3.771  1.00 20.00    -0.100 Cl
ENDROOT
TORSDOF 0
ENDMDL
MODEL 6
REMARK VINA RESULT:      -4.0      2.007      2.572
REMARK  0 active torsions:
REMARK  status: ('A' for Active; 'I' for Inactive)
ROOT
HETATM    1  C1  UNL     1     -32.179   8.808   1.515  1.00 20.00     0.013 C 
HETATM    2  C2  UNL     1     -32.567   8.029   2.342  1.00 20.00    -0.104 C 
HETATM    3  C3  UNL     1     -32.721   5.631   3.103  1.00 20.00     0.069 A 
HETATM    4  C4  UNL     1     -33.032   7.093   3.338  1.00 20.00     0.057 A 
HETATM    5  C5  UNL     1     -34.140   6.115   2.956  1.00 20.00     0.133 A 
HETATM    6  C6  UNL     1     -32.926   7.609   4.750  1.00 20.00     0.032 C 
HETATM    7 CL7  UNL     1     -35.316   5.588   4.162  1.00 20.00    -0.100 Cl
HETATM    8 CL8  UNL     1     -34.823   6.133   1.325  1.00 20.00    -0.100 Cl
ENDROOT
TORSDOF 0
ENDMDL
MODEL 7
REMARK VINA RESULT:      -3.6     11.728     12.335
REMARK  0 active torsions:
REMARK  status: ('A' for Active; 'I' for Inactive)
ROOT
HETATM    1  C1  UNL     1     -34.022  16.953  -2.068  1.00 20.00     0.013 C 
HETATM    2  C2  UNL     1     -34.110  16.213  -3.010  1.00 20.00    -0.104 C 
HETATM    3  C3  UNL     1     -34.758  15.910  -5.427  1.00 20.00     0.069 A 
HETATM    4  C4  UNL     1     -34.215  15.324  -4.142  1.00 20.00     0.057 A 
HETATM    5  C5  UNL     1     -35.606  14.944  -4.642  1.00 20.00     0.133 A 
HETATM    6  C6  UNL     1     -33.074  14.345  -4.251  1.00 20.00     0.032 C 
HETATM    7 CL7  UNL     1     -35.896  13.350  -5.342  1.00 20.00    -0.100 Cl
HETATM    8 CL8  UNL     1     -37.048  15.594  -3.850  1.00 20.00    -0.100 Cl
ENDROOT
TORSDOF 0
ENDMDL
MODEL 8
REMARK VINA RESULT:      -3.6     12.120     12.812
REMARK  0 active torsions:
REMARK  status: ('A' for Active; 'I' for Inactive)
ROOT
HETATM    1  C1  UNL     1     -33.688  16.970  -2.206  1.00 20.00     0.013 C 
HETATM    2  C2  UNL     1     -34.343  16.318  -2.972  1.00 20.00    -0.104 C 
HETATM    3  C3  UNL     1     -34.646  14.131  -4.188  1.00 20.00     0.069 A 
HETATM    4  C4  UNL     1     -35.130  15.533  -3.893  1.00 20.00     0.057 A 
HETATM    5  C5  UNL     1     -34.531  15.189  -5.254  1.00 20.00     0.133 A 
HETATM    6  C6  UNL     1     -36.617  15.741  -3.747  1.00 20.00     0.032 C 
HETATM    7 CL7  UNL     1     -35.570  15.042  -6.673  1.00 20.00    -0.100 Cl
HETATM    8 CL8  UNL     1     -32.903  15.736  -5.676  1.00 20.00    -0.100 Cl
ENDROOT
TORSDOF 0
ENDMDL
MODEL 9
REMARK VINA RESULT:      -3.6     12.504     12.979
REMARK  0 active torsions:
REMARK  status: ('A' for Active; 'I' for Inactive)
ROOT
HETATM    1  C1  UNL     1     -35.205  16.530  -2.145  1.00 20.00     0.013 C 
HETATM    2  C2  UNL     1     -34.842  15.898  -3.099  1.00 20.00    -0.104 C 
HETATM    3  C3  UNL     1     -32.912  14.964  -4.425  1.00 20.00     0.069 A 
HETATM    4  C4  UNL     1     -34.404  15.138  -4.246  1.00 20.00     0.057 A 
HETATM    5  C5  UNL     1     -33.666  15.868  -5.364  1.00 20.00     0.133 A 
HETATM    6  C6  UNL     1     -35.287  13.957  -4.561  1.00 20.00     0.032 C 
HETATM    7 CL7  UNL     1     -33.847  15.344  -7.040  1.00 20.00    -0.100 Cl
HETATM    8 CL8  UNL     1     -33.351  17.604  -5.241  1.00 20.00    -0.100 Cl
ENDROOT
TORSDOF 0
ENDMDL
