MODEL 1
REMARK VINA RESULT:      -6.2      0.000      0.000
REMARK  1 active torsions:
REMARK  status: ('A' for Active; 'I' for Inactive)
REMARK    1  A    between atoms: C6_6  and  C10_10 
ROOT
HETATM    1  C1  UNL     1     -32.706   6.014   2.638  1.00 20.00     0.142 A 
HETATM    2  C2  UNL     1     -31.734   9.072   2.898  1.00 20.00     0.006 C 
HETATM    3  C3  UNL     1     -31.735   7.988   3.983  1.00 20.00     0.019 C 
HETATM    4  C4  UNL     1     -33.136   7.291   2.115  1.00 20.00     0.076 A 
HETATM    5  C5  UNL     1     -32.173   8.340   1.616  1.00 20.00    -0.006 C 
HETATM    6  C6  UNL     1     -32.894   7.089   3.600  1.00 20.00     0.034 A 
HETATM    7  C7  UNL     1     -32.792   9.283   0.599  1.00 20.00     0.011 C 
HETATM    8  O11 UNL     1     -33.162   4.893   2.550  1.00 20.00    -0.297 OA
ENDROOT
BRANCH   6   9
HETATM    9  C10 UNL     1     -34.067   7.102   4.534  1.00 20.00    -0.006 C 
HETATM   10  C8  UNL     1     -34.796   5.750   4.542  1.00 20.00     0.011 C 
HETATM   11  C9  UNL     1     -33.646   7.469   5.965  1.00 20.00     0.011 C 
ENDBRANCH   6   9
TORSDOF 1
ENDMDL
MODEL 2
REMARK VINA RESULT:      -5.1     10.777     12.234
REMARK  1 active torsions:
REMARK  status: ('A' for Active; 'I' for Inactive)
REMARK    1  A    between atoms: C6_6  and  C10_10 
ROOT
HETATM    1  C1  UNL     1     -35.682  13.997  -4.868  1.00 20.00     0.142 A 
HETATM    2  C2  UNL     1     -35.766  17.181  -4.408  1.00 20.00     0.006 C 
HETATM    3  C3  UNL     1     -36.044  16.409  -5.704  1.00 20.00     0.019 C 
HETATM    4  C4  UNL     1     -34.926  14.957  -4.097  1.00 20.00     0.076 A 
HETATM    5  C5  UNL     1     -35.572  16.090  -3.338  1.00 20.00    -0.006 C 
HETATM    6  C6  UNL     1     -35.187  15.166  -5.578  1.00 20.00     0.034 A 
HETATM    7  C7  UNL     1     -34.735  16.577  -2.167  1.00 20.00     0.011 C 
HETATM    8  O11 UNL     1     -35.557  12.803  -5.049  1.00 20.00    -0.297 OA
ENDROOT
BRANCH   6   9
HETATM    9  C10 UNL     1     -34.038  15.065  -6.537  1.00 20.00    -0.006 C 
HETATM   10  C8  UNL     1     -34.334  14.069  -7.669  1.00 20.00     0.011 C 
HETATM   11  C9  UNL     1     -33.681  16.435  -7.136  1.00 20.00     0.011 C 
ENDBRANCH   6   9
TORSDOF 1
ENDMDL
MODEL 3
REMARK VINA RESULT:      -5.0      1.272      3.745
REMARK  1 active torsions:
REMARK  status: ('A' for Active; 'I' for Inactive)
REMARK    1  A    between atoms: C6_6  and  C10_10 
ROOT
HETATM    1  C1  UNL     1     -34.539   6.342   2.473  1.00 20.00     0.142 A 
HETATM    2  C2  UNL     1     -34.103   6.794   5.629  1.00 20.00     0.006 C 
HETATM    3  C3  UNL     1     -34.084   7.848   4.516  1.00 20.00     0.019 C 
HETATM    4  C4  UNL     1     -33.903   5.618   3.550  1.00 20.00     0.076 A 
HETATM    5  C5  UNL     1     -34.514   5.488   4.923  1.00 20.00    -0.006 C 
HETATM    6  C6  UNL     1     -33.600   7.084   3.300  1.00 20.00     0.034 A 
HETATM    7  C7  UNL     1     -34.039   4.256   5.673  1.00 20.00     0.011 C 
HETATM    8  O11 UNL     1     -34.613   6.144   1.277  1.00 20.00    -0.297 OA
ENDROOT
BRANCH   6   9
HETATM    9  C10 UNL     1     -32.243   7.466   2.786  1.00 20.00    -0.006 C 
HETATM   10  C8  UNL     1     -32.343   8.380   1.555  1.00 20.00     0.011 C 
HETATM   11  C9  UNL     1     -31.401   8.154   3.873  1.00 20.00     0.011 C 
ENDBRANCH   6   9
TORSDOF 1
ENDMDL
MODEL 4
REMARK VINA RESULT:      -4.9     10.630     11.957
REMARK  1 active torsions:
REMARK  status: ('A' for Active; 'I' for Inactive)
REMARK    1  A    between atoms: C6_6  and  C10_10 
ROOT
HETATM    1  C1  UNL     1     -35.696  13.597  -6.261  1.00 20.00     0.142 A 
HETATM    2  C2  UNL     1     -37.136  16.417  -5.681  1.00 20.00     0.006 C 
HETATM    3  C3  UNL     1     -35.642  16.150  -5.898  1.00 20.00     0.019 C 
HETATM    4  C4  UNL     1     -36.802  14.054  -5.450  1.00 20.00     0.076 A 
HETATM    5  C5  UNL     1     -37.816  15.058  -5.937  1.00 20.00    -0.006 C 
HETATM    6  C6  UNL     1     -35.447  14.735  -5.390  1.00 20.00     0.034 A 
HETATM    7  C7  UNL     1     -39.156  14.944  -5.231  1.00 20.00     0.011 C 
HETATM    8  O11 UNL     1     -35.157  12.517  -6.388  1.00 20.00    -0.297 OA
ENDROOT
BRANCH   6   9
HETATM    9  C10 UNL     1     -34.621  14.596  -4.145  1.00 20.00    -0.006 C 
HETATM   10  C8  UNL     1     -33.131  14.418  -4.474  1.00 20.00     0.011 C 
HETATM   11  C9  UNL     1     -34.802  15.803  -3.211  1.00 20.00     0.011 C 
ENDBRANCH   6   9
TORSDOF 1
ENDMDL
MODEL 5
REMARK VINA RESULT:      -4.9     10.464     12.116
REMARK  1 active torsions:
REMARK  status: ('A' for Active; 'I' for Inactive)
REMARK    1  A    between atoms: C6_6  and  C10_10 
ROOT
HETATM    1  C1  UNL     1     -33.855  14.509  -4.116  1.00 20.00     0.142 A 
HETATM    2  C2  UNL     1     -35.790  16.999  -3.472  1.00 20.00     0.006 C 
HETATM    3  C3  UNL     1     -35.784  16.110  -4.721  1.00 20.00     0.019 C 
HETATM    4  C4  UNL     1     -33.717  15.794  -3.469  1.00 20.00     0.076 A 
HETATM    5  C5  UNL     1     -34.757  16.354  -2.530  1.00 20.00    -0.006 C 
HETATM    6  C6  UNL     1     -34.340  15.669  -4.848  1.00 20.00     0.034 A 
HETATM    7  C7  UNL     1     -34.186  17.351  -1.535  1.00 20.00     0.011 C 
HETATM    8  O11 UNL     1     -33.060  13.632  -4.386  1.00 20.00    -0.297 OA
ENDROOT
BRANCH   6   9
HETATM    9  C10 UNL     1     -33.593  16.211  -6.031  1.00 20.00    -0.006 C 
HETATM   10  C8  UNL     1     -33.786  15.327  -7.273  1.00 20.00     0.011 C 
HETATM   11  C9  UNL     1     -34.016  17.653  -6.354  1.00 20.00     0.011 C 
ENDBRANCH   6   9
TORSDOF 1
ENDMDL
MODEL 6
REMARK VINA RESULT:      -4.9     10.608     11.514
REMARK  1 active torsions:
REMARK  status: ('A' for Active; 'I' for Inactive)
REMARK    1  A    between atoms: C6_6  and  C10_10 
ROOT
HETATM    1  C1  UNL     1     -36.284  16.313  -3.623  1.00 20.00     0.142 A 
HETATM    2  C2  UNL     1     -33.433  17.586  -2.844  1.00 20.00     0.006 C 
HETATM    3  C3  UNL     1     -33.852  16.962  -4.180  1.00 20.00     0.019 C 
HETATM    4  C4  UNL     1     -35.450  16.353  -2.444  1.00 20.00     0.076 A 
HETATM    5  C5  UNL     1     -34.719  17.595  -1.997  1.00 20.00    -0.006 C 
HETATM    6  C6  UNL     1     -34.891  15.930  -3.791  1.00 20.00     0.034 A 
HETATM    7  C7  UNL     1     -34.426  17.612  -0.507  1.00 20.00     0.011 C 
HETATM    8  O11 UNL     1     -37.333  15.755  -3.872  1.00 20.00    -0.297 OA
ENDROOT
BRANCH   6   9
HETATM    9  C10 UNL     1     -34.497  14.497  -3.994  1.00 20.00    -0.006 C 
HETATM   10  C8  UNL     1     -35.319  13.839  -5.113  1.00 20.00     0.011 C 
HETATM   11  C9  UNL     1     -32.999  14.363  -4.309  1.00 20.00     0.011 C 
ENDBRANCH   6   9
TORSDOF 1
ENDMDL
MODEL 7
REMARK VINA RESULT:      -4.8     11.002     11.801
REMARK  1 active torsions:
REMARK  status: ('A' for Active; 'I' for Inactive)
REMARK    1  A    between atoms: C6_6  and  C10_10 
ROOT
HETATM    1  C1  UNL     1     -32.790  18.273  -1.400  1.00 20.00     0.142 A 
HETATM    2  C2  UNL     1     -35.704  17.782  -2.675  1.00 20.00     0.006 C 
HETATM    3  C3  UNL     1     -35.274  18.891  -1.708  1.00 20.00     0.019 C 
HETATM    4  C4  UNL     1     -33.597  17.123  -1.739  1.00 20.00     0.076 A 
HETATM    5  C5  UNL     1     -34.401  17.032  -3.012  1.00 20.00    -0.006 C 
HETATM    6  C6  UNL     1     -34.156  18.260  -0.902  1.00 20.00     0.034 A 
HETATM    7  C7  UNL     1     -34.660  15.602  -3.454  1.00 20.00     0.011 C 
HETATM    8  O11 UNL     1     -31.711  18.390  -0.856  1.00 20.00    -0.297 OA
ENDROOT
BRANCH   6   9
HETATM    9  C10 UNL     1     -34.454  18.013   0.547  1.00 20.00    -0.006 C 
HETATM   10  C8  UNL     1     -34.105  19.235   1.411  1.00 20.00     0.011 C 
HETATM   11  C9  UNL     1     -35.928  17.634   0.764  1.00 20.00     0.011 C 
ENDBRANCH   6   9
TORSDOF 1
ENDMDL
MODEL 8
REMARK VINA RESULT:      -4.7     10.697     11.861
REMARK  1 active torsions:
REMARK  status: ('A' for Active; 'I' for Inactive)
REMARK    1  A    between atoms: C6_6  and  C10_10 
ROOT
HETATM    1  C1  UNL     1     -36.769  13.992  -5.071  1.00 20.00     0.142 A 
HETATM    2  C2  UNL     1     -33.599  14.449  -5.393  1.00 20.00     0.006 C 
HETATM    3  C3  UNL     1     -34.438  14.540  -4.113  1.00 20.00     0.019 C 
HETATM    4  C4  UNL     1     -35.897  14.577  -6.065  1.00 20.00     0.076 A 
HETATM    5  C5  UNL     1     -34.584  13.955  -6.470  1.00 20.00    -0.006 C 
HETATM    6  C6  UNL     1     -35.804  14.976  -4.603  1.00 20.00     0.034 A 
HETATM    7  C7  UNL     1     -34.146  14.347  -7.871  1.00 20.00     0.011 C 
HETATM    8  O11 UNL     1     -37.976  13.908  -4.981  1.00 20.00    -0.297 OA
ENDROOT
BRANCH   6   9
HETATM    9  C10 UNL     1     -36.233  16.356  -4.201  1.00 20.00    -0.006 C 
HETATM   10  C8  UNL     1     -35.981  16.611  -2.707  1.00 20.00     0.011 C 
HETATM   11  C9  UNL     1     -35.522  17.433  -5.035  1.00 20.00     0.011 C 
ENDBRANCH   6   9
TORSDOF 1
ENDMDL
MODEL 9
REMARK VINA RESULT:      -4.7     10.361     12.498
REMARK  1 active torsions:
REMARK  status: ('A' for Active; 'I' for Inactive)
REMARK    1  A    between atoms: C6_6  and  C10_10 
ROOT
HETATM    1  C1  UNL     1     -35.594  13.621  -6.059  1.00 20.00     0.142 A 
HETATM    2  C2  UNL     1     -34.760  16.112  -7.918  1.00 20.00     0.006 C 
HETATM    3  C3  UNL     1     -33.835  15.126  -7.194  1.00 20.00     0.019 C 
HETATM    4  C4  UNL     1     -36.094  14.956  -6.296  1.00 20.00     0.076 A 
HETATM    5  C5  UNL     1     -36.180  15.567  -7.673  1.00 20.00    -0.006 C 
HETATM    6  C6  UNL     1     -34.632  14.708  -5.974  1.00 20.00     0.034 A 
HETATM    7  C7  UNL     1     -37.238  16.652  -7.779  1.00 20.00     0.011 C 
HETATM    8  O11 UNL     1     -35.922  12.743  -5.287  1.00 20.00    -0.297 OA
ENDROOT
BRANCH   6   9
HETATM    9  C10 UNL     1     -34.093  15.170  -4.653  1.00 20.00    -0.006 C 
HETATM   10  C8  UNL     1     -32.931  14.283  -4.177  1.00 20.00     0.011 C 
HETATM   11  C9  UNL     1     -33.632  16.635  -4.712  1.00 20.00     0.011 C 
ENDBRANCH   6   9
TORSDOF 1
ENDMDL
