MODEL 1
REMARK VINA RESULT:      -6.6      0.000      0.000
REMARK  0 active torsions:
REMARK  status: ('A' for Active; 'I' for Inactive)
ROOT
HETATM    1  C1  UNL     1     -32.168   7.734   2.302  1.00 20.00     0.021 A 
HETATM    2  C2  UNL     1     -33.260   6.771   2.478  1.00 20.00     0.029 A 
HETATM    3  C3  UNL     1     -34.655   4.671   5.000  1.00 20.00     0.025 A 
HETATM    4  C4  UNL     1     -31.686   8.388   3.380  1.00 20.00     0.107 A 
HETATM    5  C5  UNL     1     -33.895   6.878   5.957  1.00 20.00     0.101 C 
HETATM    6  C6  UNL     1     -34.776   5.762   4.268  1.00 20.00     0.038 A 
HETATM    7  C7  UNL     1     -34.792   5.878   5.766  1.00 20.00     0.028 A 
HETATM    8  C8  UNL     1     -33.699   6.565   3.731  1.00 20.00     0.044 A 
HETATM    9  N9  UNL     1     -32.189   8.162   4.648  1.00 20.00    -0.306 N 
HETATM   10  N10 UNL     1     -33.164   7.234   4.834  1.00 20.00    -0.274 N 
HETATM   11  H16 UNL     1     -31.764   8.627   5.442  1.00 20.00     0.186 HD
ENDROOT
TORSDOF 0
ENDMDL
MODEL 2
REMARK VINA RESULT:      -6.1      0.744      3.466
REMARK  0 active torsions:
REMARK  status: ('A' for Active; 'I' for Inactive)
ROOT
HETATM    1  C1  UNL     1     -34.835   5.717   4.763  1.00 20.00     0.021 A 
HETATM    2  C2  UNL     1     -34.306   6.004   3.425  1.00 20.00     0.029 A 
HETATM    3  C3  UNL     1     -32.592   8.596   1.677  1.00 20.00     0.025 A 
HETATM    4  C4  UNL     1     -34.299   6.344   5.832  1.00 20.00     0.107 A 
HETATM    5  C5  UNL     1     -31.752   8.372   4.045  1.00 20.00     0.101 C 
HETATM    6  C6  UNL     1     -32.535   7.398   2.225  1.00 20.00     0.038 A 
HETATM    7  C7  UNL     1     -31.593   8.468   2.701  1.00 20.00     0.028 A 
HETATM    8  C8  UNL     1     -33.326   6.919   3.338  1.00 20.00     0.044 A 
HETATM    9  N9  UNL     1     -33.272   7.259   5.694  1.00 20.00    -0.306 N 
HETATM   10  N10 UNL     1     -32.808   7.575   4.457  1.00 20.00    -0.274 N 
HETATM   11  H16 UNL     1     -32.934   7.753   6.511  1.00 20.00     0.186 HD
ENDROOT
TORSDOF 0
ENDMDL
MODEL 3
REMARK VINA RESULT:      -5.8      1.188      3.872
REMARK  0 active torsions:
REMARK  status: ('A' for Active; 'I' for Inactive)
ROOT
HETATM    1  C1  UNL     1     -34.593   5.595   5.944  1.00 20.00     0.021 A 
HETATM    2  C2  UNL     1     -33.944   6.878   5.654  1.00 20.00     0.029 A 
HETATM    3  C3  UNL     1     -31.528   8.260   3.426  1.00 20.00     0.025 A 
HETATM    4  C4  UNL     1     -34.682   4.666   4.969  1.00 20.00     0.107 A 
HETATM    5  C5  UNL     1     -32.987   6.563   2.262  1.00 20.00     0.101 C 
HETATM    6  C6  UNL     1     -32.797   8.165   3.770  1.00 20.00     0.038 A 
HETATM    7  C7  UNL     1     -32.382   7.772   2.380  1.00 20.00     0.028 A 
HETATM    8  C8  UNL     1     -33.433   7.040   4.421  1.00 20.00     0.044 A 
HETATM    9  N9  UNL     1     -34.163   4.890   3.706  1.00 20.00    -0.306 N 
HETATM   10  N10 UNL     1     -33.512   6.052   3.438  1.00 20.00    -0.274 N 
HETATM   11  H16 UNL     1     -34.196   4.148   3.017  1.00 20.00     0.186 HD
ENDROOT
TORSDOF 0
ENDMDL
MODEL 4
REMARK VINA RESULT:      -4.4      1.297      2.052
REMARK  0 active torsions:
REMARK  status: ('A' for Active; 'I' for Inactive)
ROOT
HETATM    1  C1  UNL     1     -31.765   8.625   2.640  1.00 20.00     0.021 A 
HETATM    2  C2  UNL     1     -31.965   8.215   4.034  1.00 20.00     0.029 A 
HETATM    3  C3  UNL     1     -34.483   6.781   6.113  1.00 20.00     0.025 A 
HETATM    4  C4  UNL     1     -32.503   8.044   1.670  1.00 20.00     0.107 A 
HETATM    5  C5  UNL     1     -34.496   5.752   3.809  1.00 20.00     0.101 C 
HETATM    6  C6  UNL     1     -33.338   6.618   5.478  1.00 20.00     0.038 A 
HETATM    7  C7  UNL     1     -34.487   5.702   5.165  1.00 20.00     0.028 A 
HETATM    8  C8  UNL     1     -32.916   7.295   4.272  1.00 20.00     0.044 A 
HETATM    9  N9  UNL     1     -33.452   7.081   1.961  1.00 20.00    -0.306 N 
HETATM   10  N10 UNL     1     -33.685   6.730   3.253  1.00 20.00    -0.274 N 
HETATM   11  H16 UNL     1     -34.027   6.709   1.215  1.00 20.00     0.186 HD
ENDROOT
TORSDOF 0
ENDMDL
MODEL 5
REMARK VINA RESULT:      -4.4     11.764     12.256
REMARK  0 active torsions:
REMARK  status: ('A' for Active; 'I' for Inactive)
ROOT
HETATM    1  C1  UNL     1     -37.089  14.064  -5.164  1.00 20.00     0.021 A 
HETATM    2  C2  UNL     1     -37.101  15.264  -4.320  1.00 20.00     0.029 A 
HETATM    3  C3  UNL     1     -35.210  16.758  -1.692  1.00 20.00     0.025 A 
HETATM    4  C4  UNL     1     -35.921  13.425  -5.384  1.00 20.00     0.107 A 
HETATM    5  C5  UNL     1     -33.709  15.639  -3.383  1.00 20.00     0.101 C 
HETATM    6  C6  UNL     1     -35.554  16.778  -2.965  1.00 20.00     0.038 A 
HETATM    7  C7  UNL     1     -34.100  16.676  -2.600  1.00 20.00     0.028 A 
HETATM    8  C8  UNL     1     -35.931  15.640  -3.775  1.00 20.00     0.044 A 
HETATM    9  N9  UNL     1     -34.737  13.867  -4.823  1.00 20.00    -0.306 N 
HETATM   10  N10 UNL     1     -34.741  14.944  -3.996  1.00 20.00    -0.274 N 
HETATM   11  H16 UNL     1     -33.890  13.329  -4.963  1.00 20.00     0.186 HD
ENDROOT
TORSDOF 0
ENDMDL
MODEL 6
REMARK VINA RESULT:      -4.3     11.785     12.342
REMARK  0 active torsions:
REMARK  status: ('A' for Active; 'I' for Inactive)
ROOT
HETATM    1  C1  UNL     1     -34.446  17.633  -1.037  1.00 20.00     0.021 A 
HETATM    2  C2  UNL     1     -33.498  17.097  -2.020  1.00 20.00     0.029 A 
HETATM    3  C3  UNL     1     -33.249  14.447  -4.393  1.00 20.00     0.025 A 
HETATM    4  C4  UNL     1     -35.765  17.397  -1.197  1.00 20.00     0.107 A 
HETATM    5  C5  UNL     1     -35.581  15.406  -4.328  1.00 20.00     0.101 C 
HETATM    6  C6  UNL     1     -33.403  15.740  -4.181  1.00 20.00     0.038 A 
HETATM    7  C7  UNL     1     -34.451  14.993  -4.957  1.00 20.00     0.028 A 
HETATM    8  C8  UNL     1     -34.007  16.358  -3.021  1.00 20.00     0.044 A 
HETATM    9  N9  UNL     1     -36.244  16.652  -2.260  1.00 20.00    -0.306 N 
HETATM   10  N10 UNL     1     -35.375  16.105  -3.149  1.00 20.00    -0.274 N 
HETATM   11  H16 UNL     1     -37.234  16.447  -2.316  1.00 20.00     0.186 HD
ENDROOT
TORSDOF 0
ENDMDL
MODEL 7
REMARK VINA RESULT:      -4.3     12.059     12.901
REMARK  0 active torsions:
REMARK  status: ('A' for Active; 'I' for Inactive)
ROOT
HETATM    1  C1  UNL     1     -36.175  14.025  -7.226  1.00 20.00     0.021 A 
HETATM    2  C2  UNL     1     -36.245  15.094  -6.225  1.00 20.00     0.029 A 
HETATM    3  C3  UNL     1     -34.839  15.953  -3.062  1.00 20.00     0.025 A 
HETATM    4  C4  UNL     1     -35.064  13.261  -7.300  1.00 20.00     0.107 A 
HETATM    5  C5  UNL     1     -33.129  14.864  -4.564  1.00 20.00     0.101 C 
HETATM    6  C6  UNL     1     -34.885  16.186  -4.360  1.00 20.00     0.038 A 
HETATM    7  C7  UNL     1     -33.570  15.835  -3.724  1.00 20.00     0.028 A 
HETATM    8  C8  UNL     1     -35.193  15.228  -5.399  1.00 20.00     0.044 A 
HETATM    9  N9  UNL     1     -33.995  13.456  -6.444  1.00 20.00    -0.306 N 
HETATM   10  N10 UNL     1     -34.066  14.407  -5.477  1.00 20.00    -0.274 N 
HETATM   11  H16 UNL     1     -33.202  12.827  -6.490  1.00 20.00     0.186 HD
ENDROOT
TORSDOF 0
ENDMDL
MODEL 8
REMARK VINA RESULT:      -4.2     11.996     13.057
REMARK  0 active torsions:
REMARK  status: ('A' for Active; 'I' for Inactive)
ROOT
HETATM    1  C1  UNL     1     -33.422  18.275  -2.678  1.00 20.00     0.021 A 
HETATM    2  C2  UNL     1     -33.689  16.837  -2.570  1.00 20.00     0.029 A 
HETATM    3  C3  UNL     1     -34.929  14.145  -4.552  1.00 20.00     0.025 A 
HETATM    4  C4  UNL     1     -33.187  18.812  -3.895  1.00 20.00     0.107 A 
HETATM    5  C5  UNL     1     -33.506  15.715  -5.921  1.00 20.00     0.101 C 
HETATM    6  C6  UNL     1     -33.886  14.721  -3.986  1.00 20.00     0.038 A 
HETATM    7  C7  UNL     1     -33.881  14.491  -5.471  1.00 20.00     0.028 A 
HETATM    8  C8  UNL     1     -33.723  16.132  -3.714  1.00 20.00     0.044 A 
HETATM    9  N9  UNL     1     -33.206  18.040  -5.042  1.00 20.00    -0.306 N 
HETATM   10  N10 UNL     1     -33.505  16.718  -4.964  1.00 20.00    -0.274 N 
HETATM   11  H16 UNL     1     -33.083  18.487  -5.943  1.00 20.00     0.186 HD
ENDROOT
TORSDOF 0
ENDMDL
MODEL 9
REMARK VINA RESULT:      -4.2     11.853     12.499
REMARK  0 active torsions:
REMARK  status: ('A' for Active; 'I' for Inactive)
ROOT
HETATM    1  C1  UNL     1     -37.740  14.110  -5.278  1.00 20.00     0.021 A 
HETATM    2  C2  UNL     1     -36.300  13.827  -5.279  1.00 20.00     0.029 A 
HETATM    3  C3  UNL     1     -33.202  15.482  -4.661  1.00 20.00     0.025 A 
HETATM    4  C4  UNL     1     -38.212  15.119  -4.515  1.00 20.00     0.107 A 
HETATM    5  C5  UNL     1     -34.989  16.243  -3.051  1.00 20.00     0.101 C 
HETATM    6  C6  UNL     1     -34.101  14.611  -4.244  1.00 20.00     0.038 A 
HETATM    7  C7  UNL     1     -33.753  15.782  -3.369  1.00 20.00     0.028 A 
HETATM    8  C8  UNL     1     -35.518  14.628  -4.534  1.00 20.00     0.044 A 
HETATM    9  N9  UNL     1     -37.370  15.899  -3.743  1.00 20.00    -0.306 N 
HETATM   10  N10 UNL     1     -36.030  15.683  -3.775  1.00 20.00    -0.274 N 
HETATM   11  H16 UNL     1     -37.753  16.683  -3.229  1.00 20.00     0.186 HD
ENDROOT
TORSDOF 0
ENDMDL
