MODEL 1
REMARK VINA RESULT:      -5.4      0.000      0.000
REMARK  0 active torsions:
REMARK  status: ('A' for Active; 'I' for Inactive)
ROOT
HETATM    1  C1  UNL     1     -33.221   6.244   3.082  1.00 20.00    -0.064 A 
HETATM    2  C2  UNL     1     -33.033   5.005   2.689  1.00 20.00     0.016 C 
HETATM    3  C3  UNL     1     -31.511   8.159   3.149  1.00 20.00     0.017 A 
HETATM    4  C4  UNL     1     -32.441   8.401   1.934  1.00 20.00     0.017 A 
HETATM    5  C5  UNL     1     -34.011   7.158   3.857  1.00 20.00     0.099 A 
HETATM    6  C6  UNL     1     -32.833   7.574   3.058  1.00 20.00     0.000 A 
HETATM    7 BR7  UNL     1     -33.845   7.040   5.746  1.00 20.00    -0.085 Br
ENDROOT
TORSDOF 0
ENDMDL
MODEL 2
REMARK VINA RESULT:      -4.7      1.988      3.325
REMARK  0 active torsions:
REMARK  status: ('A' for Active; 'I' for Inactive)
ROOT
HETATM    1  C1  UNL     1     -33.715   7.231   4.861  1.00 20.00    -0.064 A 
HETATM    2  C2  UNL     1     -33.487   7.479   6.130  1.00 20.00     0.016 C 
HETATM    3  C3  UNL     1     -33.945   4.945   3.713  1.00 20.00     0.017 A 
HETATM    4  C4  UNL     1     -35.366   5.546   3.853  1.00 20.00     0.017 A 
HETATM    5  C5  UNL     1     -33.656   7.707   3.508  1.00 20.00     0.099 A 
HETATM    6  C6  UNL     1     -34.170   6.366   3.878  1.00 20.00     0.000 A 
HETATM    7 BR7  UNL     1     -31.930   7.844   2.727  1.00 20.00    -0.085 Br
ENDROOT
TORSDOF 0
ENDMDL
MODEL 3
REMARK VINA RESULT:      -4.1      1.959      3.057
REMARK  0 active torsions:
REMARK  status: ('A' for Active; 'I' for Inactive)
ROOT
HETATM    1  C1  UNL     1     -33.130   5.421   2.949  1.00 20.00    -0.064 A 
HETATM    2  C2  UNL     1     -32.817   4.379   2.213  1.00 20.00     0.016 C 
HETATM    3  C3  UNL     1     -35.459   6.154   3.744  1.00 20.00     0.017 A 
HETATM    4  C4  UNL     1     -34.729   5.516   4.952  1.00 20.00     0.017 A 
HETATM    5  C5  UNL     1     -32.753   6.723   3.420  1.00 20.00     0.099 A 
HETATM    6  C6  UNL     1     -34.016   6.051   3.808  1.00 20.00     0.000 A 
HETATM    7 BR7  UNL     1     -32.817   8.139   2.155  1.00 20.00    -0.085 Br
ENDROOT
TORSDOF 0
ENDMDL
MODEL 4
REMARK VINA RESULT:      -4.1      1.432      1.906
REMARK  0 active torsions:
REMARK  status: ('A' for Active; 'I' for Inactive)
ROOT
HETATM    1  C1  UNL     1     -34.253   5.176   4.198  1.00 20.00    -0.064 A 
HETATM    2  C2  UNL     1     -34.239   3.896   4.492  1.00 20.00     0.016 C 
HETATM    3  C3  UNL     1     -32.656   6.460   2.650  1.00 20.00     0.017 A 
HETATM    4  C4  UNL     1     -33.993   6.268   1.892  1.00 20.00     0.017 A 
HETATM    5  C5  UNL     1     -34.668   6.497   4.575  1.00 20.00     0.099 A 
HETATM    6  C6  UNL     1     -33.906   6.205   3.337  1.00 20.00     0.000 A 
HETATM    7 BR7  UNL     1     -33.763   7.287   6.046  1.00 20.00    -0.085 Br
ENDROOT
TORSDOF 0
ENDMDL
MODEL 5
REMARK VINA RESULT:      -3.8      2.270      3.441
REMARK  0 active torsions:
REMARK  status: ('A' for Active; 'I' for Inactive)
ROOT
HETATM    1  C1  UNL     1     -34.963   6.124   3.538  1.00 20.00    -0.064 A 
HETATM    2  C2  UNL     1     -36.139   6.369   3.007  1.00 20.00     0.016 C 
HETATM    3  C3  UNL     1     -34.210   6.514   5.962  1.00 20.00     0.017 A 
HETATM    4  C4  UNL     1     -34.449   4.994   5.782  1.00 20.00     0.017 A 
HETATM    5  C5  UNL     1     -33.559   5.919   3.320  1.00 20.00     0.099 A 
HETATM    6  C6  UNL     1     -34.191   5.876   4.661  1.00 20.00     0.000 A 
HETATM    7 BR7  UNL     1     -32.540   7.447   2.834  1.00 20.00    -0.085 Br
ENDROOT
TORSDOF 0
ENDMDL
MODEL 6
REMARK VINA RESULT:      -3.5      1.583      2.585
REMARK  0 active torsions:
REMARK  status: ('A' for Active; 'I' for Inactive)
ROOT
HETATM    1  C1  UNL     1     -31.887   8.115   3.200  1.00 20.00    -0.064 A 
HETATM    2  C2  UNL     1     -31.354   8.647   4.276  1.00 20.00     0.016 C 
HETATM    3  C3  UNL     1     -32.996   9.322   1.223  1.00 20.00     0.017 A 
HETATM    4  C4  UNL     1     -31.593   8.856   0.762  1.00 20.00     0.017 A 
HETATM    5  C5  UNL     1     -32.464   6.953   2.587  1.00 20.00     0.099 A 
HETATM    6  C6  UNL     1     -32.285   8.244   1.879  1.00 20.00     0.000 A 
HETATM    7 BR7  UNL     1     -34.203   6.458   3.168  1.00 20.00    -0.085 Br
ENDROOT
TORSDOF 0
ENDMDL
MODEL 7
REMARK VINA RESULT:      -3.5      1.598      2.330
REMARK  0 active torsions:
REMARK  status: ('A' for Active; 'I' for Inactive)
ROOT
HETATM    1  C1  UNL     1     -33.286   7.237   4.827  1.00 20.00    -0.064 A 
HETATM    2  C2  UNL     1     -33.375   7.769   6.024  1.00 20.00     0.016 C 
HETATM    3  C3  UNL     1     -33.024   8.443   2.575  1.00 20.00     0.017 A 
HETATM    4  C4  UNL     1     -31.647   7.840   2.949  1.00 20.00     0.017 A 
HETATM    5  C5  UNL     1     -33.547   6.102   3.988  1.00 20.00     0.099 A 
HETATM    6  C6  UNL     1     -32.890   7.339   3.503  1.00 20.00     0.000 A 
HETATM    7 BR7  UNL     1     -35.360   5.782   3.524  1.00 20.00    -0.085 Br
ENDROOT
TORSDOF 0
ENDMDL
MODEL 8
REMARK VINA RESULT:      -3.5      1.862      2.999
REMARK  0 active torsions:
REMARK  status: ('A' for Active; 'I' for Inactive)
ROOT
HETATM    1  C1  UNL     1     -32.620   7.479   3.534  1.00 20.00    -0.064 A 
HETATM    2  C2  UNL     1     -31.542   8.170   3.242  1.00 20.00     0.016 C 
HETATM    3  C3  UNL     1     -33.346   6.573   5.825  1.00 20.00     0.017 A 
HETATM    4  C4  UNL     1     -34.223   7.810   5.509  1.00 20.00     0.017 A 
HETATM    5  C5  UNL     1     -33.670   6.624   3.060  1.00 20.00     0.099 A 
HETATM    6  C6  UNL     1     -33.546   7.054   4.473  1.00 20.00     0.000 A 
HETATM    7 BR7  UNL     1     -33.181   4.849   2.593  1.00 20.00    -0.085 Br
ENDROOT
TORSDOF 0
ENDMDL
MODEL 9
REMARK VINA RESULT:      -3.4      2.331      3.374
REMARK  0 active torsions:
REMARK  status: ('A' for Active; 'I' for Inactive)
ROOT
HETATM    1  C1  UNL     1     -32.090   8.085   3.156  1.00 20.00    -0.064 A 
HETATM    2  C2  UNL     1     -31.114   8.345   3.995  1.00 20.00     0.016 C 
HETATM    3  C3  UNL     1     -32.978   5.789   2.424  1.00 20.00     0.017 A 
HETATM    4  C4  UNL     1     -33.995   6.390   3.426  1.00 20.00     0.017 A 
HETATM    5  C5  UNL     1     -32.901   8.550   2.067  1.00 20.00     0.099 A 
HETATM    6  C6  UNL     1     -33.058   7.212   2.686  1.00 20.00     0.000 A 
HETATM    7 BR7  UNL     1     -32.057   8.684   0.371  1.00 20.00    -0.085 Br
ENDROOT
TORSDOF 0
ENDMDL
