MODEL 1
REMARK VINA RESULT:      -5.0      0.000      0.000
REMARK  1 active torsions:
REMARK  status: ('A' for Active; 'I' for Inactive)
REMARK    1  A    between atoms: C2_2  and  C12_12 
ROOT
HETATM    1  C1  UNL     1     -35.974  16.378  -2.802  1.00 20.00    -0.023 C 
HETATM    2  C2  UNL     1     -34.637  16.444  -2.644  1.00 20.00    -0.075 C 
HETATM    3  C3  UNL     1     -36.579  15.709  -4.020  1.00 20.00     0.033 C 
HETATM    4  C4  UNL     1     -34.416  14.372  -4.065  1.00 20.00     0.015 C 
HETATM    5  C5  UNL     1     -33.819  15.788  -3.727  1.00 20.00     0.023 C 
HETATM    6  C6  UNL     1     -35.448  15.177  -4.924  1.00 20.00    -0.002 C 
HETATM    7  C7  UNL     1     -34.257  16.197  -5.204  1.00 20.00    -0.036 C 
HETATM    8  C8  UNL     1     -34.631  17.661  -5.469  1.00 20.00     0.016 C 
HETATM    9  C9  UNL     1     -33.275  15.766  -6.313  1.00 20.00     0.016 C 
ENDROOT
BRANCH   2  10
HETATM   10  C12 UNL     1     -33.940  17.094  -1.499  1.00 20.00     0.006 C 
HETATM   11  C10 UNL     1     -33.022  18.211  -1.993  1.00 20.00     0.014 C 
HETATM   12  C11 UNL     1     -34.943  17.634  -0.479  1.00 20.00     0.014 C 
ENDBRANCH   2  10
TORSDOF 1
ENDMDL
MODEL 2
REMARK VINA RESULT:      -4.8      1.032      2.251
REMARK  1 active torsions:
REMARK  status: ('A' for Active; 'I' for Inactive)
REMARK    1  A    between atoms: C2_2  and  C12_12 
ROOT
HETATM    1  C1  UNL     1     -33.537  17.602  -3.849  1.00 20.00    -0.023 C 
HETATM    2  C2  UNL     1     -34.189  16.915  -2.890  1.00 20.00    -0.075 C 
HETATM    3  C3  UNL     1     -33.792  17.319  -5.316  1.00 20.00     0.033 C 
HETATM    4  C4  UNL     1     -36.074  16.525  -4.519  1.00 20.00     0.015 C 
HETATM    5  C5  UNL     1     -35.187  15.898  -3.380  1.00 20.00     0.023 C 
HETATM    6  C6  UNL     1     -34.852  16.204  -5.442  1.00 20.00    -0.002 C 
HETATM    7  C7  UNL     1     -34.621  14.931  -4.514  1.00 20.00    -0.036 C 
HETATM    8  C8  UNL     1     -33.183  14.414  -4.371  1.00 20.00     0.016 C 
HETATM    9  C9  UNL     1     -35.516  13.717  -4.835  1.00 20.00     0.016 C 
ENDROOT
BRANCH   2  10
HETATM   10  C12 UNL     1     -33.998  17.098  -1.423  1.00 20.00     0.006 C 
HETATM   11  C10 UNL     1     -33.031  18.249  -1.147  1.00 20.00     0.014 C 
HETATM   12  C11 UNL     1     -35.335  17.339  -0.721  1.00 20.00     0.014 C 
ENDBRANCH   2  10
TORSDOF 1
ENDMDL
MODEL 3
REMARK VINA RESULT:      -4.6      1.164      4.255
REMARK  1 active torsions:
REMARK  status: ('A' for Active; 'I' for Inactive)
REMARK    1  A    between atoms: C2_2  and  C12_12 
ROOT
HETATM    1  C1  UNL     1     -33.656  17.961  -4.328  1.00 20.00    -0.023 C 
HETATM    2  C2  UNL     1     -33.597  16.750  -3.739  1.00 20.00    -0.075 C 
HETATM    3  C3  UNL     1     -33.953  19.205  -3.514  1.00 20.00     0.033 C 
HETATM    4  C4  UNL     1     -32.964  17.884  -1.578  1.00 20.00     0.015 C 
HETATM    5  C5  UNL     1     -33.809  16.738  -2.247  1.00 20.00     0.023 C 
HETATM    6  C6  UNL     1     -34.139  18.812  -2.033  1.00 20.00    -0.002 C 
HETATM    7  C7  UNL     1     -35.089  17.561  -1.770  1.00 20.00    -0.036 C 
HETATM    8  C8  UNL     1     -36.369  17.458  -2.610  1.00 20.00     0.016 C 
HETATM    9  C9  UNL     1     -35.487  17.341  -0.296  1.00 20.00     0.016 C 
ENDROOT
BRANCH   2  10
HETATM   10  C12 UNL     1     -33.334  15.465  -4.446  1.00 20.00     0.006 C 
HETATM   11  C10 UNL     1     -34.420  14.440  -4.121  1.00 20.00     0.014 C 
HETATM   12  C11 UNL     1     -33.232  15.679  -5.957  1.00 20.00     0.014 C 
ENDBRANCH   2  10
TORSDOF 1
ENDMDL
MODEL 4
REMARK VINA RESULT:      -4.6      1.064      2.578
REMARK  1 active torsions:
REMARK  status: ('A' for Active; 'I' for Inactive)
REMARK    1  A    between atoms: C2_2  and  C12_12 
ROOT
HETATM    1  C1  UNL     1     -33.448  16.655  -4.451  1.00 20.00    -0.023 C 
HETATM    2  C2  UNL     1     -34.323  16.599  -3.426  1.00 20.00    -0.075 C 
HETATM    3  C3  UNL     1     -33.896  16.368  -5.869  1.00 20.00     0.033 C 
HETATM    4  C4  UNL     1     -36.181  17.124  -5.048  1.00 20.00     0.015 C 
HETATM    5  C5  UNL     1     -35.745  16.270  -3.800  1.00 20.00     0.023 C 
HETATM    6  C6  UNL     1     -35.405  16.043  -5.872  1.00 20.00    -0.002 C 
HETATM    7  C7  UNL     1     -35.885  15.006  -4.762  1.00 20.00    -0.036 C 
HETATM    8  C8  UNL     1     -34.984  13.792  -4.496  1.00 20.00     0.016 C 
HETATM    9  C9  UNL     1     -37.324  14.482  -4.937  1.00 20.00     0.016 C 
ENDROOT
BRANCH   2  10
HETATM   10  C12 UNL     1     -33.985  16.843  -1.996  1.00 20.00     0.006 C 
HETATM   11  C10 UNL     1     -33.062  18.053  -1.860  1.00 20.00     0.014 C 
HETATM   12  C11 UNL     1     -35.249  17.034  -1.157  1.00 20.00     0.014 C 
ENDBRANCH   2  10
TORSDOF 1
ENDMDL
MODEL 5
REMARK VINA RESULT:      -4.6      1.365      4.048
REMARK  1 active torsions:
REMARK  status: ('A' for Active; 'I' for Inactive)
REMARK    1  A    between atoms: C2_2  and  C12_12 
ROOT
HETATM    1  C1  UNL     1     -35.725  16.748  -3.966  1.00 20.00    -0.023 C 
HETATM    2  C2  UNL     1     -34.648  16.055  -3.546  1.00 20.00    -0.075 C 
HETATM    3  C3  UNL     1     -35.905  18.205  -3.591  1.00 20.00     0.033 C 
HETATM    4  C4  UNL     1     -33.368  18.224  -3.408  1.00 20.00     0.015 C 
HETATM    5  C5  UNL     1     -33.650  16.834  -2.727  1.00 20.00     0.023 C 
HETATM    6  C6  UNL     1     -34.709  18.661  -2.729  1.00 20.00    -0.002 C 
HETATM    7  C7  UNL     1     -34.304  17.677  -1.543  1.00 20.00    -0.036 C 
HETATM    8  C8  UNL     1     -35.443  17.034  -0.741  1.00 20.00     0.016 C 
HETATM    9  C9  UNL     1     -33.297  18.257  -0.528  1.00 20.00     0.016 C 
ENDROOT
BRANCH   2  10
HETATM   10  C12 UNL     1     -34.384  14.618  -3.839  1.00 20.00     0.006 C 
HETATM   11  C10 UNL     1     -35.462  14.052  -4.763  1.00 20.00     0.014 C 
HETATM   12  C11 UNL     1     -32.996  14.427  -4.451  1.00 20.00     0.014 C 
ENDBRANCH   2  10
TORSDOF 1
ENDMDL
MODEL 6
REMARK VINA RESULT:      -4.5      1.112      1.845
REMARK  1 active torsions:
REMARK  status: ('A' for Active; 'I' for Inactive)
REMARK    1  A    between atoms: C2_2  and  C12_12 
ROOT
HETATM    1  C1  UNL     1     -34.659  14.751  -3.767  1.00 20.00    -0.023 C 
HETATM    2  C2  UNL     1     -34.193  16.006  -3.615  1.00 20.00    -0.075 C 
HETATM    3  C3  UNL     1     -34.890  14.171  -5.148  1.00 20.00     0.033 C 
HETATM    4  C4  UNL     1     -33.098  15.822  -5.879  1.00 20.00     0.015 C 
HETATM    5  C5  UNL     1     -33.896  16.751  -4.891  1.00 20.00     0.023 C 
HETATM    6  C6  UNL     1     -34.504  15.221  -6.212  1.00 20.00    -0.002 C 
HETATM    7  C7  UNL     1     -35.072  16.688  -5.965  1.00 20.00    -0.036 C 
HETATM    8  C8  UNL     1     -36.517  16.809  -5.462  1.00 20.00     0.016 C 
HETATM    9  C9  UNL     1     -34.916  17.658  -7.154  1.00 20.00     0.016 C 
ENDROOT
BRANCH   2  10
HETATM   10  C12 UNL     1     -33.951  16.678  -2.307  1.00 20.00     0.006 C 
HETATM   11  C10 UNL     1     -33.245  18.018  -2.514  1.00 20.00     0.014 C 
HETATM   12  C11 UNL     1     -35.258  16.872  -1.538  1.00 20.00     0.014 C 
ENDBRANCH   2  10
TORSDOF 1
ENDMDL
MODEL 7
REMARK VINA RESULT:      -4.4      1.501      4.284
REMARK  1 active torsions:
REMARK  status: ('A' for Active; 'I' for Inactive)
REMARK    1  A    between atoms: C2_2  and  C12_12 
ROOT
HETATM    1  C1  UNL     1     -33.320  17.042  -2.260  1.00 20.00    -0.023 C 
HETATM    2  C2  UNL     1     -34.474  16.431  -2.599  1.00 20.00    -0.075 C 
HETATM    3  C3  UNL     1     -33.315  18.205  -1.289  1.00 20.00     0.033 C 
HETATM    4  C4  UNL     1     -35.450  17.155  -0.390  1.00 20.00     0.015 C 
HETATM    5  C5  UNL     1     -35.714  16.963  -1.929  1.00 20.00     0.023 C 
HETATM    6  C6  UNL     1     -34.760  18.490  -0.827  1.00 20.00    -0.002 C 
HETATM    7  C7  UNL     1     -35.851  18.550  -1.986  1.00 20.00    -0.036 C 
HETATM    8  C8  UNL     1     -35.459  19.263  -3.287  1.00 20.00     0.016 C 
HETATM    9  C9  UNL     1     -37.228  19.097  -1.558  1.00 20.00     0.016 C 
ENDROOT
BRANCH   2  10
HETATM   10  C12 UNL     1     -34.594  15.296  -3.557  1.00 20.00     0.006 C 
HETATM   11  C10 UNL     1     -35.835  15.461  -4.433  1.00 20.00     0.014 C 
HETATM   12  C11 UNL     1     -33.338  15.169  -4.420  1.00 20.00     0.014 C 
ENDBRANCH   2  10
TORSDOF 1
ENDMDL
MODEL 8
REMARK VINA RESULT:      -4.4      1.519      2.008
REMARK  1 active torsions:
REMARK  status: ('A' for Active; 'I' for Inactive)
REMARK    1  A    between atoms: C2_2  and  C12_12 
ROOT
HETATM    1  C1  UNL     1     -36.916  15.729  -4.157  1.00 20.00    -0.023 C 
HETATM    2  C2  UNL     1     -35.604  15.474  -3.978  1.00 20.00    -0.075 C 
HETATM    3  C3  UNL     1     -37.672  15.123  -5.322  1.00 20.00     0.033 C 
HETATM    4  C4  UNL     1     -35.911  13.291  -5.203  1.00 20.00     0.015 C 
HETATM    5  C5  UNL     1     -34.979  14.539  -4.981  1.00 20.00     0.023 C 
HETATM    6  C6  UNL     1     -36.711  14.245  -6.151  1.00 20.00    -0.002 C 
HETATM    7  C7  UNL     1     -35.304  14.906  -6.498  1.00 20.00    -0.036 C 
HETATM    8  C8  UNL     1     -35.301  16.387  -6.900  1.00 20.00     0.016 C 
HETATM    9  C9  UNL     1     -34.464  14.144  -7.543  1.00 20.00     0.016 C 
ENDROOT
BRANCH   2  10
HETATM   10  C12 UNL     1     -34.764  16.033  -2.882  1.00 20.00     0.006 C 
HETATM   11  C10 UNL     1     -33.633  16.887  -3.454  1.00 20.00     0.014 C 
HETATM   12  C11 UNL     1     -35.609  16.847  -1.901  1.00 20.00     0.014 C 
ENDBRANCH   2  10
TORSDOF 1
ENDMDL
MODEL 9
REMARK VINA RESULT:      -4.4      1.338      2.784
REMARK  1 active torsions:
REMARK  status: ('A' for Active; 'I' for Inactive)
REMARK    1  A    between atoms: C2_2  and  C12_12 
ROOT
HETATM    1  C1  UNL     1     -33.854  15.444  -3.543  1.00 20.00    -0.023 C 
HETATM    2  C2  UNL     1     -35.049  16.047  -3.707  1.00 20.00    -0.075 C 
HETATM    3  C3  UNL     1     -33.112  14.860  -4.728  1.00 20.00     0.033 C 
HETATM    4  C4  UNL     1     -34.395  16.589  -6.081  1.00 20.00     0.015 C 
HETATM    5  C5  UNL     1     -35.553  16.121  -5.125  1.00 20.00     0.023 C 
HETATM    6  C6  UNL     1     -33.936  15.095  -6.012  1.00 20.00    -0.002 C 
HETATM    7  C7  UNL     1     -35.484  14.735  -5.909  1.00 20.00    -0.036 C 
HETATM    8  C8  UNL     1     -35.861  13.456  -5.150  1.00 20.00     0.016 C 
HETATM    9  C9  UNL     1     -36.240  14.713  -7.253  1.00 20.00     0.016 C 
ENDROOT
BRANCH   2  10
HETATM   10  C12 UNL     1     -35.870  16.635  -2.611  1.00 20.00     0.006 C 
HETATM   11  C10 UNL     1     -34.997  16.956  -1.398  1.00 20.00     0.014 C 
HETATM   12  C11 UNL     1     -36.609  17.886  -3.088  1.00 20.00     0.014 C 
ENDBRANCH   2  10
TORSDOF 1
ENDMDL
