MODEL 1
REMARK VINA RESULT:      -4.7      0.000      0.000
REMARK  0 active torsions:
REMARK  status: ('A' for Active; 'I' for Inactive)
ROOT
HETATM    1  C1  UNL     1     -34.100   6.552   5.329  1.00 20.00    -0.075 C 
HETATM    2  C2  UNL     1     -33.596   7.526   6.089  1.00 20.00     0.015 C 
HETATM    3  C3  UNL     1     -34.510   5.128   5.625  1.00 20.00     0.036 C 
HETATM    4  C4  UNL     1     -35.275   5.220   4.290  1.00 20.00     0.024 C 
HETATM    5  C5  UNL     1     -34.478   6.475   3.864  1.00 20.00     0.086 C 
HETATM    6 BR6  UNL     1     -32.962   6.163   2.702  1.00 20.00    -0.086 Br
ENDROOT
TORSDOF 0
ENDMDL
MODEL 2
REMARK VINA RESULT:      -4.2      1.930      2.851
REMARK  0 active torsions:
REMARK  status: ('A' for Active; 'I' for Inactive)
ROOT
HETATM    1  C1  UNL     1     -33.974   5.171   3.883  1.00 20.00    -0.075 C 
HETATM    2  C2  UNL     1     -34.426   4.028   4.402  1.00 20.00     0.015 C 
HETATM    3  C3  UNL     1     -32.904   5.482   2.862  1.00 20.00     0.036 C 
HETATM    4  C4  UNL     1     -33.594   6.858   2.767  1.00 20.00     0.024 C 
HETATM    5  C5  UNL     1     -34.354   6.622   4.093  1.00 20.00     0.086 C 
HETATM    6 BR6  UNL     1     -33.556   7.397   5.677  1.00 20.00    -0.086 Br
ENDROOT
TORSDOF 0
ENDMDL
MODEL 3
REMARK VINA RESULT:      -4.2      1.533      2.255
REMARK  0 active torsions:
REMARK  status: ('A' for Active; 'I' for Inactive)
ROOT
HETATM    1  C1  UNL     1     -33.674   6.951   4.189  1.00 20.00    -0.075 C 
HETATM    2  C2  UNL     1     -33.262   7.483   3.037  1.00 20.00     0.015 C 
HETATM    3  C3  UNL     1     -33.288   7.199   5.629  1.00 20.00     0.036 C 
HETATM    4  C4  UNL     1     -34.608   6.473   5.960  1.00 20.00     0.024 C 
HETATM    5  C5  UNL     1     -34.703   5.892   4.529  1.00 20.00     0.086 C 
HETATM    6 BR6  UNL     1     -34.042   4.088   4.301  1.00 20.00    -0.086 Br
ENDROOT
TORSDOF 0
ENDMDL
MODEL 4
REMARK VINA RESULT:      -4.1      1.813      2.808
REMARK  0 active torsions:
REMARK  status: ('A' for Active; 'I' for Inactive)
ROOT
HETATM    1  C1  UNL     1     -33.415   5.761   3.112  1.00 20.00    -0.075 C 
HETATM    2  C2  UNL     1     -33.038   4.667   2.448  1.00 20.00     0.015 C 
HETATM    3  C3  UNL     1     -34.728   6.183   3.732  1.00 20.00     0.036 C 
HETATM    4  C4  UNL     1     -33.871   7.211   4.499  1.00 20.00     0.024 C 
HETATM    5  C5  UNL     1     -32.685   7.022   3.525  1.00 20.00     0.086 C 
HETATM    6 BR6  UNL     1     -32.543   8.323   2.099  1.00 20.00    -0.086 Br
ENDROOT
TORSDOF 0
ENDMDL
MODEL 5
REMARK VINA RESULT:      -3.9      1.692      2.142
REMARK  0 active torsions:
REMARK  status: ('A' for Active; 'I' for Inactive)
ROOT
HETATM    1  C1  UNL     1     -32.978   7.281   3.565  1.00 20.00    -0.075 C 
HETATM    2  C2  UNL     1     -31.983   8.061   3.138  1.00 20.00     0.015 C 
HETATM    3  C3  UNL     1     -33.638   7.107   4.914  1.00 20.00     0.036 C 
HETATM    4  C4  UNL     1     -34.771   6.433   4.114  1.00 20.00     0.024 C 
HETATM    5  C5  UNL     1     -33.859   6.260   2.876  1.00 20.00     0.086 C 
HETATM    6 BR6  UNL     1     -33.013   4.530   2.681  1.00 20.00    -0.086 Br
ENDROOT
TORSDOF 0
ENDMDL
MODEL 6
REMARK VINA RESULT:      -3.9      2.687      3.655
REMARK  0 active torsions:
REMARK  status: ('A' for Active; 'I' for Inactive)
ROOT
HETATM    1  C1  UNL     1     -32.975   7.044   2.976  1.00 20.00    -0.075 C 
HETATM    2  C2  UNL     1     -33.758   6.051   2.549  1.00 20.00     0.015 C 
HETATM    3  C3  UNL     1     -32.828   7.732   4.313  1.00 20.00     0.036 C 
HETATM    4  C4  UNL     1     -31.487   8.239   3.745  1.00 20.00     0.024 C 
HETATM    5  C5  UNL     1     -31.908   7.881   2.301  1.00 20.00     0.086 C 
HETATM    6 BR6  UNL     1     -32.632   9.331   1.244  1.00 20.00    -0.086 Br
ENDROOT
TORSDOF 0
ENDMDL
MODEL 7
REMARK VINA RESULT:      -3.7      2.302      3.185
REMARK  0 active torsions:
REMARK  status: ('A' for Active; 'I' for Inactive)
ROOT
HETATM    1  C1  UNL     1     -32.561   7.848   2.736  1.00 20.00    -0.075 C 
HETATM    2  C2  UNL     1     -32.182   8.415   1.588  1.00 20.00     0.015 C 
HETATM    3  C3  UNL     1     -32.078   7.994   4.160  1.00 20.00     0.036 C 
HETATM    4  C4  UNL     1     -33.420   7.331   4.533  1.00 20.00     0.024 C 
HETATM    5  C5  UNL     1     -33.633   6.835   3.083  1.00 20.00     0.086 C 
HETATM    6 BR6  UNL     1     -33.101   5.010   2.724  1.00 20.00    -0.086 Br
ENDROOT
TORSDOF 0
ENDMDL
MODEL 8
REMARK VINA RESULT:      -3.6      1.834      2.546
REMARK  0 active torsions:
REMARK  status: ('A' for Active; 'I' for Inactive)
ROOT
HETATM    1  C1  UNL     1     -33.880   6.231   3.545  1.00 20.00    -0.075 C 
HETATM    2  C2  UNL     1     -33.122   6.674   2.539  1.00 20.00     0.015 C 
HETATM    3  C3  UNL     1     -35.329   5.810   3.629  1.00 20.00     0.036 C 
HETATM    4  C4  UNL     1     -34.910   5.142   4.954  1.00 20.00     0.024 C 
HETATM    5  C5  UNL     1     -33.599   5.960   5.008  1.00 20.00     0.086 C 
HETATM    6 BR6  UNL     1     -33.640   7.557   6.101  1.00 20.00    -0.086 Br
ENDROOT
TORSDOF 0
ENDMDL
MODEL 9
REMARK VINA RESULT:      -3.5      4.697      5.388
REMARK  0 active torsions:
REMARK  status: ('A' for Active; 'I' for Inactive)
ROOT
HETATM    1  C1  UNL     1     -32.522   9.924   1.280  1.00 20.00    -0.075 C 
HETATM    2  C2  UNL     1     -32.924  11.065   1.844  1.00 20.00     0.015 C 
HETATM    3  C3  UNL     1     -32.699   9.348  -0.106  1.00 20.00     0.036 C 
HETATM    4  C4  UNL     1     -31.540   8.410   0.291  1.00 20.00     0.024 C 
HETATM    5  C5  UNL     1     -31.717   8.747   1.790  1.00 20.00     0.086 C 
HETATM    6 BR6  UNL     1     -32.771   7.494   2.822  1.00 20.00    -0.086 Br
ENDROOT
TORSDOF 0
ENDMDL
