MODEL 1
REMARK VINA RESULT:      -5.5      0.000      0.000
REMARK  0 active torsions:
REMARK  status: ('A' for Active; 'I' for Inactive)
ROOT
HETATM    1  C1  UNL     1     -33.298   7.573   5.176  1.00 20.00    -0.011 A 
HETATM    2  C2  UNL     1     -33.213   7.160   3.902  1.00 20.00    -0.011 A 
HETATM    3  C3  UNL     1     -34.161   6.608   5.953  1.00 20.00     0.033 A 
HETATM    4  C4  UNL     1     -35.439   5.861   3.763  1.00 20.00     0.016 A 
HETATM    5  C5  UNL     1     -33.944   5.917   3.618  1.00 20.00     0.030 A 
HETATM    6  C6  UNL     1     -34.571   5.546   4.951  1.00 20.00    -0.002 A 
HETATM    7 BR7  UNL     1     -32.304   7.990   2.533  1.00 20.00    -0.056 Br
ENDROOT
TORSDOF 0
ENDMDL
MODEL 2
REMARK VINA RESULT:      -5.5      0.913      1.969
REMARK  0 active torsions:
REMARK  status: ('A' for Active; 'I' for Inactive)
ROOT
HETATM    1  C1  UNL     1     -33.232   5.266   2.992  1.00 20.00    -0.011 A 
HETATM    2  C2  UNL     1     -33.340   6.582   3.230  1.00 20.00    -0.011 A 
HETATM    3  C3  UNL     1     -34.146   4.516   3.930  1.00 20.00     0.033 A 
HETATM    4  C4  UNL     1     -34.064   6.472   5.706  1.00 20.00     0.016 A 
HETATM    5  C5  UNL     1     -34.295   6.928   4.292  1.00 20.00     0.030 A 
HETATM    6  C6  UNL     1     -34.829   5.585   4.760  1.00 20.00    -0.002 A 
HETATM    7 BR7  UNL     1     -32.424   7.935   2.383  1.00 20.00    -0.056 Br
ENDROOT
TORSDOF 0
ENDMDL
MODEL 3
REMARK VINA RESULT:      -4.3      2.164      2.827
REMARK  0 active torsions:
REMARK  status: ('A' for Active; 'I' for Inactive)
ROOT
HETATM    1  C1  UNL     1     -33.203   7.341   4.585  1.00 20.00    -0.011 A 
HETATM    2  C2  UNL     1     -33.965   6.237   4.575  1.00 20.00    -0.011 A 
HETATM    3  C3  UNL     1     -32.719   7.623   3.183  1.00 20.00     0.033 A 
HETATM    4  C4  UNL     1     -32.944   5.078   2.506  1.00 20.00     0.016 A 
HETATM    5  C5  UNL     1     -34.131   5.629   3.247  1.00 20.00     0.030 A 
HETATM    6  C6  UNL     1     -33.319   6.524   2.327  1.00 20.00    -0.002 A 
HETATM    7 BR7  UNL     1     -34.779   5.446   6.024  1.00 20.00    -0.056 Br
ENDROOT
TORSDOF 0
ENDMDL
MODEL 4
REMARK VINA RESULT:      -4.3      1.796      2.438
REMARK  0 active torsions:
REMARK  status: ('A' for Active; 'I' for Inactive)
ROOT
HETATM    1  C1  UNL     1     -34.511   5.122   5.437  1.00 20.00    -0.011 A 
HETATM    2  C2  UNL     1     -33.873   6.245   5.070  1.00 20.00    -0.011 A 
HETATM    3  C3  UNL     1     -34.458   4.129   4.302  1.00 20.00     0.033 A 
HETATM    4  C4  UNL     1     -34.196   6.059   2.515  1.00 20.00     0.016 A 
HETATM    5  C5  UNL     1     -33.303   6.201   3.716  1.00 20.00     0.030 A 
HETATM    6  C6  UNL     1     -33.680   4.823   3.201  1.00 20.00    -0.002 A 
HETATM    7 BR7  UNL     1     -33.670   7.774   6.073  1.00 20.00    -0.056 Br
ENDROOT
TORSDOF 0
ENDMDL
MODEL 5
REMARK VINA RESULT:      -4.1      1.907      3.072
REMARK  0 active torsions:
REMARK  status: ('A' for Active; 'I' for Inactive)
ROOT
HETATM    1  C1  UNL     1     -34.462   6.019   3.770  1.00 20.00    -0.011 A 
HETATM    2  C2  UNL     1     -33.636   6.861   4.411  1.00 20.00    -0.011 A 
HETATM    3  C3  UNL     1     -33.982   5.840   2.350  1.00 20.00     0.033 A 
HETATM    4  C4  UNL     1     -32.778   8.193   2.373  1.00 20.00     0.016 A 
HETATM    5  C5  UNL     1     -32.519   7.353   3.593  1.00 20.00     0.030 A 
HETATM    6  C6  UNL     1     -32.734   6.695   2.241  1.00 20.00    -0.002 A 
HETATM    7 BR7  UNL     1     -33.785   7.436   6.153  1.00 20.00    -0.056 Br
ENDROOT
TORSDOF 0
ENDMDL
MODEL 6
REMARK VINA RESULT:      -4.0      2.033      2.705
REMARK  0 active torsions:
REMARK  status: ('A' for Active; 'I' for Inactive)
ROOT
HETATM    1  C1  UNL     1     -33.956   6.493   5.714  1.00 20.00    -0.011 A 
HETATM    2  C2  UNL     1     -34.046   5.772   4.585  1.00 20.00    -0.011 A 
HETATM    3  C3  UNL     1     -33.607   7.919   5.365  1.00 20.00     0.033 A 
HETATM    4  C4  UNL     1     -32.462   7.172   3.103  1.00 20.00     0.016 A 
HETATM    5  C5  UNL     1     -33.802   6.540   3.356  1.00 20.00     0.030 A 
HETATM    6  C6  UNL     1     -33.513   7.947   3.851  1.00 20.00    -0.002 A 
HETATM    7 BR7  UNL     1     -34.421   3.975   4.452  1.00 20.00    -0.056 Br
ENDROOT
TORSDOF 0
ENDMDL
MODEL 7
REMARK VINA RESULT:      -3.5      2.197      2.977
REMARK  0 active torsions:
REMARK  status: ('A' for Active; 'I' for Inactive)
ROOT
HETATM    1  C1  UNL     1     -31.565   9.100   2.525  1.00 20.00    -0.011 A 
HETATM    2  C2  UNL     1     -32.472   8.626   1.657  1.00 20.00    -0.011 A 
HETATM    3  C3  UNL     1     -31.481   8.171   3.712  1.00 20.00     0.033 A 
HETATM    4  C4  UNL     1     -33.949   7.311   3.318  1.00 20.00     0.016 A 
HETATM    5  C5  UNL     1     -33.107   7.367   2.074  1.00 20.00     0.030 A 
HETATM    6  C6  UNL     1     -32.469   7.059   3.417  1.00 20.00    -0.002 A 
HETATM    7 BR7  UNL     1     -32.976   9.391   0.061  1.00 20.00    -0.056 Br
ENDROOT
TORSDOF 0
ENDMDL
MODEL 8
REMARK VINA RESULT:      -3.5     11.956     12.579
REMARK  0 active torsions:
REMARK  status: ('A' for Active; 'I' for Inactive)
ROOT
HETATM    1  C1  UNL     1     -35.358  17.070  -0.970  1.00 20.00    -0.011 A 
HETATM    2  C2  UNL     1     -34.270  17.733  -0.550  1.00 20.00    -0.011 A 
HETATM    3  C3  UNL     1     -35.086  16.481  -2.333  1.00 20.00     0.033 A 
HETATM    4  C4  UNL     1     -33.261  18.320  -2.853  1.00 20.00     0.016 A 
HETATM    5  C5  UNL     1     -33.140  17.697  -1.491  1.00 20.00     0.030 A 
HETATM    6  C6  UNL     1     -33.661  16.882  -2.662  1.00 20.00    -0.002 A 
HETATM    7 BR7  UNL     1     -34.081  18.654   1.032  1.00 20.00    -0.056 Br
ENDROOT
TORSDOF 0
ENDMDL
MODEL 9
REMARK VINA RESULT:      -3.5     11.831     12.257
REMARK  0 active torsions:
REMARK  status: ('A' for Active; 'I' for Inactive)
ROOT
HETATM    1  C1  UNL     1     -33.096  17.731  -1.541  1.00 20.00    -0.011 A 
HETATM    2  C2  UNL     1     -33.990  16.927  -2.136  1.00 20.00    -0.011 A 
HETATM    3  C3  UNL     1     -33.689  18.272  -0.263  1.00 20.00     0.033 A 
HETATM    4  C4  UNL     1     -36.150  17.970  -1.180  1.00 20.00     0.016 A 
HETATM    5  C5  UNL     1     -35.256  16.782  -1.403  1.00 20.00     0.030 A 
HETATM    6  C6  UNL     1     -35.074  17.658  -0.175  1.00 20.00    -0.002 A 
HETATM    7 BR7  UNL     1     -33.779  16.034  -3.732  1.00 20.00    -0.056 Br
ENDROOT
TORSDOF 0
ENDMDL
