MODEL 1
REMARK VINA RESULT:      -5.9      0.000      0.000
REMARK  0 active torsions:
REMARK  status: ('A' for Active; 'I' for Inactive)
ROOT
HETATM    1  C1  UNL     1     -32.604   7.258   3.599  1.00 20.00     0.129 C 
HETATM    2  C2  UNL     1     -33.365   6.196   3.304  1.00 20.00     0.136 C 
HETATM    3  C3  UNL     1     -32.657   7.976   4.911  1.00 20.00     0.073 C 
HETATM    4  C4  UNL     1     -33.881   7.606   5.751  1.00 20.00     0.008 C 
HETATM    5  C5  UNL     1     -34.139   6.100   5.711  1.00 20.00     0.016 C 
HETATM    6  C6  UNL     1     -34.352   5.572   4.269  1.00 20.00     0.009 C 
HETATM    7  C7  UNL     1     -35.776   5.900   3.785  1.00 20.00     0.022 C 
HETATM    8  C8  UNL     1     -34.173   4.044   4.273  1.00 20.00     0.022 C 
HETATM    9  F9  UNL     1     -31.754   7.720   2.654  1.00 20.00    -0.208 F 
HETATM   10  F10 UNL     1     -33.238   5.650   2.071  1.00 20.00    -0.207 F 
ENDROOT
TORSDOF 0
ENDMDL
MODEL 2
REMARK VINA RESULT:      -5.5      1.159      1.700
REMARK  0 active torsions:
REMARK  status: ('A' for Active; 'I' for Inactive)
ROOT
HETATM    1  C1  UNL     1     -32.838   7.561   4.763  1.00 20.00     0.129 C 
HETATM    2  C2  UNL     1     -32.942   6.960   3.571  1.00 20.00     0.136 C 
HETATM    3  C3  UNL     1     -33.596   7.127   5.979  1.00 20.00     0.073 C 
HETATM    4  C4  UNL     1     -34.740   6.163   5.662  1.00 20.00     0.008 C 
HETATM    5  C5  UNL     1     -34.307   5.115   4.637  1.00 20.00     0.016 C 
HETATM    6  C6  UNL     1     -33.816   5.750   3.311  1.00 20.00     0.009 C 
HETATM    7  C7  UNL     1     -35.015   6.194   2.454  1.00 20.00     0.022 C 
HETATM    8  C8  UNL     1     -33.015   4.695   2.527  1.00 20.00     0.022 C 
HETATM    9  F9  UNL     1     -32.018   8.631   4.872  1.00 20.00    -0.208 F 
HETATM   10  F10 UNL     1     -32.219   7.465   2.543  1.00 20.00    -0.207 F 
ENDROOT
TORSDOF 0
ENDMDL
MODEL 3
REMARK VINA RESULT:      -5.3      2.087      2.888
REMARK  0 active torsions:
REMARK  status: ('A' for Active; 'I' for Inactive)
ROOT
HETATM    1  C1  UNL     1     -33.712   7.185   5.252  1.00 20.00     0.129 C 
HETATM    2  C2  UNL     1     -34.195   6.320   4.351  1.00 20.00     0.136 C 
HETATM    3  C3  UNL     1     -32.603   8.148   4.964  1.00 20.00     0.073 C 
HETATM    4  C4  UNL     1     -31.849   7.829   3.672  1.00 20.00     0.008 C 
HETATM    5  C5  UNL     1     -32.817   7.446   2.552  1.00 20.00     0.016 C 
HETATM    6  C6  UNL     1     -33.699   6.227   2.922  1.00 20.00     0.009 C 
HETATM    7  C7  UNL     1     -32.898   4.921   2.771  1.00 20.00     0.022 C 
HETATM    8  C8  UNL     1     -34.901   6.180   1.962  1.00 20.00     0.022 C 
HETATM    9  F9  UNL     1     -34.242   7.177   6.496  1.00 20.00    -0.208 F 
HETATM   10  F10 UNL     1     -35.185   5.484   4.744  1.00 20.00    -0.207 F 
ENDROOT
TORSDOF 0
ENDMDL
MODEL 4
REMARK VINA RESULT:      -5.3      2.122      3.682
REMARK  0 active torsions:
REMARK  status: ('A' for Active; 'I' for Inactive)
ROOT
HETATM    1  C1  UNL     1     -34.302   5.810   5.158  1.00 20.00     0.129 C 
HETATM    2  C2  UNL     1     -33.755   6.993   4.854  1.00 20.00     0.136 C 
HETATM    3  C3  UNL     1     -34.266   4.622   4.247  1.00 20.00     0.073 C 
HETATM    4  C4  UNL     1     -33.853   4.973   2.818  1.00 20.00     0.008 C 
HETATM    5  C5  UNL     1     -32.683   5.957   2.810  1.00 20.00     0.016 C 
HETATM    6  C6  UNL     1     -33.009   7.271   3.565  1.00 20.00     0.009 C 
HETATM    7  C7  UNL     1     -33.879   8.190   2.689  1.00 20.00     0.022 C 
HETATM    8  C8  UNL     1     -31.689   7.997   3.881  1.00 20.00     0.022 C 
HETATM    9  F9  UNL     1     -34.939   5.684   6.344  1.00 20.00    -0.208 F 
HETATM   10  F10 UNL     1     -33.877   7.997   5.756  1.00 20.00    -0.207 F 
ENDROOT
TORSDOF 0
ENDMDL
MODEL 5
REMARK VINA RESULT:      -5.2      1.430      3.019
REMARK  0 active torsions:
REMARK  status: ('A' for Active; 'I' for Inactive)
ROOT
HETATM    1  C1  UNL     1     -34.083   4.845   4.250  1.00 20.00     0.129 C 
HETATM    2  C2  UNL     1     -33.502   5.563   3.280  1.00 20.00     0.136 C 
HETATM    3  C3  UNL     1     -34.568   5.433   5.538  1.00 20.00     0.073 C 
HETATM    4  C4  UNL     1     -34.045   6.847   5.789  1.00 20.00     0.008 C 
HETATM    5  C5  UNL     1     -34.103   7.689   4.513  1.00 20.00     0.016 C 
HETATM    6  C6  UNL     1     -33.290   7.061   3.352  1.00 20.00     0.009 C 
HETATM    7  C7  UNL     1     -31.787   7.329   3.544  1.00 20.00     0.022 C 
HETATM    8  C8  UNL     1     -33.741   7.709   2.030  1.00 20.00     0.022 C 
HETATM    9  F9  UNL     1     -34.221   3.512   4.066  1.00 20.00    -0.208 F 
HETATM   10  F10 UNL     1     -33.085   4.906   2.171  1.00 20.00    -0.207 F 
ENDROOT
TORSDOF 0
ENDMDL
MODEL 6
REMARK VINA RESULT:      -5.1      1.971      2.767
REMARK  0 active torsions:
REMARK  status: ('A' for Active; 'I' for Inactive)
ROOT
HETATM    1  C1  UNL     1     -33.098   7.519   5.139  1.00 20.00     0.129 C 
HETATM    2  C2  UNL     1     -34.046   6.574   5.091  1.00 20.00     0.136 C 
HETATM    3  C3  UNL     1     -32.258   7.910   3.963  1.00 20.00     0.073 C 
HETATM    4  C4  UNL     1     -32.343   6.914   2.805  1.00 20.00     0.008 C 
HETATM    5  C5  UNL     1     -33.785   6.459   2.576  1.00 20.00     0.016 C 
HETATM    6  C6  UNL     1     -34.406   5.804   3.836  1.00 20.00     0.009 C 
HETATM    7  C7  UNL     1     -33.901   4.359   3.993  1.00 20.00     0.022 C 
HETATM    8  C8  UNL     1     -35.937   5.776   3.672  1.00 20.00     0.022 C 
HETATM    9  F9  UNL     1     -32.872   8.141   6.318  1.00 20.00    -0.208 F 
HETATM   10  F10 UNL     1     -34.721   6.296   6.232  1.00 20.00    -0.207 F 
ENDROOT
TORSDOF 0
ENDMDL
MODEL 7
REMARK VINA RESULT:      -4.9      1.598      2.298
REMARK  0 active torsions:
REMARK  status: ('A' for Active; 'I' for Inactive)
ROOT
HETATM    1  C1  UNL     1     -32.852   5.114   2.740  1.00 20.00     0.129 C 
HETATM    2  C2  UNL     1     -33.845   4.842   3.597  1.00 20.00     0.136 C 
HETATM    3  C3  UNL     1     -32.302   6.488   2.519  1.00 20.00     0.073 C 
HETATM    4  C4  UNL     1     -33.187   7.591   3.100  1.00 20.00     0.008 C 
HETATM    5  C5  UNL     1     -33.707   7.207   4.486  1.00 20.00     0.016 C 
HETATM    6  C6  UNL     1     -34.514   5.884   4.470  1.00 20.00     0.009 C 
HETATM    7  C7  UNL     1     -35.934   6.130   3.929  1.00 20.00     0.022 C 
HETATM    8  C8  UNL     1     -34.621   5.355   5.911  1.00 20.00     0.022 C 
HETATM    9  F9  UNL     1     -32.331   4.095   2.018  1.00 20.00    -0.208 F 
HETATM   10  F10 UNL     1     -34.269   3.558   3.686  1.00 20.00    -0.207 F 
ENDROOT
TORSDOF 0
ENDMDL
MODEL 8
REMARK VINA RESULT:      -4.2      2.145      3.430
REMARK  0 active torsions:
REMARK  status: ('A' for Active; 'I' for Inactive)
ROOT
HETATM    1  C1  UNL     1     -33.899   4.577   3.866  1.00 20.00     0.129 C 
HETATM    2  C2  UNL     1     -34.277   5.564   4.688  1.00 20.00     0.136 C 
HETATM    3  C3  UNL     1     -33.000   4.779   2.686  1.00 20.00     0.073 C 
HETATM    4  C4  UNL     1     -32.826   6.251   2.308  1.00 20.00     0.008 C 
HETATM    5  C5  UNL     1     -32.635   7.119   3.552  1.00 20.00     0.016 C 
HETATM    6  C6  UNL     1     -33.820   7.002   4.545  1.00 20.00     0.009 C 
HETATM    7  C7  UNL     1     -35.012   7.843   4.055  1.00 20.00     0.022 C 
HETATM    8  C8  UNL     1     -33.369   7.537   5.915  1.00 20.00     0.022 C 
HETATM    9  F9  UNL     1     -34.371   3.331   4.101  1.00 20.00    -0.208 F 
HETATM   10  F10 UNL     1     -35.114   5.253   5.707  1.00 20.00    -0.207 F 
ENDROOT
TORSDOF 0
ENDMDL
MODEL 9
REMARK VINA RESULT:      -4.1     12.325     13.372
REMARK  0 active torsions:
REMARK  status: ('A' for Active; 'I' for Inactive)
ROOT
HETATM    1  C1  UNL     1     -34.829  13.446  -6.958  1.00 20.00     0.129 C 
HETATM    2  C2  UNL     1     -35.233  13.900  -5.765  1.00 20.00     0.136 C 
HETATM    3  C3  UNL     1     -34.010  14.253  -7.917  1.00 20.00     0.073 C 
HETATM    4  C4  UNL     1     -33.962  15.740  -7.564  1.00 20.00     0.008 C 
HETATM    5  C5  UNL     1     -33.768  15.942  -6.061  1.00 20.00     0.016 C 
HETATM    6  C6  UNL     1     -34.889  15.273  -5.224  1.00 20.00     0.009 C 
HETATM    7  C7  UNL     1     -36.162  16.137  -5.248  1.00 20.00     0.022 C 
HETATM    8  C8  UNL     1     -34.406  15.147  -3.768  1.00 20.00     0.022 C 
HETATM    9  F9  UNL     1     -35.197  12.198  -7.327  1.00 20.00    -0.208 F 
HETATM   10  F10 UNL     1     -35.991  13.079  -4.999  1.00 20.00    -0.207 F 
ENDROOT
TORSDOF 0
ENDMDL
