MODEL 1
REMARK VINA RESULT:      -4.8      0.000      0.000
REMARK  0 active torsions:
REMARK  status: ('A' for Active; 'I' for Inactive)
ROOT
HETATM    1  C1  UNL     1     -31.752   8.296   2.669  1.00 20.00     0.013 C 
HETATM    2  C2  UNL     1     -32.587   7.659   3.250  1.00 20.00    -0.106 C 
HETATM    3  C3  UNL     1     -34.844   6.530   3.182  1.00 20.00     0.041 A 
HETATM    4  C4  UNL     1     -33.811   5.472   3.449  1.00 20.00     0.079 A 
HETATM    5  C5  UNL     1     -33.590   6.892   3.948  1.00 20.00     0.033 A 
HETATM    6  C6  UNL     1     -33.737   7.241   5.405  1.00 20.00     0.030 C 
HETATM    7 BR7  UNL     1     -34.256   4.054   4.648  1.00 20.00    -0.089 Br
ENDROOT
TORSDOF 0
ENDMDL
MODEL 2
REMARK VINA RESULT:      -4.3      1.810      2.493
REMARK  0 active torsions:
REMARK  status: ('A' for Active; 'I' for Inactive)
ROOT
HETATM    1  C1  UNL     1     -33.736   7.736   6.307  1.00 20.00     0.013 C 
HETATM    2  C2  UNL     1     -33.980   6.860   5.524  1.00 20.00    -0.106 C 
HETATM    3  C3  UNL     1     -35.083   6.177   3.358  1.00 20.00     0.041 A 
HETATM    4  C4  UNL     1     -33.608   5.926   3.221  1.00 20.00     0.079 A 
HETATM    5  C5  UNL     1     -34.273   5.807   4.583  1.00 20.00     0.033 A 
HETATM    6  C6  UNL     1     -34.533   4.464   5.213  1.00 20.00     0.030 C 
HETATM    7 BR7  UNL     1     -33.038   4.381   2.253  1.00 20.00    -0.089 Br
ENDROOT
TORSDOF 0
ENDMDL
MODEL 3
REMARK VINA RESULT:      -4.3      2.254      3.523
REMARK  0 active torsions:
REMARK  status: ('A' for Active; 'I' for Inactive)
ROOT
HETATM    1  C1  UNL     1     -34.743   4.635   5.720  1.00 20.00     0.013 C 
HETATM    2  C2  UNL     1     -34.326   5.107   4.698  1.00 20.00    -0.106 C 
HETATM    3  C3  UNL     1     -34.755   6.584   2.696  1.00 20.00     0.041 A 
HETATM    4  C4  UNL     1     -33.615   7.182   3.470  1.00 20.00     0.079 A 
HETATM    5  C5  UNL     1     -33.824   5.676   3.470  1.00 20.00     0.033 A 
HETATM    6  C6  UNL     1     -32.926   4.759   2.683  1.00 20.00     0.030 C 
HETATM    7 BR7  UNL     1     -32.182   7.986   2.496  1.00 20.00    -0.089 Br
ENDROOT
TORSDOF 0
ENDMDL
MODEL 4
REMARK VINA RESULT:      -4.1      1.789      2.727
REMARK  0 active torsions:
REMARK  status: ('A' for Active; 'I' for Inactive)
ROOT
HETATM    1  C1  UNL     1     -32.792   3.910   2.077  1.00 20.00     0.013 C 
HETATM    2  C2  UNL     1     -33.189   4.896   2.635  1.00 20.00    -0.106 C 
HETATM    3  C3  UNL     1     -35.137   6.130   3.664  1.00 20.00     0.041 A 
HETATM    4  C4  UNL     1     -34.120   5.895   4.745  1.00 20.00     0.079 A 
HETATM    5  C5  UNL     1     -33.667   6.081   3.306  1.00 20.00     0.033 A 
HETATM    6  C6  UNL     1     -33.016   7.359   2.848  1.00 20.00     0.030 C 
HETATM    7 BR7  UNL     1     -33.858   7.261   6.054  1.00 20.00    -0.089 Br
ENDROOT
TORSDOF 0
ENDMDL
MODEL 5
REMARK VINA RESULT:      -4.1      2.786      3.505
REMARK  0 active torsions:
REMARK  status: ('A' for Active; 'I' for Inactive)
ROOT
HETATM    1  C1  UNL     1     -33.948   7.138   5.736  1.00 20.00     0.013 C 
HETATM    2  C2  UNL     1     -33.290   7.360   4.756  1.00 20.00    -0.106 C 
HETATM    3  C3  UNL     1     -32.586   6.628   2.445  1.00 20.00     0.041 A 
HETATM    4  C4  UNL     1     -33.281   7.953   2.314  1.00 20.00     0.079 A 
HETATM    5  C5  UNL     1     -32.502   7.628   3.579  1.00 20.00     0.033 A 
HETATM    6  C6  UNL     1     -31.162   8.258   3.857  1.00 20.00     0.030 C 
HETATM    7 BR7  UNL     1     -32.616   9.201   1.030  1.00 20.00    -0.089 Br
ENDROOT
TORSDOF 0
ENDMDL
MODEL 6
REMARK VINA RESULT:      -4.0      2.894      3.715
REMARK  0 active torsions:
REMARK  status: ('A' for Active; 'I' for Inactive)
ROOT
HETATM    1  C1  UNL     1     -33.016   4.824   2.636  1.00 20.00     0.013 C 
HETATM    2  C2  UNL     1     -32.942   6.013   2.786  1.00 20.00    -0.106 C 
HETATM    3  C3  UNL     1     -31.474   8.029   3.180  1.00 20.00     0.041 A 
HETATM    4  C4  UNL     1     -32.155   8.211   1.853  1.00 20.00     0.079 A 
HETATM    5  C5  UNL     1     -32.852   7.442   2.965  1.00 20.00     0.033 A 
HETATM    6  C6  UNL     1     -33.997   8.044   3.735  1.00 20.00     0.030 C 
HETATM    7 BR7  UNL     1     -32.715   9.967   1.356  1.00 20.00    -0.089 Br
ENDROOT
TORSDOF 0
ENDMDL
MODEL 7
REMARK VINA RESULT:      -3.8      1.929      2.893
REMARK  0 active torsions:
REMARK  status: ('A' for Active; 'I' for Inactive)
ROOT
HETATM    1  C1  UNL     1     -32.682   9.513   0.828  1.00 20.00     0.013 C 
HETATM    2  C2  UNL     1     -32.603   8.721   1.726  1.00 20.00    -0.106 C 
HETATM    3  C3  UNL     1     -31.358   7.933   3.776  1.00 20.00     0.041 A 
HETATM    4  C4  UNL     1     -32.745   8.322   4.204  1.00 20.00     0.079 A 
HETATM    5  C5  UNL     1     -32.509   7.770   2.807  1.00 20.00     0.033 A 
HETATM    6  C6  UNL     1     -32.919   6.368   2.438  1.00 20.00     0.030 C 
HETATM    7 BR7  UNL     1     -33.602   7.278   5.554  1.00 20.00    -0.089 Br
ENDROOT
TORSDOF 0
ENDMDL
MODEL 8
REMARK VINA RESULT:      -3.6      2.641      3.470
REMARK  0 active torsions:
REMARK  status: ('A' for Active; 'I' for Inactive)
ROOT
HETATM    1  C1  UNL     1     -35.194   5.616   4.223  1.00 20.00     0.013 C 
HETATM    2  C2  UNL     1     -34.269   6.331   3.951  1.00 20.00    -0.106 C 
HETATM    3  C3  UNL     1     -32.118   6.645   2.667  1.00 20.00     0.041 A 
HETATM    4  C4  UNL     1     -33.095   7.679   2.184  1.00 20.00     0.079 A 
HETATM    5  C5  UNL     1     -33.158   7.190   3.623  1.00 20.00     0.033 A 
HETATM    6  C6  UNL     1     -32.677   8.048   4.764  1.00 20.00     0.030 C 
HETATM    7 BR7  UNL     1     -32.434   9.418   1.753  1.00 20.00    -0.089 Br
ENDROOT
TORSDOF 0
ENDMDL
MODEL 9
REMARK VINA RESULT:      -3.6      1.649      2.285
REMARK  0 active torsions:
REMARK  status: ('A' for Active; 'I' for Inactive)
ROOT
HETATM    1  C1  UNL     1     -32.593   9.893   0.842  1.00 20.00     0.013 C 
HETATM    2  C2  UNL     1     -32.581   9.030   1.676  1.00 20.00    -0.106 C 
HETATM    3  C3  UNL     1     -33.833   7.792   3.486  1.00 20.00     0.041 A 
HETATM    4  C4  UNL     1     -33.474   6.800   2.416  1.00 20.00     0.079 A 
HETATM    5  C5  UNL     1     -32.568   7.993   2.679  1.00 20.00     0.033 A 
HETATM    6  C6  UNL     1     -31.251   7.834   3.392  1.00 20.00     0.030 C 
HETATM    7 BR7  UNL     1     -32.975   5.035   2.948  1.00 20.00    -0.089 Br
ENDROOT
TORSDOF 0
ENDMDL
