MODEL 1
REMARK VINA RESULT:      -5.8      0.000      0.000
REMARK  0 active torsions:
REMARK  status: ('A' for Active; 'I' for Inactive)
ROOT
HETATM    1  C1  UNL     1     -33.530   7.147   5.163  1.00 20.00    -0.007 A 
HETATM    2  C2  UNL     1     -33.310   7.095   3.842  1.00 20.00    -0.014 A 
HETATM    3  C3  UNL     1     -34.201   6.061   3.202  1.00 20.00     0.051 A 
HETATM    4  C4  UNL     1     -34.376   4.726   5.478  1.00 20.00     0.014 A 
HETATM    5  C5  UNL     1     -34.569   6.209   5.617  1.00 20.00     0.014 A 
HETATM    6  C6  UNL     1     -35.016   5.496   4.352  1.00 20.00    -0.002 A 
HETATM    7 BR7  UNL     1     -32.123   8.066   2.838  1.00 20.00    -0.056 Br
ENDROOT
TORSDOF 0
ENDMDL
MODEL 2
REMARK VINA RESULT:      -5.2      0.893      1.778
REMARK  0 active torsions:
REMARK  status: ('A' for Active; 'I' for Inactive)
ROOT
HETATM    1  C1  UNL     1     -33.209   5.876   2.799  1.00 20.00    -0.007 A 
HETATM    2  C2  UNL     1     -32.912   7.119   3.205  1.00 20.00    -0.014 A 
HETATM    3  C3  UNL     1     -33.515   7.386   4.561  1.00 20.00     0.051 A 
HETATM    4  C4  UNL     1     -35.400   5.581   4.137  1.00 20.00     0.014 A 
HETATM    5  C5  UNL     1     -34.016   5.124   3.772  1.00 20.00     0.014 A 
HETATM    6  C6  UNL     1     -34.223   6.093   4.924  1.00 20.00    -0.002 A 
HETATM    7 BR7  UNL     1     -31.940   8.408   2.336  1.00 20.00    -0.056 Br
ENDROOT
TORSDOF 0
ENDMDL
MODEL 3
REMARK VINA RESULT:      -4.5      2.177      3.457
REMARK  0 active torsions:
REMARK  status: ('A' for Active; 'I' for Inactive)
ROOT
HETATM    1  C1  UNL     1     -33.513   5.957   2.811  1.00 20.00    -0.007 A 
HETATM    2  C2  UNL     1     -33.920   5.892   4.087  1.00 20.00    -0.014 A 
HETATM    3  C3  UNL     1     -33.708   7.218   4.773  1.00 20.00     0.051 A 
HETATM    4  C4  UNL     1     -31.763   7.837   3.092  1.00 20.00     0.014 A 
HETATM    5  C5  UNL     1     -32.993   7.281   2.433  1.00 20.00     0.014 A 
HETATM    6  C6  UNL     1     -33.113   8.112   3.699  1.00 20.00    -0.002 A 
HETATM    7 BR7  UNL     1     -34.631   4.466   4.992  1.00 20.00    -0.056 Br
ENDROOT
TORSDOF 0
ENDMDL
MODEL 4
REMARK VINA RESULT:      -4.3      2.176      3.343
REMARK  0 active torsions:
REMARK  status: ('A' for Active; 'I' for Inactive)
ROOT
HETATM    1  C1  UNL     1     -32.907   7.575   4.571  1.00 20.00    -0.007 A 
HETATM    2  C2  UNL     1     -33.602   6.466   4.278  1.00 20.00    -0.014 A 
HETATM    3  C3  UNL     1     -33.319   6.028   2.864  1.00 20.00     0.051 A 
HETATM    4  C4  UNL     1     -32.685   8.499   2.168  1.00 20.00     0.014 A 
HETATM    5  C5  UNL     1     -32.065   8.044   3.459  1.00 20.00     0.014 A 
HETATM    6  C6  UNL     1     -32.322   7.048   2.341  1.00 20.00    -0.002 A 
HETATM    7 BR7  UNL     1     -34.769   5.531   5.339  1.00 20.00    -0.056 Br
ENDROOT
TORSDOF 0
ENDMDL
MODEL 5
REMARK VINA RESULT:      -4.1      1.690      2.270
REMARK  0 active torsions:
REMARK  status: ('A' for Active; 'I' for Inactive)
ROOT
HETATM    1  C1  UNL     1     -33.607   6.672   3.430  1.00 20.00    -0.007 A 
HETATM    2  C2  UNL     1     -33.635   5.332   3.414  1.00 20.00    -0.014 A 
HETATM    3  C3  UNL     1     -34.336   4.808   4.642  1.00 20.00     0.051 A 
HETATM    4  C4  UNL     1     -33.728   7.000   5.990  1.00 20.00     0.014 A 
HETATM    5  C5  UNL     1     -34.265   7.255   4.610  1.00 20.00     0.014 A 
HETATM    6  C6  UNL     1     -34.745   6.054   5.409  1.00 20.00    -0.002 A 
HETATM    7 BR7  UNL     1     -32.950   4.185   2.159  1.00 20.00    -0.056 Br
ENDROOT
TORSDOF 0
ENDMDL
MODEL 6
REMARK VINA RESULT:      -4.0      1.752      2.666
REMARK  0 active torsions:
REMARK  status: ('A' for Active; 'I' for Inactive)
ROOT
HETATM    1  C1  UNL     1     -34.578   5.937   4.281  1.00 20.00    -0.007 A 
HETATM    2  C2  UNL     1     -33.766   6.913   4.713  1.00 20.00    -0.014 A 
HETATM    3  C3  UNL     1     -32.798   7.309   3.626  1.00 20.00     0.051 A 
HETATM    4  C4  UNL     1     -33.000   4.925   2.503  1.00 20.00     0.014 A 
HETATM    5  C5  UNL     1     -34.316   5.536   2.890  1.00 20.00     0.014 A 
HETATM    6  C6  UNL     1     -33.162   6.421   2.449  1.00 20.00    -0.002 A 
HETATM    7 BR7  UNL     1     -33.720   7.723   6.356  1.00 20.00    -0.056 Br
ENDROOT
TORSDOF 0
ENDMDL
MODEL 7
REMARK VINA RESULT:      -3.9      1.309      2.232
REMARK  0 active torsions:
REMARK  status: ('A' for Active; 'I' for Inactive)
ROOT
HETATM    1  C1  UNL     1     -33.384   6.619   2.461  1.00 20.00    -0.007 A 
HETATM    2  C2  UNL     1     -32.664   7.740   2.620  1.00 20.00    -0.014 A 
HETATM    3  C3  UNL     1     -32.461   8.029   4.086  1.00 20.00     0.051 A 
HETATM    4  C4  UNL     1     -34.658   6.695   4.708  1.00 20.00     0.014 A 
HETATM    5  C5  UNL     1     -33.761   5.985   3.734  1.00 20.00     0.014 A 
HETATM    6  C6  UNL     1     -33.167   6.890   4.801  1.00 20.00    -0.002 A 
HETATM    7 BR7  UNL     1     -31.981   8.855   1.336  1.00 20.00    -0.056 Br
ENDROOT
TORSDOF 0
ENDMDL
MODEL 8
REMARK VINA RESULT:      -3.5      3.579      5.076
REMARK  0 active torsions:
REMARK  status: ('A' for Active; 'I' for Inactive)
ROOT
HETATM    1  C1  UNL     1     -33.256   9.632   2.117  1.00 20.00    -0.007 A 
HETATM    2  C2  UNL     1     -32.650   8.466   2.384  1.00 20.00    -0.014 A 
HETATM    3  C3  UNL     1     -31.662   8.127   1.297  1.00 20.00     0.051 A 
HETATM    4  C4  UNL     1     -33.009   9.578  -0.455  1.00 20.00     0.014 A 
HETATM    5  C5  UNL     1     -32.791  10.256   0.868  1.00 20.00     0.014 A 
HETATM    6  C6  UNL     1     -31.753   9.289   0.323  1.00 20.00    -0.002 A 
HETATM    7 BR7  UNL     1     -32.904   7.344   3.811  1.00 20.00    -0.056 Br
ENDROOT
TORSDOF 0
ENDMDL
MODEL 9
REMARK VINA RESULT:      -3.5      9.480     10.272
REMARK  0 active torsions:
REMARK  status: ('A' for Active; 'I' for Inactive)
ROOT
HETATM    1  C1  UNL     1     -43.395   6.580  -0.808  1.00 20.00    -0.007 A 
HETATM    2  C2  UNL     1     -42.766   5.416  -1.026  1.00 20.00    -0.014 A 
HETATM    3  C3  UNL     1     -41.341   5.492  -0.539  1.00 20.00     0.051 A 
HETATM    4  C4  UNL     1     -41.318   8.118  -0.845  1.00 20.00     0.014 A 
HETATM    5  C5  UNL     1     -42.544   7.589  -0.156  1.00 20.00     0.014 A 
HETATM    6  C6  UNL     1     -41.205   6.895   0.026  1.00 20.00    -0.002 A 
HETATM    7 BR7  UNL     1     -43.417   3.889  -1.802  1.00 20.00    -0.056 Br
ENDROOT
TORSDOF 0
ENDMDL
