MODEL 1
REMARK VINA RESULT:      -6.5      0.000      0.000
REMARK  0 active torsions:
REMARK  status: ('A' for Active; 'I' for Inactive)
ROOT
HETATM    1  C1  UNL     1     -34.139   6.853   5.055  1.00 20.00     0.022 A 
HETATM    2  C2  UNL     1     -33.846   5.606   2.888  1.00 20.00     0.022 A 
HETATM    3  C3  UNL     1     -33.206   7.735   4.670  1.00 20.00     0.054 A 
HETATM    4  C4  UNL     1     -32.914   6.491   2.508  1.00 20.00     0.054 A 
HETATM    5  C5  UNL     1     -34.557   5.670   4.217  1.00 20.00     0.135 A 
HETATM    6  C6  UNL     1     -32.477   7.643   3.363  1.00 20.00     0.280 A 
HETATM    7  C7  UNL     1     -34.319   4.375   4.994  1.00 20.00     0.061 C 
HETATM    8  F8  UNL     1     -35.903   5.753   3.987  1.00 20.00    -0.234 F 
HETATM    9  F9  UNL     1     -31.137   7.552   3.596  1.00 20.00    -0.197 F 
HETATM   10  F10 UNL     1     -32.645   8.807   2.670  1.00 20.00    -0.197 F 
ENDROOT
TORSDOF 0
ENDMDL
MODEL 2
REMARK VINA RESULT:      -6.3      0.927      3.645
REMARK  0 active torsions:
REMARK  status: ('A' for Active; 'I' for Inactive)
ROOT
HETATM    1  C1  UNL     1     -33.177   7.739   4.570  1.00 20.00     0.022 A 
HETATM    2  C2  UNL     1     -32.829   6.161   2.640  1.00 20.00     0.022 A 
HETATM    3  C3  UNL     1     -34.075   6.894   5.095  1.00 20.00     0.054 A 
HETATM    4  C4  UNL     1     -33.728   5.320   3.170  1.00 20.00     0.054 A 
HETATM    5  C5  UNL     1     -32.459   7.482   3.267  1.00 20.00     0.135 A 
HETATM    6  C6  UNL     1     -34.464   5.600   4.446  1.00 20.00     0.280 A 
HETATM    7  C7  UNL     1     -32.744   8.619   2.286  1.00 20.00     0.061 C 
HETATM    8  F8  UNL     1     -31.112   7.491   3.504  1.00 20.00    -0.234 F 
HETATM    9  F9  UNL     1     -35.806   5.599   4.205  1.00 20.00    -0.197 F 
HETATM   10  F10 UNL     1     -34.253   4.575   5.321  1.00 20.00    -0.197 F 
ENDROOT
TORSDOF 0
ENDMDL
MODEL 3
REMARK VINA RESULT:      -6.0      1.230      3.721
REMARK  0 active torsions:
REMARK  status: ('A' for Active; 'I' for Inactive)
ROOT
HETATM    1  C1  UNL     1     -33.121   6.194   2.693  1.00 20.00     0.022 A 
HETATM    2  C2  UNL     1     -33.710   7.398   4.822  1.00 20.00     0.022 A 
HETATM    3  C3  UNL     1     -33.706   5.084   3.161  1.00 20.00     0.054 A 
HETATM    4  C4  UNL     1     -34.294   6.285   5.287  1.00 20.00     0.054 A 
HETATM    5  C5  UNL     1     -33.035   7.481   3.476  1.00 20.00     0.135 A 
HETATM    6  C6  UNL     1     -34.342   5.000   4.517  1.00 20.00     0.280 A 
HETATM    7  C7  UNL     1     -31.571   7.883   3.654  1.00 20.00     0.061 C 
HETATM    8  F8  UNL     1     -33.633   8.473   2.749  1.00 20.00    -0.234 F 
HETATM    9  F9  UNL     1     -33.739   4.015   5.241  1.00 20.00    -0.197 F 
HETATM   10  F10 UNL     1     -35.641   4.604   4.381  1.00 20.00    -0.197 F 
ENDROOT
TORSDOF 0
ENDMDL
MODEL 4
REMARK VINA RESULT:      -5.7      1.867      2.517
REMARK  0 active torsions:
REMARK  status: ('A' for Active; 'I' for Inactive)
ROOT
HETATM    1  C1  UNL     1     -34.626   5.380   4.141  1.00 20.00     0.022 A 
HETATM    2  C2  UNL     1     -32.923   6.934   3.133  1.00 20.00     0.022 A 
HETATM    3  C3  UNL     1     -34.561   6.061   5.294  1.00 20.00     0.054 A 
HETATM    4  C4  UNL     1     -32.861   7.611   4.287  1.00 20.00     0.054 A 
HETATM    5  C5  UNL     1     -33.799   5.724   2.926  1.00 20.00     0.135 A 
HETATM    6  C6  UNL     1     -33.659   7.241   5.501  1.00 20.00     0.280 A 
HETATM    7  C7  UNL     1     -32.940   4.523   2.528  1.00 20.00     0.061 C 
HETATM    8  F8  UNL     1     -34.645   5.971   1.881  1.00 20.00    -0.234 F 
HETATM    9  F9  UNL     1     -32.812   6.987   6.540  1.00 20.00    -0.197 F 
HETATM   10  F10 UNL     1     -34.403   8.313   5.896  1.00 20.00    -0.197 F 
ENDROOT
TORSDOF 0
ENDMDL
MODEL 5
REMARK VINA RESULT:      -5.4      1.020      2.176
REMARK  0 active torsions:
REMARK  status: ('A' for Active; 'I' for Inactive)
ROOT
HETATM    1  C1  UNL     1     -33.323   5.732   2.925  1.00 20.00     0.022 A 
HETATM    2  C2  UNL     1     -33.797   7.042   5.022  1.00 20.00     0.022 A 
HETATM    3  C3  UNL     1     -32.416   6.649   2.561  1.00 20.00     0.054 A 
HETATM    4  C4  UNL     1     -32.890   7.956   4.653  1.00 20.00     0.054 A 
HETATM    5  C5  UNL     1     -34.138   5.829   4.192  1.00 20.00     0.135 A 
HETATM    6  C6  UNL     1     -32.111   7.872   3.374  1.00 20.00     0.280 A 
HETATM    7  C7  UNL     1     -35.628   5.837   3.850  1.00 20.00     0.061 C 
HETATM    8  F8  UNL     1     -33.909   4.709   4.943  1.00 20.00    -0.234 F 
HETATM    9  F9  UNL     1     -32.348   8.986   2.625  1.00 20.00    -0.197 F 
HETATM   10  F10 UNL     1     -30.777   7.903   3.657  1.00 20.00    -0.197 F 
ENDROOT
TORSDOF 0
ENDMDL
MODEL 6
REMARK VINA RESULT:      -4.9      2.020      2.953
REMARK  0 active torsions:
REMARK  status: ('A' for Active; 'I' for Inactive)
ROOT
HETATM    1  C1  UNL     1     -32.748   6.917   3.135  1.00 20.00     0.022 A 
HETATM    2  C2  UNL     1     -34.452   5.322   4.074  1.00 20.00     0.022 A 
HETATM    3  C3  UNL     1     -32.760   7.604   4.286  1.00 20.00     0.054 A 
HETATM    4  C4  UNL     1     -34.462   6.012   5.223  1.00 20.00     0.054 A 
HETATM    5  C5  UNL     1     -33.608   5.703   2.884  1.00 20.00     0.135 A 
HETATM    6  C6  UNL     1     -33.631   7.239   5.451  1.00 20.00     0.280 A 
HETATM    7  C7  UNL     1     -34.504   5.946   1.669  1.00 20.00     0.061 C 
HETATM    8  F8  UNL     1     -32.794   4.650   2.572  1.00 20.00    -0.234 F 
HETATM    9  F9  UNL     1     -34.446   8.289   5.755  1.00 20.00    -0.197 F 
HETATM   10  F10 UNL     1     -32.851   7.056   6.556  1.00 20.00    -0.197 F 
ENDROOT
TORSDOF 0
ENDMDL
MODEL 7
REMARK VINA RESULT:      -4.4     11.146     12.412
REMARK  0 active torsions:
REMARK  status: ('A' for Active; 'I' for Inactive)
ROOT
HETATM    1  C1  UNL     1     -35.438  13.873  -5.096  1.00 20.00     0.022 A 
HETATM    2  C2  UNL     1     -34.054  15.299  -6.640  1.00 20.00     0.022 A 
HETATM    3  C3  UNL     1     -34.531  14.048  -4.126  1.00 20.00     0.054 A 
HETATM    4  C4  UNL     1     -33.149  15.470  -5.667  1.00 20.00     0.054 A 
HETATM    5  C5  UNL     1     -35.299  14.463  -6.479  1.00 20.00     0.135 A 
HETATM    6  C6  UNL     1     -33.277  14.851  -4.308  1.00 20.00     0.280 A 
HETATM    7  C7  UNL     1     -35.312  13.345  -7.522  1.00 20.00     0.061 C 
HETATM    8  F8  UNL     1     -36.388  15.251  -6.727  1.00 20.00    -0.234 F 
HETATM    9  F9  UNL     1     -32.193  14.060  -4.066  1.00 20.00    -0.197 F 
HETATM   10  F10 UNL     1     -33.228  15.830  -3.359  1.00 20.00    -0.197 F 
ENDROOT
TORSDOF 0
ENDMDL
MODEL 8
REMARK VINA RESULT:      -4.4      1.931      2.864
REMARK  0 active torsions:
REMARK  status: ('A' for Active; 'I' for Inactive)
ROOT
HETATM    1  C1  UNL     1     -32.946   7.281   3.561  1.00 20.00     0.022 A 
HETATM    2  C2  UNL     1     -34.590   5.718   4.650  1.00 20.00     0.022 A 
HETATM    3  C3  UNL     1     -32.538   6.289   2.758  1.00 20.00     0.054 A 
HETATM    4  C4  UNL     1     -34.178   4.729   3.846  1.00 20.00     0.054 A 
HETATM    5  C5  UNL     1     -34.009   7.110   4.618  1.00 20.00     0.135 A 
HETATM    6  C6  UNL     1     -33.095   4.898   2.822  1.00 20.00     0.280 A 
HETATM    7  C7  UNL     1     -33.436   7.464   5.990  1.00 20.00     0.061 C 
HETATM    8  F8  UNL     1     -35.018   7.998   4.368  1.00 20.00    -0.234 F 
HETATM    9  F9  UNL     1     -32.087   4.017   3.079  1.00 20.00    -0.197 F 
HETATM   10  F10 UNL     1     -33.576   4.548   1.595  1.00 20.00    -0.197 F 
ENDROOT
TORSDOF 0
ENDMDL
MODEL 9
REMARK VINA RESULT:      -4.3     11.182     12.627
REMARK  0 active torsions:
REMARK  status: ('A' for Active; 'I' for Inactive)
ROOT
HETATM    1  C1  UNL     1     -34.733  14.002  -4.192  1.00 20.00     0.022 A 
HETATM    2  C2  UNL     1     -33.436  15.271  -5.936  1.00 20.00     0.022 A 
HETATM    3  C3  UNL     1     -35.587  13.584  -5.136  1.00 20.00     0.054 A 
HETATM    4  C4  UNL     1     -34.293  14.850  -6.876  1.00 20.00     0.054 A 
HETATM    5  C5  UNL     1     -33.563  14.913  -4.477  1.00 20.00     0.135 A 
HETATM    6  C6  UNL     1     -35.474  13.975  -6.579  1.00 20.00     0.280 A 
HETATM    7  C7  UNL     1     -33.684  16.187  -3.640  1.00 20.00     0.061 C 
HETATM    8  F8  UNL     1     -32.416  14.285  -4.080  1.00 20.00    -0.234 F 
HETATM    9  F9  UNL     1     -36.617  14.608  -6.969  1.00 20.00    -0.197 F 
HETATM   10  F10 UNL     1     -35.404  12.849  -7.347  1.00 20.00    -0.197 F 
ENDROOT
TORSDOF 0
ENDMDL
