MODEL 1
REMARK VINA RESULT:      -5.5      0.000      0.000
REMARK  1 active torsions:
REMARK  status: ('A' for Active; 'I' for Inactive)
REMARK    1  A    between atoms: C6_6  and  C10_10 
ROOT
HETATM    1  C1  UNL     1     -31.970   8.765   1.424  1.00 20.00     0.017 C 
HETATM    2  C2  UNL     1     -32.472   7.848   2.014  1.00 20.00    -0.083 C 
HETATM    3  C3  UNL     1     -33.924   7.017   3.721  1.00 20.00    -0.002 C 
HETATM    4  C4  UNL     1     -33.069   6.758   2.715  1.00 20.00    -0.009 C 
HETATM    5  C7  UNL     1     -32.739   5.351   2.289  1.00 20.00     0.048 C 
HETATM    6  C8  UNL     1     -33.725   4.311   2.826  1.00 20.00     0.006 C 
HETATM    7  C9  UNL     1     -34.013   4.549   4.305  1.00 20.00     0.012 C 
HETATM    8  C10 UNL     1     -34.609   5.947   4.535  1.00 20.00     0.031 C 
ENDROOT
BRANCH   8   9
HETATM    9  C6  UNL     1     -34.587   6.270   5.998  1.00 20.00    -0.028 C 
HETATM   10  C5  UNL     1     -33.924   7.304   6.526  1.00 20.00     0.007 C 
ENDBRANCH   8   9
TORSDOF 1
ENDMDL
MODEL 2
REMARK VINA RESULT:      -5.2      1.451      2.855
REMARK  1 active torsions:
REMARK  status: ('A' for Active; 'I' for Inactive)
REMARK    1  A    between atoms: C6_6  and  C10_10 
ROOT
HETATM    1  C1  UNL     1     -32.954   9.487  -0.683  1.00 20.00     0.017 C 
HETATM    2  C2  UNL     1     -32.838   9.013   0.413  1.00 20.00    -0.083 C 
HETATM    3  C3  UNL     1     -33.347   7.307   2.007  1.00 20.00    -0.002 C 
HETATM    4  C4  UNL     1     -32.699   8.449   1.716  1.00 20.00    -0.009 C 
HETATM    5  C7  UNL     1     -31.810   9.141   2.718  1.00 20.00     0.048 C 
HETATM    6  C8  UNL     1     -31.428   8.250   3.902  1.00 20.00     0.006 C 
HETATM    7  C9  UNL     1     -32.647   7.506   4.438  1.00 20.00     0.012 C 
HETATM    8  C10 UNL     1     -33.279   6.623   3.350  1.00 20.00     0.031 C 
ENDROOT
BRANCH   8   9
HETATM    9  C6  UNL     1     -34.631   6.160   3.801  1.00 20.00    -0.028 C 
HETATM   10  C5  UNL     1     -34.832   5.312   4.816  1.00 20.00     0.007 C 
ENDBRANCH   8   9
TORSDOF 1
ENDMDL
MODEL 3
REMARK VINA RESULT:      -4.9     11.820     12.483
REMARK  1 active torsions:
REMARK  status: ('A' for Active; 'I' for Inactive)
REMARK    1  A    between atoms: C6_6  and  C10_10 
ROOT
HETATM    1  C1  UNL     1     -34.002  15.542  -4.007  1.00 20.00     0.017 C 
HETATM    2  C2  UNL     1     -34.015  16.222  -3.018  1.00 20.00    -0.083 C 
HETATM    3  C3  UNL     1     -32.963  17.797  -1.562  1.00 20.00    -0.002 C 
HETATM    4  C4  UNL     1     -34.031  17.031  -1.843  1.00 20.00    -0.009 C 
HETATM    5  C7  UNL     1     -35.257  17.017  -0.967  1.00 20.00     0.048 C 
HETATM    6  C8  UNL     1     -35.317  18.197   0.007  1.00 20.00     0.006 C 
HETATM    7  C9  UNL     1     -33.967  18.408   0.687  1.00 20.00     0.012 C 
HETATM    8  C10 UNL     1     -32.864  18.687  -0.347  1.00 20.00     0.031 C 
ENDROOT
BRANCH   8   9
HETATM    9  C6  UNL     1     -31.521  18.577   0.308  1.00 20.00    -0.028 C 
HETATM   10  C5  UNL     1     -31.294  18.852   1.597  1.00 20.00     0.007 C 
ENDBRANCH   8   9
TORSDOF 1
ENDMDL
MODEL 4
REMARK VINA RESULT:      -4.4     11.815     12.516
REMARK  1 active torsions:
REMARK  status: ('A' for Active; 'I' for Inactive)
REMARK    1  A    between atoms: C6_6  and  C10_10 
ROOT
HETATM    1  C1  UNL     1     -33.849  15.604  -4.003  1.00 20.00     0.017 C 
HETATM    2  C2  UNL     1     -33.939  16.272  -3.009  1.00 20.00    -0.083 C 
HETATM    3  C3  UNL     1     -35.146  16.954  -1.063  1.00 20.00    -0.002 C 
HETATM    4  C4  UNL     1     -34.046  17.065  -1.828  1.00 20.00    -0.009 C 
HETATM    5  C7  UNL     1     -32.909  17.984  -1.464  1.00 20.00     0.048 C 
HETATM    6  C8  UNL     1     -32.958  18.457  -0.009  1.00 20.00     0.006 C 
HETATM    7  C9  UNL     1     -34.368  18.897   0.372  1.00 20.00     0.012 C 
HETATM    8  C10 UNL     1     -35.371  17.744   0.202  1.00 20.00     0.031 C 
ENDROOT
BRANCH   8   9
HETATM    9  C6  UNL     1     -36.769  18.280   0.276  1.00 20.00    -0.028 C 
HETATM   10  C5  UNL     1     -37.521  18.560  -0.794  1.00 20.00     0.007 C 
ENDBRANCH   8   9
TORSDOF 1
ENDMDL
MODEL 5
REMARK VINA RESULT:      -4.4      1.032      4.114
REMARK  1 active torsions:
REMARK  status: ('A' for Active; 'I' for Inactive)
REMARK    1  A    between atoms: C6_6  and  C10_10 
ROOT
HETATM    1  C1  UNL     1     -34.074   7.394   6.865  1.00 20.00     0.017 C 
HETATM    2  C2  UNL     1     -33.777   7.249   5.711  1.00 20.00    -0.083 C 
HETATM    3  C3  UNL     1     -32.572   7.947   3.769  1.00 20.00    -0.002 C 
HETATM    4  C4  UNL     1     -33.422   7.076   4.340  1.00 20.00    -0.009 C 
HETATM    5  C7  UNL     1     -33.995   5.905   3.582  1.00 20.00     0.048 C 
HETATM    6  C8  UNL     1     -33.244   5.601   2.284  1.00 20.00     0.006 C 
HETATM    7  C9  UNL     1     -32.972   6.882   1.501  1.00 20.00     0.012 C 
HETATM    8  C10 UNL     1     -32.131   7.868   2.328  1.00 20.00     0.031 C 
ENDROOT
BRANCH   8   9
HETATM    9  C6  UNL     1     -32.147   9.215   1.672  1.00 20.00    -0.028 C 
HETATM   10  C5  UNL     1     -32.527   9.427   0.408  1.00 20.00     0.007 C 
ENDBRANCH   8   9
TORSDOF 1
ENDMDL
MODEL 6
REMARK VINA RESULT:      -4.4     11.328     12.564
REMARK  1 active torsions:
REMARK  status: ('A' for Active; 'I' for Inactive)
REMARK    1  A    between atoms: C6_6  and  C10_10 
ROOT
HETATM    1  C1  UNL     1     -35.579  17.468   0.250  1.00 20.00     0.017 C 
HETATM    2  C2  UNL     1     -35.183  17.196  -0.849  1.00 20.00    -0.083 C 
HETATM    3  C3  UNL     1     -35.387  15.971  -2.891  1.00 20.00    -0.002 C 
HETATM    4  C4  UNL     1     -34.713  16.874  -2.157  1.00 20.00    -0.009 C 
HETATM    5  C7  UNL     1     -33.487  17.576  -2.683  1.00 20.00     0.048 C 
HETATM    6  C8  UNL     1     -33.326  17.454  -4.200  1.00 20.00     0.006 C 
HETATM    7  C9  UNL     1     -33.567  16.019  -4.658  1.00 20.00     0.012 C 
HETATM    8  C10 UNL     1     -34.981  15.548  -4.281  1.00 20.00     0.031 C 
ENDROOT
BRANCH   8   9
HETATM    9  C6  UNL     1     -35.079  14.063  -4.456  1.00 20.00    -0.028 C 
HETATM   10  C5  UNL     1     -35.947  13.462  -5.277  1.00 20.00     0.007 C 
ENDBRANCH   8   9
TORSDOF 1
ENDMDL
MODEL 7
REMARK VINA RESULT:      -4.3     11.647     12.589
REMARK  1 active torsions:
REMARK  status: ('A' for Active; 'I' for Inactive)
REMARK    1  A    between atoms: C6_6  and  C10_10 
ROOT
HETATM    1  C1  UNL     1     -33.709  16.820  -2.318  1.00 20.00     0.017 C 
HETATM    2  C2  UNL     1     -34.485  16.218  -3.008  1.00 20.00    -0.083 C 
HETATM    3  C3  UNL     1     -35.002  14.373  -4.436  1.00 20.00    -0.002 C 
HETATM    4  C4  UNL     1     -35.407  15.501  -3.827  1.00 20.00    -0.009 C 
HETATM    5  C7  UNL     1     -36.815  16.021  -3.963  1.00 20.00     0.048 C 
HETATM    6  C8  UNL     1     -37.793  14.981  -4.514  1.00 20.00     0.006 C 
HETATM    7  C9  UNL     1     -37.192  14.253  -5.712  1.00 20.00     0.012 C 
HETATM    8  C10 UNL     1     -35.886  13.537  -5.328  1.00 20.00     0.031 C 
ENDROOT
BRANCH   8   9
HETATM    9  C6  UNL     1     -35.166  13.105  -6.569  1.00 20.00    -0.028 C 
HETATM   10  C5  UNL     1     -34.483  13.935  -7.365  1.00 20.00     0.007 C 
ENDBRANCH   8   9
TORSDOF 1
ENDMDL
MODEL 8
REMARK VINA RESULT:      -4.3     11.810     12.706
REMARK  1 active torsions:
REMARK  status: ('A' for Active; 'I' for Inactive)
REMARK    1  A    between atoms: C6_6  and  C10_10 
ROOT
HETATM    1  C1  UNL     1     -33.322  18.563   4.852  1.00 20.00     0.017 C 
HETATM    2  C2  UNL     1     -33.281  18.544   3.653  1.00 20.00    -0.083 C 
HETATM    3  C3  UNL     1     -34.383  18.420   1.536  1.00 20.00    -0.002 C 
HETATM    4  C4  UNL     1     -33.234  18.521   2.227  1.00 20.00    -0.009 C 
HETATM    5  C7  UNL     1     -31.896  18.638   1.542  1.00 20.00     0.048 C 
HETATM    6  C8  UNL     1     -32.007  19.006   0.061  1.00 20.00     0.006 C 
HETATM    7  C9  UNL     1     -33.081  18.169  -0.628  1.00 20.00     0.012 C 
HETATM    8  C10 UNL     1     -34.454  18.382   0.029  1.00 20.00     0.031 C 
ENDROOT
BRANCH   8   9
HETATM    9  C6  UNL     1     -35.409  17.331  -0.450  1.00 20.00    -0.028 C 
HETATM   10  C5  UNL     1     -35.361  16.775  -1.665  1.00 20.00     0.007 C 
ENDBRANCH   8   9
TORSDOF 1
ENDMDL
MODEL 9
REMARK VINA RESULT:      -4.3     11.061     12.587
REMARK  1 active torsions:
REMARK  status: ('A' for Active; 'I' for Inactive)
REMARK    1  A    between atoms: C6_6  and  C10_10 
ROOT
HETATM    1  C1  UNL     1     -35.897  17.578   1.175  1.00 20.00     0.017 C 
HETATM    2  C2  UNL     1     -35.430  17.454   0.077  1.00 20.00    -0.083 C 
HETATM    3  C3  UNL     1     -35.600  16.692  -2.182  1.00 20.00    -0.002 C 
HETATM    4  C4  UNL     1     -34.876  17.307  -1.230  1.00 20.00    -0.009 C 
HETATM    5  C7  UNL     1     -33.505  17.869  -1.506  1.00 20.00     0.048 C 
HETATM    6  C8  UNL     1     -33.200  18.010  -2.999  1.00 20.00     0.006 C 
HETATM    7  C9  UNL     1     -33.613  16.753  -3.759  1.00 20.00     0.012 C 
HETATM    8  C10 UNL     1     -35.116  16.475  -3.594  1.00 20.00     0.031 C 
ENDROOT
BRANCH   8   9
HETATM    9  C6  UNL     1     -35.427  15.091  -4.077  1.00 20.00    -0.028 C 
HETATM   10  C5  UNL     1     -34.531  14.100  -4.135  1.00 20.00     0.007 C 
ENDBRANCH   8   9
TORSDOF 1
ENDMDL
