MODEL 1
REMARK VINA RESULT:      -5.8      0.000      0.000
REMARK  1 active torsions:
REMARK  status: ('A' for Active; 'I' for Inactive)
REMARK    1  A    between atoms: C8_8  and  N9_9 
ROOT
HETATM    1  C1  UNL     1     -33.093   7.609   4.561  1.00 20.00     0.050 C 
HETATM    2  C2  UNL     1     -33.628   7.131   5.689  1.00 20.00     0.136 C 
HETATM    3  C3  UNL     1     -33.297   6.820   3.325  1.00 20.00     0.033 C 
HETATM    4  C4  UNL     1     -33.966   5.478   3.474  1.00 20.00     0.085 C 
HETATM    5  C7  UNL     1     -34.998   5.579   4.585  1.00 20.00     0.180 C 
HETATM    6  N9  UNL     1     -32.892   7.206   2.160  1.00 20.00    -0.289 NA
HETATM    7  O10 UNL     1     -34.424   6.022   5.820  1.00 20.00    -0.363 OA
ENDROOT
BRANCH   6   8
HETATM    8  C8  UNL     1     -32.211   8.491   2.157  1.00 20.00     0.108 A 
HETATM    9  C5  UNL     1     -31.384   8.844   0.953  1.00 20.00     0.029 A 
HETATM   10  C6  UNL     1     -32.693   9.536   1.191  1.00 20.00     0.029 A 
ENDBRANCH   6   8
TORSDOF 1
ENDMDL
MODEL 2
REMARK VINA RESULT:      -5.1      0.883      1.793
REMARK  1 active torsions:
REMARK  status: ('A' for Active; 'I' for Inactive)
REMARK    1  A    between atoms: C8_8  and  N9_9 
ROOT
HETATM    1  C1  UNL     1     -34.251   6.390   3.200  1.00 20.00     0.050 C 
HETATM    2  C2  UNL     1     -35.056   5.582   3.899  1.00 20.00     0.136 C 
HETATM    3  C3  UNL     1     -33.375   7.305   3.965  1.00 20.00     0.033 C 
HETATM    4  C4  UNL     1     -33.571   7.347   5.459  1.00 20.00     0.085 C 
HETATM    5  C7  UNL     1     -33.945   5.952   5.932  1.00 20.00     0.180 C 
HETATM    6  N9  UNL     1     -32.503   8.083   3.413  1.00 20.00    -0.289 NA
HETATM    7  O10 UNL     1     -35.105   5.445   5.262  1.00 20.00    -0.363 OA
ENDROOT
BRANCH   6   8
HETATM    8  C8  UNL     1     -32.450   7.990   1.963  1.00 20.00     0.108 A 
HETATM    9  C5  UNL     1     -32.714   9.239   1.170  1.00 20.00     0.029 A 
HETATM   10  C6  UNL     1     -31.321   8.689   1.258  1.00 20.00     0.029 A 
ENDBRANCH   6   8
TORSDOF 1
ENDMDL
MODEL 3
REMARK VINA RESULT:      -4.1     10.844     11.496
REMARK  1 active torsions:
REMARK  status: ('A' for Active; 'I' for Inactive)
REMARK    1  A    between atoms: C8_8  and  N9_9 
ROOT
HETATM    1  C1  UNL     1     -36.582  15.698  -3.883  1.00 20.00     0.050 C 
HETATM    2  C2  UNL     1     -37.568  15.018  -4.478  1.00 20.00     0.136 C 
HETATM    3  C3  UNL     1     -35.221  15.120  -3.949  1.00 20.00     0.033 C 
HETATM    4  C4  UNL     1     -35.092  13.747  -4.556  1.00 20.00     0.085 C 
HETATM    5  C7  UNL     1     -36.112  13.619  -5.674  1.00 20.00     0.180 C 
HETATM    6  N9  UNL     1     -34.173  15.711  -3.477  1.00 20.00    -0.289 NA
HETATM    7  O10 UNL     1     -37.447  13.872  -5.222  1.00 20.00    -0.363 OA
ENDROOT
BRANCH   6   8
HETATM    8  C8  UNL     1     -34.438  17.004  -2.866  1.00 20.00     0.108 A 
HETATM    9  C5  UNL     1     -34.512  17.070  -1.367  1.00 20.00     0.029 A 
HETATM   10  C6  UNL     1     -33.328  17.649  -2.084  1.00 20.00     0.029 A 
ENDBRANCH   6   8
TORSDOF 1
ENDMDL
MODEL 4
REMARK VINA RESULT:      -4.0     11.025     11.454
REMARK  1 active torsions:
REMARK  status: ('A' for Active; 'I' for Inactive)
REMARK    1  A    between atoms: C8_8  and  N9_9 
ROOT
HETATM    1  C1  UNL     1     -33.530  15.326  -3.944  1.00 20.00     0.050 C 
HETATM    2  C2  UNL     1     -33.389  14.449  -4.943  1.00 20.00     0.136 C 
HETATM    3  C3  UNL     1     -34.908  15.660  -3.520  1.00 20.00     0.033 C 
HETATM    4  C4  UNL     1     -36.032  15.091  -4.347  1.00 20.00     0.085 C 
HETATM    5  C7  UNL     1     -35.616  13.716  -4.841  1.00 20.00     0.180 C 
HETATM    6  N9  UNL     1     -35.178  16.436  -2.523  1.00 20.00    -0.289 NA
HETATM    7  O10 UNL     1     -34.387  13.752  -5.575  1.00 20.00    -0.363 OA
ENDROOT
BRANCH   6   8
HETATM    8  C8  UNL     1     -34.007  16.966  -1.842  1.00 20.00     0.108 A 
HETATM    9  C5  UNL     1     -33.802  18.455  -1.853  1.00 20.00     0.029 A 
HETATM   10  C6  UNL     1     -34.229  17.767  -0.590  1.00 20.00     0.029 A 
ENDBRANCH   6   8
TORSDOF 1
ENDMDL
MODEL 5
REMARK VINA RESULT:      -3.8      2.338      4.563
REMARK  1 active torsions:
REMARK  status: ('A' for Active; 'I' for Inactive)
REMARK    1  A    between atoms: C8_8  and  N9_9 
ROOT
HETATM    1  C1  UNL     1     -33.362   6.997   2.434  1.00 20.00     0.050 C 
HETATM    2  C2  UNL     1     -32.774   7.585   1.386  1.00 20.00     0.136 C 
HETATM    3  C3  UNL     1     -32.856   7.343   3.780  1.00 20.00     0.033 C 
HETATM    4  C4  UNL     1     -31.630   8.217   3.845  1.00 20.00     0.085 C 
HETATM    5  C7  UNL     1     -31.682   9.202   2.690  1.00 20.00     0.180 C 
HETATM    6  N9  UNL     1     -33.383   6.900   4.874  1.00 20.00    -0.289 NA
HETATM    7  O10 UNL     1     -31.797   8.547   1.422  1.00 20.00    -0.363 OA
ENDROOT
BRANCH   6   8
HETATM    8  C8  UNL     1     -34.525   6.022   4.677  1.00 20.00     0.108 A 
HETATM    9  C5  UNL     1     -34.254   4.570   4.401  1.00 20.00     0.029 A 
HETATM   10  C6  UNL     1     -34.804   4.989   5.732  1.00 20.00     0.029 A 
ENDBRANCH   6   8
TORSDOF 1
ENDMDL
MODEL 6
REMARK VINA RESULT:      -3.8     10.810     11.506
REMARK  1 active torsions:
REMARK  status: ('A' for Active; 'I' for Inactive)
REMARK    1  A    between atoms: C8_8  and  N9_9 
ROOT
HETATM    1  C1  UNL     1     -35.059  17.007  -1.211  1.00 20.00     0.050 C 
HETATM    2  C2  UNL     1     -35.132  17.742  -0.095  1.00 20.00     0.136 C 
HETATM    3  C3  UNL     1     -33.861  17.182  -2.063  1.00 20.00     0.033 C 
HETATM    4  C4  UNL     1     -32.900  18.275  -1.672  1.00 20.00     0.085 C 
HETATM    5  C7  UNL     1     -32.872  18.369  -0.156  1.00 20.00     0.180 C 
HETATM    6  N9  UNL     1     -33.637  16.483  -3.126  1.00 20.00    -0.289 NA
HETATM    7  O10 UNL     1     -34.174  18.590   0.398  1.00 20.00    -0.363 OA
ENDROOT
BRANCH   6   8
HETATM    8  C8  UNL     1     -34.666  15.501  -3.427  1.00 20.00     0.108 A 
HETATM    9  C5  UNL     1     -35.072  15.328  -4.863  1.00 20.00     0.029 A 
HETATM   10  C6  UNL     1     -34.257  14.268  -4.183  1.00 20.00     0.029 A 
ENDBRANCH   6   8
TORSDOF 1
ENDMDL
MODEL 7
REMARK VINA RESULT:      -3.8     10.994     12.150
REMARK  1 active torsions:
REMARK  status: ('A' for Active; 'I' for Inactive)
REMARK    1  A    between atoms: C8_8  and  N9_9 
ROOT
HETATM    1  C1  UNL     1     -34.481  15.196  -3.793  1.00 20.00     0.050 C 
HETATM    2  C2  UNL     1     -34.724  14.013  -4.369  1.00 20.00     0.136 C 
HETATM    3  C3  UNL     1     -33.789  16.219  -4.607  1.00 20.00     0.033 C 
HETATM    4  C4  UNL     1     -33.292  15.791  -5.964  1.00 20.00     0.085 C 
HETATM    5  C7  UNL     1     -34.276  14.785  -6.539  1.00 20.00     0.180 C 
HETATM    6  N9  UNL     1     -33.559  17.422  -4.194  1.00 20.00    -0.289 NA
HETATM    7  O10 UNL     1     -34.475  13.663  -5.671  1.00 20.00    -0.363 OA
ENDROOT
BRANCH   6   8
HETATM    8  C8  UNL     1     -34.037  17.694  -2.847  1.00 20.00     0.108 A 
HETATM    9  C5  UNL     1     -33.022  17.763  -1.743  1.00 20.00     0.029 A 
HETATM   10  C6  UNL     1     -33.680  19.019  -2.233  1.00 20.00     0.029 A 
ENDBRANCH   6   8
TORSDOF 1
ENDMDL
MODEL 8
REMARK VINA RESULT:      -3.7     11.204     11.960
REMARK  1 active torsions:
REMARK  status: ('A' for Active; 'I' for Inactive)
REMARK    1  A    between atoms: C8_8  and  N9_9 
ROOT
HETATM    1  C1  UNL     1     -35.378  14.499  -4.514  1.00 20.00     0.050 C 
HETATM    2  C2  UNL     1     -35.849  13.359  -5.031  1.00 20.00     0.136 C 
HETATM    3  C3  UNL     1     -34.282  15.175  -5.244  1.00 20.00     0.033 C 
HETATM    4  C4  UNL     1     -33.698  14.444  -6.426  1.00 20.00     0.085 C 
HETATM    5  C7  UNL     1     -34.813  13.674  -7.113  1.00 20.00     0.180 C 
HETATM    6  N9  UNL     1     -33.789  16.315  -4.890  1.00 20.00    -0.289 NA
HETATM    7  O10 UNL     1     -35.484  12.778  -6.219  1.00 20.00    -0.363 OA
ENDROOT
BRANCH   6   8
HETATM    8  C8  UNL     1     -34.399  16.890  -3.702  1.00 20.00     0.108 A 
HETATM    9  C5  UNL     1     -33.587  16.916  -2.438  1.00 20.00     0.029 A 
HETATM   10  C6  UNL     1     -33.844  18.189  -3.189  1.00 20.00     0.029 A 
ENDBRANCH   6   8
TORSDOF 1
ENDMDL
MODEL 9
REMARK VINA RESULT:      -3.7     11.334     12.156
REMARK  1 active torsions:
REMARK  status: ('A' for Active; 'I' for Inactive)
REMARK    1  A    between atoms: C8_8  and  N9_9 
ROOT
HETATM    1  C1  UNL     1     -35.397  14.353  -4.517  1.00 20.00     0.050 C 
HETATM    2  C2  UNL     1     -35.769  13.494  -5.472  1.00 20.00     0.136 C 
HETATM    3  C3  UNL     1     -35.648  15.791  -4.760  1.00 20.00     0.033 C 
HETATM    4  C4  UNL     1     -36.169  16.172  -6.122  1.00 20.00     0.085 C 
HETATM    5  C7  UNL     1     -37.089  15.065  -6.610  1.00 20.00     0.180 C 
HETATM    6  N9  UNL     1     -35.400  16.713  -3.890  1.00 20.00    -0.289 NA
HETATM    7  O10 UNL     1     -36.439  13.789  -6.632  1.00 20.00    -0.363 OA
ENDROOT
BRANCH   6   8
HETATM    8  C8  UNL     1     -34.847  16.223  -2.637  1.00 20.00     0.108 A 
HETATM    9  C5  UNL     1     -33.828  17.077  -1.939  1.00 20.00     0.029 A 
HETATM   10  C6  UNL     1     -35.213  16.956  -1.377  1.00 20.00     0.029 A 
ENDBRANCH   6   8
TORSDOF 1
ENDMDL
