MODEL 1
REMARK VINA RESULT:      -5.3      0.000      0.000
REMARK  0 active torsions:
REMARK  status: ('A' for Active; 'I' for Inactive)
ROOT
HETATM    1  C1  UNL     1     -32.245   8.010   2.557  1.00 20.00     0.014 C 
HETATM    2  C2  UNL     1     -33.011   7.225   3.043  1.00 20.00    -0.091 C 
HETATM    3  C3  UNL     1     -34.244   4.052   4.571  1.00 20.00     0.003 C 
HETATM    4  C4  UNL     1     -34.629   5.082   5.634  1.00 20.00     0.003 C 
HETATM    5  C5  UNL     1     -33.476   4.819   3.496  1.00 20.00     0.039 C 
HETATM    6  C6  UNL     1     -34.071   6.419   5.149  1.00 20.00     0.039 C 
HETATM    7  C7  UNL     1     -33.945   6.265   3.635  1.00 20.00     0.099 C 
HETATM    8 CL8  UNL     1     -35.534   6.492   2.844  1.00 20.00    -0.105 Cl
ENDROOT
TORSDOF 0
ENDMDL
MODEL 2
REMARK VINA RESULT:      -4.8      1.631      1.986
REMARK  0 active torsions:
REMARK  status: ('A' for Active; 'I' for Inactive)
ROOT
HETATM    1  C1  UNL     1     -32.184   8.491   1.854  1.00 20.00     0.014 C 
HETATM    2  C2  UNL     1     -32.713   7.614   2.479  1.00 20.00    -0.091 C 
HETATM    3  C3  UNL     1     -34.473   5.922   5.301  1.00 20.00     0.003 C 
HETATM    4  C4  UNL     1     -35.432   5.668   4.135  1.00 20.00     0.003 C 
HETATM    5  C5  UNL     1     -33.359   6.808   4.747  1.00 20.00     0.039 C 
HETATM    6  C6  UNL     1     -34.849   6.417   2.938  1.00 20.00     0.039 C 
HETATM    7  C7  UNL     1     -33.358   6.545   3.243  1.00 20.00     0.099 C 
HETATM    8 CL8  UNL     1     -32.505   5.017   2.870  1.00 20.00    -0.105 Cl
ENDROOT
TORSDOF 0
ENDMDL
MODEL 3
REMARK VINA RESULT:      -4.5      1.626      2.001
REMARK  0 active torsions:
REMARK  status: ('A' for Active; 'I' for Inactive)
ROOT
HETATM    1  C1  UNL     1     -32.198   8.404   1.801  1.00 20.00     0.014 C 
HETATM    2  C2  UNL     1     -32.746   7.690   2.596  1.00 20.00    -0.091 C 
HETATM    3  C3  UNL     1     -35.363   5.471   4.060  1.00 20.00     0.003 C 
HETATM    4  C4  UNL     1     -34.128   4.569   4.104  1.00 20.00     0.003 C 
HETATM    5  C5  UNL     1     -34.926   6.756   3.359  1.00 20.00     0.039 C 
HETATM    6  C6  UNL     1     -33.007   5.355   3.424  1.00 20.00     0.039 C 
HETATM    7  C7  UNL     1     -33.414   6.820   3.565  1.00 20.00     0.099 C 
HETATM    8 CL8  UNL     1     -33.025   7.427   5.202  1.00 20.00    -0.105 Cl
ENDROOT
TORSDOF 0
ENDMDL
MODEL 4
REMARK VINA RESULT:      -4.4      1.183      2.219
REMARK  0 active torsions:
REMARK  status: ('A' for Active; 'I' for Inactive)
ROOT
HETATM    1  C1  UNL     1     -32.903   4.283   2.101  1.00 20.00     0.014 C 
HETATM    2  C2  UNL     1     -33.456   4.958   2.925  1.00 20.00    -0.091 C 
HETATM    3  C3  UNL     1     -34.536   6.162   6.288  1.00 20.00     0.003 C 
HETATM    4  C4  UNL     1     -33.880   7.414   5.702  1.00 20.00     0.003 C 
HETATM    5  C5  UNL     1     -34.326   5.053   5.258  1.00 20.00     0.039 C 
HETATM    6  C6  UNL     1     -33.305   6.997   4.349  1.00 20.00     0.039 C 
HETATM    7  C7  UNL     1     -34.129   5.781   3.930  1.00 20.00     0.099 C 
HETATM    8 CL8  UNL     1     -35.704   6.292   3.252  1.00 20.00    -0.105 Cl
ENDROOT
TORSDOF 0
ENDMDL
MODEL 5
REMARK VINA RESULT:      -4.4      2.111      3.918
REMARK  0 active torsions:
REMARK  status: ('A' for Active; 'I' for Inactive)
ROOT
HETATM    1  C1  UNL     1     -33.893   7.170   5.924  1.00 20.00     0.014 C 
HETATM    2  C2  UNL     1     -33.452   7.263   4.812  1.00 20.00    -0.091 C 
HETATM    3  C3  UNL     1     -32.799   8.707   1.434  1.00 20.00     0.003 C 
HETATM    4  C4  UNL     1     -31.381   8.535   1.981  1.00 20.00     0.003 C 
HETATM    5  C5  UNL     1     -33.742   8.304   2.567  1.00 20.00     0.039 C 
HETATM    6  C6  UNL     1     -31.539   8.040   3.418  1.00 20.00     0.039 C 
HETATM    7  C7  UNL     1     -32.915   7.378   3.456  1.00 20.00     0.099 C 
HETATM    8 CL8  UNL     1     -32.841   5.732   2.757  1.00 20.00    -0.105 Cl
ENDROOT
TORSDOF 0
ENDMDL
MODEL 6
REMARK VINA RESULT:      -4.3      1.204      2.287
REMARK  0 active torsions:
REMARK  status: ('A' for Active; 'I' for Inactive)
ROOT
HETATM    1  C1  UNL     1     -33.812   7.691   6.220  1.00 20.00     0.014 C 
HETATM    2  C2  UNL     1     -33.987   6.878   5.356  1.00 20.00    -0.091 C 
HETATM    3  C3  UNL     1     -33.194   4.563   2.539  1.00 20.00     0.003 C 
HETATM    4  C4  UNL     1     -33.821   3.611   3.560  1.00 20.00     0.003 C 
HETATM    5  C5  UNL     1     -33.122   5.928   3.221  1.00 20.00     0.039 C 
HETATM    6  C6  UNL     1     -34.091   4.449   4.809  1.00 20.00     0.039 C 
HETATM    7  C7  UNL     1     -34.200   5.885   4.301  1.00 20.00     0.099 C 
HETATM    8 CL8  UNL     1     -35.816   6.182   3.591  1.00 20.00    -0.105 Cl
ENDROOT
TORSDOF 0
ENDMDL
MODEL 7
REMARK VINA RESULT:      -3.9      0.841      3.383
REMARK  0 active torsions:
REMARK  status: ('A' for Active; 'I' for Inactive)
ROOT
HETATM    1  C1  UNL     1     -34.695   4.653   6.114  1.00 20.00     0.014 C 
HETATM    2  C2  UNL     1     -34.479   5.307   5.131  1.00 20.00    -0.091 C 
HETATM    3  C3  UNL     1     -32.859   7.835   2.915  1.00 20.00     0.003 C 
HETATM    4  C4  UNL     1     -32.703   6.552   2.095  1.00 20.00     0.003 C 
HETATM    5  C5  UNL     1     -33.494   7.415   4.240  1.00 20.00     0.039 C 
HETATM    6  C6  UNL     1     -33.248   5.423   2.968  1.00 20.00     0.039 C 
HETATM    7  C7  UNL     1     -34.216   6.105   3.933  1.00 20.00     0.099 C 
HETATM    8 CL8  UNL     1     -35.785   6.422   3.132  1.00 20.00    -0.105 Cl
ENDROOT
TORSDOF 0
ENDMDL
MODEL 8
REMARK VINA RESULT:      -3.8      2.390      4.694
REMARK  0 active torsions:
REMARK  status: ('A' for Active; 'I' for Inactive)
ROOT
HETATM    1  C1  UNL     1     -33.548   5.730   2.926  1.00 20.00     0.014 C 
HETATM    2  C2  UNL     1     -33.066   6.791   2.640  1.00 20.00    -0.091 C 
HETATM    3  C3  UNL     1     -31.722   9.545   0.512  1.00 20.00     0.003 C 
HETATM    4  C4  UNL     1     -32.833  10.260   1.286  1.00 20.00     0.003 C 
HETATM    5  C5  UNL     1     -31.798   8.076   0.923  1.00 20.00     0.039 C 
HETATM    6  C6  UNL     1     -33.524   9.184   2.122  1.00 20.00     0.039 C 
HETATM    7  C7  UNL     1     -32.478   8.084   2.290  1.00 20.00     0.099 C 
HETATM    8 CL8  UNL     1     -31.309   8.518   3.574  1.00 20.00    -0.105 Cl
ENDROOT
TORSDOF 0
ENDMDL
MODEL 9
REMARK VINA RESULT:      -3.7     12.103     12.813
REMARK  0 active torsions:
REMARK  status: ('A' for Active; 'I' for Inactive)
ROOT
HETATM    1  C1  UNL     1     -33.682  16.903  -2.368  1.00 20.00     0.014 C 
HETATM    2  C2  UNL     1     -33.686  16.127  -3.283  1.00 20.00    -0.091 C 
HETATM    3  C3  UNL     1     -35.031  13.966  -6.012  1.00 20.00     0.003 C 
HETATM    4  C4  UNL     1     -34.046  14.856  -6.773  1.00 20.00     0.003 C 
HETATM    5  C5  UNL     1     -35.036  14.475  -4.572  1.00 20.00     0.039 C 
HETATM    6  C6  UNL     1     -33.509  15.860  -5.754  1.00 20.00     0.039 C 
HETATM    7  C7  UNL     1     -33.692  15.180  -4.399  1.00 20.00     0.099 C 
HETATM    8 CL8  UNL     1     -32.388  13.989  -4.111  1.00 20.00    -0.105 Cl
ENDROOT
TORSDOF 0
ENDMDL
