MODEL 1
REMARK VINA RESULT:      -5.9      0.000      0.000
REMARK  0 active torsions:
REMARK  status: ('A' for Active; 'I' for Inactive)
ROOT
HETATM    1  C1  UNL     1     -33.088   6.979   3.386  1.00 20.00     0.041 A 
HETATM    2  C2  UNL     1     -33.802   6.750   4.503  1.00 20.00     0.101 A 
HETATM    3  C3  UNL     1     -33.815   5.923   2.587  1.00 20.00     0.138 A 
HETATM    4  C4  UNL     1     -34.643   5.651   3.865  1.00 20.00     0.287 A 
HETATM    5  F5  UNL     1     -34.520   4.396   4.361  1.00 20.00    -0.199 F 
HETATM    6  F6  UNL     1     -35.973   5.869   3.733  1.00 20.00    -0.199 F 
HETATM    7 CL7  UNL     1     -31.785   8.097   2.990  1.00 20.00    -0.087 Cl
HETATM    8 CL8  UNL     1     -33.786   7.455   6.119  1.00 20.00    -0.081 Cl
ENDROOT
TORSDOF 0
ENDMDL
MODEL 2
REMARK VINA RESULT:      -5.4      1.271      2.716
REMARK  0 active torsions:
REMARK  status: ('A' for Active; 'I' for Inactive)
ROOT
HETATM    1  C1  UNL     1     -33.814   6.689   4.618  1.00 20.00     0.041 A 
HETATM    2  C2  UNL     1     -33.109   6.881   3.488  1.00 20.00     0.101 A 
HETATM    3  C3  UNL     1     -34.555   5.493   4.069  1.00 20.00     0.138 A 
HETATM    4  C4  UNL     1     -33.752   5.704   2.764  1.00 20.00     0.287 A 
HETATM    5  F5  UNL     1     -34.507   5.971   1.672  1.00 20.00    -0.199 F 
HETATM    6  F6  UNL     1     -32.955   4.665   2.418  1.00 20.00    -0.199 F 
HETATM    7 CL7  UNL     1     -33.860   7.519   6.172  1.00 20.00    -0.087 Cl
HETATM    8 CL8  UNL     1     -31.888   8.057   3.005  1.00 20.00    -0.081 Cl
ENDROOT
TORSDOF 0
ENDMDL
MODEL 3
REMARK VINA RESULT:      -5.2      1.479      2.319
REMARK  0 active torsions:
REMARK  status: ('A' for Active; 'I' for Inactive)
ROOT
HETATM    1  C1  UNL     1     -33.048   7.059   3.827  1.00 20.00     0.041 A 
HETATM    2  C2  UNL     1     -33.473   5.830   3.483  1.00 20.00     0.101 A 
HETATM    3  C3  UNL     1     -34.105   7.234   4.892  1.00 20.00     0.138 A 
HETATM    4  C4  UNL     1     -34.603   5.821   4.505  1.00 20.00     0.287 A 
HETATM    5  F5  UNL     1     -35.875   5.778   4.039  1.00 20.00    -0.199 F 
HETATM    6  F6  UNL     1     -34.544   4.909   5.504  1.00 20.00    -0.199 F 
HETATM    7 CL7  UNL     1     -31.741   8.093   3.255  1.00 20.00    -0.087 Cl
HETATM    8 CL8  UNL     1     -32.933   4.650   2.290  1.00 20.00    -0.081 Cl
ENDROOT
TORSDOF 0
ENDMDL
MODEL 4
REMARK VINA RESULT:      -5.1      2.523      3.151
REMARK  0 active torsions:
REMARK  status: ('A' for Active; 'I' for Inactive)
ROOT
HETATM    1  C1  UNL     1     -33.823   5.691   3.894  1.00 20.00     0.041 A 
HETATM    2  C2  UNL     1     -33.517   6.873   4.458  1.00 20.00     0.101 A 
HETATM    3  C3  UNL     1     -33.202   6.051   2.566  1.00 20.00     0.138 A 
HETATM    4  C4  UNL     1     -32.844   7.415   3.203  1.00 20.00     0.287 A 
HETATM    5  F5  UNL     1     -33.410   8.487   2.598  1.00 20.00    -0.199 F 
HETATM    6  F6  UNL     1     -31.518   7.680   3.262  1.00 20.00    -0.199 F 
HETATM    7 CL7  UNL     1     -34.644   4.246   4.481  1.00 20.00    -0.087 Cl
HETATM    8 CL8  UNL     1     -33.787   7.560   6.059  1.00 20.00    -0.081 Cl
ENDROOT
TORSDOF 0
ENDMDL
MODEL 5
REMARK VINA RESULT:      -5.0      1.869      2.414
REMARK  0 active torsions:
REMARK  status: ('A' for Active; 'I' for Inactive)
ROOT
HETATM    1  C1  UNL     1     -33.561   6.905   4.622  1.00 20.00     0.041 A 
HETATM    2  C2  UNL     1     -34.047   5.710   4.239  1.00 20.00     0.101 A 
HETATM    3  C3  UNL     1     -33.019   7.235   3.252  1.00 20.00     0.138 A 
HETATM    4  C4  UNL     1     -33.572   5.864   2.799  1.00 20.00     0.287 A 
HETATM    5  F5  UNL     1     -32.634   4.997   2.348  1.00 20.00    -0.199 F 
HETATM    6  F6  UNL     1     -34.514   5.929   1.828  1.00 20.00    -0.199 F 
HETATM    7 CL7  UNL     1     -33.557   7.774   6.156  1.00 20.00    -0.087 Cl
HETATM    8 CL8  UNL     1     -34.914   4.426   5.080  1.00 20.00    -0.081 Cl
ENDROOT
TORSDOF 0
ENDMDL
MODEL 6
REMARK VINA RESULT:      -4.7      2.716      3.595
REMARK  0 active torsions:
REMARK  status: ('A' for Active; 'I' for Inactive)
ROOT
HETATM    1  C1  UNL     1     -33.914   6.114   4.638  1.00 20.00     0.041 A 
HETATM    2  C2  UNL     1     -33.269   6.014   3.461  1.00 20.00     0.101 A 
HETATM    3  C3  UNL     1     -33.570   7.574   4.815  1.00 20.00     0.138 A 
HETATM    4  C4  UNL     1     -32.826   7.472   3.463  1.00 20.00     0.287 A 
HETATM    5  F5  UNL     1     -31.497   7.727   3.529  1.00 20.00    -0.199 F 
HETATM    6  F6  UNL     1     -33.310   8.281   2.490  1.00 20.00    -0.199 F 
HETATM    7 CL7  UNL     1     -34.826   4.968   5.619  1.00 20.00    -0.087 Cl
HETATM    8 CL8  UNL     1     -33.019   4.692   2.322  1.00 20.00    -0.081 Cl
ENDROOT
TORSDOF 0
ENDMDL
MODEL 7
REMARK VINA RESULT:      -4.1      2.539      2.890
REMARK  0 active torsions:
REMARK  status: ('A' for Active; 'I' for Inactive)
ROOT
HETATM    1  C1  UNL     1     -33.170   5.517   2.965  1.00 20.00     0.041 A 
HETATM    2  C2  UNL     1     -33.847   5.720   4.109  1.00 20.00     0.101 A 
HETATM    3  C3  UNL     1     -32.747   6.962   2.844  1.00 20.00     0.138 A 
HETATM    4  C4  UNL     1     -33.522   7.207   4.159  1.00 20.00     0.287 A 
HETATM    5  F5  UNL     1     -34.552   8.082   4.054  1.00 20.00    -0.199 F 
HETATM    6  F6  UNL     1     -32.761   7.653   5.187  1.00 20.00    -0.199 F 
HETATM    7 CL7  UNL     1     -32.877   4.093   1.967  1.00 20.00    -0.087 Cl
HETATM    8 CL8  UNL     1     -34.775   4.664   5.174  1.00 20.00    -0.081 Cl
ENDROOT
TORSDOF 0
ENDMDL
MODEL 8
REMARK VINA RESULT:      -4.0      2.163      2.785
REMARK  0 active torsions:
REMARK  status: ('A' for Active; 'I' for Inactive)
ROOT
HETATM    1  C1  UNL     1     -33.390   5.710   3.358  1.00 20.00     0.041 A 
HETATM    2  C2  UNL     1     -32.921   6.942   3.626  1.00 20.00     0.101 A 
HETATM    3  C3  UNL     1     -34.326   5.701   4.543  1.00 20.00     0.138 A 
HETATM    4  C4  UNL     1     -33.795   7.118   4.862  1.00 20.00     0.287 A 
HETATM    5  F5  UNL     1     -33.175   7.232   6.062  1.00 20.00    -0.199 F 
HETATM    6  F6  UNL     1     -34.735   8.092   4.837  1.00 20.00    -0.199 F 
HETATM    7 CL7  UNL     1     -33.046   4.533   2.092  1.00 20.00    -0.087 Cl
HETATM    8 CL8  UNL     1     -31.732   7.984   2.846  1.00 20.00    -0.081 Cl
ENDROOT
TORSDOF 0
ENDMDL
MODEL 9
REMARK VINA RESULT:      -3.6     11.984     12.613
REMARK  0 active torsions:
REMARK  status: ('A' for Active; 'I' for Inactive)
ROOT
HETATM    1  C1  UNL     1     -35.453  14.549  -4.799  1.00 20.00     0.041 A 
HETATM    2  C2  UNL     1     -34.452  14.218  -5.634  1.00 20.00     0.101 A 
HETATM    3  C3  UNL     1     -34.525  15.126  -3.756  1.00 20.00     0.138 A 
HETATM    4  C4  UNL     1     -33.365  14.750  -4.708  1.00 20.00     0.287 A 
HETATM    5  F5  UNL     1     -32.480  13.860  -4.196  1.00 20.00    -0.199 F 
HETATM    6  F6  UNL     1     -32.626  15.800  -5.139  1.00 20.00    -0.199 F 
HETATM    7 CL7  UNL     1     -37.205  14.379  -4.882  1.00 20.00    -0.087 Cl
HETATM    8 CL8  UNL     1     -34.398  13.450  -7.220  1.00 20.00    -0.081 Cl
ENDROOT
TORSDOF 0
ENDMDL
