MODEL 1
REMARK VINA RESULT:      -4.7      0.000      0.000
REMARK  1 active torsions:
REMARK  status: ('A' for Active; 'I' for Inactive)
REMARK    1  A    between atoms: C6_6  and  C10_10 
ROOT
HETATM    1  C1  UNL     1     -33.453  15.522  -4.501  1.00 20.00     0.142 A 
HETATM    2  C2  UNL     1     -36.620  14.930  -4.542  1.00 20.00     0.006 C 
HETATM    3  C3  UNL     1     -35.912  16.281  -4.382  1.00 20.00     0.019 C 
HETATM    4  C4  UNL     1     -34.311  14.459  -4.050  1.00 20.00     0.076 A 
HETATM    5  C5  UNL     1     -35.501  13.898  -4.788  1.00 20.00    -0.006 C 
HETATM    6  C6  UNL     1     -34.597  15.930  -3.721  1.00 20.00     0.034 A 
HETATM    7  C7  UNL     1     -35.229  13.677  -6.271  1.00 20.00     0.011 C 
HETATM    8  O11 UNL     1     -32.978  15.857  -5.566  1.00 20.00    -0.297 OA
ENDROOT
BRANCH   6   9
HETATM    9  C10 UNL     1     -34.429  16.398  -2.306  1.00 20.00    -0.006 C 
HETATM   10  C8  UNL     1     -33.294  17.426  -2.184  1.00 20.00     0.011 C 
HETATM   11  C9  UNL     1     -35.730  17.000  -1.754  1.00 20.00     0.011 C 
ENDBRANCH   6   9
TORSDOF 1
ENDMDL
MODEL 2
REMARK VINA RESULT:      -4.5      1.044      1.285
REMARK  1 active torsions:
REMARK  status: ('A' for Active; 'I' for Inactive)
REMARK    1  A    between atoms: C6_6  and  C10_10 
ROOT
HETATM    1  C1  UNL     1     -33.485  16.969  -4.784  1.00 20.00     0.142 A 
HETATM    2  C2  UNL     1     -35.235  14.298  -4.354  1.00 20.00     0.006 C 
HETATM    3  C3  UNL     1     -35.584  15.734  -3.942  1.00 20.00     0.019 C 
HETATM    4  C4  UNL     1     -33.206  15.585  -4.509  1.00 20.00     0.076 A 
HETATM    5  C5  UNL     1     -33.903  14.396  -5.123  1.00 20.00    -0.006 C 
HETATM    6  C6  UNL     1     -34.237  16.382  -3.700  1.00 20.00     0.034 A 
HETATM    7  C7  UNL     1     -34.107  14.539  -6.626  1.00 20.00     0.011 C 
HETATM    8  O11 UNL     1     -33.766  17.615  -5.770  1.00 20.00    -0.297 OA
ENDROOT
BRANCH   6   9
HETATM    9  C10 UNL     1     -33.924  16.730  -2.276  1.00 20.00    -0.006 C 
HETATM   10  C8  UNL     1     -33.140  18.047  -2.177  1.00 20.00     0.011 C 
HETATM   11  C9  UNL     1     -35.200  16.826  -1.425  1.00 20.00     0.011 C 
ENDBRANCH   6   9
TORSDOF 1
ENDMDL
MODEL 3
REMARK VINA RESULT:      -4.4      1.774      4.223
REMARK  1 active torsions:
REMARK  status: ('A' for Active; 'I' for Inactive)
REMARK    1  A    between atoms: C6_6  and  C10_10 
ROOT
HETATM    1  C1  UNL     1     -35.809  14.439  -4.682  1.00 20.00     0.142 A 
HETATM    2  C2  UNL     1     -33.500  16.687  -4.682  1.00 20.00     0.006 C 
HETATM    3  C3  UNL     1     -34.517  16.376  -5.787  1.00 20.00     0.019 C 
HETATM    4  C4  UNL     1     -34.474  14.548  -4.158  1.00 20.00     0.076 A 
HETATM    5  C5  UNL     1     -33.869  15.765  -3.503  1.00 20.00    -0.006 C 
HETATM    6  C6  UNL     1     -34.807  14.900  -5.613  1.00 20.00     0.034 A 
HETATM    7  C7  UNL     1     -34.813  16.437  -2.513  1.00 20.00     0.011 C 
HETATM    8  O11 UNL     1     -36.906  14.829  -4.342  1.00 20.00    -0.297 OA
ENDROOT
BRANCH   6   9
HETATM    9  C10 UNL     1     -34.307  14.002  -6.705  1.00 20.00    -0.006 C 
HETATM   10  C8  UNL     1     -35.390  13.011  -7.159  1.00 20.00     0.011 C 
HETATM   11  C9  UNL     1     -33.807  14.807  -7.914  1.00 20.00     0.011 C 
ENDBRANCH   6   9
TORSDOF 1
ENDMDL
MODEL 4
REMARK VINA RESULT:      -4.4      1.747      4.282
REMARK  1 active torsions:
REMARK  status: ('A' for Active; 'I' for Inactive)
REMARK    1  A    between atoms: C6_6  and  C10_10 
ROOT
HETATM    1  C1  UNL     1     -36.082  16.753  -3.066  1.00 20.00     0.142 A 
HETATM    2  C2  UNL     1     -33.191  17.494  -1.851  1.00 20.00     0.006 C 
HETATM    3  C3  UNL     1     -33.565  17.246  -3.317  1.00 20.00     0.019 C 
HETATM    4  C4  UNL     1     -35.364  16.457  -1.855  1.00 20.00     0.076 A 
HETATM    5  C5  UNL     1     -34.515  17.420  -1.064  1.00 20.00    -0.006 C 
HETATM    6  C6  UNL     1     -34.729  16.281  -3.240  1.00 20.00     0.034 A 
HETATM    7  C7  UNL     1     -35.168  18.787  -0.894  1.00 20.00     0.011 C 
HETATM    8  O11 UNL     1     -36.721  17.695  -3.485  1.00 20.00    -0.297 OA
ENDROOT
BRANCH   6   9
HETATM    9  C10 UNL     1     -34.462  14.892  -3.740  1.00 20.00    -0.006 C 
HETATM   10  C8  UNL     1     -35.555  14.424  -4.713  1.00 20.00     0.011 C 
HETATM   11  C9  UNL     1     -33.089  14.792  -4.421  1.00 20.00     0.011 C 
ENDBRANCH   6   9
TORSDOF 1
ENDMDL
MODEL 5
REMARK VINA RESULT:      -4.4     11.209     11.985
REMARK  1 active torsions:
REMARK  status: ('A' for Active; 'I' for Inactive)
REMARK    1  A    between atoms: C6_6  and  C10_10 
ROOT
HETATM    1  C1  UNL     1     -33.478   7.549   4.810  1.00 20.00     0.142 A 
HETATM    2  C2  UNL     1     -33.643   5.029   2.809  1.00 20.00     0.006 C 
HETATM    3  C3  UNL     1     -32.435   5.930   3.098  1.00 20.00     0.019 C 
HETATM    4  C4  UNL     1     -34.478   6.978   3.948  1.00 20.00     0.076 A 
HETATM    5  C5  UNL     1     -34.759   5.508   3.758  1.00 20.00    -0.006 C 
HETATM    6  C6  UNL     1     -33.052   7.263   3.460  1.00 20.00     0.034 A 
HETATM    7  C7  UNL     1     -34.779   4.734   5.070  1.00 20.00     0.011 C 
HETATM    8  O11 UNL     1     -33.045   7.301   5.915  1.00 20.00    -0.297 OA
ENDROOT
BRANCH   6   9
HETATM    9  C10 UNL     1     -32.835   8.374   2.476  1.00 20.00    -0.006 C 
HETATM   10  C8  UNL     1     -31.787   9.377   2.981  1.00 20.00     0.011 C 
HETATM   11  C9  UNL     1     -32.411   7.834   1.102  1.00 20.00     0.011 C 
ENDBRANCH   6   9
TORSDOF 1
ENDMDL
MODEL 6
REMARK VINA RESULT:      -4.3     10.817     11.593
REMARK  1 active torsions:
REMARK  status: ('A' for Active; 'I' for Inactive)
REMARK    1  A    between atoms: C6_6  and  C10_10 
ROOT
HETATM    1  C1  UNL     1     -33.286   6.127   2.611  1.00 20.00     0.142 A 
HETATM    2  C2  UNL     1     -31.855   8.966   3.140  1.00 20.00     0.006 C 
HETATM    3  C3  UNL     1     -31.831   7.715   4.027  1.00 20.00     0.019 C 
HETATM    4  C4  UNL     1     -33.595   7.506   2.342  1.00 20.00     0.076 A 
HETATM    5  C5  UNL     1     -32.627   8.562   1.868  1.00 20.00    -0.006 C 
HETATM    6  C6  UNL     1     -33.148   7.030   3.729  1.00 20.00     0.034 A 
HETATM    7  C7  UNL     1     -31.705   8.067   0.760  1.00 20.00     0.011 C 
HETATM    8  O11 UNL     1     -32.581   5.283   2.100  1.00 20.00    -0.297 OA
ENDROOT
BRANCH   6   9
HETATM    9  C10 UNL     1     -34.149   7.022   4.846  1.00 20.00    -0.006 C 
HETATM   10  C8  UNL     1     -34.706   5.612   5.092  1.00 20.00     0.011 C 
HETATM   11  C9  UNL     1     -33.546   7.572   6.147  1.00 20.00     0.011 C 
ENDBRANCH   6   9
TORSDOF 1
ENDMDL
MODEL 7
REMARK VINA RESULT:      -4.3      1.637      2.484
REMARK  1 active torsions:
REMARK  status: ('A' for Active; 'I' for Inactive)
REMARK    1  A    between atoms: C6_6  and  C10_10 
ROOT
HETATM    1  C1  UNL     1     -35.001  14.463  -4.341  1.00 20.00     0.142 A 
HETATM    2  C2  UNL     1     -33.486  15.915  -6.787  1.00 20.00     0.006 C 
HETATM    3  C3  UNL     1     -33.044  15.824  -5.321  1.00 20.00     0.019 C 
HETATM    4  C4  UNL     1     -35.399  15.183  -5.521  1.00 20.00     0.076 A 
HETATM    5  C5  UNL     1     -34.772  15.070  -6.889  1.00 20.00    -0.006 C 
HETATM    6  C6  UNL     1     -34.345  15.732  -4.552  1.00 20.00     0.034 A 
HETATM    7  C7  UNL     1     -34.491  13.629  -7.296  1.00 20.00     0.011 C 
HETATM    8  O11 UNL     1     -34.626  13.335  -4.101  1.00 20.00    -0.297 OA
ENDROOT
BRANCH   6   9
HETATM    9  C10 UNL     1     -34.692  16.922  -3.707  1.00 20.00    -0.006 C 
HETATM   10  C8  UNL     1     -34.905  16.526  -2.238  1.00 20.00     0.011 C 
HETATM   11  C9  UNL     1     -33.611  18.010  -3.795  1.00 20.00     0.011 C 
ENDBRANCH   6   9
TORSDOF 1
ENDMDL
MODEL 8
REMARK VINA RESULT:      -4.2     11.239     11.979
REMARK  1 active torsions:
REMARK  status: ('A' for Active; 'I' for Inactive)
REMARK    1  A    between atoms: C6_6  and  C10_10 
ROOT
HETATM    1  C1  UNL     1     -33.790   6.075   2.369  1.00 20.00     0.142 A 
HETATM    2  C2  UNL     1     -33.855   6.832   5.501  1.00 20.00     0.006 C 
HETATM    3  C3  UNL     1     -33.983   7.774   4.297  1.00 20.00     0.019 C 
HETATM    4  C4  UNL     1     -33.145   5.594   3.562  1.00 20.00     0.076 A 
HETATM    5  C5  UNL     1     -33.791   5.409   4.912  1.00 20.00    -0.006 C 
HETATM    6  C6  UNL     1     -33.189   7.086   3.208  1.00 20.00     0.034 A 
HETATM    7  C7  UNL     1     -35.163   4.751   4.829  1.00 20.00     0.011 C 
HETATM    8  O11 UNL     1     -34.877   5.925   1.854  1.00 20.00    -0.297 OA
ENDROOT
BRANCH   6   9
HETATM    9  C10 UNL     1     -31.919   7.767   2.793  1.00 20.00    -0.006 C 
HETATM   10  C8  UNL     1     -32.129   8.639   1.546  1.00 20.00     0.011 C 
HETATM   11  C9  UNL     1     -31.342   8.624   3.930  1.00 20.00     0.011 C 
ENDBRANCH   6   9
TORSDOF 1
ENDMDL
MODEL 9
REMARK VINA RESULT:      -4.1      1.871      2.827
REMARK  1 active torsions:
REMARK  status: ('A' for Active; 'I' for Inactive)
REMARK    1  A    between atoms: C6_6  and  C10_10 
ROOT
HETATM    1  C1  UNL     1     -36.941  14.827  -5.002  1.00 20.00     0.142 A 
HETATM    2  C2  UNL     1     -33.762  14.402  -5.304  1.00 20.00     0.006 C 
HETATM    3  C3  UNL     1     -34.597  14.411  -4.017  1.00 20.00     0.019 C 
HETATM    4  C4  UNL     1     -35.909  15.331  -5.868  1.00 20.00     0.076 A 
HETATM    5  C5  UNL     1     -34.773  14.535  -6.459  1.00 20.00    -0.006 C 
HETATM    6  C6  UNL     1     -35.758  15.326  -4.342  1.00 20.00     0.034 A 
HETATM    7  C7  UNL     1     -35.216  13.183  -7.004  1.00 20.00     0.011 C 
HETATM    8  O11 UNL     1     -37.593  13.807  -4.937  1.00 20.00    -0.297 OA
ENDROOT
BRANCH   6   9
HETATM    9  C10 UNL     1     -35.786  16.634  -3.609  1.00 20.00    -0.006 C 
HETATM   10  C8  UNL     1     -37.226  17.098  -3.340  1.00 20.00     0.011 C 
HETATM   11  C9  UNL     1     -35.015  16.554  -2.283  1.00 20.00     0.011 C 
ENDBRANCH   6   9
TORSDOF 1
ENDMDL
