MODEL 1
REMARK VINA RESULT:      -4.8      0.000      0.000
REMARK  1 active torsions:
REMARK  status: ('A' for Active; 'I' for Inactive)
REMARK    1  A    between atoms: C8_8  and  C11_11 
ROOT
HETATM    1  C1  UNL     1     -33.441   5.293   3.178  1.00 20.00    -0.081 C 
HETATM    2  C2  UNL     1     -32.773   4.280   2.630  1.00 20.00     0.015 C 
HETATM    3  C3  UNL     1     -35.144   5.698   4.694  1.00 20.00     0.010 C 
HETATM    4  C4  UNL     1     -35.580   6.152   3.285  1.00 20.00     0.010 C 
HETATM    5  C5  UNL     1     -33.088   7.130   4.542  1.00 20.00     0.014 C 
HETATM    6  C6  UNL     1     -33.611   5.686   4.612  1.00 20.00     0.014 C 
HETATM    7  C7  UNL     1     -34.251   6.384   2.549  1.00 20.00     0.018 C 
HETATM    8  C8  UNL     1     -33.556   7.627   3.148  1.00 20.00    -0.002 C 
ENDROOT
BRANCH   8   9
HETATM    9  C11 UNL     1     -32.388   8.117   2.297  1.00 20.00    -0.018 C 
HETATM   10  C9  UNL     1     -32.788   9.353   1.495  1.00 20.00     0.010 C 
HETATM   11  C10 UNL     1     -31.173   8.416   3.173  1.00 20.00     0.010 C 
ENDBRANCH   8   9
TORSDOF 1
ENDMDL
MODEL 2
REMARK VINA RESULT:      -4.6     10.572     11.952
REMARK  1 active torsions:
REMARK  status: ('A' for Active; 'I' for Inactive)
REMARK    1  A    between atoms: C8_8  and  C11_11 
ROOT
HETATM    1  C1  UNL     1     -33.290  14.801  -4.431  1.00 20.00    -0.081 C 
HETATM    2  C2  UNL     1     -32.305  13.970  -4.093  1.00 20.00     0.015 C 
HETATM    3  C3  UNL     1     -34.683  15.289  -6.214  1.00 20.00     0.010 C 
HETATM    4  C4  UNL     1     -33.746  16.484  -5.942  1.00 20.00     0.010 C 
HETATM    5  C5  UNL     1     -35.462  15.329  -3.828  1.00 20.00     0.014 C 
HETATM    6  C6  UNL     1     -34.688  14.523  -4.883  1.00 20.00     0.014 C 
HETATM    7  C7  UNL     1     -33.334  16.297  -4.473  1.00 20.00     0.018 C 
HETATM    8  C8  UNL     1     -34.559  16.565  -3.571  1.00 20.00    -0.002 C 
ENDROOT
BRANCH   8   9
HETATM    9  C11 UNL     1     -34.186  16.702  -2.097  1.00 20.00    -0.018 C 
HETATM   10  C9  UNL     1     -33.125  17.782  -1.908  1.00 20.00     0.010 C 
HETATM   11  C10 UNL     1     -35.423  17.013  -1.258  1.00 20.00     0.010 C 
ENDBRANCH   8   9
TORSDOF 1
ENDMDL
MODEL 3
REMARK VINA RESULT:      -4.5      1.025      2.406
REMARK  1 active torsions:
REMARK  status: ('A' for Active; 'I' for Inactive)
REMARK    1  A    between atoms: C8_8  and  C11_11 
ROOT
HETATM    1  C1  UNL     1     -33.976   6.496   4.880  1.00 20.00    -0.081 C 
HETATM    2  C2  UNL     1     -33.935   7.144   6.043  1.00 20.00     0.015 C 
HETATM    3  C3  UNL     1     -34.743   4.511   3.969  1.00 20.00     0.010 C 
HETATM    4  C4  UNL     1     -33.202   4.550   3.911  1.00 20.00     0.010 C 
HETATM    5  C5  UNL     1     -34.866   6.704   2.753  1.00 20.00     0.014 C 
HETATM    6  C6  UNL     1     -35.139   5.990   4.087  1.00 20.00     0.014 C 
HETATM    7  C7  UNL     1     -32.873   6.050   3.971  1.00 20.00     0.018 C 
HETATM    8  C8  UNL     1     -33.318   6.715   2.649  1.00 20.00    -0.002 C 
ENDROOT
BRANCH   8   9
HETATM    9  C11 UNL     1     -32.768   8.129   2.486  1.00 20.00    -0.018 C 
HETATM   10  C9  UNL     1     -31.479   8.300   3.285  1.00 20.00     0.010 C 
HETATM   11  C10 UNL     1     -32.530   8.445   1.011  1.00 20.00     0.010 C 
ENDBRANCH   8   9
TORSDOF 1
ENDMDL
MODEL 4
REMARK VINA RESULT:      -4.5     10.844     12.245
REMARK  1 active torsions:
REMARK  status: ('A' for Active; 'I' for Inactive)
REMARK    1  A    between atoms: C8_8  and  C11_11 
ROOT
HETATM    1  C1  UNL     1     -35.559  16.180  -4.790  1.00 20.00    -0.081 C 
HETATM    2  C2  UNL     1     -36.755  16.702  -5.057  1.00 20.00     0.015 C 
HETATM    3  C3  UNL     1     -34.039  14.665  -5.658  1.00 20.00     0.010 C 
HETATM    4  C4  UNL     1     -34.585  14.144  -4.312  1.00 20.00     0.010 C 
HETATM    5  C5  UNL     1     -33.345  16.817  -4.567  1.00 20.00     0.014 C 
HETATM    6  C6  UNL     1     -34.296  16.177  -5.592  1.00 20.00     0.014 C 
HETATM    7  C7  UNL     1     -35.071  15.415  -3.599  1.00 20.00     0.018 C 
HETATM    8  C8  UNL     1     -33.845  16.269  -3.204  1.00 20.00    -0.002 C 
ENDROOT
BRANCH   8   9
HETATM    9  C11 UNL     1     -34.198  17.393  -2.234  1.00 20.00    -0.018 C 
HETATM   10  C9  UNL     1     -35.255  16.930  -1.235  1.00 20.00     0.010 C 
HETATM   11  C10 UNL     1     -32.949  17.883  -1.504  1.00 20.00     0.010 C 
ENDBRANCH   8   9
TORSDOF 1
ENDMDL
MODEL 5
REMARK VINA RESULT:      -4.3     11.021     12.214
REMARK  1 active torsions:
REMARK  status: ('A' for Active; 'I' for Inactive)
REMARK    1  A    between atoms: C8_8  and  C11_11 
ROOT
HETATM    1  C1  UNL     1     -35.242  14.840  -4.881  1.00 20.00    -0.081 C 
HETATM    2  C2  UNL     1     -36.243  13.986  -5.083  1.00 20.00     0.015 C 
HETATM    3  C3  UNL     1     -33.278  15.557  -5.874  1.00 20.00     0.010 C 
HETATM    4  C4  UNL     1     -32.959  14.844  -4.543  1.00 20.00     0.010 C 
HETATM    5  C5  UNL     1     -34.850  17.114  -4.689  1.00 20.00     0.014 C 
HETATM    6  C6  UNL     1     -34.746  15.977  -5.718  1.00 20.00     0.014 C 
HETATM    7  C7  UNL     1     -34.269  14.956  -3.748  1.00 20.00     0.018 C 
HETATM    8  C8  UNL     1     -34.487  16.431  -3.344  1.00 20.00    -0.002 C 
ENDROOT
BRANCH   8   9
HETATM    9  C11 UNL     1     -35.591  16.601  -2.303  1.00 20.00    -0.018 C 
HETATM   10  C9  UNL     1     -35.015  17.117  -0.987  1.00 20.00     0.010 C 
HETATM   11  C10 UNL     1     -36.676  17.542  -2.820  1.00 20.00     0.010 C 
ENDBRANCH   8   9
TORSDOF 1
ENDMDL
MODEL 6
REMARK VINA RESULT:      -4.3     11.316     12.218
REMARK  1 active torsions:
REMARK  status: ('A' for Active; 'I' for Inactive)
REMARK    1  A    between atoms: C8_8  and  C11_11 
ROOT
HETATM    1  C1  UNL     1     -34.999  16.518  -5.260  1.00 20.00    -0.081 C 
HETATM    2  C2  UNL     1     -35.209  17.595  -6.014  1.00 20.00     0.015 C 
HETATM    3  C3  UNL     1     -34.731  14.227  -5.454  1.00 20.00     0.010 C 
HETATM    4  C4  UNL     1     -36.028  14.536  -4.678  1.00 20.00     0.010 C 
HETATM    5  C5  UNL     1     -33.407  15.619  -3.839  1.00 20.00     0.014 C 
HETATM    6  C6  UNL     1     -33.897  15.506  -5.292  1.00 20.00     0.014 C 
HETATM    7  C7  UNL     1     -35.792  15.950  -4.124  1.00 20.00     0.018 C 
HETATM    8  C8  UNL     1     -34.704  15.886  -3.030  1.00 20.00    -0.002 C 
ENDROOT
BRANCH   8   9
HETATM    9  C11 UNL     1     -34.612  17.172  -2.213  1.00 20.00    -0.018 C 
HETATM   10  C9  UNL     1     -35.434  17.055  -0.932  1.00 20.00     0.010 C 
HETATM   11  C10 UNL     1     -33.156  17.498  -1.889  1.00 20.00     0.010 C 
ENDBRANCH   8   9
TORSDOF 1
ENDMDL
MODEL 7
REMARK VINA RESULT:      -4.2     10.814     12.429
REMARK  1 active torsions:
REMARK  status: ('A' for Active; 'I' for Inactive)
REMARK    1  A    between atoms: C8_8  and  C11_11 
ROOT
HETATM    1  C1  UNL     1     -33.745  17.960  -1.744  1.00 20.00    -0.081 C 
HETATM    2  C2  UNL     1     -32.523  18.185  -1.266  1.00 20.00     0.015 C 
HETATM    3  C3  UNL     1     -35.896  18.805  -1.614  1.00 20.00     0.010 C 
HETATM    4  C4  UNL     1     -35.856  17.387  -1.007  1.00 20.00     0.010 C 
HETATM    5  C5  UNL     1     -34.900  17.942  -3.750  1.00 20.00     0.014 C 
HETATM    6  C6  UNL     1     -34.663  18.844  -2.528  1.00 20.00     0.014 C 
HETATM    7  C7  UNL     1     -34.620  16.747  -1.659  1.00 20.00     0.018 C 
HETATM    8  C8  UNL     1     -34.910  16.508  -3.157  1.00 20.00    -0.002 C 
ENDROOT
BRANCH   8   9
HETATM    9  C11 UNL     1     -33.871  15.609  -3.822  1.00 20.00    -0.018 C 
HETATM   10  C9  UNL     1     -34.479  14.254  -4.174  1.00 20.00     0.010 C 
HETATM   11  C10 UNL     1     -33.300  16.281  -5.069  1.00 20.00     0.010 C 
ENDBRANCH   8   9
TORSDOF 1
ENDMDL
MODEL 8
REMARK VINA RESULT:      -4.2     11.002     12.449
REMARK  1 active torsions:
REMARK  status: ('A' for Active; 'I' for Inactive)
REMARK    1  A    between atoms: C8_8  and  C11_11 
ROOT
HETATM    1  C1  UNL     1     -34.230  16.193  -3.420  1.00 20.00    -0.081 C 
HETATM    2  C2  UNL     1     -34.125  16.734  -2.207  1.00 20.00     0.015 C 
HETATM    3  C3  UNL     1     -32.905  15.499  -5.186  1.00 20.00     0.010 C 
HETATM    4  C4  UNL     1     -33.778  16.693  -5.626  1.00 20.00     0.010 C 
HETATM    5  C5  UNL     1     -34.952  14.248  -4.447  1.00 20.00     0.014 C 
HETATM    6  C6  UNL     1     -33.656  14.928  -3.975  1.00 20.00     0.014 C 
HETATM    7  C7  UNL     1     -34.957  16.665  -4.641  1.00 20.00     0.018 C 
HETATM    8  C8  UNL     1     -35.831  15.427  -4.939  1.00 20.00    -0.002 C 
ENDROOT
BRANCH   8   9
HETATM    9  C11 UNL     1     -37.179  15.471  -4.223  1.00 20.00    -0.018 C 
HETATM   10  C9  UNL     1     -37.682  16.907  -4.111  1.00 20.00     0.010 C 
HETATM   11  C10 UNL     1     -38.201  14.599  -4.949  1.00 20.00     0.010 C 
ENDBRANCH   8   9
TORSDOF 1
ENDMDL
MODEL 9
REMARK VINA RESULT:      -4.2      1.091      2.330
REMARK  1 active torsions:
REMARK  status: ('A' for Active; 'I' for Inactive)
REMARK    1  A    between atoms: C8_8  and  C11_11 
ROOT
HETATM    1  C1  UNL     1     -35.175   6.025   3.756  1.00 20.00    -0.081 C 
HETATM    2  C2  UNL     1     -36.306   6.416   3.172  1.00 20.00     0.015 C 
HETATM    3  C3  UNL     1     -34.353   4.333   5.105  1.00 20.00     0.010 C 
HETATM    4  C4  UNL     1     -34.297   5.677   5.861  1.00 20.00     0.010 C 
HETATM    5  C5  UNL     1     -33.038   5.320   3.208  1.00 20.00     0.014 C 
HETATM    6  C6  UNL     1     -34.403   4.749   3.628  1.00 20.00     0.014 C 
HETATM    7  C7  UNL     1     -34.288   6.726   4.738  1.00 20.00     0.018 C 
HETATM    8  C8  UNL     1     -32.937   6.654   3.994  1.00 20.00    -0.002 C 
ENDROOT
BRANCH   8   9
HETATM    9  C11 UNL     1     -32.710   7.845   3.066  1.00 20.00    -0.018 C 
HETATM   10  C9  UNL     1     -31.396   8.546   3.402  1.00 20.00     0.010 C 
HETATM   11  C10 UNL     1     -32.722   7.398   1.606  1.00 20.00     0.010 C 
ENDBRANCH   8   9
TORSDOF 1
ENDMDL
