MODEL 1
REMARK VINA RESULT:      -6.4      0.000      0.000
REMARK  1 active torsions:
REMARK  status: ('A' for Active; 'I' for Inactive)
REMARK    1  A    between atoms: C8_8  and  C9_9 
ROOT
HETATM    1  C1  UNL     1     -33.063   5.087   2.315  1.00 20.00     0.014 C 
HETATM    2  C2  UNL     1     -33.925   7.333   6.009  1.00 20.00     0.014 C 
HETATM    3  C3  UNL     1     -32.918   6.111   2.925  1.00 20.00    -0.094 C 
HETATM    4  C4  UNL     1     -33.387   7.334   4.936  1.00 20.00    -0.094 C 
HETATM    5  C7  UNL     1     -31.427   8.058   3.519  1.00 20.00     0.043 A 
HETATM    6  C9  UNL     1     -32.664   8.651   2.897  1.00 20.00     0.025 A 
HETATM    7  C10 UNL     1     -32.745   7.335   3.653  1.00 20.00     0.089 A 
ENDROOT
BRANCH   6   8
HETATM    8  C8  UNL     1     -32.832   8.787   1.389  1.00 20.00    -0.008 A 
HETATM    9  C5  UNL     1     -32.686  10.101   0.673  1.00 20.00     0.005 A 
HETATM   10  C6  UNL     1     -31.671   9.011   0.461  1.00 20.00     0.005 A 
ENDBRANCH   6   8
TORSDOF 1
ENDMDL
MODEL 2
REMARK VINA RESULT:      -5.5      1.382      2.827
REMARK  1 active torsions:
REMARK  status: ('A' for Active; 'I' for Inactive)
REMARK    1  A    between atoms: C8_8  and  C9_9 
ROOT
HETATM    1  C1  UNL     1     -33.668   7.637   6.068  1.00 20.00     0.014 C 
HETATM    2  C2  UNL     1     -34.027   3.648   4.225  1.00 20.00     0.014 C 
HETATM    3  C3  UNL     1     -33.755   7.005   5.052  1.00 20.00    -0.094 C 
HETATM    4  C4  UNL     1     -33.951   4.833   4.048  1.00 20.00    -0.094 C 
HETATM    5  C7  UNL     1     -34.642   6.850   2.694  1.00 20.00     0.043 A 
HETATM    6  C9  UNL     1     -33.143   6.739   2.588  1.00 20.00     0.025 A 
HETATM    7  C10 UNL     1     -33.858   6.250   3.836  1.00 20.00     0.089 A 
ENDROOT
BRANCH   6   8
HETATM    8  C8  UNL     1     -32.237   7.963   2.540  1.00 20.00    -0.008 A 
HETATM    9  C5  UNL     1     -31.528   8.399   1.288  1.00 20.00     0.005 A 
HETATM   10  C6  UNL     1     -32.637   9.242   1.858  1.00 20.00     0.005 A 
ENDBRANCH   6   8
TORSDOF 1
ENDMDL
MODEL 3
REMARK VINA RESULT:      -4.9      1.526      4.431
REMARK  1 active torsions:
REMARK  status: ('A' for Active; 'I' for Inactive)
REMARK    1  A    between atoms: C8_8  and  C9_9 
ROOT
HETATM    1  C1  UNL     1     -32.697   8.125   5.622  1.00 20.00     0.014 C 
HETATM    2  C2  UNL     1     -32.532   9.045   1.313  1.00 20.00     0.014 C 
HETATM    3  C3  UNL     1     -32.823   7.713   4.502  1.00 20.00    -0.094 C 
HETATM    4  C4  UNL     1     -32.733   8.214   2.156  1.00 20.00    -0.094 C 
HETATM    5  C7  UNL     1     -32.548   5.801   2.877  1.00 20.00     0.043 A 
HETATM    6  C9  UNL     1     -34.014   6.149   2.872  1.00 20.00     0.025 A 
HETATM    7  C10 UNL     1     -32.976   7.220   3.163  1.00 20.00     0.089 A 
ENDROOT
BRANCH   6   8
HETATM    8  C8  UNL     1     -34.986   5.593   3.905  1.00 20.00    -0.008 A 
HETATM    9  C5  UNL     1     -34.775   4.271   4.588  1.00 20.00     0.005 A 
HETATM   10  C6  UNL     1     -34.672   5.549   5.374  1.00 20.00     0.005 A 
ENDBRANCH   6   8
TORSDOF 1
ENDMDL
MODEL 4
REMARK VINA RESULT:      -4.5      1.408      4.261
REMARK  1 active torsions:
REMARK  status: ('A' for Active; 'I' for Inactive)
REMARK    1  A    between atoms: C8_8  and  C9_9 
ROOT
HETATM    1  C1  UNL     1     -32.853   4.367   2.268  1.00 20.00     0.014 C 
HETATM    2  C2  UNL     1     -31.693   8.590   1.760  1.00 20.00     0.014 C 
HETATM    3  C3  UNL     1     -33.032   5.505   2.604  1.00 20.00    -0.094 C 
HETATM    4  C4  UNL     1     -32.400   7.804   2.327  1.00 20.00    -0.094 C 
HETATM    5  C7  UNL     1     -34.655   7.291   3.342  1.00 20.00     0.043 A 
HETATM    6  C9  UNL     1     -33.636   7.168   4.445  1.00 20.00     0.025 A 
HETATM    7  C10 UNL     1     -33.246   6.865   3.008  1.00 20.00     0.089 A 
ENDROOT
BRANCH   6   8
HETATM    8  C8  UNL     1     -33.749   6.118   5.544  1.00 20.00    -0.008 A 
HETATM    9  C5  UNL     1     -34.978   5.964   6.395  1.00 20.00     0.005 A 
HETATM   10  C6  UNL     1     -34.607   4.891   5.408  1.00 20.00     0.005 A 
ENDBRANCH   6   8
TORSDOF 1
ENDMDL
MODEL 5
REMARK VINA RESULT:      -4.3      9.875     11.464
REMARK  1 active torsions:
REMARK  status: ('A' for Active; 'I' for Inactive)
REMARK    1  A    between atoms: C8_8  and  C9_9 
ROOT
HETATM    1  C1  UNL     1     -33.116  19.263  -4.547  1.00 20.00     0.014 C 
HETATM    2  C2  UNL     1     -32.065  18.392  -0.354  1.00 20.00     0.014 C 
HETATM    3  C3  UNL     1     -33.327  18.586  -3.578  1.00 20.00    -0.094 C 
HETATM    4  C4  UNL     1     -32.756  18.112  -1.296  1.00 20.00    -0.094 C 
HETATM    5  C7  UNL     1     -35.002  17.345  -2.156  1.00 20.00     0.043 A 
HETATM    6  C9  UNL     1     -33.988  16.323  -2.599  1.00 20.00     0.025 A 
HETATM    7  C10 UNL     1     -33.581  17.776  -2.422  1.00 20.00     0.089 A 
ENDROOT
BRANCH   6   8
HETATM    8  C8  UNL     1     -34.079  15.615  -3.945  1.00 20.00    -0.008 A 
HETATM    9  C5  UNL     1     -33.073  14.592  -4.392  1.00 20.00     0.005 A 
HETATM   10  C6  UNL     1     -34.482  14.172  -4.076  1.00 20.00     0.005 A 
ENDBRANCH   6   8
TORSDOF 1
ENDMDL
MODEL 6
REMARK VINA RESULT:      -4.3     10.188     10.918
REMARK  1 active torsions:
REMARK  status: ('A' for Active; 'I' for Inactive)
REMARK    1  A    between atoms: C8_8  and  C9_9 
ROOT
HETATM    1  C1  UNL     1     -32.120  18.396  -0.802  1.00 20.00     0.014 C 
HETATM    2  C2  UNL     1     -35.995  17.607   1.149  1.00 20.00     0.014 C 
HETATM    3  C3  UNL     1     -33.262  18.054  -0.939  1.00 20.00    -0.094 C 
HETATM    4  C4  UNL     1     -35.372  17.625   0.123  1.00 20.00    -0.094 C 
HETATM    5  C7  UNL     1     -35.346  18.063  -2.364  1.00 20.00     0.043 A 
HETATM    6  C9  UNL     1     -34.977  16.616  -2.167  1.00 20.00     0.025 A 
HETATM    7  C10 UNL     1     -34.627  17.644  -1.105  1.00 20.00     0.089 A 
ENDROOT
BRANCH   6   8
HETATM    8  C8  UNL     1     -33.955  15.908  -3.048  1.00 20.00    -0.008 A 
HETATM    9  C5  UNL     1     -34.350  14.979  -4.162  1.00 20.00     0.005 A 
HETATM   10  C6  UNL     1     -33.706  16.301  -4.478  1.00 20.00     0.005 A 
ENDBRANCH   6   8
TORSDOF 1
ENDMDL
MODEL 7
REMARK VINA RESULT:      -4.3      9.738     11.174
REMARK  1 active torsions:
REMARK  status: ('A' for Active; 'I' for Inactive)
REMARK    1  A    between atoms: C8_8  and  C9_9 
ROOT
HETATM    1  C1  UNL     1     -37.484  15.569  -4.159  1.00 20.00     0.014 C 
HETATM    2  C2  UNL     1     -33.738  16.949  -2.288  1.00 20.00     0.014 C 
HETATM    3  C3  UNL     1     -36.292  15.449  -4.091  1.00 20.00    -0.094 C 
HETATM    4  C4  UNL     1     -34.252  16.200  -3.072  1.00 20.00    -0.094 C 
HETATM    5  C7  UNL     1     -34.285  13.919  -4.157  1.00 20.00     0.043 A 
HETATM    6  C9  UNL     1     -34.081  14.929  -5.257  1.00 20.00     0.025 A 
HETATM    7  C10 UNL     1     -34.867  15.305  -4.012  1.00 20.00     0.089 A 
ENDROOT
BRANCH   6   8
HETATM    8  C8  UNL     1     -34.694  14.760  -6.641  1.00 20.00    -0.008 A 
HETATM    9  C5  UNL     1     -33.861  14.593  -7.882  1.00 20.00     0.005 A 
HETATM   10  C6  UNL     1     -34.693  13.447  -7.374  1.00 20.00     0.005 A 
ENDBRANCH   6   8
TORSDOF 1
ENDMDL
MODEL 8
REMARK VINA RESULT:      -4.2     10.249     11.622
REMARK  1 active torsions:
REMARK  status: ('A' for Active; 'I' for Inactive)
REMARK    1  A    between atoms: C8_8  and  C9_9 
ROOT
HETATM    1  C1  UNL     1     -33.834  17.264  -6.892  1.00 20.00     0.014 C 
HETATM    2  C2  UNL     1     -35.379  13.140  -6.687  1.00 20.00     0.014 C 
HETATM    3  C3  UNL     1     -33.984  16.280  -6.222  1.00 20.00    -0.094 C 
HETATM    4  C4  UNL     1     -34.825  14.035  -6.110  1.00 20.00    -0.094 C 
HETATM    5  C7  UNL     1     -33.078  14.748  -4.432  1.00 20.00     0.043 A 
HETATM    6  C9  UNL     1     -34.406  15.247  -3.925  1.00 20.00     0.025 A 
HETATM    7  C10 UNL     1     -34.163  15.105  -5.419  1.00 20.00     0.089 A 
ENDROOT
BRANCH   6   8
HETATM    8  C8  UNL     1     -34.554  16.580  -3.202  1.00 20.00    -0.008 A 
HETATM    9  C5  UNL     1     -35.029  16.683  -1.780  1.00 20.00     0.005 A 
HETATM   10  C6  UNL     1     -33.606  17.027  -2.124  1.00 20.00     0.005 A 
ENDBRANCH   6   8
TORSDOF 1
ENDMDL
MODEL 9
REMARK VINA RESULT:      -4.1     10.271     11.452
REMARK  1 active torsions:
REMARK  status: ('A' for Active; 'I' for Inactive)
REMARK    1  A    between atoms: C8_8  and  C9_9 
ROOT
HETATM    1  C1  UNL     1     -35.459  17.652  -6.056  1.00 20.00     0.014 C 
HETATM    2  C2  UNL     1     -36.025  13.334  -5.366  1.00 20.00     0.014 C 
HETATM    3  C3  UNL     1     -35.180  16.697  -5.384  1.00 20.00    -0.094 C 
HETATM    4  C4  UNL     1     -35.488  14.346  -5.008  1.00 20.00    -0.094 C 
HETATM    5  C7  UNL     1     -33.441  15.461  -4.035  1.00 20.00     0.043 A 
HETATM    6  C9  UNL     1     -34.585  15.738  -3.094  1.00 20.00     0.025 A 
HETATM    7  C10 UNL     1     -34.846  15.557  -4.580  1.00 20.00     0.089 A 
ENDROOT
BRANCH   6   8
HETATM    8  C8  UNL     1     -34.726  17.061  -2.352  1.00 20.00    -0.008 A 
HETATM    9  C5  UNL     1     -35.226  17.148  -0.937  1.00 20.00     0.005 A 
HETATM   10  C6  UNL     1     -33.792  17.477  -1.250  1.00 20.00     0.005 A 
ENDBRANCH   6   8
TORSDOF 1
ENDMDL
