MODEL 1
REMARK VINA RESULT:      -6.1      0.000      0.000
REMARK  0 active torsions:
REMARK  status: ('A' for Active; 'I' for Inactive)
ROOT
HETATM    1  C1  UNL     1     -34.330   5.968   5.260  1.00 20.00     0.017 A 
HETATM    2  C2  UNL     1     -34.539   5.267   4.138  1.00 20.00     0.054 A 
HETATM    3  C3  UNL     1     -32.878   6.714   2.929  1.00 20.00     0.060 A 
HETATM    4  C4  UNL     1     -32.659   7.426   4.048  1.00 20.00    -0.044 A 
HETATM    5  C5  UNL     1     -33.374   7.122   5.343  1.00 20.00     0.221 A 
HETATM    6  C6  UNL     1     -33.837   5.562   2.848  1.00 20.00     0.280 A 
HETATM    7  C7  UNL     1     -31.688   8.570   4.082  1.00 20.00     0.046 C 
HETATM    8  F8  UNL     1     -34.049   8.230   5.767  1.00 20.00    -0.240 F 
HETATM    9  F9  UNL     1     -33.170   4.449   2.432  1.00 20.00    -0.197 F 
HETATM   10  F10 UNL     1     -34.763   5.814   1.878  1.00 20.00    -0.197 F 
ENDROOT
TORSDOF 0
ENDMDL
MODEL 2
REMARK VINA RESULT:      -5.9      1.694      2.611
REMARK  0 active torsions:
REMARK  status: ('A' for Active; 'I' for Inactive)
ROOT
HETATM    1  C1  UNL     1     -33.235   6.279   2.845  1.00 20.00     0.017 A 
HETATM    2  C2  UNL     1     -33.783   5.076   3.064  1.00 20.00     0.054 A 
HETATM    3  C3  UNL     1     -34.288   5.742   5.434  1.00 20.00     0.060 A 
HETATM    4  C4  UNL     1     -33.742   6.953   5.228  1.00 20.00    -0.044 A 
HETATM    5  C5  UNL     1     -33.151   7.348   3.895  1.00 20.00     0.221 A 
HETATM    6  C6  UNL     1     -34.369   4.673   4.383  1.00 20.00     0.280 A 
HETATM    7  C7  UNL     1     -33.685   7.991   6.310  1.00 20.00     0.046 C 
HETATM    8  F8  UNL     1     -31.845   7.707   4.060  1.00 20.00    -0.240 F 
HETATM    9  F9  UNL     1     -35.672   4.312   4.206  1.00 20.00    -0.197 F 
HETATM   10  F10 UNL     1     -33.740   3.550   4.833  1.00 20.00    -0.197 F 
ENDROOT
TORSDOF 0
ENDMDL
MODEL 3
REMARK VINA RESULT:      -5.9      1.710      3.335
REMARK  0 active torsions:
REMARK  status: ('A' for Active; 'I' for Inactive)
ROOT
HETATM    1  C1  UNL     1     -34.639   5.545   5.296  1.00 20.00     0.017 A 
HETATM    2  C2  UNL     1     -34.213   6.813   5.226  1.00 20.00     0.054 A 
HETATM    3  C3  UNL     1     -33.039   6.296   3.065  1.00 20.00     0.060 A 
HETATM    4  C4  UNL     1     -33.459   5.020   3.123  1.00 20.00    -0.044 A 
HETATM    5  C5  UNL     1     -34.312   4.509   4.261  1.00 20.00     0.221 A 
HETATM    6  C6  UNL     1     -33.366   7.330   4.104  1.00 20.00     0.280 A 
HETATM    7  C7  UNL     1     -33.109   4.021   2.059  1.00 20.00     0.046 C 
HETATM    8  F8  UNL     1     -33.687   3.457   4.866  1.00 20.00    -0.240 F 
HETATM    9  F9  UNL     1     -33.996   8.382   3.509  1.00 20.00    -0.197 F 
HETATM   10  F10 UNL     1     -32.207   7.841   4.610  1.00 20.00    -0.197 F 
ENDROOT
TORSDOF 0
ENDMDL
MODEL 4
REMARK VINA RESULT:      -5.9      1.201      1.395
REMARK  0 active torsions:
REMARK  status: ('A' for Active; 'I' for Inactive)
ROOT
HETATM    1  C1  UNL     1     -33.971   6.629   6.124  1.00 20.00     0.017 A 
HETATM    2  C2  UNL     1     -34.784   5.721   5.570  1.00 20.00     0.054 A 
HETATM    3  C3  UNL     1     -33.846   6.268   3.304  1.00 20.00     0.060 A 
HETATM    4  C4  UNL     1     -33.025   7.183   3.846  1.00 20.00    -0.044 A 
HETATM    5  C5  UNL     1     -33.005   7.461   5.331  1.00 20.00     0.221 A 
HETATM    6  C6  UNL     1     -34.813   5.439   4.099  1.00 20.00     0.280 A 
HETATM    7  C7  UNL     1     -32.072   7.988   3.011  1.00 20.00     0.046 C 
HETATM    8  F8  UNL     1     -33.267   8.781   5.555  1.00 20.00    -0.240 F 
HETATM    9  F9  UNL     1     -34.555   4.117   3.887  1.00 20.00    -0.197 F 
HETATM   10  F10 UNL     1     -36.076   5.642   3.626  1.00 20.00    -0.197 F 
ENDROOT
TORSDOF 0
ENDMDL
MODEL 5
REMARK VINA RESULT:      -5.8      0.922      3.313
REMARK  0 active torsions:
REMARK  status: ('A' for Active; 'I' for Inactive)
ROOT
HETATM    1  C1  UNL     1     -34.673   5.395   4.072  1.00 20.00     0.017 A 
HETATM    2  C2  UNL     1     -34.582   5.894   5.312  1.00 20.00     0.054 A 
HETATM    3  C3  UNL     1     -32.973   7.638   4.487  1.00 20.00     0.060 A 
HETATM    4  C4  UNL     1     -33.055   7.148   3.238  1.00 20.00    -0.044 A 
HETATM    5  C5  UNL     1     -33.924   5.959   2.901  1.00 20.00     0.221 A 
HETATM    6  C6  UNL     1     -33.722   7.070   5.657  1.00 20.00     0.280 A 
HETATM    7  C7  UNL     1     -32.288   7.751   2.097  1.00 20.00     0.046 C 
HETATM    8  F8  UNL     1     -33.160   4.975   2.345  1.00 20.00    -0.240 F 
HETATM    9  F9  UNL     1     -34.493   8.046   6.216  1.00 20.00    -0.197 F 
HETATM   10  F10 UNL     1     -32.834   6.711   6.629  1.00 20.00    -0.197 F 
ENDROOT
TORSDOF 0
ENDMDL
MODEL 6
REMARK VINA RESULT:      -5.8      0.849      2.554
REMARK  0 active torsions:
REMARK  status: ('A' for Active; 'I' for Inactive)
ROOT
HETATM    1  C1  UNL     1     -33.128   7.765   4.046  1.00 20.00     0.017 A 
HETATM    2  C2  UNL     1     -33.009   7.096   2.892  1.00 20.00     0.054 A 
HETATM    3  C3  UNL     1     -34.214   5.138   3.908  1.00 20.00     0.060 A 
HETATM    4  C4  UNL     1     -34.339   5.798   5.072  1.00 20.00    -0.044 A 
HETATM    5  C5  UNL     1     -33.800   7.197   5.261  1.00 20.00     0.221 A 
HETATM    6  C6  UNL     1     -33.538   5.708   2.694  1.00 20.00     0.280 A 
HETATM    7  C7  UNL     1     -35.025   5.188   6.260  1.00 20.00     0.046 C 
HETATM    8  F8  UNL     1     -32.921   7.212   6.305  1.00 20.00    -0.240 F 
HETATM    9  F9  UNL     1     -34.412   5.702   1.648  1.00 20.00    -0.197 F 
HETATM   10  F10 UNL     1     -32.518   4.885   2.318  1.00 20.00    -0.197 F 
ENDROOT
TORSDOF 0
ENDMDL
MODEL 7
REMARK VINA RESULT:      -5.8      1.974      2.917
REMARK  0 active torsions:
REMARK  status: ('A' for Active; 'I' for Inactive)
ROOT
HETATM    1  C1  UNL     1     -33.675   5.534   2.810  1.00 20.00     0.017 A 
HETATM    2  C2  UNL     1     -32.916   6.482   2.247  1.00 20.00     0.054 A 
HETATM    3  C3  UNL     1     -32.985   7.802   4.384  1.00 20.00     0.060 A 
HETATM    4  C4  UNL     1     -33.748   6.859   4.962  1.00 20.00    -0.044 A 
HETATM    5  C5  UNL     1     -34.177   5.613   4.223  1.00 20.00     0.221 A 
HETATM    6  C6  UNL     1     -32.487   7.722   2.970  1.00 20.00     0.280 A 
HETATM    7  C7  UNL     1     -34.222   6.981   6.381  1.00 20.00     0.046 C 
HETATM    8  F8  UNL     1     -35.539   5.529   4.217  1.00 20.00    -0.240 F 
HETATM    9  F9  UNL     1     -31.125   7.798   2.967  1.00 20.00    -0.197 F 
HETATM   10  F10 UNL     1     -32.912   8.818   2.279  1.00 20.00    -0.197 F 
ENDROOT
TORSDOF 0
ENDMDL
MODEL 8
REMARK VINA RESULT:      -5.5      1.968      3.136
REMARK  0 active torsions:
REMARK  status: ('A' for Active; 'I' for Inactive)
ROOT
HETATM    1  C1  UNL     1     -33.950   7.150   5.740  1.00 20.00     0.017 A 
HETATM    2  C2  UNL     1     -33.235   7.919   4.908  1.00 20.00     0.054 A 
HETATM    3  C3  UNL     1     -33.218   6.064   3.213  1.00 20.00     0.060 A 
HETATM    4  C4  UNL     1     -33.935   5.282   4.037  1.00 20.00    -0.044 A 
HETATM    5  C5  UNL     1     -34.377   5.751   5.403  1.00 20.00     0.221 A 
HETATM    6  C6  UNL     1     -32.789   7.462   3.553  1.00 20.00     0.280 A 
HETATM    7  C7  UNL     1     -34.343   3.889   3.653  1.00 20.00     0.046 C 
HETATM    8  F8  UNL     1     -33.904   4.899   6.358  1.00 20.00    -0.240 F 
HETATM    9  F9  UNL     1     -33.264   8.322   2.608  1.00 20.00    -0.197 F 
HETATM   10  F10 UNL     1     -31.430   7.550   3.472  1.00 20.00    -0.197 F 
ENDROOT
TORSDOF 0
ENDMDL
MODEL 9
REMARK VINA RESULT:      -5.3      1.541      3.011
REMARK  0 active torsions:
REMARK  status: ('A' for Active; 'I' for Inactive)
ROOT
HETATM    1  C1  UNL     1     -34.624   5.881   3.205  1.00 20.00     0.017 A 
HETATM    2  C2  UNL     1     -34.970   5.420   4.415  1.00 20.00     0.054 A 
HETATM    3  C3  UNL     1     -33.272   6.940   5.474  1.00 20.00     0.060 A 
HETATM    4  C4  UNL     1     -32.915   7.411   4.267  1.00 20.00    -0.044 A 
HETATM    5  C5  UNL     1     -33.563   6.921   2.993  1.00 20.00     0.221 A 
HETATM    6  C6  UNL     1     -34.332   5.898   5.683  1.00 20.00     0.280 A 
HETATM    7  C7  UNL     1     -31.850   8.456   4.107  1.00 20.00     0.046 C 
HETATM    8  F8  UNL     1     -32.609   6.419   2.156  1.00 20.00    -0.240 F 
HETATM    9  F9  UNL     1     -35.294   6.392   6.514  1.00 20.00    -0.197 F 
HETATM   10  F10 UNL     1     -33.794   4.834   6.346  1.00 20.00    -0.197 F 
ENDROOT
TORSDOF 0
ENDMDL
