MODEL 1
REMARK VINA RESULT:      -4.7      0.000      0.000
REMARK  0 active torsions:
REMARK  status: ('A' for Active; 'I' for Inactive)
ROOT
HETATM    1  C1  UNL     1     -32.807   7.304   3.096  1.00 20.00    -0.087 C 
HETATM    2  C2  UNL     1     -32.088   8.151   2.358  1.00 20.00     0.014 C 
HETATM    3  C3  UNL     1     -33.338   5.909   2.847  1.00 20.00     0.049 C 
HETATM    4  C4  UNL     1     -33.386   7.378   4.491  1.00 20.00     0.049 C 
HETATM    5  C5  UNL     1     -34.322   6.247   3.995  1.00 20.00     0.065 C 
HETATM    6 BR6  UNL     1     -34.645   4.817   5.264  1.00 20.00    -0.091 Br
ENDROOT
TORSDOF 0
ENDMDL
MODEL 2
REMARK VINA RESULT:      -4.6      2.280      3.444
REMARK  0 active torsions:
REMARK  status: ('A' for Active; 'I' for Inactive)
ROOT
HETATM    1  C1  UNL     1     -34.151   5.833   4.699  1.00 20.00    -0.087 C 
HETATM    2  C2  UNL     1     -34.818   4.969   5.466  1.00 20.00     0.014 C 
HETATM    3  C3  UNL     1     -33.552   7.198   4.958  1.00 20.00     0.049 C 
HETATM    4  C4  UNL     1     -33.705   5.807   3.254  1.00 20.00     0.049 C 
HETATM    5  C5  UNL     1     -33.613   7.345   3.416  1.00 20.00     0.065 C 
HETATM    6 BR6  UNL     1     -32.065   8.177   2.597  1.00 20.00    -0.091 Br
ENDROOT
TORSDOF 0
ENDMDL
MODEL 3
REMARK VINA RESULT:      -4.6      2.322      3.207
REMARK  0 active torsions:
REMARK  status: ('A' for Active; 'I' for Inactive)
ROOT
HETATM    1  C1  UNL     1     -34.163   5.980   4.136  1.00 20.00    -0.087 C 
HETATM    2  C2  UNL     1     -34.875   5.130   4.877  1.00 20.00     0.014 C 
HETATM    3  C3  UNL     1     -33.692   5.955   2.698  1.00 20.00     0.049 C 
HETATM    4  C4  UNL     1     -33.538   7.328   4.417  1.00 20.00     0.049 C 
HETATM    5  C5  UNL     1     -32.660   7.005   3.182  1.00 20.00     0.065 C 
HETATM    6 BR6  UNL     1     -32.348   8.486   1.970  1.00 20.00    -0.091 Br
ENDROOT
TORSDOF 0
ENDMDL
MODEL 4
REMARK VINA RESULT:      -3.9      1.600      2.210
REMARK  0 active torsions:
REMARK  status: ('A' for Active; 'I' for Inactive)
ROOT
HETATM    1  C1  UNL     1     -32.105   8.311   2.093  1.00 20.00    -0.087 C 
HETATM    2  C2  UNL     1     -31.597   8.757   0.943  1.00 20.00     0.014 C 
HETATM    3  C3  UNL     1     -31.589   8.298   3.516  1.00 20.00     0.049 C 
HETATM    4  C4  UNL     1     -33.409   7.640   2.460  1.00 20.00     0.049 C 
HETATM    5  C5  UNL     1     -32.638   7.176   3.721  1.00 20.00     0.065 C 
HETATM    6 BR6  UNL     1     -33.633   7.258   5.384  1.00 20.00    -0.091 Br
ENDROOT
TORSDOF 0
ENDMDL
MODEL 5
REMARK VINA RESULT:      -3.5      1.557      2.424
REMARK  0 active torsions:
REMARK  status: ('A' for Active; 'I' for Inactive)
ROOT
HETATM    1  C1  UNL     1     -33.302   5.073   2.923  1.00 20.00    -0.087 C 
HETATM    2  C2  UNL     1     -33.046   4.241   1.913  1.00 20.00     0.014 C 
HETATM    3  C3  UNL     1     -34.075   4.924   4.216  1.00 20.00     0.049 C 
HETATM    4  C4  UNL     1     -32.922   6.509   3.207  1.00 20.00     0.049 C 
HETATM    5  C5  UNL     1     -34.123   6.472   4.184  1.00 20.00     0.065 C 
HETATM    6 BR6  UNL     1     -33.837   7.350   5.890  1.00 20.00    -0.091 Br
ENDROOT
TORSDOF 0
ENDMDL
MODEL 6
REMARK VINA RESULT:      -3.5      1.733      2.709
REMARK  0 active torsions:
REMARK  status: ('A' for Active; 'I' for Inactive)
ROOT
HETATM    1  C1  UNL     1     -33.825   6.926   5.283  1.00 20.00    -0.087 C 
HETATM    2  C2  UNL     1     -33.961   7.694   6.365  1.00 20.00     0.014 C 
HETATM    3  C3  UNL     1     -33.106   7.113   3.965  1.00 20.00     0.049 C 
HETATM    4  C4  UNL     1     -34.323   5.544   4.923  1.00 20.00     0.049 C 
HETATM    5  C5  UNL     1     -34.057   5.997   3.465  1.00 20.00     0.065 C 
HETATM    6 BR6  UNL     1     -33.246   4.664   2.314  1.00 20.00    -0.091 Br
ENDROOT
TORSDOF 0
ENDMDL
MODEL 7
REMARK VINA RESULT:      -3.3      2.908      3.665
REMARK  0 active torsions:
REMARK  status: ('A' for Active; 'I' for Inactive)
ROOT
HETATM    1  C1  UNL     1     -32.953   7.473   4.024  1.00 20.00    -0.087 C 
HETATM    2  C2  UNL     1     -33.431   7.030   5.188  1.00 20.00     0.014 C 
HETATM    3  C3  UNL     1     -31.788   8.367   3.657  1.00 20.00     0.049 C 
HETATM    4  C4  UNL     1     -33.368   7.262   2.585  1.00 20.00     0.049 C 
HETATM    5  C5  UNL     1     -32.556   8.556   2.324  1.00 20.00     0.065 C 
HETATM    6 BR6  UNL     1     -31.461   8.543   0.723  1.00 20.00    -0.091 Br
ENDROOT
TORSDOF 0
ENDMDL
MODEL 8
REMARK VINA RESULT:      -3.1     11.808     12.112
REMARK  0 active torsions:
REMARK  status: ('A' for Active; 'I' for Inactive)
ROOT
HETATM    1  C1  UNL     1     -34.454  16.673  -2.197  1.00 20.00    -0.087 C 
HETATM    2  C2  UNL     1     -34.662  15.895  -3.260  1.00 20.00     0.014 C 
HETATM    3  C3  UNL     1     -35.309  17.049  -1.007  1.00 20.00     0.049 C 
HETATM    4  C4  UNL     1     -33.274  17.495  -1.729  1.00 20.00     0.049 C 
HETATM    5  C5  UNL     1     -34.331  18.244  -0.880  1.00 20.00     0.065 C 
HETATM    6 BR6  UNL     1     -33.786  18.687   0.928  1.00 20.00    -0.091 Br
ENDROOT
TORSDOF 0
ENDMDL
MODEL 9
REMARK VINA RESULT:      -3.1     11.929     12.225
REMARK  0 active torsions:
REMARK  status: ('A' for Active; 'I' for Inactive)
ROOT
HETATM    1  C1  UNL     1     -34.892  16.976  -1.530  1.00 20.00    -0.087 C 
HETATM    2  C2  UNL     1     -35.425  17.354  -0.367  1.00 20.00     0.014 C 
HETATM    3  C3  UNL     1     -33.504  17.098  -2.121  1.00 20.00     0.049 C 
HETATM    4  C4  UNL     1     -35.447  16.260  -2.741  1.00 20.00     0.049 C 
HETATM    5  C5  UNL     1     -34.229  16.878  -3.472  1.00 20.00     0.065 C 
HETATM    6 BR6  UNL     1     -33.324  15.704  -4.722  1.00 20.00    -0.091 Br
ENDROOT
TORSDOF 0
ENDMDL
