MODEL 1
REMARK VINA RESULT:      -4.7      0.000      0.000
REMARK  1 active torsions:
REMARK  status: ('A' for Active; 'I' for Inactive)
REMARK    1  A    between atoms: C3_3  and  C8_8 
ROOT
HETATM    1  C1  UNL     1     -33.327  15.186  -4.209  1.00 20.00    -0.025 C 
HETATM    2  C2  UNL     1     -34.547  15.524  -3.766  1.00 20.00    -0.024 C 
HETATM    3  C4  UNL     1     -34.173  16.738  -5.684  1.00 20.00     0.018 C 
HETATM    4  C5  UNL     1     -33.289  15.487  -5.688  1.00 20.00     0.013 C 
HETATM    5  C6  UNL     1     -35.331  16.039  -4.957  1.00 20.00     0.024 C 
HETATM    6  C7  UNL     1     -34.192  14.442  -6.409  1.00 20.00     0.004 C 
HETATM    7  C8  UNL     1     -35.641  14.859  -5.931  1.00 20.00     0.020 C 
HETATM    8  C9  UNL     1     -33.960  14.447  -7.918  1.00 20.00     0.012 C 
HETATM    9  C10 UNL     1     -36.612  15.290  -7.037  1.00 20.00     0.024 C 
ENDROOT
BRANCH   7  10
HETATM   10  C3  UNL     1     -36.313  13.716  -5.211  1.00 20.00     0.241 C 
HETATM   11  O11 UNL     1     -35.941  12.550  -5.299  1.00 20.00    -0.306 OA
ENDBRANCH   7  10
TORSDOF 1
ENDMDL
MODEL 2
REMARK VINA RESULT:      -4.6      1.131      2.083
REMARK  1 active torsions:
REMARK  status: ('A' for Active; 'I' for Inactive)
REMARK    1  A    between atoms: C3_3  and  C8_8 
ROOT
HETATM    1  C1  UNL     1     -35.454  16.261  -2.780  1.00 20.00    -0.025 C 
HETATM    2  C2  UNL     1     -36.280  16.412  -3.826  1.00 20.00    -0.024 C 
HETATM    3  C4  UNL     1     -34.178  17.003  -4.546  1.00 20.00     0.018 C 
HETATM    4  C5  UNL     1     -34.062  16.074  -3.333  1.00 20.00     0.013 C 
HETATM    5  C6  UNL     1     -35.438  16.311  -5.082  1.00 20.00     0.024 C 
HETATM    6  C7  UNL     1     -33.999  14.666  -3.996  1.00 20.00     0.004 C 
HETATM    7  C8  UNL     1     -34.934  14.843  -5.259  1.00 20.00     0.020 C 
HETATM    8  C9  UNL     1     -32.561  14.246  -4.285  1.00 20.00     0.012 C 
HETATM    9  C10 UNL     1     -34.261  14.646  -6.622  1.00 20.00     0.024 C 
ENDROOT
BRANCH   7  10
HETATM   10  C3  UNL     1     -36.079  13.862  -5.215  1.00 20.00     0.241 C 
HETATM   11  O11 UNL     1     -35.926  12.645  -5.229  1.00 20.00    -0.306 OA
ENDBRANCH   7  10
TORSDOF 1
ENDMDL
MODEL 3
REMARK VINA RESULT:      -4.5     11.934     13.286
REMARK  1 active torsions:
REMARK  status: ('A' for Active; 'I' for Inactive)
REMARK    1  A    between atoms: C3_3  and  C8_8 
ROOT
HETATM    1  C1  UNL     1     -33.758   4.260   4.097  1.00 20.00    -0.025 C 
HETATM    2  C2  UNL     1     -33.675   4.722   2.841  1.00 20.00    -0.024 C 
HETATM    3  C4  UNL     1     -35.443   5.807   3.833  1.00 20.00     0.018 C 
HETATM    4  C5  UNL     1     -34.476   5.310   4.912  1.00 20.00     0.013 C 
HETATM    5  C6  UNL     1     -34.326   6.091   2.820  1.00 20.00     0.024 C 
HETATM    6  C7  UNL     1     -33.512   6.522   5.080  1.00 20.00     0.004 C 
HETATM    7  C8  UNL     1     -33.440   7.105   3.612  1.00 20.00     0.020 C 
HETATM    8  C9  UNL     1     -34.005   7.485   6.157  1.00 20.00     0.012 C 
HETATM    9  C10 UNL     1     -33.947   8.541   3.437  1.00 20.00     0.024 C 
ENDROOT
BRANCH   7  10
HETATM   10  C3  UNL     1     -32.019   7.101   3.106  1.00 20.00     0.241 C 
HETATM   11  O11 UNL     1     -31.312   8.104   3.071  1.00 20.00    -0.306 OA
ENDBRANCH   7  10
TORSDOF 1
ENDMDL
MODEL 4
REMARK VINA RESULT:      -4.4      1.393      2.072
REMARK  1 active torsions:
REMARK  status: ('A' for Active; 'I' for Inactive)
REMARK    1  A    between atoms: C3_3  and  C8_8 
ROOT
HETATM    1  C1  UNL     1     -32.847  15.534  -5.198  1.00 20.00    -0.025 C 
HETATM    2  C2  UNL     1     -33.269  14.487  -4.474  1.00 20.00    -0.024 C 
HETATM    3  C4  UNL     1     -34.192  16.368  -3.527  1.00 20.00     0.018 C 
HETATM    4  C5  UNL     1     -33.842  16.651  -4.991  1.00 20.00     0.013 C 
HETATM    5  C6  UNL     1     -34.558  14.901  -3.793  1.00 20.00     0.024 C 
HETATM    6  C7  UNL     1     -35.156  16.259  -5.730  1.00 20.00     0.004 C 
HETATM    7  C8  UNL     1     -35.689  15.053  -4.858  1.00 20.00     0.020 C 
HETATM    8  C9  UNL     1     -36.099  17.452  -5.866  1.00 20.00     0.012 C 
HETATM    9  C10 UNL     1     -37.056  15.260  -4.194  1.00 20.00     0.024 C 
ENDROOT
BRANCH   7  10
HETATM   10  C3  UNL     1     -35.821  13.807  -5.699  1.00 20.00     0.241 C 
HETATM   11  O11 UNL     1     -35.969  12.685  -5.224  1.00 20.00    -0.306 OA
ENDBRANCH   7  10
TORSDOF 1
ENDMDL
MODEL 5
REMARK VINA RESULT:      -4.2      1.734      2.710
REMARK  1 active torsions:
REMARK  status: ('A' for Active; 'I' for Inactive)
REMARK    1  A    between atoms: C3_3  and  C8_8 
ROOT
HETATM    1  C1  UNL     1     -34.252  16.160  -3.391  1.00 20.00    -0.025 C 
HETATM    2  C2  UNL     1     -33.462  16.742  -4.305  1.00 20.00    -0.024 C 
HETATM    3  C4  UNL     1     -33.091  14.477  -4.448  1.00 20.00     0.018 C 
HETATM    4  C5  UNL     1     -34.470  14.732  -3.831  1.00 20.00     0.013 C 
HETATM    5  C6  UNL     1     -33.164  15.703  -5.368  1.00 20.00     0.024 C 
HETATM    6  C7  UNL     1     -35.396  14.758  -5.084  1.00 20.00     0.004 C 
HETATM    7  C8  UNL     1     -34.460  15.401  -6.185  1.00 20.00     0.020 C 
HETATM    8  C9  UNL     1     -35.945  13.370  -5.403  1.00 20.00     0.012 C 
HETATM    9  C10 UNL     1     -34.157  14.520  -7.403  1.00 20.00     0.024 C 
ENDROOT
BRANCH   7  10
HETATM   10  C3  UNL     1     -35.072  16.668  -6.730  1.00 20.00     0.241 C 
HETATM   11  O11 UNL     1     -36.238  16.993  -6.533  1.00 20.00    -0.306 OA
ENDBRANCH   7  10
TORSDOF 1
ENDMDL
MODEL 6
REMARK VINA RESULT:      -4.2      1.257      2.787
REMARK  1 active torsions:
REMARK  status: ('A' for Active; 'I' for Inactive)
REMARK    1  A    between atoms: C3_3  and  C8_8 
ROOT
HETATM    1  C1  UNL     1     -37.412  14.500  -4.924  1.00 20.00    -0.025 C 
HETATM    2  C2  UNL     1     -37.444  14.759  -6.239  1.00 20.00    -0.024 C 
HETATM    3  C4  UNL     1     -36.033  16.307  -5.290  1.00 20.00     0.018 C 
HETATM    4  C5  UNL     1     -36.121  15.072  -4.387  1.00 20.00     0.013 C 
HETATM    5  C6  UNL     1     -36.165  15.494  -6.585  1.00 20.00     0.024 C 
HETATM    6  C7  UNL     1     -34.953  14.188  -4.917  1.00 20.00     0.004 C 
HETATM    7  C8  UNL     1     -34.950  14.519  -6.463  1.00 20.00     0.020 C 
HETATM    8  C9  UNL     1     -33.652  14.473  -4.172  1.00 20.00     0.012 C 
HETATM    9  C10 UNL     1     -33.667  15.158  -7.008  1.00 20.00     0.024 C 
ENDROOT
BRANCH   7  10
HETATM   10  C3  UNL     1     -35.169  13.267  -7.276  1.00 20.00     0.241 C 
HETATM   11  O11 UNL     1     -35.168  12.139  -6.793  1.00 20.00    -0.306 OA
ENDBRANCH   7  10
TORSDOF 1
ENDMDL
MODEL 7
REMARK VINA RESULT:      -4.2      1.171      2.989
REMARK  1 active torsions:
REMARK  status: ('A' for Active; 'I' for Inactive)
REMARK    1  A    between atoms: C3_3  and  C8_8 
ROOT
HETATM    1  C1  UNL     1     -35.889  17.233  -6.179  1.00 20.00    -0.025 C 
HETATM    2  C2  UNL     1     -35.476  16.166  -6.878  1.00 20.00    -0.024 C 
HETATM    3  C4  UNL     1     -33.710  16.825  -5.561  1.00 20.00     0.018 C 
HETATM    4  C5  UNL     1     -35.021  17.325  -4.947  1.00 20.00     0.013 C 
HETATM    5  C6  UNL     1     -34.338  15.533  -6.102  1.00 20.00     0.024 C 
HETATM    6  C7  UNL     1     -35.414  16.151  -4.001  1.00 20.00     0.004 C 
HETATM    7  C8  UNL     1     -34.891  14.886  -4.793  1.00 20.00     0.020 C 
HETATM    8  C9  UNL     1     -34.841  16.344  -2.599  1.00 20.00     0.012 C 
HETATM    9  C10 UNL     1     -33.815  14.053  -4.086  1.00 20.00     0.024 C 
ENDROOT
BRANCH   7  10
HETATM   10  C3  UNL     1     -36.025  13.936  -5.088  1.00 20.00     0.241 C 
HETATM   11  O11 UNL     1     -35.875  12.725  -5.218  1.00 20.00    -0.306 OA
ENDBRANCH   7  10
TORSDOF 1
ENDMDL
MODEL 8
REMARK VINA RESULT:      -4.1      1.118      1.308
REMARK  1 active torsions:
REMARK  status: ('A' for Active; 'I' for Inactive)
REMARK    1  A    between atoms: C3_3  and  C8_8 
ROOT
HETATM    1  C1  UNL     1     -33.953  16.331  -3.063  1.00 20.00    -0.025 C 
HETATM    2  C2  UNL     1     -35.229  15.959  -2.883  1.00 20.00    -0.024 C 
HETATM    3  C4  UNL     1     -35.204  17.410  -4.666  1.00 20.00     0.018 C 
HETATM    4  C5  UNL     1     -33.817  16.781  -4.498  1.00 20.00     0.013 C 
HETATM    5  C6  UNL     1     -35.944  16.147  -4.206  1.00 20.00     0.024 C 
HETATM    6  C7  UNL     1     -33.913  15.517  -5.403  1.00 20.00     0.004 C 
HETATM    7  C8  UNL     1     -35.427  15.093  -5.236  1.00 20.00     0.020 C 
HETATM    8  C9  UNL     1     -33.457  15.813  -6.829  1.00 20.00     0.012 C 
HETATM    9  C10 UNL     1     -36.271  15.106  -6.516  1.00 20.00     0.024 C 
ENDROOT
BRANCH   7  10
HETATM   10  C3  UNL     1     -35.530  13.692  -4.685  1.00 20.00     0.241 C 
HETATM   11  O11 UNL     1     -35.910  12.732  -5.348  1.00 20.00    -0.306 OA
ENDBRANCH   7  10
TORSDOF 1
ENDMDL
MODEL 9
REMARK VINA RESULT:      -4.1      1.787      3.197
REMARK  1 active torsions:
REMARK  status: ('A' for Active; 'I' for Inactive)
REMARK    1  A    between atoms: C3_3  and  C8_8 
ROOT
HETATM    1  C1  UNL     1     -34.219  14.741  -6.325  1.00 20.00    -0.025 C 
HETATM    2  C2  UNL     1     -34.859  14.017  -5.396  1.00 20.00    -0.024 C 
HETATM    3  C4  UNL     1     -32.955  14.841  -4.404  1.00 20.00     0.018 C 
HETATM    4  C5  UNL     1     -33.336  15.725  -5.595  1.00 20.00     0.013 C 
HETATM    5  C6  UNL     1     -34.413  14.528  -4.041  1.00 20.00     0.024 C 
HETATM    6  C7  UNL     1     -34.259  16.793  -4.936  1.00 20.00     0.004 C 
HETATM    7  C8  UNL     1     -34.988  15.961  -3.806  1.00 20.00     0.020 C 
HETATM    8  C9  UNL     1     -33.463  18.007  -4.462  1.00 20.00     0.012 C 
HETATM    9  C10 UNL     1     -34.743  16.430  -2.367  1.00 20.00     0.024 C 
ENDROOT
BRANCH   7  10
HETATM   10  C3  UNL     1     -36.483  15.990  -4.004  1.00 20.00     0.241 C 
HETATM   11  O11 UNL     1     -37.047  16.755  -4.780  1.00 20.00    -0.306 OA
ENDBRANCH   7  10
TORSDOF 1
ENDMDL
