MODEL 1
REMARK VINA RESULT:      -5.9      0.000      0.000
REMARK  0 active torsions:
REMARK  status: ('A' for Active; 'I' for Inactive)
ROOT
HETATM    1  C1  UNL     1     -34.445   4.490   3.965  1.00 20.00     0.001 C 
HETATM    2  C2  UNL     1     -32.120   8.389   1.999  1.00 20.00     0.001 C 
HETATM    3  C3  UNL     1     -33.394   4.966   2.952  1.00 20.00     0.005 C 
HETATM    4  C4  UNL     1     -32.320   6.911   1.710  1.00 20.00     0.005 C 
HETATM    5  C5  UNL     1     -34.158   4.902   5.411  1.00 20.00     0.005 C 
HETATM    6  C6  UNL     1     -32.096   8.489   3.524  1.00 20.00     0.005 C 
HETATM    7  C7  UNL     1     -33.668   7.222   6.498  1.00 20.00     0.010 A 
HETATM    8  C8  UNL     1     -33.302   6.486   2.800  1.00 20.00    -0.010 C 
HETATM    9  C9  UNL     1     -34.562   6.318   5.690  1.00 20.00    -0.010 A 
HETATM   10  C10 UNL     1     -32.759   7.203   4.047  1.00 20.00    -0.006 C 
HETATM   11  C11 UNL     1     -33.859   7.476   5.027  1.00 20.00    -0.006 A 
ENDROOT
TORSDOF 0
ENDMDL
MODEL 2
REMARK VINA RESULT:      -5.3      0.771      2.716
REMARK  0 active torsions:
REMARK  status: ('A' for Active; 'I' for Inactive)
ROOT
HETATM    1  C1  UNL     1     -34.412   5.756   5.842  1.00 20.00     0.001 C 
HETATM    2  C2  UNL     1     -31.341   8.657   3.268  1.00 20.00     0.001 C 
HETATM    3  C3  UNL     1     -33.940   7.194   5.582  1.00 20.00     0.005 C 
HETATM    4  C4  UNL     1     -32.240   8.741   4.490  1.00 20.00     0.005 C 
HETATM    5  C5  UNL     1     -34.956   5.037   4.605  1.00 20.00     0.005 C 
HETATM    6  C6  UNL     1     -32.060   7.697   2.321  1.00 20.00     0.005 C 
HETATM    7  C7  UNL     1     -33.941   4.634   2.236  1.00 20.00     0.010 A 
HETATM    8  C8  UNL     1     -32.739   7.306   4.639  1.00 20.00    -0.010 C 
HETATM    9  C9  UNL     1     -33.862   4.497   3.734  1.00 20.00    -0.010 A 
HETATM   10  C10 UNL     1     -33.049   6.900   3.188  1.00 20.00    -0.006 C 
HETATM   11  C11 UNL     1     -32.914   5.418   3.009  1.00 20.00    -0.006 A 
ENDROOT
TORSDOF 0
ENDMDL
MODEL 3
REMARK VINA RESULT:      -5.0     11.717     12.431
REMARK  0 active torsions:
REMARK  status: ('A' for Active; 'I' for Inactive)
ROOT
HETATM    1  C1  UNL     1     -32.651  18.654  -0.004  1.00 20.00     0.001 C 
HETATM    2  C2  UNL     1     -34.838  15.825  -3.423  1.00 20.00     0.001 C 
HETATM    3  C3  UNL     1     -32.712  18.275  -1.491  1.00 20.00     0.005 C 
HETATM    4  C4  UNL     1     -33.601  16.696  -3.279  1.00 20.00     0.005 C 
HETATM    5  C5  UNL     1     -33.968  19.185   0.566  1.00 20.00     0.005 C 
HETATM    6  C6  UNL     1     -35.899  16.509  -2.563  1.00 20.00     0.005 C 
HETATM    7  C7  UNL     1     -36.386  18.207   0.568  1.00 20.00     0.010 A 
HETATM    8  C8  UNL     1     -33.649  17.106  -1.808  1.00 20.00    -0.010 C 
HETATM    9  C9  UNL     1     -34.925  18.083   0.909  1.00 20.00    -0.010 A 
HETATM   10  C10 UNL     1     -35.138  17.428  -1.592  1.00 20.00    -0.006 C 
HETATM   11  C11 UNL     1     -35.527  17.209  -0.162  1.00 20.00    -0.006 A 
ENDROOT
TORSDOF 0
ENDMDL
MODEL 4
REMARK VINA RESULT:      -4.9     11.870     12.490
REMARK  0 active torsions:
REMARK  status: ('A' for Active; 'I' for Inactive)
ROOT
HETATM    1  C1  UNL     1     -35.256  18.564   1.369  1.00 20.00     0.001 C 
HETATM    2  C2  UNL     1     -34.763  16.804  -3.228  1.00 20.00     0.001 C 
HETATM    3  C3  UNL     1     -35.730  17.517   0.351  1.00 20.00     0.005 C 
HETATM    4  C4  UNL     1     -35.727  16.695  -2.058  1.00 20.00     0.005 C 
HETATM    5  C5  UNL     1     -33.756  18.515   1.673  1.00 20.00     0.005 C 
HETATM    6  C6  UNL     1     -33.386  16.963  -2.585  1.00 20.00     0.005 C 
HETATM    7  C7  UNL     1     -31.661  18.583   0.121  1.00 20.00     0.010 A 
HETATM    8  C8  UNL     1     -35.151  17.693  -1.055  1.00 20.00    -0.010 C 
HETATM    9  C9  UNL     1     -32.940  19.202   0.619  1.00 20.00    -0.010 A 
HETATM   10  C10 UNL     1     -33.638  17.428  -1.141  1.00 20.00    -0.006 C 
HETATM   11  C11 UNL     1     -32.861  18.659  -0.785  1.00 20.00    -0.006 A 
ENDROOT
TORSDOF 0
ENDMDL
MODEL 5
REMARK VINA RESULT:      -4.8     11.832     12.563
REMARK  0 active torsions:
REMARK  status: ('A' for Active; 'I' for Inactive)
ROOT
HETATM    1  C1  UNL     1     -36.651  15.069  -4.556  1.00 20.00     0.001 C 
HETATM    2  C2  UNL     1     -34.290  17.434  -0.908  1.00 20.00     0.001 C 
HETATM    3  C3  UNL     1     -36.722  16.199  -3.518  1.00 20.00     0.005 C 
HETATM    4  C4  UNL     1     -35.695  17.319  -1.477  1.00 20.00     0.005 C 
HETATM    5  C5  UNL     1     -35.489  15.193  -5.545  1.00 20.00     0.005 C 
HETATM    6  C6  UNL     1     -33.367  17.300  -2.119  1.00 20.00     0.005 C 
HETATM    7  C7  UNL     1     -32.922  15.483  -5.189  1.00 20.00     0.010 A 
HETATM    8  C8  UNL     1     -35.534  16.248  -2.554  1.00 20.00    -0.010 C 
HETATM    9  C9  UNL     1     -34.194  14.710  -4.964  1.00 20.00    -0.010 A 
HETATM   10  C10 UNL     1     -34.205  16.636  -3.225  1.00 20.00    -0.006 C 
HETATM   11  C11 UNL     1     -33.536  15.432  -3.816  1.00 20.00    -0.006 A 
ENDROOT
TORSDOF 0
ENDMDL
MODEL 6
REMARK VINA RESULT:      -4.7     11.690     12.562
REMARK  0 active torsions:
REMARK  status: ('A' for Active; 'I' for Inactive)
ROOT
HETATM    1  C1  UNL     1     -32.620  18.569  -1.048  1.00 20.00     0.001 C 
HETATM    2  C2  UNL     1     -32.112  19.263   3.824  1.00 20.00     0.001 C 
HETATM    3  C3  UNL     1     -31.663  18.510   0.151  1.00 20.00     0.005 C 
HETATM    4  C4  UNL     1     -31.235  19.068   2.597  1.00 20.00     0.005 C 
HETATM    5  C5  UNL     1     -33.860  17.682  -0.910  1.00 20.00     0.005 C 
HETATM    6  C6  UNL     1     -33.358  18.423   3.549  1.00 20.00     0.005 C 
HETATM    7  C7  UNL     1     -35.673  17.500   0.957  1.00 20.00     0.010 A 
HETATM    8  C8  UNL     1     -32.252  19.049   1.458  1.00 20.00    -0.010 C 
HETATM    9  C9  UNL     1     -34.921  18.316  -0.061  1.00 20.00    -0.010 A 
HETATM   10  C10 UNL     1     -33.389  18.186   2.029  1.00 20.00    -0.006 C 
HETATM   11  C11 UNL     1     -34.702  18.558   1.411  1.00 20.00    -0.006 A 
ENDROOT
TORSDOF 0
ENDMDL
MODEL 7
REMARK VINA RESULT:      -4.6      0.907      3.558
REMARK  0 active torsions:
REMARK  status: ('A' for Active; 'I' for Inactive)
ROOT
HETATM    1  C1  UNL     1     -33.047   6.810   1.429  1.00 20.00     0.001 C 
HETATM    2  C2  UNL     1     -34.624   5.565   5.949  1.00 20.00     0.001 C 
HETATM    3  C3  UNL     1     -34.218   6.273   2.263  1.00 20.00     0.005 C 
HETATM    4  C4  UNL     1     -35.042   5.380   4.500  1.00 20.00     0.005 C 
HETATM    5  C5  UNL     1     -32.549   8.192   1.857  1.00 20.00     0.005 C 
HETATM    6  C6  UNL     1     -33.968   6.944   5.993  1.00 20.00     0.005 C 
HETATM    7  C7  UNL     1     -31.773   9.127   4.166  1.00 20.00     0.010 A 
HETATM    8  C8  UNL     1     -33.881   6.009   3.733  1.00 20.00    -0.010 C 
HETATM    9  C9  UNL     1     -31.641   8.126   3.049  1.00 20.00    -0.010 A 
HETATM   10  C10 UNL     1     -33.588   7.284   4.542  1.00 20.00    -0.006 C 
HETATM   11  C11 UNL     1     -32.153   7.689   4.398  1.00 20.00    -0.006 A 
ENDROOT
TORSDOF 0
ENDMDL
MODEL 8
REMARK VINA RESULT:      -4.5     11.756     12.605
REMARK  0 active torsions:
REMARK  status: ('A' for Active; 'I' for Inactive)
ROOT
HETATM    1  C1  UNL     1     -37.937  14.692  -4.898  1.00 20.00     0.001 C 
HETATM    2  C2  UNL     1     -34.333  16.718  -2.181  1.00 20.00     0.001 C 
HETATM    3  C3  UNL     1     -37.488  15.922  -4.097  1.00 20.00     0.005 C 
HETATM    4  C4  UNL     1     -35.803  16.952  -2.492  1.00 20.00     0.005 C 
HETATM    5  C5  UNL     1     -37.012  14.324  -6.061  1.00 20.00     0.005 C 
HETATM    6  C6  UNL     1     -33.748  16.148  -3.472  1.00 20.00     0.005 C 
HETATM    7  C7  UNL     1     -34.444  13.877  -6.171  1.00 20.00     0.010 A 
HETATM    8  C8  UNL     1     -36.159  15.745  -3.356  1.00 20.00    -0.010 C 
HETATM    9  C9  UNL     1     -35.804  13.560  -5.607  1.00 20.00    -0.010 A 
HETATM   10  C10 UNL     1     -34.941  15.620  -4.287  1.00 20.00    -0.006 C 
HETATM   11  C11 UNL     1     -34.756  14.202  -4.734  1.00 20.00    -0.006 A 
ENDROOT
TORSDOF 0
ENDMDL
MODEL 9
REMARK VINA RESULT:      -4.3     11.627     13.271
REMARK  0 active torsions:
REMARK  status: ('A' for Active; 'I' for Inactive)
ROOT
HETATM    1  C1  UNL     1     -33.188  19.263  -4.040  1.00 20.00     0.001 C 
HETATM    2  C2  UNL     1     -33.798  14.509  -5.268  1.00 20.00     0.001 C 
HETATM    3  C3  UNL     1     -33.558  18.275  -5.156  1.00 20.00     0.005 C 
HETATM    4  C4  UNL     1     -33.662  15.860  -5.952  1.00 20.00     0.005 C 
HETATM    5  C5  UNL     1     -34.081  19.177  -2.800  1.00 20.00     0.005 C 
HETATM    6  C6  UNL     1     -34.538  14.805  -3.964  1.00 20.00     0.005 C 
HETATM    7  C7  UNL     1     -34.750  17.175  -1.269  1.00 20.00     0.010 A 
HETATM    8  C8  UNL     1     -33.382  16.801  -4.782  1.00 20.00    -0.010 C 
HETATM    9  C9  UNL     1     -33.694  18.045  -1.897  1.00 20.00    -0.010 A 
HETATM   10  C10 UNL     1     -34.367  16.312  -3.707  1.00 20.00    -0.006 C 
HETATM   11  C11 UNL     1     -33.847  16.610  -2.333  1.00 20.00    -0.006 A 
ENDROOT
TORSDOF 0
ENDMDL
