MODEL 1
REMARK VINA RESULT:      -4.9      0.000      0.000
REMARK  0 active torsions:
REMARK  status: ('A' for Active; 'I' for Inactive)
ROOT
HETATM    1  C1  UNL     1     -33.154   4.597   3.294  1.00 20.00     0.005 C 
HETATM    2  C2  UNL     1     -34.739   6.301   2.379  1.00 20.00     0.005 C 
HETATM    3  C3  UNL     1     -34.077   4.389   4.503  1.00 20.00     0.011 C 
HETATM    4  C4  UNL     1     -35.660   6.091   3.590  1.00 20.00     0.011 C 
HETATM    5  C5  UNL     1     -32.883   7.010   3.901  1.00 20.00     0.084 C 
HETATM    6  C6  UNL     1     -33.274   6.039   2.769  1.00 20.00    -0.009 C 
HETATM    7  C7  UNL     1     -34.832   5.691   4.822  1.00 20.00     0.058 C 
HETATM    8  C8  UNL     1     -33.805   6.794   5.100  1.00 20.00     0.247 C 
HETATM    9  F9  UNL     1     -33.068   6.473   6.192  1.00 20.00    -0.206 F 
HETATM   10  F10 UNL     1     -34.444   7.953   5.400  1.00 20.00    -0.206 F 
ENDROOT
TORSDOF 0
ENDMDL
MODEL 2
REMARK VINA RESULT:      -4.8      1.340      2.805
REMARK  0 active torsions:
REMARK  status: ('A' for Active; 'I' for Inactive)
ROOT
HETATM    1  C1  UNL     1     -35.641   6.022   3.710  1.00 20.00     0.005 C 
HETATM    2  C2  UNL     1     -33.704   4.592   4.386  1.00 20.00     0.005 C 
HETATM    3  C3  UNL     1     -34.994   6.244   2.334  1.00 20.00     0.011 C 
HETATM    4  C4  UNL     1     -33.059   4.817   3.010  1.00 20.00     0.011 C 
HETATM    5  C5  UNL     1     -33.652   7.056   4.824  1.00 20.00     0.084 C 
HETATM    6  C6  UNL     1     -34.557   5.809   4.783  1.00 20.00    -0.009 C 
HETATM    7  C7  UNL     1     -33.462   6.194   2.456  1.00 20.00     0.058 C 
HETATM    8  C8  UNL     1     -33.016   7.270   3.451  1.00 20.00     0.247 C 
HETATM    9  F9  UNL     1     -33.347   8.499   2.980  1.00 20.00    -0.206 F 
HETATM   10  F10 UNL     1     -31.664   7.260   3.567  1.00 20.00    -0.206 F 
ENDROOT
TORSDOF 0
ENDMDL
MODEL 3
REMARK VINA RESULT:      -4.7      7.943      9.302
REMARK  0 active torsions:
REMARK  status: ('A' for Active; 'I' for Inactive)
ROOT
HETATM    1  C1  UNL     1     -43.412   6.312  -1.353  1.00 20.00     0.005 C 
HETATM    2  C2  UNL     1     -43.417   7.573   0.806  1.00 20.00     0.005 C 
HETATM    3  C3  UNL     1     -42.854   5.078  -0.629  1.00 20.00     0.011 C 
HETATM    4  C4  UNL     1     -42.858   6.338   1.527  1.00 20.00     0.011 C 
HETATM    5  C5  UNL     1     -41.400   7.635  -0.674  1.00 20.00     0.084 C 
HETATM    6  C6  UNL     1     -42.940   7.601  -0.657  1.00 20.00    -0.009 C 
HETATM    7  C7  UNL     1     -41.987   5.513   0.565  1.00 20.00     0.058 C 
HETATM    8  C8  UNL     1     -40.854   6.403   0.046  1.00 20.00     0.247 C 
HETATM    9  F9  UNL     1     -40.060   5.695  -0.796  1.00 20.00    -0.206 F 
HETATM   10  F10 UNL     1     -40.062   6.790   1.079  1.00 20.00    -0.206 F 
ENDROOT
TORSDOF 0
ENDMDL
MODEL 4
REMARK VINA RESULT:      -4.6      1.468      2.598
REMARK  0 active torsions:
REMARK  status: ('A' for Active; 'I' for Inactive)
ROOT
HETATM    1  C1  UNL     1     -34.556   6.454   2.351  1.00 20.00     0.005 C 
HETATM    2  C2  UNL     1     -32.897   7.225   4.056  1.00 20.00     0.005 C 
HETATM    3  C3  UNL     1     -35.594   6.235   3.462  1.00 20.00     0.011 C 
HETATM    4  C4  UNL     1     -33.937   7.004   5.165  1.00 20.00     0.011 C 
HETATM    5  C5  UNL     1     -33.024   4.802   3.441  1.00 20.00     0.084 C 
HETATM    6  C6  UNL     1     -33.133   6.240   2.898  1.00 20.00    -0.009 C 
HETATM    7  C7  UNL     1     -34.889   5.861   4.777  1.00 20.00     0.058 C 
HETATM    8  C8  UNL     1     -34.061   4.593   4.543  1.00 20.00     0.247 C 
HETATM    9  F9  UNL     1     -34.880   3.563   4.212  1.00 20.00    -0.206 F 
HETATM   10  F10 UNL     1     -33.440   4.230   5.694  1.00 20.00    -0.206 F 
ENDROOT
TORSDOF 0
ENDMDL
MODEL 5
REMARK VINA RESULT:      -4.4      8.744     10.001
REMARK  0 active torsions:
REMARK  status: ('A' for Active; 'I' for Inactive)
ROOT
HETATM    1  C1  UNL     1     -43.417   7.226   0.970  1.00 20.00     0.005 C 
HETATM    2  C2  UNL     1     -41.590   7.743  -0.656  1.00 20.00     0.005 C 
HETATM    3  C3  UNL     1     -42.586   6.063   1.533  1.00 20.00     0.011 C 
HETATM    4  C4  UNL     1     -40.761   6.579  -0.093  1.00 20.00     0.011 C 
HETATM    5  C5  UNL     1     -43.414   6.150  -1.289  1.00 20.00     0.084 C 
HETATM    6  C6  UNL     1     -43.093   7.445  -0.519  1.00 20.00    -0.009 C 
HETATM    7  C7  UNL     1     -41.691   5.471   0.430  1.00 20.00     0.058 C 
HETATM    8  C8  UNL     1     -42.584   5.000  -0.722  1.00 20.00     0.247 C 
HETATM    9  F9  UNL     1     -43.407   4.011  -0.291  1.00 20.00    -0.206 F 
HETATM   10  F10 UNL     1     -41.821   4.458  -1.705  1.00 20.00    -0.206 F 
ENDROOT
TORSDOF 0
ENDMDL
MODEL 6
REMARK VINA RESULT:      -4.4      1.958      3.061
REMARK  0 active torsions:
REMARK  status: ('A' for Active; 'I' for Inactive)
ROOT
HETATM    1  C1  UNL     1     -33.842   6.592   5.251  1.00 20.00     0.005 C 
HETATM    2  C2  UNL     1     -35.751   6.008   3.745  1.00 20.00     0.005 C 
HETATM    3  C3  UNL     1     -33.041   7.093   4.040  1.00 20.00     0.011 C 
HETATM    4  C4  UNL     1     -34.947   6.508   2.536  1.00 20.00     0.011 C 
HETATM    5  C5  UNL     1     -33.977   4.310   4.233  1.00 20.00     0.084 C 
HETATM    6  C6  UNL     1     -34.803   5.466   4.830  1.00 20.00    -0.009 C 
HETATM    7  C7  UNL     1     -33.443   6.307   2.779  1.00 20.00     0.058 C 
HETATM    8  C8  UNL     1     -33.184   4.818   3.030  1.00 20.00     0.247 C 
HETATM    9  F9  UNL     1     -31.859   4.609   3.236  1.00 20.00    -0.206 F 
HETATM   10  F10 UNL     1     -33.515   4.100   1.927  1.00 20.00    -0.206 F 
ENDROOT
TORSDOF 0
ENDMDL
MODEL 7
REMARK VINA RESULT:      -4.3      8.191      9.303
REMARK  0 active torsions:
REMARK  status: ('A' for Active; 'I' for Inactive)
ROOT
HETATM    1  C1  UNL     1     -42.884   4.795   0.723  1.00 20.00     0.005 C 
HETATM    2  C2  UNL     1     -43.417   5.906  -1.452  1.00 20.00     0.005 C 
HETATM    3  C3  UNL     1     -42.886   6.163   1.421  1.00 20.00     0.011 C 
HETATM    4  C4  UNL     1     -43.417   7.273  -0.752  1.00 20.00     0.011 C 
HETATM    5  C5  UNL     1     -41.032   5.551  -0.781  1.00 20.00     0.084 C 
HETATM    6  C6  UNL     1     -42.448   4.943  -0.746  1.00 20.00    -0.009 C 
HETATM    7  C7  UNL     1     -42.442   7.259   0.437  1.00 20.00     0.058 C 
HETATM    8  C8  UNL     1     -41.044   6.910  -0.083  1.00 20.00     0.247 C 
HETATM    9  F9  UNL     1     -40.158   6.904   0.945  1.00 20.00    -0.206 F 
HETATM   10  F10 UNL     1     -40.619   7.870  -0.944  1.00 20.00    -0.206 F 
ENDROOT
TORSDOF 0
ENDMDL
MODEL 8
REMARK VINA RESULT:      -4.1     11.969     13.100
REMARK  0 active torsions:
REMARK  status: ('A' for Active; 'I' for Inactive)
ROOT
HETATM    1  C1  UNL     1     -33.529  16.883  -4.923  1.00 20.00     0.005 C 
HETATM    2  C2  UNL     1     -34.775  16.139  -2.887  1.00 20.00     0.005 C 
HETATM    3  C3  UNL     1     -34.791  16.668  -5.772  1.00 20.00     0.011 C 
HETATM    4  C4  UNL     1     -36.035  15.923  -3.738  1.00 20.00     0.011 C 
HETATM    5  C5  UNL     1     -33.537  14.465  -4.277  1.00 20.00     0.084 C 
HETATM    6  C6  UNL     1     -33.511  15.907  -3.733  1.00 20.00    -0.009 C 
HETATM    7  C7  UNL     1     -35.644  15.536  -5.174  1.00 20.00     0.058 C 
HETATM    8  C8  UNL     1     -34.795  14.262  -5.121  1.00 20.00     0.247 C 
HETATM    9  F9  UNL     1     -34.446  13.888  -6.378  1.00 20.00    -0.206 F 
HETATM   10  F10 UNL     1     -35.528  13.240  -4.611  1.00 20.00    -0.206 F 
ENDROOT
TORSDOF 0
ENDMDL
MODEL 9
REMARK VINA RESULT:      -4.1     11.974     13.093
REMARK  0 active torsions:
REMARK  status: ('A' for Active; 'I' for Inactive)
ROOT
HETATM    1  C1  UNL     1     -34.986  16.235  -2.664  1.00 20.00     0.005 C 
HETATM    2  C2  UNL     1     -35.822  16.747  -4.964  1.00 20.00     0.005 C 
HETATM    3  C3  UNL     1     -33.547  16.506  -3.128  1.00 20.00     0.011 C 
HETATM    4  C4  UNL     1     -34.382  17.016  -5.426  1.00 20.00     0.011 C 
HETATM    5  C5  UNL     1     -35.198  14.401  -4.354  1.00 20.00     0.084 C 
HETATM    6  C6  UNL     1     -35.835  15.704  -3.833  1.00 20.00    -0.009 C 
HETATM    7  C7  UNL     1     -33.397  16.155  -4.618  1.00 20.00     0.058 C 
HETATM    8  C8  UNL     1     -33.767  14.680  -4.811  1.00 20.00     0.247 C 
HETATM    9  F9  UNL     1     -32.904  13.895  -4.118  1.00 20.00    -0.206 F 
HETATM   10  F10 UNL     1     -33.628  14.337  -6.117  1.00 20.00    -0.206 F 
ENDROOT
TORSDOF 0
ENDMDL
