MODEL 1
REMARK VINA RESULT:      -4.2      0.000      0.000
REMARK  1 active torsions:
REMARK  status: ('A' for Active; 'I' for Inactive)
REMARK    1  A    between atoms: C1_1  and  C5_5 
ROOT
HETATM    1  C1  UNL     1     -32.825   6.942   3.040  1.00 20.00    -0.097 C 
HETATM    2  C2  UNL     1     -32.074   7.854   2.818  1.00 20.00    -0.110 C 
HETATM    3  C7  UNL     1     -31.160   8.963   2.550  1.00 20.00     0.112 C 
ENDROOT
BRANCH   1   4
HETATM    4  C5  UNL     1     -33.734   5.839   3.308  1.00 20.00     0.027 C 
HETATM    5  C3  UNL     1     -35.227   6.155   2.985  1.00 20.00     0.024 C 
HETATM    6  C4  UNL     1     -35.627   5.437   4.290  1.00 20.00     0.012 C 
HETATM    7  C6  UNL     1     -34.188   5.695   4.831  1.00 20.00    -0.029 C 
HETATM    8  C9  UNL     1     -33.609   4.513   5.607  1.00 20.00     0.016 C 
HETATM    9  C10 UNL     1     -34.123   6.967   5.693  1.00 20.00     0.016 C 
HETATM   10  C8  UNL     1     -33.240   4.579   2.592  1.00 20.00     0.030 C 
ENDBRANCH   1   4
TORSDOF 1
ENDMDL
MODEL 2
REMARK VINA RESULT:      -4.2     11.493     12.683
REMARK  1 active torsions:
REMARK  status: ('A' for Active; 'I' for Inactive)
REMARK    1  A    between atoms: C1_1  and  C5_5 
ROOT
HETATM    1  C1  UNL     1     -33.898  16.216  -3.169  1.00 20.00    -0.097 C 
HETATM    2  C2  UNL     1     -33.971  16.855  -2.154  1.00 20.00    -0.110 C 
HETATM    3  C7  UNL     1     -34.060  17.634  -0.919  1.00 20.00     0.112 C 
ENDROOT
BRANCH   1   4
HETATM    4  C5  UNL     1     -33.809  15.442  -4.397  1.00 20.00     0.027 C 
HETATM    5  C3  UNL     1     -33.471  16.292  -5.660  1.00 20.00     0.024 C 
HETATM    6  C4  UNL     1     -34.517  15.479  -6.448  1.00 20.00     0.012 C 
HETATM    7  C6  UNL     1     -35.208  15.127  -5.096  1.00 20.00    -0.029 C 
HETATM    8  C9  UNL     1     -35.697  13.680  -5.022  1.00 20.00     0.016 C 
HETATM    9  C10 UNL     1     -36.369  16.085  -4.782  1.00 20.00     0.016 C 
HETATM   10  C8  UNL     1     -32.833  14.279  -4.203  1.00 20.00     0.030 C 
ENDBRANCH   1   4
TORSDOF 1
ENDMDL
MODEL 3
REMARK VINA RESULT:      -4.1     11.877     13.193
REMARK  1 active torsions:
REMARK  status: ('A' for Active; 'I' for Inactive)
REMARK    1  A    between atoms: C1_1  and  C5_5 
ROOT
HETATM    1  C1  UNL     1     -34.886  16.184  -2.891  1.00 20.00    -0.097 C 
HETATM    2  C2  UNL     1     -35.108  16.670  -1.815  1.00 20.00    -0.110 C 
HETATM    3  C7  UNL     1     -35.378  17.261  -0.505  1.00 20.00     0.112 C 
ENDROOT
BRANCH   1   4
HETATM    4  C5  UNL     1     -34.617  15.595  -4.194  1.00 20.00     0.027 C 
HETATM    5  C3  UNL     1     -33.188  14.986  -4.333  1.00 20.00     0.024 C 
HETATM    6  C4  UNL     1     -33.101  15.598  -5.746  1.00 20.00     0.012 C 
HETATM    7  C6  UNL     1     -34.186  16.634  -5.325  1.00 20.00    -0.029 C 
HETATM    8  C9  UNL     1     -35.214  16.916  -6.421  1.00 20.00     0.016 C 
HETATM    9  C10 UNL     1     -33.559  17.954  -4.847  1.00 20.00     0.016 C 
HETATM   10  C8  UNL     1     -35.715  14.585  -4.538  1.00 20.00     0.030 C 
ENDBRANCH   1   4
TORSDOF 1
ENDMDL
MODEL 4
REMARK VINA RESULT:      -4.1     11.340     12.919
REMARK  1 active torsions:
REMARK  status: ('A' for Active; 'I' for Inactive)
REMARK    1  A    between atoms: C1_1  and  C5_5 
ROOT
HETATM    1  C1  UNL     1     -34.404  16.295  -3.163  1.00 20.00    -0.097 C 
HETATM    2  C2  UNL     1     -33.781  16.954  -2.374  1.00 20.00    -0.110 C 
HETATM    3  C7  UNL     1     -33.024  17.755  -1.413  1.00 20.00     0.112 C 
ENDROOT
BRANCH   1   4
HETATM    4  C5  UNL     1     -35.158  15.499  -4.118  1.00 20.00     0.027 C 
HETATM    5  C3  UNL     1     -34.730  14.000  -4.172  1.00 20.00     0.024 C 
HETATM    6  C4  UNL     1     -34.840  14.058  -5.709  1.00 20.00     0.012 C 
HETATM    7  C6  UNL     1     -34.653  15.603  -5.628  1.00 20.00    -0.029 C 
HETATM    8  C9  UNL     1     -35.551  16.376  -6.596  1.00 20.00     0.016 C 
HETATM    9  C10 UNL     1     -33.186  16.013  -5.839  1.00 20.00     0.016 C 
HETATM   10  C8  UNL     1     -36.658  15.665  -3.857  1.00 20.00     0.030 C 
ENDBRANCH   1   4
TORSDOF 1
ENDMDL
MODEL 5
REMARK VINA RESULT:      -3.6      1.398      2.752
REMARK  1 active torsions:
REMARK  status: ('A' for Active; 'I' for Inactive)
REMARK    1  A    between atoms: C1_1  and  C5_5 
ROOT
HETATM    1  C1  UNL     1     -32.876   8.130   2.380  1.00 20.00    -0.097 C 
HETATM    2  C2  UNL     1     -32.703   9.074   1.656  1.00 20.00    -0.110 C 
HETATM    3  C7  UNL     1     -32.494  10.221   0.774  1.00 20.00     0.112 C 
ENDROOT
BRANCH   1   4
HETATM    4  C5  UNL     1     -33.084   6.988   3.257  1.00 20.00     0.027 C 
HETATM    5  C3  UNL     1     -32.164   5.769   2.939  1.00 20.00     0.024 C 
HETATM    6  C4  UNL     1     -33.376   4.840   3.158  1.00 20.00     0.012 C 
HETATM    7  C6  UNL     1     -34.312   6.050   2.859  1.00 20.00    -0.029 C 
HETATM    8  C9  UNL     1     -35.538   6.110   3.770  1.00 20.00     0.016 C 
HETATM    9  C10 UNL     1     -34.755   6.079   1.387  1.00 20.00     0.016 C 
HETATM   10  C8  UNL     1     -32.973   7.434   4.717  1.00 20.00     0.030 C 
ENDBRANCH   1   4
TORSDOF 1
ENDMDL
MODEL 6
REMARK VINA RESULT:      -3.6     11.848     13.476
REMARK  1 active torsions:
REMARK  status: ('A' for Active; 'I' for Inactive)
REMARK    1  A    between atoms: C1_1  and  C5_5 
ROOT
HETATM    1  C1  UNL     1     -34.849  16.119  -4.756  1.00 20.00    -0.097 C 
HETATM    2  C2  UNL     1     -34.567  16.369  -3.615  1.00 20.00    -0.110 C 
HETATM    3  C7  UNL     1     -34.224  16.675  -2.227  1.00 20.00     0.112 C 
ENDROOT
BRANCH   1   4
HETATM    4  C5  UNL     1     -35.191  15.815  -6.137  1.00 20.00     0.027 C 
HETATM    5  C3  UNL     1     -36.679  16.109  -6.502  1.00 20.00     0.024 C 
HETATM    6  C4  UNL     1     -36.712  14.785  -7.292  1.00 20.00     0.012 C 
HETATM    7  C6  UNL     1     -35.518  14.280  -6.427  1.00 20.00    -0.029 C 
HETATM    8  C9  UNL     1     -34.475  13.500  -7.227  1.00 20.00     0.016 C 
HETATM    9  C10 UNL     1     -35.995  13.438  -5.232  1.00 20.00     0.016 C 
HETATM   10  C8  UNL     1     -34.212  16.523  -7.077  1.00 20.00     0.030 C 
ENDBRANCH   1   4
TORSDOF 1
ENDMDL
MODEL 7
REMARK VINA RESULT:      -3.5     11.371     13.312
REMARK  1 active torsions:
REMARK  status: ('A' for Active; 'I' for Inactive)
REMARK    1  A    between atoms: C1_1  and  C5_5 
ROOT
HETATM    1  C1  UNL     1     -36.533  14.594  -5.429  1.00 20.00    -0.097 C 
HETATM    2  C2  UNL     1     -37.726  14.703  -5.336  1.00 20.00    -0.110 C 
HETATM    3  C7  UNL     1     -39.178  14.835  -5.223  1.00 20.00     0.112 C 
ENDROOT
BRANCH   1   4
HETATM    4  C5  UNL     1     -35.088  14.464  -5.542  1.00 20.00     0.027 C 
HETATM    5  C3  UNL     1     -34.384  14.047  -4.214  1.00 20.00     0.024 C 
HETATM    6  C4  UNL     1     -33.273  15.071  -4.521  1.00 20.00     0.012 C 
HETATM    7  C6  UNL     1     -34.278  15.834  -5.435  1.00 20.00    -0.029 C 
HETATM    8  C9  UNL     1     -33.649  16.357  -6.727  1.00 20.00     0.016 C 
HETATM    9  C10 UNL     1     -34.968  16.987  -4.688  1.00 20.00     0.016 C 
HETATM   10  C8  UNL     1     -34.746  13.523  -6.701  1.00 20.00     0.030 C 
ENDBRANCH   1   4
TORSDOF 1
ENDMDL
MODEL 8
REMARK VINA RESULT:      -3.4     11.640     13.303
REMARK  1 active torsions:
REMARK  status: ('A' for Active; 'I' for Inactive)
REMARK    1  A    between atoms: C1_1  and  C5_5 
ROOT
HETATM    1  C1  UNL     1     -36.437  15.558  -4.515  1.00 20.00    -0.097 C 
HETATM    2  C2  UNL     1     -37.542  15.152  -4.754  1.00 20.00    -0.110 C 
HETATM    3  C7  UNL     1     -38.887  14.658  -5.046  1.00 20.00     0.112 C 
ENDROOT
BRANCH   1   4
HETATM    4  C5  UNL     1     -35.099  16.050  -4.224  1.00 20.00     0.027 C 
HETATM    5  C3  UNL     1     -34.727  17.360  -4.984  1.00 20.00     0.024 C 
HETATM    6  C4  UNL     1     -33.327  16.770  -5.248  1.00 20.00     0.012 C 
HETATM    7  C6  UNL     1     -33.929  15.346  -5.050  1.00 20.00    -0.029 C 
HETATM    8  C9  UNL     1     -33.015  14.402  -4.269  1.00 20.00     0.016 C 
HETATM    9  C10 UNL     1     -34.322  14.701  -6.390  1.00 20.00     0.016 C 
HETATM   10  C8  UNL     1     -34.918  16.185  -2.710  1.00 20.00     0.030 C 
ENDBRANCH   1   4
TORSDOF 1
ENDMDL
MODEL 9
REMARK VINA RESULT:      -3.4     12.126     13.515
REMARK  1 active torsions:
REMARK  status: ('A' for Active; 'I' for Inactive)
REMARK    1  A    between atoms: C1_1  and  C5_5 
ROOT
HETATM    1  C1  UNL     1     -34.152  15.878  -5.708  1.00 20.00    -0.097 C 
HETATM    2  C2  UNL     1     -34.069  15.210  -6.703  1.00 20.00    -0.110 C 
HETATM    3  C7  UNL     1     -33.968  14.397  -7.914  1.00 20.00     0.112 C 
ENDROOT
BRANCH   1   4
HETATM    4  C5  UNL     1     -34.253  16.688  -4.503  1.00 20.00     0.027 C 
HETATM    5  C3  UNL     1     -33.728  15.978  -3.217  1.00 20.00     0.024 C 
HETATM    6  C4  UNL     1     -34.939  16.546  -2.450  1.00 20.00     0.012 C 
HETATM    7  C6  UNL     1     -35.689  16.685  -3.808  1.00 20.00    -0.029 C 
HETATM    8  C9  UNL     1     -36.505  17.973  -3.924  1.00 20.00     0.016 C 
HETATM    9  C10 UNL     1     -36.590  15.471  -4.090  1.00 20.00     0.016 C 
HETATM   10  C8  UNL     1     -33.578  18.042  -4.736  1.00 20.00     0.030 C 
ENDBRANCH   1   4
TORSDOF 1
ENDMDL
