MODEL 1
REMARK VINA RESULT:      -5.9      0.000      0.000
REMARK  0 active torsions:
REMARK  status: ('A' for Active; 'I' for Inactive)
ROOT
HETATM    1  C1  UNL     1     -34.734   4.839   4.002  1.00 20.00     0.001 C 
HETATM    2  C2  UNL     1     -32.720   8.367   1.884  1.00 20.00     0.001 C 
HETATM    3  C3  UNL     1     -33.490   4.818   3.121  1.00 20.00     0.005 C 
HETATM    4  C4  UNL     1     -33.513   7.056   1.815  1.00 20.00     0.005 C 
HETATM    5  C5  UNL     1     -34.429   5.260   5.437  1.00 20.00     0.005 C 
HETATM    6  C6  UNL     1     -31.806   8.255   3.116  1.00 20.00     0.005 C 
HETATM    7  C7  UNL     1     -33.399   7.499   6.299  1.00 20.00     0.010 A 
HETATM    8  C8  UNL     1     -32.793   6.138   2.801  1.00 20.00    -0.010 C 
HETATM    9  C9  UNL     1     -34.469   6.740   5.569  1.00 20.00    -0.010 A 
HETATM   10  C10 UNL     1     -32.390   7.088   3.939  1.00 20.00    -0.006 C 
HETATM   11  C11 UNL     1     -33.517   7.613   4.798  1.00 20.00    -0.006 A 
ENDROOT
TORSDOF 0
ENDMDL
MODEL 2
REMARK VINA RESULT:      -5.7      0.820      2.755
REMARK  0 active torsions:
REMARK  status: ('A' for Active; 'I' for Inactive)
ROOT
HETATM    1  C1  UNL     1     -34.241   5.481   5.623  1.00 20.00     0.001 C 
HETATM    2  C2  UNL     1     -31.566   8.326   3.227  1.00 20.00     0.001 C 
HETATM    3  C3  UNL     1     -34.532   6.920   5.215  1.00 20.00     0.005 C 
HETATM    4  C4  UNL     1     -32.245   7.940   4.548  1.00 20.00     0.005 C 
HETATM    5  C5  UNL     1     -34.532   4.483   4.506  1.00 20.00     0.005 C 
HETATM    6  C6  UNL     1     -32.505   7.854   2.106  1.00 20.00     0.005 C 
HETATM    7  C7  UNL     1     -33.479   4.348   2.121  1.00 20.00     0.010 A 
HETATM    8  C8  UNL     1     -33.667   7.567   4.135  1.00 20.00    -0.010 C 
HETATM    9  C9  UNL     1     -33.350   4.332   3.617  1.00 20.00    -0.010 A 
HETATM   10  C10 UNL     1     -33.471   6.861   2.785  1.00 20.00    -0.006 C 
HETATM   11  C11 UNL     1     -32.814   5.501   2.835  1.00 20.00    -0.006 A 
ENDROOT
TORSDOF 0
ENDMDL
MODEL 3
REMARK VINA RESULT:      -5.1      0.947      3.181
REMARK  0 active torsions:
REMARK  status: ('A' for Active; 'I' for Inactive)
ROOT
HETATM    1  C1  UNL     1     -31.930   7.801   3.054  1.00 20.00     0.001 C 
HETATM    2  C2  UNL     1     -34.055   3.843   3.951  1.00 20.00     0.001 C 
HETATM    3  C3  UNL     1     -33.015   7.113   2.234  1.00 20.00     0.005 C 
HETATM    4  C4  UNL     1     -33.094   4.666   3.084  1.00 20.00     0.005 C 
HETATM    5  C5  UNL     1     -32.497   8.607   4.219  1.00 20.00     0.005 C 
HETATM    6  C6  UNL     1     -35.118   4.825   4.468  1.00 20.00     0.005 C 
HETATM    7  C7  UNL     1     -33.931   7.776   6.236  1.00 20.00     0.010 A 
HETATM    8  C8  UNL     1     -33.825   5.991   2.881  1.00 20.00    -0.010 C 
HETATM    9  C9  UNL     1     -32.673   7.745   5.417  1.00 20.00    -0.010 A 
HETATM   10  C10 UNL     1     -34.514   6.225   4.233  1.00 20.00    -0.006 C 
HETATM   11  C11 UNL     1     -33.606   6.566   5.393  1.00 20.00    -0.006 A 
ENDROOT
TORSDOF 0
ENDMDL
MODEL 4
REMARK VINA RESULT:      -4.8      0.936      3.361
REMARK  0 active torsions:
REMARK  status: ('A' for Active; 'I' for Inactive)
ROOT
HETATM    1  C1  UNL     1     -33.044   6.647   1.827  1.00 20.00     0.001 C 
HETATM    2  C2  UNL     1     -34.434   4.645   5.706  1.00 20.00     0.001 C 
HETATM    3  C3  UNL     1     -34.465   6.273   2.232  1.00 20.00     0.005 C 
HETATM    4  C4  UNL     1     -34.221   4.591   4.188  1.00 20.00     0.005 C 
HETATM    5  C5  UNL     1     -32.592   7.973   2.431  1.00 20.00     0.005 C 
HETATM    6  C6  UNL     1     -34.760   6.109   6.044  1.00 20.00     0.005 C 
HETATM    7  C7  UNL     1     -32.382   8.635   4.948  1.00 20.00     0.010 A 
HETATM    8  C8  UNL     1     -34.749   5.936   3.695  1.00 20.00    -0.010 C 
HETATM    9  C9  UNL     1     -32.011   7.762   3.783  1.00 20.00    -0.010 A 
HETATM   10  C10 UNL     1     -34.322   6.912   4.802  1.00 20.00    -0.006 C 
HETATM   11  C11 UNL     1     -32.841   7.197   4.903  1.00 20.00    -0.006 A 
ENDROOT
TORSDOF 0
ENDMDL
MODEL 5
REMARK VINA RESULT:      -4.6     11.431     12.384
REMARK  0 active torsions:
REMARK  status: ('A' for Active; 'I' for Inactive)
ROOT
HETATM    1  C1  UNL     1     -36.770  15.262  -4.163  1.00 20.00     0.001 C 
HETATM    2  C2  UNL     1     -34.189  17.384  -1.029  1.00 20.00     0.001 C 
HETATM    3  C3  UNL     1     -36.688  16.756  -3.871  1.00 20.00     0.005 C 
HETATM    4  C4  UNL     1     -35.570  16.959  -1.542  1.00 20.00     0.005 C 
HETATM    5  C5  UNL     1     -35.639  14.779  -5.066  1.00 20.00     0.005 C 
HETATM    6  C6  UNL     1     -33.318  17.616  -2.274  1.00 20.00     0.005 C 
HETATM    7  C7  UNL     1     -33.063  14.875  -4.654  1.00 20.00     0.010 A 
HETATM    8  C8  UNL     1     -35.523  17.280  -3.034  1.00 20.00    -0.010 C 
HETATM    9  C9  UNL     1     -34.440  14.424  -4.262  1.00 20.00    -0.010 A 
HETATM   10  C10 UNL     1     -34.080  16.928  -3.426  1.00 20.00    -0.006 C 
HETATM   11  C11 UNL     1     -33.731  15.458  -3.431  1.00 20.00    -0.006 A 
ENDROOT
TORSDOF 0
ENDMDL
MODEL 6
REMARK VINA RESULT:      -4.5     11.659     12.496
REMARK  0 active torsions:
REMARK  status: ('A' for Active; 'I' for Inactive)
ROOT
HETATM    1  C1  UNL     1     -35.329  18.696   1.088  1.00 20.00     0.001 C 
HETATM    2  C2  UNL     1     -35.093  17.642  -3.364  1.00 20.00     0.001 C 
HETATM    3  C3  UNL     1     -35.819  17.429   0.398  1.00 20.00     0.005 C 
HETATM    4  C4  UNL     1     -35.928  18.000  -2.128  1.00 20.00     0.005 C 
HETATM    5  C5  UNL     1     -33.834  18.659   1.388  1.00 20.00     0.005 C 
HETATM    6  C6  UNL     1     -33.879  16.851  -2.850  1.00 20.00     0.005 C 
HETATM    7  C7  UNL     1     -31.839  18.423  -0.280  1.00 20.00     0.010 A 
HETATM    8  C8  UNL     1     -35.337  17.130  -1.020  1.00 20.00    -0.010 C 
HETATM    9  C9  UNL     1     -33.053  19.150   0.221  1.00 20.00    -0.010 A 
HETATM   10  C10 UNL     1     -33.833  17.131  -1.334  1.00 20.00    -0.006 C 
HETATM   11  C11 UNL     1     -33.106  18.436  -1.102  1.00 20.00    -0.006 A 
ENDROOT
TORSDOF 0
ENDMDL
MODEL 7
REMARK VINA RESULT:      -4.5     11.494     13.158
REMARK  0 active torsions:
REMARK  status: ('A' for Active; 'I' for Inactive)
ROOT
HETATM    1  C1  UNL     1     -33.004  19.096  -4.261  1.00 20.00     0.001 C 
HETATM    2  C2  UNL     1     -33.528  14.573  -4.764  1.00 20.00     0.001 C 
HETATM    3  C3  UNL     1     -33.951  18.361  -5.202  1.00 20.00     0.005 C 
HETATM    4  C4  UNL     1     -33.073  15.926  -5.325  1.00 20.00     0.005 C 
HETATM    5  C5  UNL     1     -33.559  19.211  -2.844  1.00 20.00     0.005 C 
HETATM    6  C6  UNL     1     -34.726  14.867  -3.846  1.00 20.00     0.005 C 
HETATM    7  C7  UNL     1     -34.223  17.303  -1.190  1.00 20.00     0.010 A 
HETATM    8  C8  UNL     1     -34.215  16.875  -4.968  1.00 20.00    -0.010 C 
HETATM    9  C9  UNL     1     -33.209  18.007  -2.045  1.00 20.00    -0.010 A 
HETATM   10  C10 UNL     1     -34.662  16.386  -3.582  1.00 20.00    -0.006 C 
HETATM   11  C11 UNL     1     -33.701  16.642  -2.444  1.00 20.00    -0.006 A 
ENDROOT
TORSDOF 0
ENDMDL
MODEL 8
REMARK VINA RESULT:      -4.4     11.597     12.514
REMARK  0 active torsions:
REMARK  status: ('A' for Active; 'I' for Inactive)
ROOT
HETATM    1  C1  UNL     1     -32.595  18.514  -0.886  1.00 20.00     0.001 C 
HETATM    2  C2  UNL     1     -34.912  15.507  -3.450  1.00 20.00     0.001 C 
HETATM    3  C3  UNL     1     -32.958  18.625  -2.362  1.00 20.00     0.005 C 
HETATM    4  C4  UNL     1     -33.602  16.228  -3.110  1.00 20.00     0.005 C 
HETATM    5  C5  UNL     1     -33.741  18.928   0.032  1.00 20.00     0.005 C 
HETATM    6  C6  UNL     1     -36.044  16.497  -3.134  1.00 20.00     0.005 C 
HETATM    7  C7  UNL     1     -36.134  17.900   0.222  1.00 20.00     0.010 A 
HETATM    8  C8  UNL     1     -34.020  17.686  -2.931  1.00 20.00    -0.010 C 
HETATM    9  C9  UNL     1     -34.640  17.774   0.301  1.00 20.00    -0.010 A 
HETATM   10  C10 UNL     1     -35.392  17.579  -2.248  1.00 20.00    -0.006 C 
HETATM   11  C11 UNL     1     -35.386  17.096  -0.816  1.00 20.00    -0.006 A 
ENDROOT
TORSDOF 0
ENDMDL
MODEL 9
REMARK VINA RESULT:      -4.4     11.678     13.103
REMARK  0 active torsions:
REMARK  status: ('A' for Active; 'I' for Inactive)
ROOT
HETATM    1  C1  UNL     1     -36.125  13.393  -5.289  1.00 20.00     0.001 C 
HETATM    2  C2  UNL     1     -33.550  16.800  -3.630  1.00 20.00     0.001 C 
HETATM    3  C3  UNL     1     -36.592  14.717  -4.694  1.00 20.00     0.005 C 
HETATM    4  C4  UNL     1     -34.556  15.664  -3.401  1.00 20.00     0.005 C 
HETATM    5  C5  UNL     1     -35.715  13.520  -6.753  1.00 20.00     0.005 C 
HETATM    6  C6  UNL     1     -33.847  17.363  -5.029  1.00 20.00     0.005 C 
HETATM    7  C7  UNL     1     -33.844  15.008  -7.803  1.00 20.00     0.010 A 
HETATM    8  C8  UNL     1     -35.576  15.844  -4.523  1.00 20.00    -0.010 C 
HETATM    9  C9  UNL     1     -34.288  13.923  -6.865  1.00 20.00    -0.010 A 
HETATM   10  C10 UNL     1     -34.716  16.289  -5.715  1.00 20.00    -0.006 C 
HETATM   11  C11 UNL     1     -33.808  15.236  -6.310  1.00 20.00    -0.006 A 
ENDROOT
TORSDOF 0
ENDMDL
