MODEL 1
REMARK VINA RESULT:      -5.5      0.000      0.000
REMARK  0 active torsions:
REMARK  status: ('A' for Active; 'I' for Inactive)
ROOT
HETATM    1  C1  UNL     1     -32.122   8.730   2.036  1.00 20.00     0.012 C 
HETATM    2  C2  UNL     1     -32.363   7.779   2.726  1.00 20.00    -0.112 C 
HETATM    3  C3  UNL     1     -34.297   4.633   4.810  1.00 20.00    -0.026 C 
HETATM    4  C4  UNL     1     -33.544   4.323   3.741  1.00 20.00    -0.024 C 
HETATM    5  C5  UNL     1     -35.608   6.286   3.535  1.00 20.00     0.009 C 
HETATM    6  C6  UNL     1     -34.745   5.915   2.305  1.00 20.00     0.010 C 
HETATM    7  C7  UNL     1     -33.563   6.996   4.778  1.00 20.00     0.026 C 
HETATM    8  C8  UNL     1     -32.658   6.611   3.573  1.00 20.00     0.072 C 
HETATM    9  C9  UNL     1     -34.797   6.064   4.830  1.00 20.00     0.009 C 
HETATM   10  C10 UNL     1     -33.335   5.468   2.767  1.00 20.00     0.023 C 
ENDROOT
TORSDOF 0
ENDMDL
MODEL 2
REMARK VINA RESULT:      -4.7      1.011      2.202
REMARK  0 active torsions:
REMARK  status: ('A' for Active; 'I' for Inactive)
ROOT
HETATM    1  C1  UNL     1     -31.293   8.301   3.238  1.00 20.00     0.012 C 
HETATM    2  C2  UNL     1     -32.244   7.575   3.154  1.00 20.00    -0.112 C 
HETATM    3  C3  UNL     1     -35.363   4.823   3.976  1.00 20.00    -0.026 C 
HETATM    4  C4  UNL     1     -35.682   6.118   3.810  1.00 20.00    -0.024 C 
HETATM    5  C5  UNL     1     -33.673   5.353   5.690  1.00 20.00     0.009 C 
HETATM    6  C6  UNL     1     -34.054   6.840   5.502  1.00 20.00     0.010 C 
HETATM    7  C7  UNL     1     -33.017   5.198   3.286  1.00 20.00     0.026 C 
HETATM    8  C8  UNL     1     -33.411   6.684   3.050  1.00 20.00     0.072 C 
HETATM    9  C9  UNL     1     -33.923   4.579   4.378  1.00 20.00     0.009 C 
HETATM   10  C10 UNL     1     -34.534   7.081   4.049  1.00 20.00     0.023 C 
ENDROOT
TORSDOF 0
ENDMDL
MODEL 3
REMARK VINA RESULT:      -4.5     11.324     12.574
REMARK  0 active torsions:
REMARK  status: ('A' for Active; 'I' for Inactive)
ROOT
HETATM    1  C1  UNL     1     -33.663  17.388  -1.556  1.00 20.00     0.012 C 
HETATM    2  C2  UNL     1     -34.273  16.762  -2.378  1.00 20.00    -0.112 C 
HETATM    3  C3  UNL     1     -35.453  14.707  -5.894  1.00 20.00    -0.026 C 
HETATM    4  C4  UNL     1     -35.170  13.984  -4.797  1.00 20.00    -0.024 C 
HETATM    5  C5  UNL     1     -33.294  15.891  -5.798  1.00 20.00     0.009 C 
HETATM    6  C6  UNL     1     -32.969  15.047  -4.543  1.00 20.00     0.010 C 
HETATM    7  C7  UNL     1     -35.300  16.846  -4.660  1.00 20.00     0.026 C 
HETATM    8  C8  UNL     1     -35.022  15.995  -3.387  1.00 20.00     0.072 C 
HETATM    9  C9  UNL     1     -34.821  16.083  -5.919  1.00 20.00     0.009 C 
HETATM   10  C10 UNL     1     -34.278  14.692  -3.794  1.00 20.00     0.023 C 
ENDROOT
TORSDOF 0
ENDMDL
MODEL 4
REMARK VINA RESULT:      -4.4     11.369     12.491
REMARK  0 active torsions:
REMARK  status: ('A' for Active; 'I' for Inactive)
ROOT
HETATM    1  C1  UNL     1     -32.904  18.105  -1.587  1.00 20.00     0.012 C 
HETATM    2  C2  UNL     1     -33.571  17.222  -2.053  1.00 20.00    -0.112 C 
HETATM    3  C3  UNL     1     -35.793  14.730  -4.665  1.00 20.00    -0.026 C 
HETATM    4  C4  UNL     1     -34.586  14.307  -4.252  1.00 20.00    -0.024 C 
HETATM    5  C5  UNL     1     -34.882  16.880  -5.455  1.00 20.00     0.009 C 
HETATM    6  C6  UNL     1     -33.494  16.381  -4.987  1.00 20.00     0.010 C 
HETATM    7  C7  UNL     1     -35.762  16.669  -3.128  1.00 20.00     0.026 C 
HETATM    8  C8  UNL     1     -34.389  16.140  -2.623  1.00 20.00     0.072 C 
HETATM    9  C9  UNL     1     -35.988  16.231  -4.595  1.00 20.00     0.009 C 
HETATM   10  C10 UNL     1     -33.659  15.415  -3.788  1.00 20.00     0.023 C 
ENDROOT
TORSDOF 0
ENDMDL
MODEL 5
REMARK VINA RESULT:      -4.3     11.191     12.681
REMARK  0 active torsions:
REMARK  status: ('A' for Active; 'I' for Inactive)
ROOT
HETATM    1  C1  UNL     1     -33.775  17.013  -2.174  1.00 20.00     0.012 C 
HETATM    2  C2  UNL     1     -33.670  16.296  -3.130  1.00 20.00    -0.112 C 
HETATM    3  C3  UNL     1     -34.417  14.036  -6.640  1.00 20.00    -0.026 C 
HETATM    4  C4  UNL     1     -33.678  15.154  -6.745  1.00 20.00    -0.024 C 
HETATM    5  C5  UNL     1     -36.248  15.232  -5.504  1.00 20.00     0.009 C 
HETATM    6  C6  UNL     1     -35.397  16.517  -5.639  1.00 20.00     0.010 C 
HETATM    7  C7  UNL     1     -34.437  14.151  -4.168  1.00 20.00     0.026 C 
HETATM    8  C8  UNL     1     -33.540  15.414  -4.303  1.00 20.00     0.072 C 
HETATM    9  C9  UNL     1     -35.324  13.998  -5.427  1.00 20.00     0.009 C 
HETATM   10  C10 UNL     1     -33.891  16.154  -5.624  1.00 20.00     0.023 C 
ENDROOT
TORSDOF 0
ENDMDL
MODEL 6
REMARK VINA RESULT:      -4.3     11.315     12.626
REMARK  0 active torsions:
REMARK  status: ('A' for Active; 'I' for Inactive)
ROOT
HETATM    1  C1  UNL     1     -35.191  13.147  -7.226  1.00 20.00     0.012 C 
HETATM    2  C2  UNL     1     -35.229  13.643  -6.134  1.00 20.00    -0.112 C 
HETATM    3  C3  UNL     1     -34.744  16.223  -2.805  1.00 20.00    -0.026 C 
HETATM    4  C4  UNL     1     -35.954  16.149  -3.384  1.00 20.00    -0.024 C 
HETATM    5  C5  UNL     1     -33.634  16.720  -4.949  1.00 20.00     0.009 C 
HETATM    6  C6  UNL     1     -35.032  16.645  -5.607  1.00 20.00     0.010 C 
HETATM    7  C7  UNL     1     -33.855  14.359  -4.168  1.00 20.00     0.026 C 
HETATM    8  C8  UNL     1     -35.275  14.251  -4.794  1.00 20.00     0.072 C 
HETATM    9  C9  UNL     1     -33.593  15.811  -3.701  1.00 20.00     0.009 C 
HETATM   10  C10 UNL     1     -35.932  15.659  -4.820  1.00 20.00     0.023 C 
ENDROOT
TORSDOF 0
ENDMDL
MODEL 7
REMARK VINA RESULT:      -4.2     11.551     12.818
REMARK  0 active torsions:
REMARK  status: ('A' for Active; 'I' for Inactive)
ROOT
HETATM    1  C1  UNL     1     -35.740  13.650  -5.062  1.00 20.00     0.012 C 
HETATM    2  C2  UNL     1     -35.057  14.400  -4.422  1.00 20.00    -0.112 C 
HETATM    3  C3  UNL     1     -33.339  17.844  -2.643  1.00 20.00    -0.026 C 
HETATM    4  C4  UNL     1     -34.079  17.030  -1.873  1.00 20.00    -0.024 C 
HETATM    5  C5  UNL     1     -35.134  18.060  -4.318  1.00 20.00     0.009 C 
HETATM    6  C6  UNL     1     -35.985  17.132  -3.420  1.00 20.00     0.010 C 
HETATM    7  C7  UNL     1     -33.404  16.276  -4.556  1.00 20.00     0.026 C 
HETATM    8  C8  UNL     1     -34.218  15.321  -3.636  1.00 20.00     0.072 C 
HETATM    9  C9  UNL     1     -33.635  17.745  -4.126  1.00 20.00     0.009 C 
HETATM   10  C10 UNL     1     -35.061  16.164  -2.639  1.00 20.00     0.023 C 
ENDROOT
TORSDOF 0
ENDMDL
MODEL 8
REMARK VINA RESULT:      -4.1     11.647     12.644
REMARK  0 active torsions:
REMARK  status: ('A' for Active; 'I' for Inactive)
ROOT
HETATM    1  C1  UNL     1     -33.420  18.396  -0.457  1.00 20.00     0.012 C 
HETATM    2  C2  UNL     1     -33.980  17.566  -1.120  1.00 20.00    -0.112 C 
HETATM    3  C3  UNL     1     -35.833  15.442  -4.287  1.00 20.00    -0.026 C 
HETATM    4  C4  UNL     1     -34.615  15.046  -3.880  1.00 20.00    -0.024 C 
HETATM    5  C5  UNL     1     -35.083  17.768  -4.606  1.00 20.00     0.009 C 
HETATM    6  C6  UNL     1     -33.681  17.303  -4.148  1.00 20.00     0.010 C 
HETATM    7  C7  UNL     1     -36.055  17.052  -2.421  1.00 20.00     0.026 C 
HETATM    8  C8  UNL     1     -34.667  16.549  -1.932  1.00 20.00     0.072 C 
HETATM    9  C9  UNL     1     -36.167  16.882  -3.955  1.00 20.00     0.009 C 
HETATM   10  C10 UNL     1     -33.817  16.117  -3.160  1.00 20.00     0.023 C 
ENDROOT
TORSDOF 0
ENDMDL
MODEL 9
REMARK VINA RESULT:      -4.0     11.385     12.820
REMARK  0 active torsions:
REMARK  status: ('A' for Active; 'I' for Inactive)
ROOT
HETATM    1  C1  UNL     1     -38.168  14.532  -5.037  1.00 20.00     0.012 C 
HETATM    2  C2  UNL     1     -36.980  14.522  -5.209  1.00 20.00    -0.112 C 
HETATM    3  C3  UNL     1     -32.847  15.465  -5.192  1.00 20.00    -0.026 C 
HETATM    4  C4  UNL     1     -33.270  14.439  -4.435  1.00 20.00    -0.024 C 
HETATM    5  C5  UNL     1     -34.490  17.009  -4.196  1.00 20.00     0.009 C 
HETATM    6  C6  UNL     1     -34.964  15.826  -3.321  1.00 20.00     0.010 C 
HETATM    7  C7  UNL     1     -35.060  15.732  -6.264  1.00 20.00     0.026 C 
HETATM    8  C8  UNL     1     -35.523  14.511  -5.420  1.00 20.00     0.072 C 
HETATM    9  C9  UNL     1     -33.921  16.479  -5.530  1.00 20.00     0.009 C 
HETATM   10  C10 UNL     1     -34.743  14.491  -4.076  1.00 20.00     0.023 C 
ENDROOT
TORSDOF 0
ENDMDL
