MODEL 1
REMARK VINA RESULT:      -5.3      0.000      0.000
REMARK  0 active torsions:
REMARK  status: ('A' for Active; 'I' for Inactive)
ROOT
HETATM    1  C1  UNL     1     -34.420   5.051   5.647  1.00 20.00    -0.004 C 
HETATM    2  C2  UNL     1     -34.085   6.363   6.143  1.00 20.00    -0.003 C 
HETATM    3  C3  UNL     1     -34.781   4.862   4.370  1.00 20.00    -0.025 C 
HETATM    4  C4  UNL     1     -33.922   7.401   5.310  1.00 20.00    -0.011 C 
HETATM    5  C5  UNL     1     -34.844   5.992   3.377  1.00 20.00     0.047 C 
HETATM    6  C6  UNL     1     -34.103   7.265   3.826  1.00 20.00     0.084 C 
HETATM    7 BR7  UNL     1     -32.299   7.278   3.047  1.00 20.00    -0.087 Br
ENDROOT
TORSDOF 0
ENDMDL
MODEL 2
REMARK VINA RESULT:      -5.2      1.153      1.830
REMARK  0 active torsions:
REMARK  status: ('A' for Active; 'I' for Inactive)
ROOT
HETATM    1  C1  UNL     1     -33.802   6.780   5.991  1.00 20.00    -0.004 C 
HETATM    2  C2  UNL     1     -33.372   7.617   4.899  1.00 20.00    -0.003 C 
HETATM    3  C3  UNL     1     -34.616   5.735   5.787  1.00 20.00    -0.025 C 
HETATM    4  C4  UNL     1     -33.597   7.267   3.624  1.00 20.00    -0.011 C 
HETATM    5  C5  UNL     1     -35.116   5.361   4.417  1.00 20.00     0.047 C 
HETATM    6  C6  UNL     1     -34.329   6.007   3.262  1.00 20.00     0.084 C 
HETATM    7 BR7  UNL     1     -32.966   4.745   2.617  1.00 20.00    -0.087 Br
ENDROOT
TORSDOF 0
ENDMDL
MODEL 3
REMARK VINA RESULT:      -4.8      1.748      2.501
REMARK  0 active torsions:
REMARK  status: ('A' for Active; 'I' for Inactive)
ROOT
HETATM    1  C1  UNL     1     -33.156   4.449   3.089  1.00 20.00    -0.004 C 
HETATM    2  C2  UNL     1     -34.147   4.129   4.086  1.00 20.00    -0.003 C 
HETATM    3  C3  UNL     1     -33.033   5.692   2.604  1.00 20.00    -0.025 C 
HETATM    4  C4  UNL     1     -34.840   5.092   4.712  1.00 20.00    -0.011 C 
HETATM    5  C5  UNL     1     -33.903   6.827   3.076  1.00 20.00     0.047 C 
HETATM    6  C6  UNL     1     -34.644   6.546   4.395  1.00 20.00     0.084 C 
HETATM    7 BR7  UNL     1     -33.619   7.303   5.892  1.00 20.00    -0.087 Br
ENDROOT
TORSDOF 0
ENDMDL
MODEL 4
REMARK VINA RESULT:      -4.7      1.892      3.148
REMARK  0 active torsions:
REMARK  status: ('A' for Active; 'I' for Inactive)
ROOT
HETATM    1  C1  UNL     1     -32.342   7.622   3.866  1.00 20.00    -0.004 C 
HETATM    2  C2  UNL     1     -32.888   7.010   2.680  1.00 20.00    -0.003 C 
HETATM    3  C3  UNL     1     -32.998   7.582   5.034  1.00 20.00    -0.025 C 
HETATM    4  C4  UNL     1     -33.962   6.209   2.742  1.00 20.00    -0.011 C 
HETATM    5  C5  UNL     1     -34.327   6.890   5.186  1.00 20.00     0.047 C 
HETATM    6  C6  UNL     1     -34.668   5.925   4.036  1.00 20.00     0.084 C 
HETATM    7 BR7  UNL     1     -34.165   4.096   4.549  1.00 20.00    -0.087 Br
ENDROOT
TORSDOF 0
ENDMDL
MODEL 5
REMARK VINA RESULT:      -4.5      1.496      2.504
REMARK  0 active torsions:
REMARK  status: ('A' for Active; 'I' for Inactive)
ROOT
HETATM    1  C1  UNL     1     -34.630   6.149   4.439  1.00 20.00    -0.004 C 
HETATM    2  C2  UNL     1     -34.026   5.474   3.317  1.00 20.00    -0.003 C 
HETATM    3  C3  UNL     1     -34.019   7.178   5.042  1.00 20.00    -0.025 C 
HETATM    4  C4  UNL     1     -32.940   5.972   2.708  1.00 20.00    -0.011 C 
HETATM    5  C5  UNL     1     -32.683   7.701   4.583  1.00 20.00     0.047 C 
HETATM    6  C6  UNL     1     -32.279   7.238   3.172  1.00 20.00     0.084 C 
HETATM    7 BR7  UNL     1     -32.766   8.624   1.866  1.00 20.00    -0.087 Br
ENDROOT
TORSDOF 0
ENDMDL
MODEL 6
REMARK VINA RESULT:      -3.9      1.326      2.288
REMARK  0 active torsions:
REMARK  status: ('A' for Active; 'I' for Inactive)
ROOT
HETATM    1  C1  UNL     1     -34.518   6.246   5.977  1.00 20.00    -0.004 C 
HETATM    2  C2  UNL     1     -34.595   4.940   5.370  1.00 20.00    -0.003 C 
HETATM    3  C3  UNL     1     -33.794   7.228   5.423  1.00 20.00    -0.025 C 
HETATM    4  C4  UNL     1     -34.122   4.718   4.135  1.00 20.00    -0.011 C 
HETATM    5  C5  UNL     1     -33.035   7.039   4.136  1.00 20.00     0.047 C 
HETATM    6  C6  UNL     1     -33.464   5.801   3.329  1.00 20.00     0.084 C 
HETATM    7 BR7  UNL     1     -34.767   6.335   1.958  1.00 20.00    -0.087 Br
ENDROOT
TORSDOF 0
ENDMDL
MODEL 7
REMARK VINA RESULT:      -3.4      4.481      5.381
REMARK  0 active torsions:
REMARK  status: ('A' for Active; 'I' for Inactive)
ROOT
HETATM    1  C1  UNL     1     -33.198   9.938  -0.156  1.00 20.00    -0.004 C 
HETATM    2  C2  UNL     1     -33.097  10.526   1.157  1.00 20.00    -0.003 C 
HETATM    3  C3  UNL     1     -32.452   8.880  -0.504  1.00 20.00    -0.025 C 
HETATM    4  C4  UNL     1     -32.414   9.920   2.140  1.00 20.00    -0.011 C 
HETATM    5  C5  UNL     1     -31.481   8.234   0.449  1.00 20.00     0.047 C 
HETATM    6  C6  UNL     1     -31.697   8.619   1.924  1.00 20.00     0.084 C 
HETATM    7 BR7  UNL     1     -32.785   7.239   2.804  1.00 20.00    -0.087 Br
ENDROOT
TORSDOF 0
ENDMDL
MODEL 8
REMARK VINA RESULT:      -3.4      8.938      9.980
REMARK  0 active torsions:
REMARK  status: ('A' for Active; 'I' for Inactive)
ROOT
HETATM    1  C1  UNL     1     -41.046   7.597  -0.642  1.00 20.00    -0.004 C 
HETATM    2  C2  UNL     1     -42.438   7.946  -0.791  1.00 20.00    -0.003 C 
HETATM    3  C3  UNL     1     -40.675   6.461  -0.037  1.00 20.00    -0.025 C 
HETATM    4  C4  UNL     1     -43.409   7.061  -0.519  1.00 20.00    -0.011 C 
HETATM    5  C5  UNL     1     -41.676   5.477   0.508  1.00 20.00     0.047 C 
HETATM    6  C6  UNL     1     -43.107   5.677  -0.022  1.00 20.00     0.084 C 
HETATM    7 BR7  UNL     1     -43.416   4.467  -1.539  1.00 20.00    -0.087 Br
ENDROOT
TORSDOF 0
ENDMDL
MODEL 9
REMARK VINA RESULT:      -3.3     12.568     13.117
REMARK  0 active torsions:
REMARK  status: ('A' for Active; 'I' for Inactive)
ROOT
HETATM    1  C1  UNL     1     -34.818  17.978   0.062  1.00 20.00    -0.004 C 
HETATM    2  C2  UNL     1     -35.316  17.054  -0.927  1.00 20.00    -0.003 C 
HETATM    3  C3  UNL     1     -33.565  18.450   0.004  1.00 20.00    -0.025 C 
HETATM    4  C4  UNL     1     -34.624  16.793  -2.046  1.00 20.00    -0.011 C 
HETATM    5  C5  UNL     1     -32.611  18.063  -1.095  1.00 20.00     0.047 C 
HETATM    6  C6  UNL     1     -33.288  17.422  -2.319  1.00 20.00     0.084 C 
HETATM    7 BR7  UNL     1     -33.598  18.798  -3.688  1.00 20.00    -0.087 Br
ENDROOT
TORSDOF 0
ENDMDL
