MODEL 1
REMARK VINA RESULT:      -5.0      0.000      0.000
REMARK  0 active torsions:
REMARK  status: ('A' for Active; 'I' for Inactive)
ROOT
HETATM    1  C1  UNL     1     -34.371  17.395  -1.324  1.00 20.00     0.003 A 
HETATM    2  C2  UNL     1     -33.286  17.183  -2.083  1.00 20.00     0.034 A 
HETATM    3  C3  UNL     1     -35.555  16.764  -1.860  1.00 20.00     0.018 A 
HETATM    4  C4  UNL     1     -35.526  13.877  -6.437  1.00 20.00     0.014 A 
HETATM    5  C5  UNL     1     -34.395  14.440  -5.988  1.00 20.00     0.118 A 
HETATM    6  C6  UNL     1     -35.241  16.133  -2.981  1.00 20.00     0.042 A 
HETATM    7  C7  UNL     1     -33.798  16.364  -3.177  1.00 20.00     0.091 A 
HETATM    8  C8  UNL     1     -35.610  15.315  -4.130  1.00 20.00     0.158 A 
HETATM    9  C9  UNL     1     -36.825  14.038  -5.676  1.00 20.00     0.180 A 
HETATM   10  N10 UNL     1     -33.310  15.810  -4.244  1.00 20.00    -0.166 NA
HETATM   11  N11 UNL     1     -36.769  14.845  -4.423  1.00 20.00    -0.267 NA
HETATM   12  N12 UNL     1     -34.412  15.167  -4.832  1.00 20.00    -0.226 N 
ENDROOT
TORSDOF 0
ENDMDL
MODEL 2
REMARK VINA RESULT:      -4.9      4.414      7.034
REMARK  0 active torsions:
REMARK  status: ('A' for Active; 'I' for Inactive)
ROOT
HETATM    1  C1  UNL     1     -34.531  17.552  -1.876  1.00 20.00     0.003 A 
HETATM    2  C2  UNL     1     -33.237  17.728  -2.180  1.00 20.00     0.034 A 
HETATM    3  C3  UNL     1     -34.812  17.797  -0.481  1.00 20.00     0.018 A 
HETATM    4  C4  UNL     1     -31.000  19.263   3.068  1.00 20.00     0.014 A 
HETATM    5  C5  UNL     1     -30.679  19.049   1.784  1.00 20.00     0.118 A 
HETATM    6  C6  UNL     1     -33.690  18.137   0.135  1.00 20.00     0.042 A 
HETATM    7  C7  UNL     1     -32.644  18.110  -0.903  1.00 20.00     0.091 A 
HETATM    8  C8  UNL     1     -32.964  18.528   1.336  1.00 20.00     0.158 A 
HETATM    9  C9  UNL     1     -32.427  19.099   3.546  1.00 20.00     0.180 A 
HETATM   10  N10 UNL     1     -31.460  18.422  -0.472  1.00 20.00    -0.166 NA
HETATM   11  N11 UNL     1     -33.432  18.694   2.521  1.00 20.00    -0.267 NA
HETATM   12  N12 UNL     1     -31.648  18.678   0.895  1.00 20.00    -0.226 N 
ENDROOT
TORSDOF 0
ENDMDL
MODEL 3
REMARK VINA RESULT:      -4.9     11.645     12.043
REMARK  0 active torsions:
REMARK  status: ('A' for Active; 'I' for Inactive)
ROOT
HETATM    1  C1  UNL     1     -34.759   5.351   5.930  1.00 20.00     0.003 A 
HETATM    2  C2  UNL     1     -34.999   4.888   4.695  1.00 20.00     0.034 A 
HETATM    3  C3  UNL     1     -33.862   6.483   5.934  1.00 20.00     0.018 A 
HETATM    4  C4  UNL     1     -31.751   8.571   1.410  1.00 20.00     0.014 A 
HETATM    5  C5  UNL     1     -32.578   7.518   1.344  1.00 20.00     0.118 A 
HETATM    6  C6  UNL     1     -33.513   6.765   4.688  1.00 20.00     0.042 A 
HETATM    7  C7  UNL     1     -34.211   5.776   3.847  1.00 20.00     0.091 A 
HETATM    8  C8  UNL     1     -32.777   7.571   3.722  1.00 20.00     0.158 A 
HETATM    9  C9  UNL     1     -31.395   9.192   2.745  1.00 20.00     0.180 A 
HETATM   10  N10 UNL     1     -33.981   5.903   2.576  1.00 20.00    -0.166 NA
HETATM   11  N11 UNL     1     -32.007   8.573   3.954  1.00 20.00    -0.267 NA
HETATM   12  N12 UNL     1     -33.106   6.997   2.492  1.00 20.00    -0.226 N 
ENDROOT
TORSDOF 0
ENDMDL
MODEL 4
REMARK VINA RESULT:      -4.8      2.728      5.630
REMARK  0 active torsions:
REMARK  status: ('A' for Active; 'I' for Inactive)
ROOT
HETATM    1  C1  UNL     1     -34.812  15.837  -3.963  1.00 20.00     0.003 A 
HETATM    2  C2  UNL     1     -35.798  15.956  -3.062  1.00 20.00     0.034 A 
HETATM    3  C3  UNL     1     -33.584  16.458  -3.527  1.00 20.00     0.018 A 
HETATM    4  C4  UNL     1     -33.097  18.973   1.240  1.00 20.00     0.014 A 
HETATM    5  C5  UNL     1     -34.264  18.414   0.889  1.00 20.00     0.118 A 
HETATM    6  C6  UNL     1     -33.767  16.990  -2.328  1.00 20.00     0.042 A 
HETATM    7  C7  UNL     1     -35.169  16.700  -1.975  1.00 20.00     0.091 A 
HETATM    8  C8  UNL     1     -33.274  17.725  -1.170  1.00 20.00     0.158 A 
HETATM    9  C9  UNL     1     -31.900  18.911   0.314  1.00 20.00     0.180 A 
HETATM   10  N10 UNL     1     -35.531  17.154  -0.815  1.00 20.00    -0.166 NA
HETATM   11  N11 UNL     1     -32.097  18.206  -0.985  1.00 20.00    -0.267 NA
HETATM   12  N12 UNL     1     -34.378  17.782  -0.317  1.00 20.00    -0.226 N 
ENDROOT
TORSDOF 0
ENDMDL
MODEL 5
REMARK VINA RESULT:      -4.8      1.084      2.316
REMARK  0 active torsions:
REMARK  status: ('A' for Active; 'I' for Inactive)
ROOT
HETATM    1  C1  UNL     1     -34.329  17.506  -0.860  1.00 20.00     0.003 A 
HETATM    2  C2  UNL     1     -35.553  17.029  -1.129  1.00 20.00     0.034 A 
HETATM    3  C3  UNL     1     -33.414  17.339  -1.964  1.00 20.00     0.018 A 
HETATM    4  C4  UNL     1     -34.849  15.032  -6.644  1.00 20.00     0.014 A 
HETATM    5  C5  UNL     1     -35.743  15.160  -5.654  1.00 20.00     0.118 A 
HETATM    6  C6  UNL     1     -34.045  16.748  -2.967  1.00 20.00     0.042 A 
HETATM    7  C7  UNL     1     -35.423  16.523  -2.491  1.00 20.00     0.091 A 
HETATM    8  C8  UNL     1     -34.062  16.201  -4.318  1.00 20.00     0.158 A 
HETATM    9  C9  UNL     1     -33.429  15.529  -6.473  1.00 20.00     0.180 A 
HETATM   10  N10 UNL     1     -36.196  15.943  -3.356  1.00 20.00    -0.166 NA
HETATM   11  N11 UNL     1     -33.094  16.155  -5.161  1.00 20.00    -0.267 NA
HETATM   12  N12 UNL     1     -35.372  15.743  -4.475  1.00 20.00    -0.226 N 
ENDROOT
TORSDOF 0
ENDMDL
MODEL 6
REMARK VINA RESULT:      -4.7     11.717     12.049
REMARK  0 active torsions:
REMARK  status: ('A' for Active; 'I' for Inactive)
ROOT
HETATM    1  C1  UNL     1     -31.684   8.696   1.408  1.00 20.00     0.003 A 
HETATM    2  C2  UNL     1     -31.560   9.207   2.642  1.00 20.00     0.034 A 
HETATM    3  C3  UNL     1     -32.471   7.486   1.386  1.00 20.00     0.018 A 
HETATM    4  C4  UNL     1     -34.651   5.318   5.839  1.00 20.00     0.014 A 
HETATM    5  C5  UNL     1     -33.929   6.444   5.922  1.00 20.00     0.118 A 
HETATM    6  C6  UNL     1     -32.868   7.202   2.617  1.00 20.00     0.042 A 
HETATM    7  C7  UNL     1     -32.314   8.271   3.468  1.00 20.00     0.091 A 
HETATM    8  C8  UNL     1     -33.584   6.355   3.563  1.00 20.00     0.158 A 
HETATM    9  C9  UNL     1     -34.869   4.636   4.505  1.00 20.00     0.180 A 
HETATM   10  N10 UNL     1     -32.607   8.153   4.727  1.00 20.00    -0.166 NA
HETATM   11  N11 UNL     1     -34.244   5.280   3.315  1.00 20.00    -0.267 NA
HETATM   12  N12 UNL     1     -33.382   6.984   4.792  1.00 20.00    -0.226 N 
ENDROOT
TORSDOF 0
ENDMDL
MODEL 7
REMARK VINA RESULT:      -4.7     11.547     11.940
REMARK  0 active torsions:
REMARK  status: ('A' for Active; 'I' for Inactive)
ROOT
HETATM    1  C1  UNL     1     -31.610   8.984   1.510  1.00 20.00     0.003 A 
HETATM    2  C2  UNL     1     -32.161   7.919   0.910  1.00 20.00     0.034 A 
HETATM    3  C3  UNL     1     -31.877   9.020   2.929  1.00 20.00     0.018 A 
HETATM    4  C4  UNL     1     -34.789   5.231   5.468  1.00 20.00     0.014 A 
HETATM    5  C5  UNL     1     -34.575   5.144   4.147  1.00 20.00     0.118 A 
HETATM    6  C6  UNL     1     -32.609   7.968   3.261  1.00 20.00     0.042 A 
HETATM    7  C7  UNL     1     -32.825   7.223   2.007  1.00 20.00     0.091 A 
HETATM    8  C8  UNL     1     -33.317   7.169   4.254  1.00 20.00     0.158 A 
HETATM    9  C9  UNL     1     -34.223   6.385   6.269  1.00 20.00     0.180 A 
HETATM   10  N10 UNL     1     -33.534   6.145   2.144  1.00 20.00    -0.166 NA
HETATM   11  N11 UNL     1     -33.430   7.397   5.513  1.00 20.00    -0.267 NA
HETATM   12  N12 UNL     1     -33.838   6.106   3.514  1.00 20.00    -0.226 N 
ENDROOT
TORSDOF 0
ENDMDL
MODEL 8
REMARK VINA RESULT:      -4.7      0.979      2.152
REMARK  0 active torsions:
REMARK  status: ('A' for Active; 'I' for Inactive)
ROOT
HETATM    1  C1  UNL     1     -34.220  17.040  -1.824  1.00 20.00     0.003 A 
HETATM    2  C2  UNL     1     -35.542  16.839  -1.910  1.00 20.00     0.034 A 
HETATM    3  C3  UNL     1     -33.493  16.426  -2.911  1.00 20.00     0.018 A 
HETATM    4  C4  UNL     1     -35.924  13.638  -6.861  1.00 20.00     0.014 A 
HETATM    5  C5  UNL     1     -36.651  14.186  -5.877  1.00 20.00     0.118 A 
HETATM    6  C6  UNL     1     -34.350  15.817  -3.717  1.00 20.00     0.042 A 
HETATM    7  C7  UNL     1     -35.682  16.047  -3.127  1.00 20.00     0.091 A 
HETATM    8  C8  UNL     1     -34.640  15.026  -4.906  1.00 20.00     0.158 A 
HETATM    9  C9  UNL     1     -34.418  13.788  -6.885  1.00 20.00     0.180 A 
HETATM   10  N10 UNL     1     -36.658  15.513  -3.795  1.00 20.00    -0.166 NA
HETATM   11  N11 UNL     1     -33.806  14.567  -5.770  1.00 20.00    -0.267 NA
HETATM   12  N12 UNL     1     -36.029  14.888  -4.883  1.00 20.00    -0.226 N 
ENDROOT
TORSDOF 0
ENDMDL
MODEL 9
REMARK VINA RESULT:      -4.6      3.735      6.344
REMARK  0 active torsions:
REMARK  status: ('A' for Active; 'I' for Inactive)
ROOT
HETATM    1  C1  UNL     1     -34.828  16.845  -2.608  1.00 20.00     0.003 A 
HETATM    2  C2  UNL     1     -33.552  17.245  -2.703  1.00 20.00     0.034 A 
HETATM    3  C3  UNL     1     -35.381  17.063  -1.291  1.00 20.00     0.018 A 
HETATM    4  C4  UNL     1     -32.542  19.263   2.756  1.00 20.00     0.014 A 
HETATM    5  C5  UNL     1     -31.975  19.084   1.555  1.00 20.00     0.118 A 
HETATM    6  C6  UNL     1     -34.457  17.612  -0.518  1.00 20.00     0.042 A 
HETATM    7  C7  UNL     1     -33.260  17.754  -1.367  1.00 20.00     0.091 A 
HETATM    8  C8  UNL     1     -34.024  18.152   0.765  1.00 20.00     0.158 A 
HETATM    9  C9  UNL     1     -33.979  18.855   3.002  1.00 20.00     0.180 A 
HETATM   10  N10 UNL     1     -32.239  18.282  -0.765  1.00 20.00    -0.166 NA
HETATM   11  N11 UNL     1     -34.709  18.254   1.848  1.00 20.00    -0.267 NA
HETATM   12  N12 UNL     1     -32.699  18.528   0.539  1.00 20.00    -0.226 N 
ENDROOT
TORSDOF 0
ENDMDL
