MODEL 1
REMARK VINA RESULT:      -4.9      0.000      0.000
REMARK  2 active torsions:
REMARK  status: ('A' for Active; 'I' for Inactive)
REMARK    1  A    between atoms: C6_6  and  C10_10 
REMARK    2  A    between atoms: C7_7  and  C11_11 
ROOT
HETATM    1  C1  UNL     1     -33.748   4.220   3.732  1.00 20.00    -0.025 C 
HETATM    2  C2  UNL     1     -33.640   4.872   2.565  1.00 20.00    -0.025 C 
HETATM    3  C3  UNL     1     -35.456   5.767   3.671  1.00 20.00     0.017 C 
HETATM    4  C4  UNL     1     -34.499   5.124   4.683  1.00 20.00     0.013 C 
HETATM    5  C5  UNL     1     -34.324   6.209   2.735  1.00 20.00     0.013 C 
HETATM    6  C6  UNL     1     -33.547   6.299   5.041  1.00 20.00    -0.002 C 
HETATM    7  C7  UNL     1     -33.506   7.112   3.699  1.00 20.00    -0.002 C 
ENDROOT
BRANCH   6   8
HETATM    8  C10 UNL     1     -34.065   7.139   6.204  1.00 20.00     0.001 C 
HETATM    9  C8  UNL     1     -33.276   8.395   6.374  1.00 20.00     0.005 C 
ENDBRANCH   6   8
BRANCH   7  10
HETATM   10  C11 UNL     1     -32.093   7.427   3.228  1.00 20.00     0.001 C 
HETATM   11  C9  UNL     1     -32.091   8.368   2.066  1.00 20.00     0.005 C 
ENDBRANCH   7  10
TORSDOF 2
ENDMDL
MODEL 2
REMARK VINA RESULT:      -4.4      0.917      3.285
REMARK  2 active torsions:
REMARK  status: ('A' for Active; 'I' for Inactive)
REMARK    1  A    between atoms: C6_6  and  C10_10 
REMARK    2  A    between atoms: C7_7  and  C11_11 
ROOT
HETATM    1  C1  UNL     1     -35.236   6.197   2.737  1.00 20.00    -0.025 C 
HETATM    2  C2  UNL     1     -35.055   5.705   3.972  1.00 20.00    -0.025 C 
HETATM    3  C3  UNL     1     -33.166   5.183   2.756  1.00 20.00     0.017 C 
HETATM    4  C4  UNL     1     -33.866   6.395   2.128  1.00 20.00     0.013 C 
HETATM    5  C5  UNL     1     -33.566   5.570   4.185  1.00 20.00     0.013 C 
HETATM    6  C6  UNL     1     -33.207   7.589   2.873  1.00 20.00    -0.002 C 
HETATM    7  C7  UNL     1     -32.907   6.973   4.285  1.00 20.00    -0.002 C 
ENDROOT
BRANCH   6   8
HETATM    8  C10 UNL     1     -31.939   8.080   2.181  1.00 20.00     0.001 C 
HETATM    9  C8  UNL     1     -32.216   9.231   1.270  1.00 20.00     0.005 C 
ENDBRANCH   6   8
BRANCH   7  10
HETATM   10  C11 UNL     1     -33.414   7.832   5.436  1.00 20.00     0.001 C 
HETATM   11  C9  UNL     1     -34.065   7.007   6.500  1.00 20.00     0.005 C 
ENDBRANCH   7  10
TORSDOF 2
ENDMDL
MODEL 3
REMARK VINA RESULT:      -4.3      1.028      3.099
REMARK  2 active torsions:
REMARK  status: ('A' for Active; 'I' for Inactive)
REMARK    1  A    between atoms: C6_6  and  C10_10 
REMARK    2  A    between atoms: C7_7  and  C11_11 
ROOT
HETATM    1  C1  UNL     1     -33.692   6.662   5.796  1.00 20.00    -0.025 C 
HETATM    2  C2  UNL     1     -34.541   5.660   5.516  1.00 20.00    -0.025 C 
HETATM    3  C3  UNL     1     -35.056   7.399   4.090  1.00 20.00     0.017 C 
HETATM    4  C4  UNL     1     -33.603   7.531   4.562  1.00 20.00     0.013 C 
HETATM    5  C5  UNL     1     -35.022   5.866   4.099  1.00 20.00     0.013 C 
HETATM    6  C6  UNL     1     -32.825   6.719   3.489  1.00 20.00    -0.002 C 
HETATM    7  C7  UNL     1     -33.864   5.611   3.095  1.00 20.00    -0.002 C 
ENDROOT
BRANCH   6   8
HETATM    8  C10 UNL     1     -32.417   7.573   2.292  1.00 20.00     0.001 C 
HETATM    9  C8  UNL     1     -31.567   8.731   2.704  1.00 20.00     0.005 C 
ENDBRANCH   6   8
BRANCH   7  10
HETATM   10  C11 UNL     1     -33.287   4.202   3.137  1.00 20.00     0.001 C 
HETATM   11  C9  UNL     1     -32.603   3.843   1.857  1.00 20.00     0.005 C 
ENDBRANCH   7  10
TORSDOF 2
ENDMDL
MODEL 4
REMARK VINA RESULT:      -4.3     11.575     12.701
REMARK  2 active torsions:
REMARK  status: ('A' for Active; 'I' for Inactive)
REMARK    1  A    between atoms: C6_6  and  C10_10 
REMARK    2  A    between atoms: C7_7  and  C11_11 
ROOT
HETATM    1  C1  UNL     1     -33.431  15.954  -5.870  1.00 20.00    -0.025 C 
HETATM    2  C2  UNL     1     -34.262  14.989  -6.292  1.00 20.00    -0.025 C 
HETATM    3  C3  UNL     1     -33.446  14.324  -4.240  1.00 20.00     0.017 C 
HETATM    4  C4  UNL     1     -33.353  15.850  -4.363  1.00 20.00     0.013 C 
HETATM    5  C5  UNL     1     -34.733  14.237  -5.069  1.00 20.00     0.013 C 
HETATM    6  C6  UNL     1     -34.725  16.317  -3.803  1.00 20.00    -0.002 C 
HETATM    7  C7  UNL     1     -35.671  15.134  -4.214  1.00 20.00    -0.002 C 
ENDROOT
BRANCH   6   8
HETATM    8  C10 UNL     1     -34.698  16.530  -2.293  1.00 20.00     0.001 C 
HETATM    9  C8  UNL     1     -33.488  17.294  -1.864  1.00 20.00     0.005 C 
ENDBRANCH   6   8
BRANCH   7  10
HETATM   10  C11 UNL     1     -36.934  15.594  -4.930  1.00 20.00     0.001 C 
HETATM   11  C9  UNL     1     -37.845  14.449  -5.241  1.00 20.00     0.005 C 
ENDBRANCH   7  10
TORSDOF 2
ENDMDL
MODEL 5
REMARK VINA RESULT:      -4.3     11.559     13.289
REMARK  2 active torsions:
REMARK  status: ('A' for Active; 'I' for Inactive)
REMARK    1  A    between atoms: C6_6  and  C10_10 
REMARK    2  A    between atoms: C7_7  and  C11_11 
ROOT
HETATM    1  C1  UNL     1     -34.513  15.847  -3.280  1.00 20.00    -0.025 C 
HETATM    2  C2  UNL     1     -33.623  16.596  -3.949  1.00 20.00    -0.025 C 
HETATM    3  C3  UNL     1     -33.107  14.389  -4.381  1.00 20.00     0.017 C 
HETATM    4  C4  UNL     1     -34.582  14.505  -3.975  1.00 20.00     0.013 C 
HETATM    5  C5  UNL     1     -33.093  15.752  -5.084  1.00 20.00     0.013 C 
HETATM    6  C6  UNL     1     -35.290  14.736  -5.339  1.00 20.00    -0.002 C 
HETATM    7  C7  UNL     1     -34.202  15.525  -6.149  1.00 20.00    -0.002 C 
ENDROOT
BRANCH   6   8
HETATM    8  C10 UNL     1     -35.678  13.429  -6.024  1.00 20.00     0.001 C 
HETATM    9  C8  UNL     1     -34.957  13.249  -7.320  1.00 20.00     0.005 C 
ENDBRANCH   6   8
BRANCH   7  10
HETATM   10  C11 UNL     1     -34.735  16.798  -6.791  1.00 20.00     0.001 C 
HETATM   11  C9  UNL     1     -36.206  16.957  -6.573  1.00 20.00     0.005 C 
ENDBRANCH   7  10
TORSDOF 2
ENDMDL
MODEL 6
REMARK VINA RESULT:      -4.2     11.739     12.929
REMARK  2 active torsions:
REMARK  status: ('A' for Active; 'I' for Inactive)
REMARK    1  A    between atoms: C6_6  and  C10_10 
REMARK    2  A    between atoms: C7_7  and  C11_11 
ROOT
HETATM    1  C1  UNL     1     -34.892  18.194  -3.840  1.00 20.00    -0.025 C 
HETATM    2  C2  UNL     1     -35.792  17.302  -3.400  1.00 20.00    -0.025 C 
HETATM    3  C3  UNL     1     -33.710  16.344  -3.137  1.00 20.00     0.017 C 
HETATM    4  C4  UNL     1     -33.576  17.871  -3.168  1.00 20.00     0.013 C 
HETATM    5  C5  UNL     1     -35.076  16.381  -2.440  1.00 20.00     0.013 C 
HETATM    6  C6  UNL     1     -33.726  18.254  -1.669  1.00 20.00    -0.002 C 
HETATM    7  C7  UNL     1     -34.702  17.144  -1.140  1.00 20.00    -0.002 C 
ENDROOT
BRANCH   6   8
HETATM    8  C10 UNL     1     -32.392  18.244  -0.928  1.00 20.00     0.001 C 
HETATM    9  C8  UNL     1     -32.434  19.100   0.296  1.00 20.00     0.005 C 
ENDBRANCH   6   8
BRANCH   7  10
HETATM   10  C11 UNL     1     -35.889  17.705  -0.369  1.00 20.00     0.001 C 
HETATM   11  C9  UNL     1     -35.758  17.470   1.102  1.00 20.00     0.005 C 
ENDBRANCH   7  10
TORSDOF 2
ENDMDL
MODEL 7
REMARK VINA RESULT:      -4.1     11.498     13.185
REMARK  2 active torsions:
REMARK  status: ('A' for Active; 'I' for Inactive)
REMARK    1  A    between atoms: C6_6  and  C10_10 
REMARK    2  A    between atoms: C7_7  and  C11_11 
ROOT
HETATM    1  C1  UNL     1     -35.130  14.690  -5.352  1.00 20.00    -0.025 C 
HETATM    2  C2  UNL     1     -34.591  14.243  -4.207  1.00 20.00    -0.025 C 
HETATM    3  C3  UNL     1     -32.961  15.469  -5.287  1.00 20.00     0.017 C 
HETATM    4  C4  UNL     1     -34.347  15.915  -5.768  1.00 20.00     0.013 C 
HETATM    5  C5  UNL     1     -33.445  15.167  -3.863  1.00 20.00     0.013 C 
HETATM    6  C6  UNL     1     -34.705  17.045  -4.763  1.00 20.00    -0.002 C 
HETATM    7  C7  UNL     1     -33.985  16.565  -3.454  1.00 20.00    -0.002 C 
ENDROOT
BRANCH   6   8
HETATM    8  C10 UNL     1     -34.208  18.413  -5.221  1.00 20.00     0.001 C 
HETATM    9  C8  UNL     1     -33.210  18.986  -4.268  1.00 20.00     0.005 C 
ENDBRANCH   6   8
BRANCH   7  10
HETATM   10  C11 UNL     1     -34.896  16.561  -2.233  1.00 20.00     0.001 C 
HETATM   11  C9  UNL     1     -34.298  17.319  -1.091  1.00 20.00     0.005 C 
ENDBRANCH   7  10
TORSDOF 2
ENDMDL
MODEL 8
REMARK VINA RESULT:      -4.1     11.863     12.999
REMARK  2 active torsions:
REMARK  status: ('A' for Active; 'I' for Inactive)
REMARK    1  A    between atoms: C6_6  and  C10_10 
REMARK    2  A    between atoms: C7_7  and  C11_11 
ROOT
HETATM    1  C1  UNL     1     -34.857  16.731  -1.704  1.00 20.00    -0.025 C 
HETATM    2  C2  UNL     1     -35.990  17.138  -2.299  1.00 20.00    -0.025 C 
HETATM    3  C3  UNL     1     -34.239  17.860  -3.617  1.00 20.00     0.017 C 
HETATM    4  C4  UNL     1     -33.790  16.660  -2.774  1.00 20.00     0.013 C 
HETATM    5  C5  UNL     1     -35.676  17.344  -3.763  1.00 20.00     0.013 C 
HETATM    6  C6  UNL     1     -34.143  15.454  -3.688  1.00 20.00    -0.002 C 
HETATM    7  C7  UNL     1     -35.410  15.978  -4.453  1.00 20.00    -0.002 C 
ENDROOT
BRANCH   6   8
HETATM    8  C10 UNL     1     -33.008  15.091  -4.641  1.00 20.00     0.001 C 
HETATM    9  C8  UNL     1     -33.238  15.642  -6.010  1.00 20.00     0.005 C 
ENDBRANCH   6   8
BRANCH   7  10
HETATM   10  C11 UNL     1     -36.582  15.007  -4.413  1.00 20.00     0.001 C 
HETATM   11  C9  UNL     1     -36.325  13.791  -5.245  1.00 20.00     0.005 C 
ENDBRANCH   7  10
TORSDOF 2
ENDMDL
MODEL 9
REMARK VINA RESULT:      -4.1     11.604     12.841
REMARK  2 active torsions:
REMARK  status: ('A' for Active; 'I' for Inactive)
REMARK    1  A    between atoms: C6_6  and  C10_10 
REMARK    2  A    between atoms: C7_7  and  C11_11 
ROOT
HETATM    1  C1  UNL     1     -36.567  15.617  -4.041  1.00 20.00    -0.025 C 
HETATM    2  C2  UNL     1     -36.150  15.866  -5.292  1.00 20.00    -0.025 C 
HETATM    3  C3  UNL     1     -35.949  17.837  -4.109  1.00 20.00     0.017 C 
HETATM    4  C4  UNL     1     -35.924  16.648  -3.140  1.00 20.00     0.013 C 
HETATM    5  C5  UNL     1     -35.235  17.067  -5.226  1.00 20.00     0.013 C 
HETATM    6  C6  UNL     1     -34.411  16.306  -3.066  1.00 20.00    -0.002 C 
HETATM    7  C7  UNL     1     -33.911  16.696  -4.502  1.00 20.00    -0.002 C 
ENDROOT
BRANCH   6   8
HETATM    8  C10 UNL     1     -33.687  17.091  -1.975  1.00 20.00     0.001 C 
HETATM    9  C8  UNL     1     -34.583  17.379  -0.815  1.00 20.00     0.005 C 
ENDBRANCH   6   8
BRANCH   7  10
HETATM   10  C11 UNL     1     -33.105  15.596  -5.178  1.00 20.00     0.001 C 
HETATM   11  C9  UNL     1     -32.943  14.401  -4.294  1.00 20.00     0.005 C 
ENDBRANCH   7  10
TORSDOF 2
ENDMDL
