MODEL 1
REMARK VINA RESULT:      -4.8      0.000      0.000
REMARK  1 active torsions:
REMARK  status: ('A' for Active; 'I' for Inactive)
REMARK    1  A    between atoms: C1_1  and  C5_5 
ROOT
HETATM    1  C1  UNL     1     -32.910   7.587   3.090  1.00 20.00    -0.097 C 
HETATM    2  C2  UNL     1     -32.258   8.111   2.230  1.00 20.00    -0.110 C 
HETATM    3  C7  UNL     1     -31.462   8.749   1.182  1.00 20.00     0.112 C 
ENDROOT
BRANCH   1   4
HETATM    4  C5  UNL     1     -33.706   6.950   4.137  1.00 20.00     0.027 C 
HETATM    5  C3  UNL     1     -35.237   7.205   3.973  1.00 20.00     0.024 C 
HETATM    6  C4  UNL     1     -35.351   5.867   3.217  1.00 20.00     0.012 C 
HETATM    7  C6  UNL     1     -34.029   5.404   3.902  1.00 20.00    -0.029 C 
HETATM    8  C9  UNL     1     -33.099   4.632   2.962  1.00 20.00     0.016 C 
HETATM    9  C10 UNL     1     -34.299   4.567   5.161  1.00 20.00     0.016 C 
HETATM   10  C8  UNL     1     -33.158   7.354   5.505  1.00 20.00     0.030 C 
ENDBRANCH   1   4
TORSDOF 1
ENDMDL
MODEL 2
REMARK VINA RESULT:      -4.2     11.221     12.529
REMARK  1 active torsions:
REMARK  status: ('A' for Active; 'I' for Inactive)
REMARK    1  A    between atoms: C1_1  and  C5_5 
ROOT
HETATM    1  C1  UNL     1     -34.646  15.772  -3.252  1.00 20.00    -0.097 C 
HETATM    2  C2  UNL     1     -34.898  16.410  -2.268  1.00 20.00    -0.110 C 
HETATM    3  C7  UNL     1     -35.207  17.187  -1.068  1.00 20.00     0.112 C 
ENDROOT
BRANCH   1   4
HETATM    4  C5  UNL     1     -34.337  14.995  -4.451  1.00 20.00     0.027 C 
HETATM    5  C3  UNL     1     -35.418  13.914  -4.767  1.00 20.00     0.024 C 
HETATM    6  C4  UNL     1     -36.101  14.916  -5.718  1.00 20.00     0.012 C 
HETATM    7  C6  UNL     1     -34.749  15.681  -5.832  1.00 20.00    -0.029 C 
HETATM    8  C9  UNL     1     -34.913  17.203  -5.834  1.00 20.00     0.016 C 
HETATM    9  C10 UNL     1     -33.948  15.248  -7.070  1.00 20.00     0.016 C 
HETATM   10  C8  UNL     1     -32.921  14.433  -4.338  1.00 20.00     0.030 C 
ENDBRANCH   1   4
TORSDOF 1
ENDMDL
MODEL 3
REMARK VINA RESULT:      -4.2     10.915     12.296
REMARK  1 active torsions:
REMARK  status: ('A' for Active; 'I' for Inactive)
REMARK    1  A    between atoms: C1_1  and  C5_5 
ROOT
HETATM    1  C1  UNL     1     -34.527  16.561  -2.726  1.00 20.00    -0.097 C 
HETATM    2  C2  UNL     1     -34.804  16.941  -1.622  1.00 20.00    -0.110 C 
HETATM    3  C7  UNL     1     -35.142  17.406  -0.277  1.00 20.00     0.112 C 
ENDROOT
BRANCH   1   4
HETATM    4  C5  UNL     1     -34.189  16.097  -4.070  1.00 20.00     0.027 C 
HETATM    5  C3  UNL     1     -33.303  14.812  -4.062  1.00 20.00     0.024 C 
HETATM    6  C4  UNL     1     -34.581  13.963  -4.202  1.00 20.00     0.012 C 
HETATM    7  C6  UNL     1     -35.308  15.212  -4.786  1.00 20.00    -0.029 C 
HETATM    8  C9  UNL     1     -36.746  15.365  -4.284  1.00 20.00     0.016 C 
HETATM    9  C10 UNL     1     -35.296  15.215  -6.323  1.00 20.00     0.016 C 
HETATM   10  C8  UNL     1     -33.588  17.253  -4.868  1.00 20.00     0.030 C 
ENDBRANCH   1   4
TORSDOF 1
ENDMDL
MODEL 4
REMARK VINA RESULT:      -4.1     11.058     12.530
REMARK  1 active torsions:
REMARK  status: ('A' for Active; 'I' for Inactive)
REMARK    1  A    between atoms: C1_1  and  C5_5 
ROOT
HETATM    1  C1  UNL     1     -34.742  16.070  -3.112  1.00 20.00    -0.097 C 
HETATM    2  C2  UNL     1     -34.909  16.598  -2.047  1.00 20.00    -0.110 C 
HETATM    3  C7  UNL     1     -35.110  17.241  -0.749  1.00 20.00     0.112 C 
ENDROOT
BRANCH   1   4
HETATM    4  C5  UNL     1     -34.540  15.428  -4.409  1.00 20.00     0.027 C 
HETATM    5  C3  UNL     1     -34.934  13.918  -4.405  1.00 20.00     0.024 C 
HETATM    6  C4  UNL     1     -36.329  14.309  -4.931  1.00 20.00     0.012 C 
HETATM    7  C6  UNL     1     -35.719  15.640  -5.465  1.00 20.00    -0.029 C 
HETATM    8  C9  UNL     1     -36.633  16.850  -5.257  1.00 20.00     0.016 C 
HETATM    9  C10 UNL     1     -35.329  15.538  -6.948  1.00 20.00     0.016 C 
HETATM   10  C8  UNL     1     -33.113  15.689  -4.886  1.00 20.00     0.030 C 
ENDBRANCH   1   4
TORSDOF 1
ENDMDL
MODEL 5
REMARK VINA RESULT:      -3.9     11.309     12.551
REMARK  1 active torsions:
REMARK  status: ('A' for Active; 'I' for Inactive)
REMARK    1  A    between atoms: C1_1  and  C5_5 
ROOT
HETATM    1  C1  UNL     1     -35.259  16.143  -3.404  1.00 20.00    -0.097 C 
HETATM    2  C2  UNL     1     -35.114  16.576  -2.294  1.00 20.00    -0.110 C 
HETATM    3  C7  UNL     1     -34.937  17.103  -0.942  1.00 20.00     0.112 C 
ENDROOT
BRANCH   1   4
HETATM    4  C5  UNL     1     -35.435  15.616  -4.756  1.00 20.00     0.027 C 
HETATM    5  C3  UNL     1     -35.303  16.715  -5.856  1.00 20.00     0.024 C 
HETATM    6  C4  UNL     1     -33.817  16.338  -6.014  1.00 20.00     0.012 C 
HETATM    7  C6  UNL     1     -34.139  14.943  -5.399  1.00 20.00    -0.029 C 
HETATM    8  C9  UNL     1     -33.060  14.444  -4.434  1.00 20.00     0.016 C 
HETATM    9  C10 UNL     1     -34.390  13.883  -6.482  1.00 20.00     0.016 C 
HETATM   10  C8  UNL     1     -36.744  14.831  -4.825  1.00 20.00     0.030 C 
ENDBRANCH   1   4
TORSDOF 1
ENDMDL
MODEL 6
REMARK VINA RESULT:      -3.5     11.649     12.790
REMARK  1 active torsions:
REMARK  status: ('A' for Active; 'I' for Inactive)
REMARK    1  A    between atoms: C1_1  and  C5_5 
ROOT
HETATM    1  C1  UNL     1     -35.843  15.970  -3.980  1.00 20.00    -0.097 C 
HETATM    2  C2  UNL     1     -36.898  15.460  -4.240  1.00 20.00    -0.110 C 
HETATM    3  C7  UNL     1     -38.184  14.839  -4.559  1.00 20.00     0.112 C 
ENDROOT
BRANCH   1   4
HETATM    4  C5  UNL     1     -34.559  16.590  -3.662  1.00 20.00     0.027 C 
HETATM    5  C3  UNL     1     -34.367  17.975  -4.355  1.00 20.00     0.024 C 
HETATM    6  C4  UNL     1     -34.895  18.656  -3.078  1.00 20.00     0.012 C 
HETATM    7  C6  UNL     1     -34.508  17.378  -2.275  1.00 20.00    -0.029 C 
HETATM    8  C9  UNL     1     -35.543  16.993  -1.215  1.00 20.00     0.016 C 
HETATM    9  C10 UNL     1     -33.124  17.510  -1.619  1.00 20.00     0.016 C 
HETATM   10  C8  UNL     1     -33.434  15.597  -3.950  1.00 20.00     0.030 C 
ENDBRANCH   1   4
TORSDOF 1
ENDMDL
MODEL 7
REMARK VINA RESULT:      -3.5     11.592     13.096
REMARK  1 active torsions:
REMARK  status: ('A' for Active; 'I' for Inactive)
REMARK    1  A    between atoms: C1_1  and  C5_5 
ROOT
HETATM    1  C1  UNL     1     -36.101  15.756  -3.950  1.00 20.00    -0.097 C 
HETATM    2  C2  UNL     1     -37.103  15.260  -4.389  1.00 20.00    -0.110 C 
HETATM    3  C7  UNL     1     -38.323  14.656  -4.922  1.00 20.00     0.112 C 
ENDROOT
BRANCH   1   4
HETATM    4  C5  UNL     1     -34.882  16.360  -3.418  1.00 20.00     0.027 C 
HETATM    5  C3  UNL     1     -33.602  15.530  -3.747  1.00 20.00     0.024 C 
HETATM    6  C4  UNL     1     -33.377  16.420  -4.985  1.00 20.00     0.012 C 
HETATM    7  C6  UNL     1     -34.251  17.522  -4.311  1.00 20.00    -0.029 C 
HETATM    8  C9  UNL     1     -35.186  18.235  -5.291  1.00 20.00     0.016 C 
HETATM    9  C10 UNL     1     -33.393  18.559  -3.570  1.00 20.00     0.016 C 
HETATM   10  C8  UNL     1     -35.067  16.639  -1.927  1.00 20.00     0.030 C 
ENDBRANCH   1   4
TORSDOF 1
ENDMDL
MODEL 8
REMARK VINA RESULT:      -3.5     11.424     13.064
REMARK  1 active torsions:
REMARK  status: ('A' for Active; 'I' for Inactive)
REMARK    1  A    between atoms: C1_1  and  C5_5 
ROOT
HETATM    1  C1  UNL     1     -35.196  16.216  -4.391  1.00 20.00    -0.097 C 
HETATM    2  C2  UNL     1     -35.057  16.419  -3.216  1.00 20.00    -0.110 C 
HETATM    3  C7  UNL     1     -34.886  16.667  -1.785  1.00 20.00     0.112 C 
ENDROOT
BRANCH   1   4
HETATM    4  C5  UNL     1     -35.367  15.969  -5.821  1.00 20.00     0.027 C 
HETATM    5  C3  UNL     1     -34.013  15.953  -6.598  1.00 20.00     0.024 C 
HETATM    6  C4  UNL     1     -33.976  14.420  -6.444  1.00 20.00     0.012 C 
HETATM    7  C6  UNL     1     -35.520  14.435  -6.234  1.00 20.00    -0.029 C 
HETATM    8  C9  UNL     1     -35.993  13.464  -5.149  1.00 20.00     0.016 C 
HETATM    9  C10 UNL     1     -36.279  14.156  -7.540  1.00 20.00     0.016 C 
HETATM   10  C8  UNL     1     -36.387  16.956  -6.385  1.00 20.00     0.030 C 
ENDBRANCH   1   4
TORSDOF 1
ENDMDL
MODEL 9
REMARK VINA RESULT:      -3.5     11.174     13.051
REMARK  1 active torsions:
REMARK  status: ('A' for Active; 'I' for Inactive)
REMARK    1  A    between atoms: C1_1  and  C5_5 
ROOT
HETATM    1  C1  UNL     1     -35.445  16.485  -4.987  1.00 20.00    -0.097 C 
HETATM    2  C2  UNL     1     -36.088  17.439  -4.645  1.00 20.00    -0.110 C 
HETATM    3  C7  UNL     1     -36.872  18.602  -4.229  1.00 20.00     0.112 C 
ENDROOT
BRANCH   1   4
HETATM    4  C5  UNL     1     -34.663  15.323  -5.403  1.00 20.00     0.027 C 
HETATM    5  C3  UNL     1     -34.674  14.176  -4.344  1.00 20.00     0.024 C 
HETATM    6  C4  UNL     1     -35.848  13.526  -5.101  1.00 20.00     0.012 C 
HETATM    7  C6  UNL     1     -35.416  14.308  -6.378  1.00 20.00    -0.029 C 
HETATM    8  C9  UNL     1     -36.599  14.858  -7.179  1.00 20.00     0.016 C 
HETATM    9  C10 UNL     1     -34.524  13.458  -7.295  1.00 20.00     0.016 C 
HETATM   10  C8  UNL     1     -33.261  15.775  -5.805  1.00 20.00     0.030 C 
ENDBRANCH   1   4
TORSDOF 1
ENDMDL
