MODEL 1
REMARK VINA RESULT:      -6.0      0.000      0.000
REMARK  0 active torsions:
REMARK  status: ('A' for Active; 'I' for Inactive)
ROOT
HETATM    1  C1  UNL     1     -33.444   4.170   2.742  1.00 20.00     0.001 C 
HETATM    2  C2  UNL     1     -31.839   8.207   3.637  1.00 20.00     0.001 C 
HETATM    3  C3  UNL     1     -32.705   5.453   2.374  1.00 20.00     0.005 C 
HETATM    4  C4  UNL     1     -32.520   7.942   2.285  1.00 20.00     0.005 C 
HETATM    5  C5  UNL     1     -33.611   4.004   4.247  1.00 20.00     0.005 C 
HETATM    6  C6  UNL     1     -32.697   7.505   4.696  1.00 20.00     0.005 C 
HETATM    7  C7  UNL     1     -34.740   5.610   5.959  1.00 20.00     0.010 A 
HETATM    8  C8  UNL     1     -33.485   6.770   2.546  1.00 20.00    -0.010 C 
HETATM    9  C9  UNL     1     -34.811   4.733   4.740  1.00 20.00    -0.010 A 
HETATM   10  C10 UNL     1     -33.976   7.141   3.952  1.00 20.00    -0.006 C 
HETATM   11  C11 UNL     1     -34.963   6.225   4.598  1.00 20.00    -0.006 A 
ENDROOT
TORSDOF 0
ENDMDL
MODEL 2
REMARK VINA RESULT:      -5.7      0.865      3.949
REMARK  0 active torsions:
REMARK  status: ('A' for Active; 'I' for Inactive)
ROOT
HETATM    1  C1  UNL     1     -33.293   7.968   5.569  1.00 20.00     0.001 C 
HETATM    2  C2  UNL     1     -33.903   3.844   4.054  1.00 20.00     0.001 C 
HETATM    3  C3  UNL     1     -33.868   6.558   5.655  1.00 20.00     0.005 C 
HETATM    4  C4  UNL     1     -35.083   4.609   4.672  1.00 20.00     0.005 C 
HETATM    5  C5  UNL     1     -32.165   8.076   4.550  1.00 20.00     0.005 C 
HETATM    6  C6  UNL     1     -33.153   4.849   3.171  1.00 20.00     0.005 C 
HETATM    7  C7  UNL     1     -32.193   7.510   2.007  1.00 20.00     0.010 A 
HETATM    8  C8  UNL     1     -34.742   6.098   4.473  1.00 20.00    -0.010 C 
HETATM    9  C9  UNL     1     -32.698   8.306   3.180  1.00 20.00    -0.010 A 
HETATM   10  C10 UNL     1     -34.101   6.038   3.080  1.00 20.00    -0.006 C 
HETATM   11  C11 UNL     1     -33.610   7.321   2.494  1.00 20.00    -0.006 A 
ENDROOT
TORSDOF 0
ENDMDL
MODEL 3
REMARK VINA RESULT:      -4.7      1.273      2.739
REMARK  0 active torsions:
REMARK  status: ('A' for Active; 'I' for Inactive)
ROOT
HETATM    1  C1  UNL     1     -33.003   7.597   5.867  1.00 20.00     0.001 C 
HETATM    2  C2  UNL     1     -32.573   9.017   1.688  1.00 20.00     0.001 C 
HETATM    3  C3  UNL     1     -32.325   8.410   4.770  1.00 20.00     0.005 C 
HETATM    4  C4  UNL     1     -31.322   8.635   2.493  1.00 20.00     0.005 C 
HETATM    5  C5  UNL     1     -34.390   7.114   5.463  1.00 20.00     0.005 C 
HETATM    6  C6  UNL     1     -33.627   7.947   1.996  1.00 20.00     0.005 C 
HETATM    7  C7  UNL     1     -35.089   5.664   3.414  1.00 20.00     0.010 A 
HETATM    8  C8  UNL     1     -31.817   7.625   3.546  1.00 20.00    -0.010 C 
HETATM    9  C9  UNL     1     -34.314   5.844   4.691  1.00 20.00    -0.010 A 
HETATM   10  C10 UNL     1     -32.842   6.851   2.706  1.00 20.00    -0.006 C 
HETATM   11  C11 UNL     1     -33.581   5.741   3.378  1.00 20.00    -0.006 A 
ENDROOT
TORSDOF 0
ENDMDL
MODEL 4
REMARK VINA RESULT:      -4.4     11.965     13.215
REMARK  0 active torsions:
REMARK  status: ('A' for Active; 'I' for Inactive)
ROOT
HETATM    1  C1  UNL     1     -36.953  14.172  -5.298  1.00 20.00     0.001 C 
HETATM    2  C2  UNL     1     -33.668  16.990  -4.329  1.00 20.00     0.001 C 
HETATM    3  C3  UNL     1     -36.184  15.092  -4.356  1.00 20.00     0.005 C 
HETATM    4  C4  UNL     1     -34.065  15.907  -3.314  1.00 20.00     0.005 C 
HETATM    5  C5  UNL     1     -36.596  14.403  -6.761  1.00 20.00     0.005 C 
HETATM    6  C6  UNL     1     -33.675  16.313  -5.705  1.00 20.00     0.005 C 
HETATM    7  C7  UNL     1     -34.265  14.284  -7.918  1.00 20.00     0.010 A 
HETATM    8  C8  UNL     1     -34.689  14.778  -4.157  1.00 20.00    -0.010 C 
HETATM    9  C9  UNL     1     -35.381  13.635  -7.146  1.00 20.00    -0.010 A 
HETATM   10  C10 UNL     1     -33.769  14.827  -5.385  1.00 20.00    -0.006 C 
HETATM   11  C11 UNL     1     -34.044  13.857  -6.486  1.00 20.00    -0.006 A 
ENDROOT
TORSDOF 0
ENDMDL
MODEL 5
REMARK VINA RESULT:      -4.4     12.085     13.049
REMARK  0 active torsions:
REMARK  status: ('A' for Active; 'I' for Inactive)
ROOT
HETATM    1  C1  UNL     1     -32.583  18.225  -1.071  1.00 20.00     0.001 C 
HETATM    2  C2  UNL     1     -36.352  17.411  -3.262  1.00 20.00     0.001 C 
HETATM    3  C3  UNL     1     -33.385  17.634  -2.225  1.00 20.00     0.005 C 
HETATM    4  C4  UNL     1     -35.297  16.303  -3.128  1.00 20.00     0.005 C 
HETATM    5  C5  UNL     1     -33.373  19.261  -0.282  1.00 20.00     0.005 C 
HETATM    6  C6  UNL     1     -36.431  18.099  -1.893  1.00 20.00     0.005 C 
HETATM    7  C7  UNL     1     -35.666  19.001   0.928  1.00 20.00     0.010 A 
HETATM    8  C8  UNL     1     -34.511  16.652  -1.849  1.00 20.00    -0.010 C 
HETATM    9  C9  UNL     1     -34.223  18.614   0.756  1.00 20.00    -0.010 A 
HETATM   10  C10 UNL     1     -35.657  17.168  -0.968  1.00 20.00    -0.006 C 
HETATM   11  C11 UNL     1     -35.309  17.629   0.409  1.00 20.00    -0.006 A 
ENDROOT
TORSDOF 0
ENDMDL
MODEL 6
REMARK VINA RESULT:      -4.4     12.096     13.343
REMARK  0 active torsions:
REMARK  status: ('A' for Active; 'I' for Inactive)
ROOT
HETATM    1  C1  UNL     1     -36.733  17.414  -4.309  1.00 20.00     0.001 C 
HETATM    2  C2  UNL     1     -33.879  17.967  -0.958  1.00 20.00     0.001 C 
HETATM    3  C3  UNL     1     -36.383  17.717  -2.855  1.00 20.00     0.005 C 
HETATM    4  C4  UNL     1     -35.190  17.202  -0.722  1.00 20.00     0.005 C 
HETATM    5  C5  UNL     1     -35.525  17.511  -5.231  1.00 20.00     0.005 C 
HETATM    6  C6  UNL     1     -33.340  17.490  -2.312  1.00 20.00     0.005 C 
HETATM    7  C7  UNL     1     -33.255  16.238  -5.103  1.00 20.00     0.010 A 
HETATM    8  C8  UNL     1     -35.580  16.639  -2.102  1.00 20.00    -0.010 C 
HETATM    9  C9  UNL     1     -34.752  16.239  -5.244  1.00 20.00    -0.010 A 
HETATM   10  C10 UNL     1     -34.190  16.267  -2.636  1.00 20.00    -0.006 C 
HETATM   11  C11 UNL     1     -34.118  15.668  -4.002  1.00 20.00    -0.006 A 
ENDROOT
TORSDOF 0
ENDMDL
MODEL 7
REMARK VINA RESULT:      -4.4     12.025     13.504
REMARK  0 active torsions:
REMARK  status: ('A' for Active; 'I' for Inactive)
ROOT
HETATM    1  C1  UNL     1     -34.046  17.260  -6.661  1.00 20.00     0.001 C 
HETATM    2  C2  UNL     1     -35.945  13.318  -5.930  1.00 20.00     0.001 C 
HETATM    3  C3  UNL     1     -34.612  15.917  -7.113  1.00 20.00     0.005 C 
HETATM    4  C4  UNL     1     -34.794  13.432  -6.941  1.00 20.00     0.005 C 
HETATM    5  C5  UNL     1     -34.466  17.621  -5.242  1.00 20.00     0.005 C 
HETATM    6  C6  UNL     1     -35.545  14.177  -4.724  1.00 20.00     0.005 C 
HETATM    7  C7  UNL     1     -34.108  16.284  -3.035  1.00 20.00     0.010 A 
HETATM    8  C8  UNL     1     -33.981  14.659  -6.486  1.00 20.00    -0.010 C 
HETATM    9  C9  UNL     1     -33.559  17.001  -4.238  1.00 20.00    -0.010 A 
HETATM   10  C10 UNL     1     -34.073  14.486  -4.964  1.00 20.00    -0.006 C 
HETATM   11  C11 UNL     1     -33.392  15.509  -4.116  1.00 20.00    -0.006 A 
ENDROOT
TORSDOF 0
ENDMDL
MODEL 8
REMARK VINA RESULT:      -4.4     11.776     12.577
REMARK  0 active torsions:
REMARK  status: ('A' for Active; 'I' for Inactive)
ROOT
HETATM    1  C1  UNL     1     -33.805  14.516  -4.888  1.00 20.00     0.001 C 
HETATM    2  C2  UNL     1     -34.273  17.159  -1.357  1.00 20.00     0.001 C 
HETATM    3  C3  UNL     1     -33.269  15.444  -3.803  1.00 20.00     0.005 C 
HETATM    4  C4  UNL     1     -33.329  17.572  -2.496  1.00 20.00     0.005 C 
HETATM    5  C5  UNL     1     -35.213  14.020  -4.588  1.00 20.00     0.005 C 
HETATM    6  C6  UNL     1     -35.533  16.593  -2.025  1.00 20.00     0.005 C 
HETATM    7  C7  UNL     1     -37.380  15.400  -4.152  1.00 20.00     0.010 A 
HETATM    8  C8  UNL     1     -33.876  16.859  -3.748  1.00 20.00    -0.010 C 
HETATM    9  C9  UNL     1     -36.237  14.999  -5.045  1.00 20.00    -0.010 A 
HETATM   10  C10 UNL     1     -35.383  16.990  -3.489  1.00 20.00    -0.006 C 
HETATM   11  C11 UNL     1     -36.307  16.403  -4.504  1.00 20.00    -0.006 A 
ENDROOT
TORSDOF 0
ENDMDL
MODEL 9
REMARK VINA RESULT:      -4.3     11.943     13.210
REMARK  0 active torsions:
REMARK  status: ('A' for Active; 'I' for Inactive)
ROOT
HETATM    1  C1  UNL     1     -37.104  16.382  -6.189  1.00 20.00     0.001 C 
HETATM    2  C2  UNL     1     -33.576  15.845  -3.555  1.00 20.00     0.001 C 
HETATM    3  C3  UNL     1     -36.245  16.730  -4.978  1.00 20.00     0.005 C 
HETATM    4  C4  UNL     1     -34.958  16.096  -2.933  1.00 20.00     0.005 C 
HETATM    5  C5  UNL     1     -36.360  15.526  -7.206  1.00 20.00     0.005 C 
HETATM    6  C6  UNL     1     -33.795  14.852  -4.703  1.00 20.00     0.005 C 
HETATM    7  C7  UNL     1     -35.203  13.215  -6.871  1.00 20.00     0.010 A 
HETATM    8  C8  UNL     1     -35.966  15.589  -3.981  1.00 20.00    -0.010 C 
HETATM    9  C9  UNL     1     -36.432  14.082  -6.850  1.00 20.00    -0.010 A 
HETATM   10  C10 UNL     1     -35.217  14.350  -4.490  1.00 20.00    -0.006 C 
HETATM   11  C11 UNL     1     -35.876  13.541  -5.558  1.00 20.00    -0.006 A 
ENDROOT
TORSDOF 0
ENDMDL
