MODEL 1
REMARK VINA RESULT:      -5.4      0.000      0.000
REMARK  1 active torsions:
REMARK  status: ('A' for Active; 'I' for Inactive)
REMARK    1  A    between atoms: C4_4  and  C7_7 
ROOT
HETATM    1  C1  UNL     1     -32.213   8.823   1.409  1.00 20.00     0.014 C 
HETATM    2  C2  UNL     1     -32.568   8.037   2.244  1.00 20.00    -0.091 C 
HETATM    3  C3  UNL     1     -32.743   5.629   2.998  1.00 20.00     0.046 A 
HETATM    4  C4  UNL     1     -34.143   6.170   2.907  1.00 20.00     0.024 A 
HETATM    5  C5  UNL     1     -32.993   7.099   3.242  1.00 20.00     0.103 A 
HETATM    6 CL8  UNL     1     -32.795   7.692   4.893  1.00 20.00    -0.105 Cl
ENDROOT
BRANCH   4   7
HETATM    7  C7  UNL     1     -35.167   5.755   3.907  1.00 20.00     0.003 C 
HETATM    8  C6  UNL     1     -34.715   4.605   4.770  1.00 20.00     0.005 C 
ENDBRANCH   4   7
TORSDOF 1
ENDMDL
MODEL 2
REMARK VINA RESULT:      -5.3      1.995      4.052
REMARK  1 active torsions:
REMARK  status: ('A' for Active; 'I' for Inactive)
REMARK    1  A    between atoms: C4_4  and  C7_7 
ROOT
HETATM    1  C1  UNL     1     -33.912   7.238   5.825  1.00 20.00     0.014 C 
HETATM    2  C2  UNL     1     -33.358   7.269   4.761  1.00 20.00    -0.091 C 
HETATM    3  C3  UNL     1     -31.365   8.016   3.392  1.00 20.00     0.046 A 
HETATM    4  C4  UNL     1     -32.587   8.642   2.779  1.00 20.00     0.024 A 
HETATM    5  C5  UNL     1     -32.697   7.308   3.488  1.00 20.00     0.103 A 
HETATM    6 CL8  UNL     1     -32.898   5.826   2.548  1.00 20.00    -0.105 Cl
ENDROOT
BRANCH   4   7
HETATM    7  C7  UNL     1     -32.686   8.784   1.298  1.00 20.00     0.003 C 
HETATM    8  C6  UNL     1     -32.636  10.218   0.840  1.00 20.00     0.005 C 
ENDBRANCH   4   7
TORSDOF 1
ENDMDL
MODEL 3
REMARK VINA RESULT:      -5.1      1.020      3.801
REMARK  1 active torsions:
REMARK  status: ('A' for Active; 'I' for Inactive)
REMARK    1  A    between atoms: C4_4  and  C7_7 
ROOT
HETATM    1  C1  UNL     1     -34.410   4.028   4.617  1.00 20.00     0.014 C 
HETATM    2  C2  UNL     1     -34.113   5.180   4.465  1.00 20.00    -0.091 C 
HETATM    3  C3  UNL     1     -34.391   7.319   3.143  1.00 20.00     0.046 A 
HETATM    4  C4  UNL     1     -32.941   6.932   3.063  1.00 20.00     0.024 A 
HETATM    5  C5  UNL     1     -33.757   6.558   4.284  1.00 20.00     0.103 A 
HETATM    6 CL8  UNL     1     -33.514   7.426   5.802  1.00 20.00    -0.105 Cl
ENDROOT
BRANCH   4   7
HETATM    7  C7  UNL     1     -31.886   7.985   3.084  1.00 20.00     0.003 C 
HETATM    8  C6  UNL     1     -31.877   8.833   1.838  1.00 20.00     0.005 C 
ENDBRANCH   4   7
TORSDOF 1
ENDMDL
MODEL 4
REMARK VINA RESULT:      -4.7      1.587      1.841
REMARK  1 active torsions:
REMARK  status: ('A' for Active; 'I' for Inactive)
REMARK    1  A    between atoms: C4_4  and  C7_7 
ROOT
HETATM    1  C1  UNL     1     -32.158   8.487   1.905  1.00 20.00     0.014 C 
HETATM    2  C2  UNL     1     -32.723   7.610   2.498  1.00 20.00    -0.091 C 
HETATM    3  C3  UNL     1     -34.890   6.680   3.415  1.00 20.00     0.046 A 
HETATM    4  C4  UNL     1     -33.960   6.873   4.580  1.00 20.00     0.024 A 
HETATM    5  C5  UNL     1     -33.398   6.562   3.208  1.00 20.00     0.103 A 
HETATM    6 CL8  UNL     1     -32.752   4.954   2.867  1.00 20.00    -0.105 Cl
ENDROOT
BRANCH   4   7
HETATM    7  C7  UNL     1     -33.956   5.890   5.700  1.00 20.00     0.003 C 
HETATM    8  C6  UNL     1     -34.877   4.721   5.459  1.00 20.00     0.005 C 
ENDBRANCH   4   7
TORSDOF 1
ENDMDL
MODEL 5
REMARK VINA RESULT:      -3.7     10.976     11.810
REMARK  1 active torsions:
REMARK  status: ('A' for Active; 'I' for Inactive)
REMARK    1  A    between atoms: C4_4  and  C7_7 
ROOT
HETATM    1  C1  UNL     1     -35.777  17.479   0.648  1.00 20.00     0.014 C 
HETATM    2  C2  UNL     1     -35.183  17.428  -0.393  1.00 20.00    -0.091 C 
HETATM    3  C3  UNL     1     -35.196  17.773  -2.900  1.00 20.00     0.046 A 
HETATM    4  C4  UNL     1     -34.895  16.321  -2.652  1.00 20.00     0.024 A 
HETATM    5  C5  UNL     1     -34.471  17.365  -1.638  1.00 20.00     0.103 A 
HETATM    6 CL8  UNL     1     -32.770  17.815  -1.498  1.00 20.00    -0.105 Cl
ENDROOT
BRANCH   4   7
HETATM    7  C7  UNL     1     -33.926  15.602  -3.528  1.00 20.00     0.003 C 
HETATM    8  C6  UNL     1     -34.502  14.351  -4.139  1.00 20.00     0.005 C 
ENDBRANCH   4   7
TORSDOF 1
ENDMDL
MODEL 6
REMARK VINA RESULT:      -3.7      1.520      4.075
REMARK  1 active torsions:
REMARK  status: ('A' for Active; 'I' for Inactive)
REMARK    1  A    between atoms: C4_4  and  C7_7 
ROOT
HETATM    1  C1  UNL     1     -33.194   4.974   2.957  1.00 20.00     0.014 C 
HETATM    2  C2  UNL     1     -32.923   6.137   2.842  1.00 20.00    -0.091 C 
HETATM    3  C3  UNL     1     -33.726   8.508   2.479  1.00 20.00     0.046 A 
HETATM    4  C4  UNL     1     -32.795   8.176   1.346  1.00 20.00     0.024 A 
HETATM    5  C5  UNL     1     -32.599   7.527   2.702  1.00 20.00     0.103 A 
HETATM    6 CL8  UNL     1     -31.267   8.045   3.739  1.00 20.00    -0.105 Cl
ENDROOT
BRANCH   4   7
HETATM    7  C7  UNL     1     -31.878   9.219   0.807  1.00 20.00     0.003 C 
HETATM    8  C6  UNL     1     -32.421  10.616   0.959  1.00 20.00     0.005 C 
ENDBRANCH   4   7
TORSDOF 1
ENDMDL
MODEL 7
REMARK VINA RESULT:      -3.7      1.950      3.015
REMARK  1 active torsions:
REMARK  status: ('A' for Active; 'I' for Inactive)
REMARK    1  A    between atoms: C4_4  and  C7_7 
ROOT
HETATM    1  C1  UNL     1     -32.685   3.998   2.213  1.00 20.00     0.014 C 
HETATM    2  C2  UNL     1     -33.157   5.020   2.628  1.00 20.00    -0.091 C 
HETATM    3  C3  UNL     1     -33.190   7.550   2.586  1.00 20.00     0.046 A 
HETATM    4  C4  UNL     1     -32.852   7.132   3.990  1.00 20.00     0.024 A 
HETATM    5  C5  UNL     1     -33.722   6.242   3.125  1.00 20.00     0.103 A 
HETATM    6 CL8  UNL     1     -35.457   6.138   3.437  1.00 20.00    -0.105 Cl
ENDROOT
BRANCH   4   7
HETATM    7  C7  UNL     1     -33.384   7.909   5.146  1.00 20.00     0.003 C 
HETATM    8  C6  UNL     1     -33.848   7.032   6.280  1.00 20.00     0.005 C 
ENDBRANCH   4   7
TORSDOF 1
ENDMDL
MODEL 8
REMARK VINA RESULT:      -3.7     11.395     12.025
REMARK  1 active torsions:
REMARK  status: ('A' for Active; 'I' for Inactive)
REMARK    1  A    between atoms: C4_4  and  C7_7 
ROOT
HETATM    1  C1  UNL     1     -35.525  13.305  -6.664  1.00 20.00     0.014 C 
HETATM    2  C2  UNL     1     -34.814  14.061  -6.062  1.00 20.00    -0.091 C 
HETATM    3  C3  UNL     1     -33.011  14.394  -4.318  1.00 20.00     0.046 A 
HETATM    4  C4  UNL     1     -34.220  15.162  -3.861  1.00 20.00     0.024 A 
HETATM    5  C5  UNL     1     -33.964  14.966  -5.342  1.00 20.00     0.103 A 
HETATM    6 CL8  UNL     1     -33.388  16.317  -6.321  1.00 20.00    -0.105 Cl
ENDROOT
BRANCH   4   7
HETATM    7  C7  UNL     1     -34.052  16.476  -3.177  1.00 20.00     0.003 C 
HETATM    8  C6  UNL     1     -34.930  16.622  -1.961  1.00 20.00     0.005 C 
ENDBRANCH   4   7
TORSDOF 1
ENDMDL
MODEL 9
REMARK VINA RESULT:      -3.6     11.279     12.472
REMARK  1 active torsions:
REMARK  status: ('A' for Active; 'I' for Inactive)
REMARK    1  A    between atoms: C4_4  and  C7_7 
ROOT
HETATM    1  C1  UNL     1     -34.806  16.642  -2.079  1.00 20.00     0.014 C 
HETATM    2  C2  UNL     1     -34.576  15.974  -3.049  1.00 20.00    -0.091 C 
HETATM    3  C3  UNL     1     -32.898  14.656  -4.408  1.00 20.00     0.046 A 
HETATM    4  C4  UNL     1     -33.412  15.762  -5.287  1.00 20.00     0.024 A 
HETATM    5  C5  UNL     1     -34.303  15.176  -4.210  1.00 20.00     0.103 A 
HETATM    6 CL8  UNL     1     -35.634  14.106  -4.656  1.00 20.00    -0.105 Cl
ENDROOT
BRANCH   4   7
HETATM    7  C7  UNL     1     -33.630  15.516  -6.741  1.00 20.00     0.003 C 
HETATM    8  C6  UNL     1     -33.953  16.772  -7.508  1.00 20.00     0.005 C 
ENDBRANCH   4   7
TORSDOF 1
ENDMDL
