MODEL 1
REMARK VINA RESULT:      -6.7      0.000      0.000
REMARK  2 active torsions:
REMARK  status: ('A' for Active; 'I' for Inactive)
REMARK    1  A    between atoms: C4_4  and  C10_10 
REMARK    2  A    between atoms: C5_5  and  C11_11 
ROOT
HETATM    1  C1  UNL     1     -31.987   8.074   3.953  1.00 20.00     0.004 A 
HETATM    2  C2  UNL     1     -31.530   8.711   2.866  1.00 20.00    -0.017 A 
HETATM    3  C3  UNL     1     -33.263   7.265   2.254  1.00 20.00    -0.011 A 
HETATM    4  C4  UNL     1     -33.057   7.180   3.578  1.00 20.00    -0.058 A 
HETATM    5  C5  UNL     1     -32.303   8.260   1.653  1.00 20.00     0.034 A 
ENDROOT
BRANCH   4   6
HETATM    6  C10 UNL     1     -33.766   6.329   4.563  1.00 20.00     0.010 C 
HETATM    7  C6  UNL     1     -33.947   7.069   5.890  1.00 20.00     0.015 C 
HETATM    8  C7  UNL     1     -35.123   5.865   4.023  1.00 20.00     0.015 C 
ENDBRANCH   4   6
BRANCH   5   9
HETATM    9  C11 UNL     1     -33.020   9.413   0.965  1.00 20.00    -0.012 C 
HETATM   10  C8  UNL     1     -32.379  10.750   1.341  1.00 20.00     0.010 C 
HETATM   11  C9  UNL     1     -33.013   9.226  -0.552  1.00 20.00     0.010 C 
ENDBRANCH   5   9
TORSDOF 2
ENDMDL
MODEL 2
REMARK VINA RESULT:      -6.7      0.552      1.584
REMARK  2 active torsions:
REMARK  status: ('A' for Active; 'I' for Inactive)
REMARK    1  A    between atoms: C4_4  and  C10_10 
REMARK    2  A    between atoms: C5_5  and  C11_11 
ROOT
HETATM    1  C1  UNL     1     -31.976   8.142   3.877  1.00 20.00     0.004 A 
HETATM    2  C2  UNL     1     -31.221   8.621   2.879  1.00 20.00    -0.017 A 
HETATM    3  C3  UNL     1     -33.105   7.557   1.992  1.00 20.00    -0.011 A 
HETATM    4  C4  UNL     1     -33.140   7.485   3.332  1.00 20.00    -0.058 A 
HETATM    5  C5  UNL     1     -31.865   8.296   1.556  1.00 20.00     0.034 A 
ENDROOT
BRANCH   4   6
HETATM    6  C10 UNL     1     -34.169   6.848   4.190  1.00 20.00     0.010 C 
HETATM    7  C6  UNL     1     -34.292   5.355   3.875  1.00 20.00     0.015 C 
HETATM    8  C7  UNL     1     -33.860   7.055   5.676  1.00 20.00     0.015 C 
ENDBRANCH   4   6
BRANCH   5   9
HETATM    9  C11 UNL     1     -32.192   9.547   0.751  1.00 20.00    -0.012 C 
HETATM   10  C8  UNL     1     -33.102   9.207  -0.430  1.00 20.00     0.010 C 
HETATM   11  C9  UNL     1     -32.843  10.607   1.639  1.00 20.00     0.010 C 
ENDBRANCH   5   9
TORSDOF 2
ENDMDL
MODEL 3
REMARK VINA RESULT:      -6.2      1.065      4.799
REMARK  2 active torsions:
REMARK  status: ('A' for Active; 'I' for Inactive)
REMARK    1  A    between atoms: C4_4  and  C10_10 
REMARK    2  A    between atoms: C5_5  and  C11_11 
ROOT
HETATM    1  C1  UNL     1     -33.426   7.004   1.688  1.00 20.00     0.004 A 
HETATM    2  C2  UNL     1     -33.790   6.034   2.538  1.00 20.00    -0.017 A 
HETATM    3  C3  UNL     1     -32.452   7.592   3.658  1.00 20.00    -0.011 A 
HETATM    4  C4  UNL     1     -32.599   7.967   2.377  1.00 20.00    -0.058 A 
HETATM    5  C5  UNL     1     -33.203   6.307   3.899  1.00 20.00     0.034 A 
ENDROOT
BRANCH   4   6
HETATM    6  C10 UNL     1     -32.035   9.160   1.701  1.00 20.00     0.010 C 
HETATM    7  C6  UNL     1     -31.304   8.763   0.416  1.00 20.00     0.015 C 
HETATM    8  C7  UNL     1     -33.124  10.194   1.395  1.00 20.00     0.015 C 
ENDBRANCH   4   6
BRANCH   5   9
HETATM    9  C11 UNL     1     -34.274   6.456   4.971  1.00 20.00    -0.012 C 
HETATM   10  C8  UNL     1     -34.660   5.091   5.543  1.00 20.00     0.010 C 
HETATM   11  C9  UNL     1     -33.798   7.386   6.086  1.00 20.00     0.010 C 
ENDBRANCH   5   9
TORSDOF 2
ENDMDL
MODEL 4
REMARK VINA RESULT:      -5.9      1.042      4.564
REMARK  2 active torsions:
REMARK  status: ('A' for Active; 'I' for Inactive)
REMARK    1  A    between atoms: C4_4  and  C10_10 
REMARK    2  A    between atoms: C5_5  and  C11_11 
ROOT
HETATM    1  C1  UNL     1     -31.619   8.103   2.995  1.00 20.00     0.004 A 
HETATM    2  C2  UNL     1     -32.249   7.338   3.898  1.00 20.00    -0.017 A 
HETATM    3  C3  UNL     1     -33.782   8.078   2.294  1.00 20.00    -0.011 A 
HETATM    4  C4  UNL     1     -32.563   8.562   2.005  1.00 20.00    -0.058 A 
HETATM    5  C5  UNL     1     -33.710   7.239   3.545  1.00 20.00     0.034 A 
ENDROOT
BRANCH   4   6
HETATM    6  C10 UNL     1     -32.169   9.434   0.872  1.00 20.00     0.010 C 
HETATM    7  C6  UNL     1     -32.961   9.081  -0.389  1.00 20.00     0.015 C 
HETATM    8  C7  UNL     1     -32.354  10.915   1.220  1.00 20.00     0.015 C 
ENDBRANCH   4   6
BRANCH   5   9
HETATM    9  C11 UNL     1     -34.148   5.801   3.301  1.00 20.00    -0.012 C 
HETATM   10  C8  UNL     1     -32.994   4.973   2.735  1.00 20.00     0.010 C 
HETATM   11  C9  UNL     1     -34.675   5.170   4.590  1.00 20.00     0.010 C 
ENDBRANCH   5   9
TORSDOF 2
ENDMDL
MODEL 5
REMARK VINA RESULT:      -5.7      1.144      2.469
REMARK  2 active torsions:
REMARK  status: ('A' for Active; 'I' for Inactive)
REMARK    1  A    between atoms: C4_4  and  C10_10 
REMARK    2  A    between atoms: C5_5  and  C11_11 
ROOT
HETATM    1  C1  UNL     1     -33.506   5.319   3.124  1.00 20.00     0.004 A 
HETATM    2  C2  UNL     1     -33.030   5.861   1.995  1.00 20.00    -0.017 A 
HETATM    3  C3  UNL     1     -33.885   7.547   3.371  1.00 20.00    -0.011 A 
HETATM    4  C4  UNL     1     -34.035   6.358   3.976  1.00 20.00    -0.058 A 
HETATM    5  C5  UNL     1     -33.223   7.356   2.031  1.00 20.00     0.034 A 
ENDROOT
BRANCH   4   6
HETATM    6  C10 UNL     1     -34.637   6.072   5.300  1.00 20.00     0.010 C 
HETATM    7  C6  UNL     1     -34.493   4.590   5.655  1.00 20.00     0.015 C 
HETATM    8  C7  UNL     1     -34.016   6.945   6.395  1.00 20.00     0.015 C 
ENDBRANCH   4   6
BRANCH   5   9
HETATM    9  C11 UNL     1     -31.904   8.110   1.925  1.00 20.00    -0.012 C 
HETATM   10  C8  UNL     1     -32.072   9.377   1.086  1.00 20.00     0.010 C 
HETATM   11  C9  UNL     1     -31.367   8.457   3.313  1.00 20.00     0.010 C 
ENDBRANCH   5   9
TORSDOF 2
ENDMDL
MODEL 6
REMARK VINA RESULT:      -5.6      1.340      4.857
REMARK  2 active torsions:
REMARK  status: ('A' for Active; 'I' for Inactive)
REMARK    1  A    between atoms: C4_4  and  C10_10 
REMARK    2  A    between atoms: C5_5  and  C11_11 
ROOT
HETATM    1  C1  UNL     1     -33.391   7.732   4.466  1.00 20.00     0.004 A 
HETATM    2  C2  UNL     1     -34.420   7.038   4.972  1.00 20.00    -0.017 A 
HETATM    3  C3  UNL     1     -33.949   6.274   2.812  1.00 20.00    -0.011 A 
HETATM    4  C4  UNL     1     -33.098   7.262   3.132  1.00 20.00    -0.058 A 
HETATM    5  C5  UNL     1     -34.891   6.023   3.962  1.00 20.00     0.034 A 
ENDROOT
BRANCH   4   6
HETATM    6  C10 UNL     1     -32.010   7.838   2.306  1.00 20.00     0.010 C 
HETATM    7  C6  UNL     1     -32.567   8.846   1.298  1.00 20.00     0.015 C 
HETATM    8  C7  UNL     1     -30.937   8.497   3.180  1.00 20.00     0.015 C 
ENDBRANCH   4   6
BRANCH   5   9
HETATM    9  C11 UNL     1     -34.794   4.598   4.489  1.00 20.00    -0.012 C 
HETATM   10  C8  UNL     1     -33.744   3.804   3.710  1.00 20.00     0.010 C 
HETATM   11  C9  UNL     1     -34.466   4.594   5.982  1.00 20.00     0.010 C 
ENDBRANCH   5   9
TORSDOF 2
ENDMDL
MODEL 7
REMARK VINA RESULT:      -4.9      9.914     10.942
REMARK  2 active torsions:
REMARK  status: ('A' for Active; 'I' for Inactive)
REMARK    1  A    between atoms: C4_4  and  C10_10 
REMARK    2  A    between atoms: C5_5  and  C11_11 
ROOT
HETATM    1  C1  UNL     1     -33.336  16.810  -4.751  1.00 20.00     0.004 A 
HETATM    2  C2  UNL     1     -33.353  16.000  -5.819  1.00 20.00    -0.017 A 
HETATM    3  C3  UNL     1     -34.078  14.822  -3.933  1.00 20.00    -0.011 A 
HETATM    4  C4  UNL     1     -33.783  16.085  -3.585  1.00 20.00    -0.058 A 
HETATM    5  C5  UNL     1     -33.832  14.631  -5.408  1.00 20.00     0.034 A 
ENDROOT
BRANCH   4   6
HETATM    6  C10 UNL     1     -33.872  16.710  -2.244  1.00 20.00     0.010 C 
HETATM    7  C6  UNL     1     -33.209  18.090  -2.242  1.00 20.00     0.015 C 
HETATM    8  C7  UNL     1     -35.327  16.818  -1.775  1.00 20.00     0.015 C 
ENDBRANCH   4   6
BRANCH   5   9
HETATM    9  C11 UNL     1     -35.092  14.214  -6.155  1.00 20.00    -0.012 C 
HETATM   10  C8  UNL     1     -34.740  13.371  -7.381  1.00 20.00     0.010 C 
HETATM   11  C9  UNL     1     -36.037  13.444  -5.232  1.00 20.00     0.010 C 
ENDBRANCH   5   9
TORSDOF 2
ENDMDL
MODEL 8
REMARK VINA RESULT:      -4.8      9.693     10.749
REMARK  2 active torsions:
REMARK  status: ('A' for Active; 'I' for Inactive)
REMARK    1  A    between atoms: C4_4  and  C10_10 
REMARK    2  A    between atoms: C5_5  and  C11_11 
ROOT
HETATM    1  C1  UNL     1     -35.081  17.021  -1.241  1.00 20.00     0.004 A 
HETATM    2  C2  UNL     1     -35.388  16.370  -2.372  1.00 20.00    -0.017 A 
HETATM    3  C3  UNL     1     -33.427  17.604  -2.688  1.00 20.00    -0.011 A 
HETATM    4  C4  UNL     1     -33.871  17.784  -1.434  1.00 20.00    -0.058 A 
HETATM    5  C5  UNL     1     -34.356  16.675  -3.427  1.00 20.00     0.034 A 
ENDROOT
BRANCH   4   6
HETATM    6  C10 UNL     1     -33.276  18.617  -0.362  1.00 20.00     0.010 C 
HETATM    7  C6  UNL     1     -33.997  18.388   0.969  1.00 20.00     0.015 C 
HETATM    8  C7  UNL     1     -31.776  18.339  -0.209  1.00 20.00     0.015 C 
ENDBRANCH   4   6
BRANCH   5   9
HETATM    9  C11 UNL     1     -33.647  15.420  -3.920  1.00 20.00    -0.012 C 
HETATM   10  C8  UNL     1     -34.630  14.256  -4.041  1.00 20.00     0.010 C 
HETATM   11  C9  UNL     1     -32.959  15.679  -5.260  1.00 20.00     0.010 C 
ENDBRANCH   5   9
TORSDOF 2
ENDMDL
MODEL 9
REMARK VINA RESULT:      -4.6      9.957     11.020
REMARK  2 active torsions:
REMARK  status: ('A' for Active; 'I' for Inactive)
REMARK    1  A    between atoms: C4_4  and  C10_10 
REMARK    2  A    between atoms: C5_5  and  C11_11 
ROOT
HETATM    1  C1  UNL     1     -35.767  16.465  -2.555  1.00 20.00     0.004 A 
HETATM    2  C2  UNL     1     -35.455  17.050  -1.390  1.00 20.00    -0.017 A 
HETATM    3  C3  UNL     1     -33.498  16.611  -2.593  1.00 20.00    -0.011 A 
HETATM    4  C4  UNL     1     -34.560  16.193  -3.299  1.00 20.00    -0.058 A 
HETATM    5  C5  UNL     1     -33.959  17.208  -1.288  1.00 20.00     0.034 A 
ENDROOT
BRANCH   4   6
HETATM    6  C10 UNL     1     -34.577  15.543  -4.632  1.00 20.00     0.010 C 
HETATM    7  C6  UNL     1     -33.212  15.666  -5.314  1.00 20.00     0.015 C 
HETATM    8  C7  UNL     1     -34.990  14.071  -4.529  1.00 20.00     0.015 C 
ENDBRANCH   4   6
BRANCH   5   9
HETATM    9  C11 UNL     1     -33.542  18.665  -1.140  1.00 20.00    -0.012 C 
HETATM   10  C8  UNL     1     -32.373  18.796  -0.162  1.00 20.00     0.010 C 
HETATM   11  C9  UNL     1     -33.172  19.263  -2.497  1.00 20.00     0.010 C 
ENDBRANCH   5   9
TORSDOF 2
ENDMDL
