MODEL 1
REMARK VINA RESULT:      -6.6      0.000      0.000
REMARK  1 active torsions:
REMARK  status: ('A' for Active; 'I' for Inactive)
REMARK    1  A    between atoms: C1_1  and  C6_6 
ROOT
HETATM    1  C1  UNL     1     -33.108   7.162   3.222  1.00 20.00    -0.029 A 
HETATM    2  C2  UNL     1     -33.738   7.015   4.402  1.00 20.00     0.168 A 
HETATM    3  C3  UNL     1     -33.747   5.941   2.609  1.00 20.00     0.124 A 
HETATM    4  C7  UNL     1     -34.471   5.753   3.965  1.00 20.00     0.300 A 
HETATM    5  F8  UNL     1     -33.725   7.713   5.545  1.00 20.00    -0.204 F 
HETATM    6  F9  UNL     1     -34.175   4.598   4.608  1.00 20.00    -0.198 F 
HETATM    7  F10 UNL     1     -35.824   5.803   3.895  1.00 20.00    -0.198 F 
ENDROOT
BRANCH   1   8
HETATM    8  C6  UNL     1     -32.113   8.214   2.722  1.00 20.00     0.018 A 
HETATM    9  C4  UNL     1     -31.643   8.324   1.270  1.00 20.00     0.010 A 
HETATM   10  C5  UNL     1     -32.497   9.411   1.851  1.00 20.00     0.010 A 
ENDBRANCH   1   8
TORSDOF 1
ENDMDL
MODEL 2
REMARK VINA RESULT:      -6.4      2.036      4.032
REMARK  1 active torsions:
REMARK  status: ('A' for Active; 'I' for Inactive)
REMARK    1  A    between atoms: C1_1  and  C6_6 
ROOT
HETATM    1  C1  UNL     1     -33.595   6.587   3.692  1.00 20.00    -0.029 A 
HETATM    2  C2  UNL     1     -32.953   7.578   4.336  1.00 20.00     0.168 A 
HETATM    3  C3  UNL     1     -32.910   6.854   2.375  1.00 20.00     0.124 A 
HETATM    4  C7  UNL     1     -32.171   8.006   3.100  1.00 20.00     0.300 A 
HETATM    5  F8  UNL     1     -32.988   8.032   5.595  1.00 20.00    -0.204 F 
HETATM    6  F9  UNL     1     -32.414   9.239   2.595  1.00 20.00    -0.198 F 
HETATM    7  F10 UNL     1     -30.822   7.878   3.133  1.00 20.00    -0.198 F 
ENDROOT
BRANCH   1   8
HETATM    8  C6  UNL     1     -34.637   5.569   4.169  1.00 20.00     0.018 A 
HETATM    9  C4  UNL     1     -34.327   4.099   4.455  1.00 20.00     0.010 A 
HETATM   10  C5  UNL     1     -34.696   5.006   5.589  1.00 20.00     0.010 A 
ENDBRANCH   1   8
TORSDOF 1
ENDMDL
MODEL 3
REMARK VINA RESULT:      -6.3      1.078      2.038
REMARK  1 active torsions:
REMARK  status: ('A' for Active; 'I' for Inactive)
REMARK    1  A    between atoms: C1_1  and  C6_6 
ROOT
HETATM    1  C1  UNL     1     -33.077   6.829   3.278  1.00 20.00    -0.029 A 
HETATM    2  C2  UNL     1     -33.535   5.572   3.135  1.00 20.00     0.168 A 
HETATM    3  C3  UNL     1     -33.966   7.133   4.458  1.00 20.00     0.124 A 
HETATM    4  C7  UNL     1     -34.510   5.691   4.300  1.00 20.00     0.300 A 
HETATM    5  F8  UNL     1     -33.248   4.579   2.283  1.00 20.00    -0.204 F 
HETATM    6  F9  UNL     1     -35.834   5.615   4.023  1.00 20.00    -0.198 F 
HETATM    7  F10 UNL     1     -34.309   4.891   5.375  1.00 20.00    -0.198 F 
ENDROOT
BRANCH   1   8
HETATM    8  C6  UNL     1     -32.022   7.624   2.501  1.00 20.00     0.018 A 
HETATM    9  C4  UNL     1     -32.354   8.682   1.448  1.00 20.00     0.010 A 
HETATM   10  C5  UNL     1     -31.718   9.104   2.738  1.00 20.00     0.010 A 
ENDBRANCH   1   8
TORSDOF 1
ENDMDL
MODEL 4
REMARK VINA RESULT:      -6.1      2.254      4.228
REMARK  1 active torsions:
REMARK  status: ('A' for Active; 'I' for Inactive)
REMARK    1  A    between atoms: C1_1  and  C6_6 
ROOT
HETATM    1  C1  UNL     1     -33.845   6.572   3.724  1.00 20.00    -0.029 A 
HETATM    2  C2  UNL     1     -32.915   6.273   2.798  1.00 20.00     0.168 A 
HETATM    3  C3  UNL     1     -33.546   8.050   3.700  1.00 20.00     0.124 A 
HETATM    4  C7  UNL     1     -32.465   7.720   2.641  1.00 20.00     0.300 A 
HETATM    5  F8  UNL     1     -32.521   5.128   2.226  1.00 20.00    -0.204 F 
HETATM    6  F9  UNL     1     -31.199   8.030   3.010  1.00 20.00    -0.198 F 
HETATM    7  F10 UNL     1     -32.656   8.312   1.437  1.00 20.00    -0.198 F 
ENDROOT
BRANCH   1   8
HETATM    8  C6  UNL     1     -34.835   5.693   4.494  1.00 20.00     0.018 A 
HETATM    9  C4  UNL     1     -34.576   4.230   4.858  1.00 20.00     0.010 A 
HETATM   10  C5  UNL     1     -34.642   5.257   5.948  1.00 20.00     0.010 A 
ENDBRANCH   1   8
TORSDOF 1
ENDMDL
MODEL 5
REMARK VINA RESULT:      -5.5      3.593      4.926
REMARK  1 active torsions:
REMARK  status: ('A' for Active; 'I' for Inactive)
REMARK    1  A    between atoms: C1_1  and  C6_6 
ROOT
HETATM    1  C1  UNL     1     -32.558   8.486   1.984  1.00 20.00    -0.029 A 
HETATM    2  C2  UNL     1     -31.776   8.792   0.932  1.00 20.00     0.168 A 
HETATM    3  C3  UNL     1     -33.499   9.643   1.757  1.00 20.00     0.124 A 
HETATM    4  C7  UNL     1     -32.603  10.014   0.549  1.00 20.00     0.300 A 
HETATM    5  F8  UNL     1     -30.674   8.237   0.412  1.00 20.00    -0.204 F 
HETATM    6  F9  UNL     1     -32.011  11.229   0.637  1.00 20.00    -0.198 F 
HETATM    7  F10 UNL     1     -33.236   9.995  -0.650  1.00 20.00    -0.198 F 
ENDROOT
BRANCH   1   8
HETATM    8  C6  UNL     1     -32.483   7.353   3.013  1.00 20.00     0.018 A 
HETATM    9  C4  UNL     1     -33.587   7.046   4.027  1.00 20.00     0.010 A 
HETATM   10  C5  UNL     1     -33.304   6.065   2.929  1.00 20.00     0.010 A 
ENDBRANCH   1   8
TORSDOF 1
ENDMDL
MODEL 6
REMARK VINA RESULT:      -5.5      2.543      4.197
REMARK  1 active torsions:
REMARK  status: ('A' for Active; 'I' for Inactive)
REMARK    1  A    between atoms: C1_1  and  C6_6 
ROOT
HETATM    1  C1  UNL     1     -32.697   7.460   3.672  1.00 20.00    -0.029 A 
HETATM    2  C2  UNL     1     -33.109   7.340   2.397  1.00 20.00     0.168 A 
HETATM    3  C3  UNL     1     -31.753   8.597   3.372  1.00 20.00     0.124 A 
HETATM    4  C7  UNL     1     -32.210   8.464   1.898  1.00 20.00     0.300 A 
HETATM    5  F8  UNL     1     -33.983   6.530   1.785  1.00 20.00    -0.204 F 
HETATM    6  F9  UNL     1     -31.224   8.142   1.027  1.00 20.00    -0.198 F 
HETATM    7  F10 UNL     1     -32.808   9.570   1.391  1.00 20.00    -0.198 F 
ENDROOT
BRANCH   1   8
HETATM    8  C6  UNL     1     -33.082   6.696   4.944  1.00 20.00     0.018 A 
HETATM    9  C4  UNL     1     -33.992   7.261   6.037  1.00 20.00     0.010 A 
HETATM   10  C5  UNL     1     -34.470   6.110   5.203  1.00 20.00     0.010 A 
ENDBRANCH   1   8
TORSDOF 1
ENDMDL
MODEL 7
REMARK VINA RESULT:      -4.4     10.933     11.510
REMARK  1 active torsions:
REMARK  status: ('A' for Active; 'I' for Inactive)
REMARK    1  A    between atoms: C1_1  and  C6_6 
ROOT
HETATM    1  C1  UNL     1     -35.193  15.984  -3.480  1.00 20.00    -0.029 A 
HETATM    2  C2  UNL     1     -34.294  15.133  -4.007  1.00 20.00     0.168 A 
HETATM    3  C3  UNL     1     -36.360  15.377  -4.218  1.00 20.00     0.124 A 
HETATM    4  C7  UNL     1     -35.335  14.396  -4.841  1.00 20.00     0.300 A 
HETATM    5  F8  UNL     1     -32.971  14.985  -3.862  1.00 20.00    -0.204 F 
HETATM    6  F9  UNL     1     -35.230  14.471  -6.190  1.00 20.00    -0.198 F 
HETATM    7  F10 UNL     1     -35.560  13.090  -4.558  1.00 20.00    -0.198 F 
ENDROOT
BRANCH   1   8
HETATM    8  C6  UNL     1     -35.041  17.137  -2.483  1.00 20.00     0.018 A 
HETATM    9  C4  UNL     1     -35.333  17.017  -0.986  1.00 20.00     0.010 A 
HETATM   10  C5  UNL     1     -33.922  17.229  -1.444  1.00 20.00     0.010 A 
ENDBRANCH   1   8
TORSDOF 1
ENDMDL
MODEL 8
REMARK VINA RESULT:      -4.3     10.676     11.679
REMARK  1 active torsions:
REMARK  status: ('A' for Active; 'I' for Inactive)
REMARK    1  A    between atoms: C1_1  and  C6_6 
ROOT
HETATM    1  C1  UNL     1     -35.038  15.655  -3.836  1.00 20.00    -0.029 A 
HETATM    2  C2  UNL     1     -35.919  15.353  -4.807  1.00 20.00     0.168 A 
HETATM    3  C3  UNL     1     -34.233  14.394  -4.025  1.00 20.00     0.124 A 
HETATM    4  C7  UNL     1     -35.246  14.027  -5.139  1.00 20.00     0.300 A 
HETATM    5  F8  UNL     1     -36.995  15.978  -5.300  1.00 20.00    -0.204 F 
HETATM    6  F9  UNL     1     -35.947  12.890  -4.912  1.00 20.00    -0.198 F 
HETATM    7  F10 UNL     1     -34.701  13.888  -6.373  1.00 20.00    -0.198 F 
ENDROOT
BRANCH   1   8
HETATM    8  C6  UNL     1     -34.926  16.865  -2.902  1.00 20.00     0.018 A 
HETATM    9  C4  UNL     1     -35.294  16.835  -1.417  1.00 20.00     0.010 A 
HETATM   10  C5  UNL     1     -33.860  17.013  -1.816  1.00 20.00     0.010 A 
ENDBRANCH   1   8
TORSDOF 1
ENDMDL
MODEL 9
REMARK VINA RESULT:      -4.2     11.063     11.868
REMARK  1 active torsions:
REMARK  status: ('A' for Active; 'I' for Inactive)
REMARK    1  A    between atoms: C1_1  and  C6_6 
ROOT
HETATM    1  C1  UNL     1     -34.876  14.962  -4.137  1.00 20.00    -0.029 A 
HETATM    2  C2  UNL     1     -33.557  15.179  -3.983  1.00 20.00     0.168 A 
HETATM    3  C3  UNL     1     -35.275  16.253  -3.465  1.00 20.00     0.124 A 
HETATM    4  C7  UNL     1     -33.759  16.511  -3.272  1.00 20.00     0.300 A 
HETATM    5  F8  UNL     1     -32.464  14.482  -4.321  1.00 20.00    -0.204 F 
HETATM    6  F9  UNL     1     -33.363  16.603  -1.980  1.00 20.00    -0.198 F 
HETATM    7  F10 UNL     1     -33.295  17.628  -3.884  1.00 20.00    -0.198 F 
ENDROOT
BRANCH   1   8
HETATM    8  C6  UNL     1     -35.651  13.806  -4.778  1.00 20.00     0.018 A 
HETATM    9  C4  UNL     1     -36.847  13.994  -5.713  1.00 20.00     0.010 A 
HETATM   10  C5  UNL     1     -35.566  13.436  -6.259  1.00 20.00     0.010 A 
ENDBRANCH   1   8
TORSDOF 1
ENDMDL
