MODEL 1
REMARK VINA RESULT:      -6.8      0.000      0.000
REMARK  0 active torsions:
REMARK  status: ('A' for Active; 'I' for Inactive)
ROOT
HETATM    1  C1  UNL     1     -31.604   8.588   2.780  1.00 20.00     0.001 C 
HETATM    2  C2  UNL     1     -32.175   8.726   4.202  1.00 20.00     0.005 C 
HETATM    3  C3  UNL     1     -32.158   7.271   2.212  1.00 20.00     0.005 C 
HETATM    4  C4  UNL     1     -33.791   7.247   5.595  1.00 20.00     0.011 C 
HETATM    5  C5  UNL     1     -34.314   5.807   5.671  1.00 20.00     0.079 C 
HETATM    6  C6  UNL     1     -33.736   5.461   3.200  1.00 20.00     0.084 C 
HETATM    7  C7  UNL     1     -32.728   7.344   4.511  1.00 20.00    -0.010 C 
HETATM    8  C8  UNL     1     -33.295   6.915   3.159  1.00 20.00    -0.005 C 
HETATM    9  C9  UNL     1     -34.767   5.276   4.311  1.00 20.00     0.244 C 
HETATM   10  F10 UNL     1     -35.915   5.913   3.956  1.00 20.00    -0.206 F 
HETATM   11  F11 UNL     1     -35.080   3.961   4.423  1.00 20.00    -0.206 F 
ENDROOT
TORSDOF 0
ENDMDL
MODEL 2
REMARK VINA RESULT:      -6.1      1.103      2.281
REMARK  0 active torsions:
REMARK  status: ('A' for Active; 'I' for Inactive)
ROOT
HETATM    1  C1  UNL     1     -31.646   8.486   2.614  1.00 20.00     0.001 C 
HETATM    2  C2  UNL     1     -32.555   7.414   1.991  1.00 20.00     0.005 C 
HETATM    3  C3  UNL     1     -31.968   8.514   4.117  1.00 20.00     0.005 C 
HETATM    4  C4  UNL     1     -34.317   5.800   3.007  1.00 20.00     0.011 C 
HETATM    5  C5  UNL     1     -35.211   5.647   4.244  1.00 20.00     0.079 C 
HETATM    6  C6  UNL     1     -33.637   7.164   5.578  1.00 20.00     0.084 C 
HETATM    7  C7  UNL     1     -33.586   7.133   3.073  1.00 20.00    -0.010 C 
HETATM    8  C8  UNL     1     -32.748   7.227   4.347  1.00 20.00    -0.005 C 
HETATM    9  C9  UNL     1     -34.449   5.871   5.550  1.00 20.00     0.244 C 
HETATM   10  F10 UNL     1     -33.609   4.820   5.750  1.00 20.00    -0.206 F 
HETATM   11  F11 UNL     1     -35.322   5.863   6.588  1.00 20.00    -0.206 F 
ENDROOT
TORSDOF 0
ENDMDL
MODEL 3
REMARK VINA RESULT:      -6.1      2.298      4.137
REMARK  0 active torsions:
REMARK  status: ('A' for Active; 'I' for Inactive)
ROOT
HETATM    1  C1  UNL     1     -34.832   5.792   6.022  1.00 20.00     0.001 C 
HETATM    2  C2  UNL     1     -34.962   5.271   4.580  1.00 20.00     0.005 C 
HETATM    3  C3  UNL     1     -33.790   6.921   5.987  1.00 20.00     0.005 C 
HETATM    4  C4  UNL     1     -33.836   5.980   2.350  1.00 20.00     0.011 C 
HETATM    5  C5  UNL     1     -32.596   6.716   1.829  1.00 20.00     0.079 C 
HETATM    6  C6  UNL     1     -32.382   7.951   4.063  1.00 20.00     0.084 C 
HETATM    7  C7  UNL     1     -33.758   5.866   3.865  1.00 20.00    -0.010 C 
HETATM    8  C8  UNL     1     -33.656   7.249   4.507  1.00 20.00    -0.005 C 
HETATM    9  C9  UNL     1     -32.364   8.050   2.539  1.00 20.00     0.244 C 
HETATM   10  F10 UNL     1     -33.326   8.926   2.144  1.00 20.00    -0.206 F 
HETATM   11  F11 UNL     1     -31.181   8.576   2.135  1.00 20.00    -0.206 F 
ENDROOT
TORSDOF 0
ENDMDL
MODEL 4
REMARK VINA RESULT:      -5.3      2.487      3.899
REMARK  0 active torsions:
REMARK  status: ('A' for Active; 'I' for Inactive)
ROOT
HETATM    1  C1  UNL     1     -34.649   4.264   4.509  1.00 20.00     0.001 C 
HETATM    2  C2  UNL     1     -34.408   5.330   5.590  1.00 20.00     0.005 C 
HETATM    3  C3  UNL     1     -34.028   4.806   3.212  1.00 20.00     0.005 C 
HETATM    4  C4  UNL     1     -33.199   7.628   5.549  1.00 20.00     0.011 C 
HETATM    5  C5  UNL     1     -32.758   8.719   4.566  1.00 20.00     0.079 C 
HETATM    6  C6  UNL     1     -32.777   7.013   2.655  1.00 20.00     0.084 C 
HETATM    7  C7  UNL     1     -33.987   6.562   4.803  1.00 20.00    -0.010 C 
HETATM    8  C8  UNL     1     -33.146   5.954   3.682  1.00 20.00    -0.005 C 
HETATM    9  C9  UNL     1     -32.029   8.151   3.348  1.00 20.00     0.244 C 
HETATM   10  F10 UNL     1     -30.809   7.698   3.742  1.00 20.00    -0.206 F 
HETATM   11  F11 UNL     1     -31.797   9.146   2.457  1.00 20.00    -0.206 F 
ENDROOT
TORSDOF 0
ENDMDL
MODEL 5
REMARK VINA RESULT:      -4.7     11.705     12.317
REMARK  0 active torsions:
REMARK  status: ('A' for Active; 'I' for Inactive)
ROOT
HETATM    1  C1  UNL     1     -34.411  17.545  -1.262  1.00 20.00     0.001 C 
HETATM    2  C2  UNL     1     -33.272  17.090  -2.189  1.00 20.00     0.005 C 
HETATM    3  C3  UNL     1     -35.712  16.983  -1.858  1.00 20.00     0.005 C 
HETATM    4  C4  UNL     1     -33.235  15.637  -4.341  1.00 20.00     0.011 C 
HETATM    5  C5  UNL     1     -34.160  15.163  -5.468  1.00 20.00     0.079 C 
HETATM    6  C6  UNL     1     -36.198  15.543  -3.964  1.00 20.00     0.084 C 
HETATM    7  C7  UNL     1     -33.989  16.604  -3.439  1.00 20.00    -0.010 C 
HETATM    8  C8  UNL     1     -35.234  15.939  -2.856  1.00 20.00    -0.005 C 
HETATM    9  C9  UNL     1     -35.487  14.613  -4.945  1.00 20.00     0.244 C 
HETATM   10  F10 UNL     1     -35.254  13.423  -4.331  1.00 20.00    -0.206 F 
HETATM   11  F11 UNL     1     -36.309  14.348  -5.991  1.00 20.00    -0.206 F 
ENDROOT
TORSDOF 0
ENDMDL
MODEL 6
REMARK VINA RESULT:      -4.6     11.792     12.571
REMARK  0 active torsions:
REMARK  status: ('A' for Active; 'I' for Inactive)
ROOT
HETATM    1  C1  UNL     1     -34.895  18.228   1.394  1.00 20.00     0.001 C 
HETATM    2  C2  UNL     1     -33.603  18.468   0.596  1.00 20.00     0.005 C 
HETATM    3  C3  UNL     1     -35.903  17.601   0.417  1.00 20.00     0.005 C 
HETATM    4  C4  UNL     1     -32.945  17.977  -1.868  1.00 20.00     0.011 C 
HETATM    5  C5  UNL     1     -33.585  17.725  -3.239  1.00 20.00     0.079 C 
HETATM    6  C6  UNL     1     -35.749  16.967  -2.097  1.00 20.00     0.084 C 
HETATM    7  C7  UNL     1     -34.031  18.305  -0.855  1.00 20.00    -0.010 C 
HETATM    8  C8  UNL     1     -35.046  17.167  -0.763  1.00 20.00    -0.005 C 
HETATM    9  C9  UNL     1     -34.708  16.690  -3.180  1.00 20.00     0.244 C 
HETATM   10  F10 UNL     1     -34.160  15.465  -2.960  1.00 20.00    -0.206 F 
HETATM   11  F11 UNL     1     -35.321  16.622  -4.388  1.00 20.00    -0.206 F 
ENDROOT
TORSDOF 0
ENDMDL
MODEL 7
REMARK VINA RESULT:      -4.6     12.066     12.556
REMARK  0 active torsions:
REMARK  status: ('A' for Active; 'I' for Inactive)
ROOT
HETATM    1  C1  UNL     1     -34.413  17.636  -1.181  1.00 20.00     0.001 C 
HETATM    2  C2  UNL     1     -35.762  17.145  -1.732  1.00 20.00     0.005 C 
HETATM    3  C3  UNL     1     -33.326  17.060  -2.104  1.00 20.00     0.005 C 
HETATM    4  C4  UNL     1     -36.392  15.691  -3.789  1.00 20.00     0.011 C 
HETATM    5  C5  UNL     1     -35.780  14.662  -4.747  1.00 20.00     0.079 C 
HETATM    6  C6  UNL     1     -33.437  15.551  -4.214  1.00 20.00     0.084 C 
HETATM    7  C7  UNL     1     -35.380  16.044  -2.710  1.00 20.00    -0.010 C 
HETATM    8  C8  UNL     1     -34.098  16.597  -3.331  1.00 20.00    -0.005 C 
HETATM    9  C9  UNL     1     -34.422  15.104  -5.293  1.00 20.00     0.244 C 
HETATM   10  F10 UNL     1     -34.616  16.131  -6.163  1.00 20.00    -0.206 F 
HETATM   11  F11 UNL     1     -33.875  14.093  -6.013  1.00 20.00    -0.206 F 
ENDROOT
TORSDOF 0
ENDMDL
MODEL 8
REMARK VINA RESULT:      -4.5      1.632      2.735
REMARK  0 active torsions:
REMARK  status: ('A' for Active; 'I' for Inactive)
ROOT
HETATM    1  C1  UNL     1     -33.508   8.109   6.236  1.00 20.00     0.001 C 
HETATM    2  C2  UNL     1     -34.374   6.844   6.353  1.00 20.00     0.005 C 
HETATM    3  C3  UNL     1     -32.730   7.987   4.915  1.00 20.00     0.005 C 
HETATM    4  C4  UNL     1     -34.706   4.793   4.795  1.00 20.00     0.011 C 
HETATM    5  C5  UNL     1     -34.005   4.044   3.655  1.00 20.00     0.079 C 
HETATM    6  C6  UNL     1     -32.680   6.157   3.073  1.00 20.00     0.084 C 
HETATM    7  C7  UNL     1     -33.802   5.908   5.300  1.00 20.00    -0.010 C 
HETATM    8  C8  UNL     1     -33.452   6.874   4.169  1.00 20.00    -0.005 C 
HETATM    9  C9  UNL     1     -33.508   4.982   2.556  1.00 20.00     0.244 C 
HETATM   10  F10 UNL     1     -34.583   5.467   1.878  1.00 20.00    -0.206 F 
HETATM   11  F11 UNL     1     -32.778   4.276   1.657  1.00 20.00    -0.206 F 
ENDROOT
TORSDOF 0
ENDMDL
MODEL 9
REMARK VINA RESULT:      -4.4     12.075     12.712
REMARK  0 active torsions:
REMARK  status: ('A' for Active; 'I' for Inactive)
ROOT
HETATM    1  C1  UNL     1     -33.543  19.261   2.039  1.00 20.00     0.001 C 
HETATM    2  C2  UNL     1     -34.895  18.691   1.579  1.00 20.00     0.005 C 
HETATM    3  C3  UNL     1     -32.543  18.986   0.904  1.00 20.00     0.005 C 
HETATM    4  C4  UNL     1     -35.650  17.510  -0.607  1.00 20.00     0.011 C 
HETATM    5  C5  UNL     1     -35.071  16.734  -1.797  1.00 20.00     0.079 C 
HETATM    6  C6  UNL     1     -32.788  17.828  -1.407  1.00 20.00     0.084 C 
HETATM    7  C7  UNL     1     -34.539  17.817   0.386  1.00 20.00    -0.010 C 
HETATM    8  C8  UNL     1     -33.427  18.625  -0.281  1.00 20.00    -0.005 C 
HETATM    9  C9  UNL     1     -33.861  17.431  -2.419  1.00 20.00     0.244 C 
HETATM   10  F10 UNL     1     -34.289  18.549  -3.066  1.00 20.00    -0.206 F 
HETATM   11  F11 UNL     1     -33.315  16.628  -3.365  1.00 20.00    -0.206 F 
ENDROOT
TORSDOF 0
ENDMDL
