MODEL 1
REMARK VINA RESULT:      -5.9      0.000      0.000
REMARK  2 active torsions:
REMARK  status: ('A' for Active; 'I' for Inactive)
REMARK    1  A    between atoms: C8_8  and  C10_10 
REMARK    2  A    between atoms: C10_10  and  C11_11 
ROOT
HETATM    1  C1  UNL     1     -33.674   3.384   4.522  1.00 20.00     0.012 C 
HETATM    2  C2  UNL     1     -34.245   4.440   4.519  1.00 20.00    -0.113 C 
HETATM    3  C3  UNL     1     -34.226   6.756   5.406  1.00 20.00     0.017 C 
HETATM    4  C4  UNL     1     -35.107   6.270   3.083  1.00 20.00     0.017 C 
HETATM    5  C5  UNL     1     -32.916   7.264   4.800  1.00 20.00     0.006 C 
HETATM    6  C6  UNL     1     -33.794   6.779   2.482  1.00 20.00     0.006 C 
HETATM    7  C7  UNL     1     -34.946   5.738   4.512  1.00 20.00     0.064 C 
HETATM    8  C8  UNL     1     -33.122   7.820   3.386  1.00 20.00    -0.014 C 
ENDROOT
BRANCH   8   9
HETATM    9  C10 UNL     1     -31.794   8.277   2.787  1.00 20.00     0.004 C 
BRANCH   9  10
HETATM   10  C11 UNL     1     -31.958   8.689   1.328  1.00 20.00    -0.004 C 
HETATM   11  C9  UNL     1     -32.590  10.067   1.214  1.00 20.00     0.005 C 
ENDBRANCH   9  10
ENDBRANCH   8   9
TORSDOF 2
ENDMDL
MODEL 2
REMARK VINA RESULT:      -5.7      0.940      4.743
REMARK  2 active torsions:
REMARK  status: ('A' for Active; 'I' for Inactive)
REMARK    1  A    between atoms: C8_8  and  C10_10 
REMARK    2  A    between atoms: C10_10  and  C11_11 
ROOT
HETATM    1  C1  UNL     1     -33.024  10.518   1.397  1.00 20.00     0.012 C 
HETATM    2  C2  UNL     1     -32.461   9.494   1.671  1.00 20.00    -0.113 C 
HETATM    3  C3  UNL     1     -31.289   8.245   3.465  1.00 20.00     0.017 C 
HETATM    4  C4  UNL     1     -32.670   7.023   1.731  1.00 20.00     0.017 C 
HETATM    5  C5  UNL     1     -32.428   8.095   4.475  1.00 20.00     0.006 C 
HETATM    6  C6  UNL     1     -33.807   6.875   2.746  1.00 20.00     0.006 C 
HETATM    7  C7  UNL     1     -31.772   8.234   2.010  1.00 20.00     0.064 C 
HETATM    8  C8  UNL     1     -33.282   6.855   4.187  1.00 20.00    -0.014 C 
ENDROOT
BRANCH   8   9
HETATM    9  C10 UNL     1     -34.439   6.754   5.180  1.00 20.00     0.004 C 
BRANCH   9  10
HETATM   10  C11 UNL     1     -34.552   5.347   5.756  1.00 20.00    -0.004 C 
HETATM   11  C9  UNL     1     -34.496   4.297   4.658  1.00 20.00     0.005 C 
ENDBRANCH   9  10
ENDBRANCH   8   9
TORSDOF 2
ENDMDL
MODEL 3
REMARK VINA RESULT:      -4.9      1.188      1.603
REMARK  2 active torsions:
REMARK  status: ('A' for Active; 'I' for Inactive)
REMARK    1  A    between atoms: C8_8  and  C10_10 
REMARK    2  A    between atoms: C10_10  and  C11_11 
ROOT
HETATM    1  C1  UNL     1     -34.391   5.003   6.325  1.00 20.00     0.012 C 
HETATM    2  C2  UNL     1     -34.567   5.027   5.138  1.00 20.00    -0.113 C 
HETATM    3  C3  UNL     1     -35.335   6.416   3.232  1.00 20.00     0.017 C 
HETATM    4  C4  UNL     1     -33.492   4.707   2.926  1.00 20.00     0.017 C 
HETATM    5  C5  UNL     1     -34.289   7.532   3.276  1.00 20.00     0.006 C 
HETATM    6  C6  UNL     1     -32.450   5.827   2.970  1.00 20.00     0.006 C 
HETATM    7  C7  UNL     1     -34.781   5.057   3.678  1.00 20.00     0.064 C 
HETATM    8  C8  UNL     1     -33.030   7.161   2.483  1.00 20.00    -0.014 C 
ENDROOT
BRANCH   8   9
HETATM    9  C10 UNL     1     -31.984   8.271   2.582  1.00 20.00     0.004 C 
BRANCH   9  10
HETATM   10  C11 UNL     1     -31.761   8.941   1.231  1.00 20.00    -0.004 C 
HETATM   11  C9  UNL     1     -32.646  10.166   1.072  1.00 20.00     0.005 C 
ENDBRANCH   9  10
ENDBRANCH   8   9
TORSDOF 2
ENDMDL
MODEL 4
REMARK VINA RESULT:      -4.5      1.007      2.194
REMARK  2 active torsions:
REMARK  status: ('A' for Active; 'I' for Inactive)
REMARK    1  A    between atoms: C8_8  and  C10_10 
REMARK    2  A    between atoms: C10_10  and  C11_11 
ROOT
HETATM    1  C1  UNL     1     -36.572   6.310   3.280  1.00 20.00     0.012 C 
HETATM    2  C2  UNL     1     -35.506   5.952   3.700  1.00 20.00    -0.113 C 
HETATM    3  C3  UNL     1     -33.206   5.270   3.070  1.00 20.00     0.017 C 
HETATM    4  C4  UNL     1     -33.636   6.524   5.226  1.00 20.00     0.017 C 
HETATM    5  C5  UNL     1     -32.712   6.563   2.419  1.00 20.00     0.006 C 
HETATM    6  C6  UNL     1     -33.141   7.815   4.571  1.00 20.00     0.006 C 
HETATM    7  C7  UNL     1     -34.195   5.514   4.216  1.00 20.00     0.064 C 
HETATM    8  C8  UNL     1     -32.128   7.532   3.454  1.00 20.00    -0.014 C 
ENDROOT
BRANCH   8   9
HETATM    9  C10 UNL     1     -31.685   8.833   2.786  1.00 20.00     0.004 C 
BRANCH   9  10
HETATM   10  C11 UNL     1     -32.140   8.890   1.332  1.00 20.00    -0.004 C 
HETATM   11  C9  UNL     1     -32.585  10.292   0.950  1.00 20.00     0.005 C 
ENDBRANCH   9  10
ENDBRANCH   8   9
TORSDOF 2
ENDMDL
MODEL 5
REMARK VINA RESULT:      -4.5     11.245     12.248
REMARK  2 active torsions:
REMARK  status: ('A' for Active; 'I' for Inactive)
REMARK    1  A    between atoms: C8_8  and  C10_10 
REMARK    2  A    between atoms: C10_10  and  C11_11 
ROOT
HETATM    1  C1  UNL     1     -34.053  15.970  -7.568  1.00 20.00     0.012 C 
HETATM    2  C2  UNL     1     -34.063  15.211  -6.639  1.00 20.00    -0.113 C 
HETATM    3  C3  UNL     1     -33.091  14.726  -4.410  1.00 20.00     0.017 C 
HETATM    4  C4  UNL     1     -35.493  14.122  -4.930  1.00 20.00     0.017 C 
HETATM    5  C5  UNL     1     -33.570  15.955  -3.635  1.00 20.00     0.006 C 
HETATM    6  C6  UNL     1     -35.967  15.353  -4.154  1.00 20.00     0.006 C 
HETATM    7  C7  UNL     1     -34.077  14.278  -5.495  1.00 20.00     0.064 C 
HETATM    8  C8  UNL     1     -34.974  15.749  -3.054  1.00 20.00    -0.014 C 
ENDROOT
BRANCH   8   9
HETATM    9  C10 UNL     1     -35.448  17.006  -2.327  1.00 20.00     0.004 C 
BRANCH   9  10
HETATM   10  C11 UNL     1     -34.628  17.257  -1.066  1.00 20.00    -0.004 C 
HETATM   11  C9  UNL     1     -35.527  17.475   0.140  1.00 20.00     0.005 C 
ENDBRANCH   9  10
ENDBRANCH   8   9
TORSDOF 2
ENDMDL
MODEL 6
REMARK VINA RESULT:      -4.4     11.347     12.588
REMARK  2 active torsions:
REMARK  status: ('A' for Active; 'I' for Inactive)
REMARK    1  A    between atoms: C8_8  and  C10_10 
REMARK    2  A    between atoms: C10_10  and  C11_11 
ROOT
HETATM    1  C1  UNL     1     -37.334  15.510  -7.805  1.00 20.00     0.012 C 
HETATM    2  C2  UNL     1     -36.587  14.661  -7.403  1.00 20.00    -0.113 C 
HETATM    3  C3  UNL     1     -34.206  14.024  -7.126  1.00 20.00     0.017 C 
HETATM    4  C4  UNL     1     -35.942  13.300  -5.432  1.00 20.00     0.017 C 
HETATM    5  C5  UNL     1     -33.742  15.129  -6.175  1.00 20.00     0.006 C 
HETATM    6  C6  UNL     1     -35.474  14.407  -4.484  1.00 20.00     0.006 C 
HETATM    7  C7  UNL     1     -35.668  13.618  -6.907  1.00 20.00     0.064 C 
HETATM    8  C8  UNL     1     -33.999  14.760  -4.708  1.00 20.00    -0.014 C 
ENDROOT
BRANCH   8   9
HETATM    9  C10 UNL     1     -33.571  15.898  -3.783  1.00 20.00     0.004 C 
BRANCH   9  10
HETATM   10  C11 UNL     1     -34.687  16.272  -2.814  1.00 20.00    -0.004 C 
HETATM   11  C9  UNL     1     -34.150  17.067  -1.636  1.00 20.00     0.005 C 
ENDBRANCH   9  10
ENDBRANCH   8   9
TORSDOF 2
ENDMDL
MODEL 7
REMARK VINA RESULT:      -4.4     11.253     12.681
REMARK  2 active torsions:
REMARK  status: ('A' for Active; 'I' for Inactive)
REMARK    1  A    between atoms: C8_8  and  C10_10 
REMARK    2  A    between atoms: C10_10  and  C11_11 
ROOT
HETATM    1  C1  UNL     1     -36.677  16.113  -7.154  1.00 20.00     0.012 C 
HETATM    2  C2  UNL     1     -35.689  15.537  -6.789  1.00 20.00    -0.113 C 
HETATM    3  C3  UNL     1     -33.297  15.800  -6.191  1.00 20.00     0.017 C 
HETATM    4  C4  UNL     1     -34.735  14.067  -5.034  1.00 20.00     0.017 C 
HETATM    5  C5  UNL     1     -33.424  16.717  -4.972  1.00 20.00     0.006 C 
HETATM    6  C6  UNL     1     -34.859  14.988  -3.817  1.00 20.00     0.006 C 
HETATM    7  C7  UNL     1     -34.475  14.830  -6.338  1.00 20.00     0.064 C 
HETATM    8  C8  UNL     1     -33.647  15.918  -3.682  1.00 20.00    -0.014 C 
ENDROOT
BRANCH   8   9
HETATM    9  C10 UNL     1     -33.818  16.857  -2.489  1.00 20.00     0.004 C 
BRANCH   9  10
HETATM   10  C11 UNL     1     -35.204  16.717  -1.871  1.00 20.00    -0.004 C 
HETATM   11  C9  UNL     1     -35.272  17.395  -0.512  1.00 20.00     0.005 C 
ENDBRANCH   9  10
ENDBRANCH   8   9
TORSDOF 2
ENDMDL
MODEL 8
REMARK VINA RESULT:      -4.3     10.893     12.190
REMARK  2 active torsions:
REMARK  status: ('A' for Active; 'I' for Inactive)
REMARK    1  A    between atoms: C8_8  and  C10_10 
REMARK    2  A    between atoms: C10_10  and  C11_11 
ROOT
HETATM    1  C1  UNL     1     -33.617  14.335  -4.062  1.00 20.00     0.012 C 
HETATM    2  C2  UNL     1     -34.238  15.361  -4.023  1.00 20.00    -0.113 C 
HETATM    3  C3  UNL     1     -35.954  16.643  -2.774  1.00 20.00     0.017 C 
HETATM    4  C4  UNL     1     -34.060  17.834  -3.959  1.00 20.00     0.017 C 
HETATM    5  C5  UNL     1     -35.231  16.827  -1.438  1.00 20.00     0.006 C 
HETATM    6  C6  UNL     1     -33.341  18.015  -2.619  1.00 20.00     0.006 C 
HETATM    7  C7  UNL     1     -35.001  16.623  -3.975  1.00 20.00     0.064 C 
HETATM    8  C8  UNL     1     -34.328  18.067  -1.447  1.00 20.00    -0.014 C 
ENDROOT
BRANCH   8   9
HETATM    9  C10 UNL     1     -33.582  18.201  -0.120  1.00 20.00     0.004 C 
BRANCH   9  10
HETATM   10  C11 UNL     1     -32.111  18.532  -0.345  1.00 20.00    -0.004 C 
HETATM   11  C9  UNL     1     -31.408  18.831   0.969  1.00 20.00     0.005 C 
ENDBRANCH   9  10
ENDBRANCH   8   9
TORSDOF 2
ENDMDL
MODEL 9
REMARK VINA RESULT:      -4.2     10.982     12.563
REMARK  2 active torsions:
REMARK  status: ('A' for Active; 'I' for Inactive)
REMARK    1  A    between atoms: C8_8  and  C10_10 
REMARK    2  A    between atoms: C10_10  and  C11_11 
ROOT
HETATM    1  C1  UNL     1     -34.504  16.837  -1.977  1.00 20.00     0.012 C 
HETATM    2  C2  UNL     1     -34.002  16.359  -2.957  1.00 20.00    -0.113 C 
HETATM    3  C3  UNL     1     -33.685  14.271  -4.257  1.00 20.00     0.017 C 
HETATM    4  C4  UNL     1     -33.843  16.509  -5.428  1.00 20.00     0.017 C 
HETATM    5  C5  UNL     1     -35.136  13.970  -4.639  1.00 20.00     0.006 C 
HETATM    6  C6  UNL     1     -35.294  16.204  -5.809  1.00 20.00     0.006 C 
HETATM    7  C7  UNL     1     -33.387  15.772  -4.163  1.00 20.00     0.064 C 
HETATM    8  C8  UNL     1     -35.544  14.695  -5.928  1.00 20.00    -0.014 C 
ENDROOT
BRANCH   8   9
HETATM    9  C10 UNL     1     -37.009  14.418  -6.262  1.00 20.00     0.004 C 
BRANCH   9  10
HETATM   10  C11 UNL     1     -37.884  14.492  -5.016  1.00 20.00    -0.004 C 
HETATM   11  C9  UNL     1     -39.244  15.092  -5.334  1.00 20.00     0.005 C 
ENDBRANCH   9  10
ENDBRANCH   8   9
TORSDOF 2
ENDMDL
