MODEL 1
REMARK VINA RESULT:      -6.6      0.000      0.000
REMARK  0 active torsions:
REMARK  status: ('A' for Active; 'I' for Inactive)
ROOT
HETATM    1  C1  UNL     1     -32.519   7.025   2.969  1.00 20.00    -0.012 C 
HETATM    2  C2  UNL     1     -32.790   7.629   4.142  1.00 20.00    -0.016 C 
HETATM    3  C3  UNL     1     -33.243   4.731   3.060  1.00 20.00    -0.010 C 
HETATM    4  C4  UNL     1     -33.948   3.998   4.182  1.00 20.00     0.014 C 
HETATM    5  C5  UNL     1     -33.584   6.040   2.829  1.00 20.00     0.051 C 
HETATM    6  C6  UNL     1     -34.064   7.110   4.665  1.00 20.00     0.034 C 
HETATM    7  C7  UNL     1     -34.764   6.549   3.633  1.00 20.00     0.224 C 
HETATM    8  C8  UNL     1     -34.784   4.782   4.942  1.00 20.00     0.216 C 
HETATM    9  C9  UNL     1     -34.101   5.992   5.734  1.00 20.00     0.066 C 
HETATM   10  N10 UNL     1     -35.622   5.540   4.087  1.00 20.00     0.115 N 
HETATM   11  H17 UNL     1     -36.486   5.867   4.510  1.00 20.00     0.318 HD
ENDROOT
TORSDOF 0
ENDMDL
MODEL 2
REMARK VINA RESULT:      -6.1      1.007      3.069
REMARK  0 active torsions:
REMARK  status: ('A' for Active; 'I' for Inactive)
ROOT
HETATM    1  C1  UNL     1     -34.540   5.218   5.871  1.00 20.00    -0.012 C 
HETATM    2  C2  UNL     1     -34.263   4.210   5.022  1.00 20.00    -0.016 C 
HETATM    3  C3  UNL     1     -33.465   7.231   5.102  1.00 20.00    -0.010 C 
HETATM    4  C4  UNL     1     -32.635   7.452   3.855  1.00 20.00     0.014 C 
HETATM    5  C5  UNL     1     -34.552   6.399   5.017  1.00 20.00     0.051 C 
HETATM    6  C6  UNL     1     -34.221   4.736   3.648  1.00 20.00     0.034 C 
HETATM    7  C7  UNL     1     -34.892   5.927   3.616  1.00 20.00     0.224 C 
HETATM    8  C8  UNL     1     -33.003   6.680   2.778  1.00 20.00     0.216 C 
HETATM    9  C9  UNL     1     -32.881   5.095   2.964  1.00 20.00     0.066 C 
HETATM   10  N10 UNL     1     -34.406   6.760   2.601  1.00 20.00     0.115 N 
HETATM   11  H17 UNL     1     -34.735   6.536   1.666  1.00 20.00     0.318 HD
ENDROOT
TORSDOF 0
ENDMDL
MODEL 3
REMARK VINA RESULT:      -5.1      0.838      2.644
REMARK  0 active torsions:
REMARK  status: ('A' for Active; 'I' for Inactive)
ROOT
HETATM    1  C1  UNL     1     -33.922   3.781   3.608  1.00 20.00    -0.012 C 
HETATM    2  C2  UNL     1     -33.037   4.447   2.842  1.00 20.00    -0.016 C 
HETATM    3  C3  UNL     1     -34.505   5.128   5.516  1.00 20.00    -0.010 C 
HETATM    4  C4  UNL     1     -34.052   6.530   5.868  1.00 20.00     0.014 C 
HETATM    5  C5  UNL     1     -34.737   4.836   4.196  1.00 20.00     0.051 C 
HETATM    6  C6  UNL     1     -33.369   5.881   2.860  1.00 20.00     0.034 C 
HETATM    7  C7  UNL     1     -34.671   6.023   3.253  1.00 20.00     0.224 C 
HETATM    8  C8  UNL     1     -33.800   7.339   4.785  1.00 20.00     0.216 C 
HETATM    9  C9  UNL     1     -32.633   6.866   3.799  1.00 20.00     0.066 C 
HETATM   10  N10 UNL     1     -34.885   7.258   3.877  1.00 20.00     0.115 N 
HETATM   11  H17 UNL     1     -34.977   8.049   3.246  1.00 20.00     0.318 HD
ENDROOT
TORSDOF 0
ENDMDL
MODEL 4
REMARK VINA RESULT:      -4.6     12.102     13.139
REMARK  0 active torsions:
REMARK  status: ('A' for Active; 'I' for Inactive)
ROOT
HETATM    1  C1  UNL     1     -34.608  15.920  -3.158  1.00 20.00    -0.012 C 
HETATM    2  C2  UNL     1     -33.622  16.574  -3.801  1.00 20.00    -0.016 C 
HETATM    3  C3  UNL     1     -35.929  14.691  -4.752  1.00 20.00    -0.010 C 
HETATM    4  C4  UNL     1     -35.739  14.561  -6.249  1.00 20.00     0.014 C 
HETATM    5  C5  UNL     1     -34.810  14.719  -3.958  1.00 20.00     0.051 C 
HETATM    6  C6  UNL     1     -33.139  15.740  -4.914  1.00 20.00     0.034 C 
HETATM    7  C7  UNL     1     -33.504  14.444  -4.678  1.00 20.00     0.224 C 
HETATM    8  C8  UNL     1     -34.430  14.609  -6.666  1.00 20.00     0.216 C 
HETATM    9  C9  UNL     1     -33.635  15.964  -6.362  1.00 20.00     0.066 C 
HETATM   10  N10 UNL     1     -33.652  13.730  -5.873  1.00 20.00     0.115 N 
HETATM   11  H17 UNL     1     -32.783  13.420  -6.301  1.00 20.00     0.318 HD
ENDROOT
TORSDOF 0
ENDMDL
MODEL 5
REMARK VINA RESULT:      -4.4     11.740     12.779
REMARK  0 active torsions:
REMARK  status: ('A' for Active; 'I' for Inactive)
ROOT
HETATM    1  C1  UNL     1     -33.866  16.507  -3.947  1.00 20.00    -0.012 C 
HETATM    2  C2  UNL     1     -33.287  16.096  -5.091  1.00 20.00    -0.016 C 
HETATM    3  C3  UNL     1     -36.116  15.656  -3.835  1.00 20.00    -0.010 C 
HETATM    4  C4  UNL     1     -36.843  14.753  -4.810  1.00 20.00     0.014 C 
HETATM    5  C5  UNL     1     -34.782  15.424  -3.611  1.00 20.00     0.051 C 
HETATM    6  C6  UNL     1     -33.746  14.732  -5.399  1.00 20.00     0.034 C 
HETATM    7  C7  UNL     1     -34.231  14.165  -4.253  1.00 20.00     0.224 C 
HETATM    8  C8  UNL     1     -36.036  13.855  -5.470  1.00 20.00     0.216 C 
HETATM    9  C9  UNL     1     -34.895  14.477  -6.403  1.00 20.00     0.066 C 
HETATM   10  N10 UNL     1     -35.202  13.197  -4.533  1.00 20.00     0.115 N 
HETATM   11  H17 UNL     1     -34.839  12.298  -4.838  1.00 20.00     0.318 HD
ENDROOT
TORSDOF 0
ENDMDL
MODEL 6
REMARK VINA RESULT:      -4.4     11.833     13.006
REMARK  0 active torsions:
REMARK  status: ('A' for Active; 'I' for Inactive)
ROOT
HETATM    1  C1  UNL     1     -36.575  14.872  -4.609  1.00 20.00    -0.012 C 
HETATM    2  C2  UNL     1     -36.043  15.653  -3.649  1.00 20.00    -0.016 C 
HETATM    3  C3  UNL     1     -35.035  14.706  -6.452  1.00 20.00    -0.010 C 
HETATM    4  C4  UNL     1     -33.648  15.298  -6.592  1.00 20.00     0.014 C 
HETATM    5  C5  UNL     1     -35.416  14.235  -5.221  1.00 20.00     0.051 C 
HETATM    6  C6  UNL     1     -34.592  15.418  -3.587  1.00 20.00     0.034 C 
HETATM    7  C7  UNL     1     -34.320  14.214  -4.173  1.00 20.00     0.224 C 
HETATM    8  C8  UNL     1     -32.952  15.411  -5.412  1.00 20.00     0.216 C 
HETATM    9  C9  UNL     1     -33.593  16.363  -4.296  1.00 20.00     0.066 C 
HETATM   10  N10 UNL     1     -33.025  14.185  -4.705  1.00 20.00     0.115 N 
HETATM   11  H17 UNL     1     -32.283  14.036  -4.026  1.00 20.00     0.318 HD
ENDROOT
TORSDOF 0
ENDMDL
MODEL 7
REMARK VINA RESULT:      -4.3     12.214     13.290
REMARK  0 active torsions:
REMARK  status: ('A' for Active; 'I' for Inactive)
ROOT
HETATM    1  C1  UNL     1     -33.794  17.205  -3.811  1.00 20.00    -0.012 C 
HETATM    2  C2  UNL     1     -33.530  17.442  -5.110  1.00 20.00    -0.016 C 
HETATM    3  C3  UNL     1     -35.115  15.201  -3.613  1.00 20.00    -0.010 C 
HETATM    4  C4  UNL     1     -35.583  14.257  -4.701  1.00 20.00     0.014 C 
HETATM    5  C5  UNL     1     -33.863  15.751  -3.729  1.00 20.00     0.051 C 
HETATM    6  C6  UNL     1     -33.322  16.159  -5.800  1.00 20.00     0.034 C 
HETATM    7  C7  UNL     1     -33.023  15.205  -4.868  1.00 20.00     0.224 C 
HETATM    8  C8  UNL     1     -34.727  14.148  -5.772  1.00 20.00     0.216 C 
HETATM    9  C9  UNL     1     -34.458  15.486  -6.607  1.00 20.00     0.066 C 
HETATM   10  N10 UNL     1     -33.409  13.930  -5.299  1.00 20.00     0.115 N 
HETATM   11  H17 UNL     1     -32.780  13.492  -5.966  1.00 20.00     0.318 HD
ENDROOT
TORSDOF 0
ENDMDL
MODEL 8
REMARK VINA RESULT:      -4.3      1.135      2.202
REMARK  0 active torsions:
REMARK  status: ('A' for Active; 'I' for Inactive)
ROOT
HETATM    1  C1  UNL     1     -32.611   7.905   3.043  1.00 20.00    -0.012 C 
HETATM    2  C2  UNL     1     -33.554   7.498   2.172  1.00 20.00    -0.016 C 
HETATM    3  C3  UNL     1     -33.236   7.239   5.271  1.00 20.00    -0.010 C 
HETATM    4  C4  UNL     1     -34.443   6.445   5.725  1.00 20.00     0.014 C 
HETATM    5  C5  UNL     1     -32.639   6.888   4.086  1.00 20.00     0.051 C 
HETATM    6  C6  UNL     1     -34.077   6.192   2.605  1.00 20.00     0.034 C 
HETATM    7  C7  UNL     1     -33.170   5.618   3.451  1.00 20.00     0.224 C 
HETATM    8  C8  UNL     1     -34.890   5.513   4.817  1.00 20.00     0.216 C 
HETATM    9  C9  UNL     1     -35.394   6.078   3.408  1.00 20.00     0.066 C 
HETATM   10  N10 UNL     1     -33.792   4.747   4.353  1.00 20.00     0.115 N 
HETATM   11  H17 UNL     1     -34.035   3.835   3.974  1.00 20.00     0.318 HD
ENDROOT
TORSDOF 0
ENDMDL
MODEL 9
REMARK VINA RESULT:      -4.3     12.270     13.480
REMARK  0 active torsions:
REMARK  status: ('A' for Active; 'I' for Inactive)
ROOT
HETATM    1  C1  UNL     1     -37.377  14.864  -6.432  1.00 20.00    -0.012 C 
HETATM    2  C2  UNL     1     -37.301  14.165  -5.283  1.00 20.00    -0.016 C 
HETATM    3  C3  UNL     1     -35.234  15.848  -6.917  1.00 20.00    -0.010 C 
HETATM    4  C4  UNL     1     -33.933  15.722  -6.153  1.00 20.00     0.014 C 
HETATM    5  C5  UNL     1     -36.043  14.742  -7.003  1.00 20.00     0.051 C 
HETATM    6  C6  UNL     1     -35.979  13.523  -5.199  1.00 20.00     0.034 C 
HETATM    7  C7  UNL     1     -35.443  13.462  -6.455  1.00 20.00     0.224 C 
HETATM    8  C8  UNL     1     -33.759  14.518  -5.512  1.00 20.00     0.216 C 
HETATM    9  C9  UNL     1     -34.829  14.153  -4.379  1.00 20.00     0.066 C 
HETATM   10  N10 UNL     1     -34.043  13.462  -6.413  1.00 20.00     0.115 N 
HETATM   11  H17 UNL     1     -33.619  12.568  -6.176  1.00 20.00     0.318 HD
ENDROOT
TORSDOF 0
ENDMDL
