MODEL 1
REMARK VINA RESULT:      -4.4      0.000      0.000
REMARK  1 active torsions:
REMARK  status: ('A' for Active; 'I' for Inactive)
REMARK    1  A    between atoms: C7_7  and  C11_11 
ROOT
HETATM    1  C1  UNL     1     -35.391  14.875  -5.866  1.00 20.00    -0.084 C 
HETATM    2  C2  UNL     1     -36.404  14.328  -6.547  1.00 20.00     0.014 C 
HETATM    3  C3  UNL     1     -35.409  15.166  -4.381  1.00 20.00     0.044 C 
HETATM    4  C4  UNL     1     -32.920  14.404  -4.178  1.00 20.00     0.016 A 
HETATM    5  C5  UNL     1     -34.018  15.199  -6.430  1.00 20.00     0.014 C 
HETATM    6  C6  UNL     1     -33.134  15.465  -5.226  1.00 20.00     0.003 A 
HETATM    7  C7  UNL     1     -33.978  15.468  -3.984  1.00 20.00    -0.029 A 
HETATM    8  C8  UNL     1     -34.064  16.415  -7.352  1.00 20.00     0.015 C 
ENDROOT
BRANCH   7   9
HETATM    9  C11 UNL     1     -33.768  16.514  -2.936  1.00 20.00    -0.014 C 
HETATM   10  C9  UNL     1     -33.510  17.897  -3.557  1.00 20.00     0.010 C 
HETATM   11  C10 UNL     1     -34.965  16.601  -1.974  1.00 20.00     0.010 C 
ENDBRANCH   7   9
TORSDOF 1
ENDMDL
MODEL 2
REMARK VINA RESULT:      -4.4      9.744     11.276
REMARK  1 active torsions:
REMARK  status: ('A' for Active; 'I' for Inactive)
REMARK    1  A    between atoms: C7_7  and  C11_11 
ROOT
HETATM    1  C1  UNL     1     -34.099   6.695   3.424  1.00 20.00    -0.084 C 
HETATM    2  C2  UNL     1     -35.137   6.197   4.105  1.00 20.00     0.014 C 
HETATM    3  C3  UNL     1     -34.014   8.111   2.898  1.00 20.00     0.044 C 
HETATM    4  C4  UNL     1     -31.485   8.221   3.538  1.00 20.00     0.016 A 
HETATM    5  C5  UNL     1     -32.790   5.973   3.152  1.00 20.00     0.014 C 
HETATM    6  C6  UNL     1     -31.827   7.040   2.667  1.00 20.00     0.003 A 
HETATM    7  C7  UNL     1     -32.570   8.333   2.491  1.00 20.00    -0.029 A 
HETATM    8  C8  UNL     1     -32.963   4.878   2.102  1.00 20.00     0.015 C 
ENDROOT
BRANCH   7   9
HETATM    9  C11 UNL     1     -32.326   9.182   1.284  1.00 20.00    -0.014 C 
HETATM   10  C9  UNL     1     -32.946   8.564   0.020  1.00 20.00     0.010 C 
HETATM   11  C10 UNL     1     -32.870  10.608   1.474  1.00 20.00     0.010 C 
ENDBRANCH   7   9
TORSDOF 1
ENDMDL
MODEL 3
REMARK VINA RESULT:      -4.3      1.050      3.957
REMARK  1 active torsions:
REMARK  status: ('A' for Active; 'I' for Inactive)
REMARK    1  A    between atoms: C7_7  and  C11_11 
ROOT
HETATM    1  C1  UNL     1     -33.721  17.092  -4.320  1.00 20.00    -0.084 C 
HETATM    2  C2  UNL     1     -33.396  18.369  -4.089  1.00 20.00     0.014 C 
HETATM    3  C3  UNL     1     -33.492  16.368  -5.628  1.00 20.00     0.044 C 
HETATM    4  C4  UNL     1     -32.809  14.203  -4.337  1.00 20.00     0.016 A 
HETATM    5  C5  UNL     1     -34.273  16.119  -3.291  1.00 20.00     0.014 C 
HETATM    6  C6  UNL     1     -34.153  14.745  -3.922  1.00 20.00     0.003 A 
HETATM    7  C7  UNL     1     -33.701  14.893  -5.346  1.00 20.00    -0.029 A 
HETATM    8  C8  UNL     1     -35.726  16.435  -2.945  1.00 20.00     0.015 C 
ENDROOT
BRANCH   7   9
HETATM    9  C11 UNL     1     -34.338  14.076  -6.425  1.00 20.00    -0.014 C 
HETATM   10  C9  UNL     1     -35.867  14.021  -6.267  1.00 20.00     0.010 C 
HETATM   11  C10 UNL     1     -33.988  14.612  -7.824  1.00 20.00     0.010 C 
ENDBRANCH   7   9
TORSDOF 1
ENDMDL
MODEL 4
REMARK VINA RESULT:      -4.2     11.122     12.674
REMARK  1 active torsions:
REMARK  status: ('A' for Active; 'I' for Inactive)
REMARK    1  A    between atoms: C7_7  and  C11_11 
ROOT
HETATM    1  C1  UNL     1     -33.847   4.907   3.975  1.00 20.00    -0.084 C 
HETATM    2  C2  UNL     1     -34.126   3.637   4.289  1.00 20.00     0.014 C 
HETATM    3  C3  UNL     1     -32.805   5.335   2.965  1.00 20.00     0.044 C 
HETATM    4  C4  UNL     1     -34.377   7.238   2.115  1.00 20.00     0.016 A 
HETATM    5  C5  UNL     1     -34.588   6.130   4.488  1.00 20.00     0.014 C 
HETATM    6  C6  UNL     1     -34.144   7.279   3.603  1.00 20.00     0.003 A 
HETATM    7  C7  UNL     1     -33.048   6.807   2.693  1.00 20.00    -0.029 A 
HETATM    8  C8  UNL     1     -34.257   6.410   5.953  1.00 20.00     0.015 C 
ENDROOT
BRANCH   7   9
HETATM    9  C11 UNL     1     -31.844   7.664   2.458  1.00 20.00    -0.014 C 
HETATM   10  C9  UNL     1     -32.113   8.739   1.392  1.00 20.00     0.010 C 
HETATM   11  C10 UNL     1     -31.367   8.339   3.755  1.00 20.00     0.010 C 
ENDBRANCH   7   9
TORSDOF 1
ENDMDL
MODEL 5
REMARK VINA RESULT:      -4.2      1.500      4.228
REMARK  1 active torsions:
REMARK  status: ('A' for Active; 'I' for Inactive)
REMARK    1  A    between atoms: C7_7  and  C11_11 
ROOT
HETATM    1  C1  UNL     1     -35.073  17.185  -1.524  1.00 20.00    -0.084 C 
HETATM    2  C2  UNL     1     -35.633  17.370  -0.324  1.00 20.00     0.014 C 
HETATM    3  C3  UNL     1     -35.488  16.117  -2.513  1.00 20.00     0.044 C 
HETATM    4  C4  UNL     1     -35.167  17.792  -4.490  1.00 20.00     0.016 A 
HETATM    5  C5  UNL     1     -34.006  18.068  -2.149  1.00 20.00     0.014 C 
HETATM    6  C6  UNL     1     -33.949  17.669  -3.611  1.00 20.00     0.003 A 
HETATM    7  C7  UNL     1     -34.829  16.473  -3.832  1.00 20.00    -0.029 A 
HETATM    8  C8  UNL     1     -32.650  17.867  -1.476  1.00 20.00     0.015 C 
ENDROOT
BRANCH   7   9
HETATM    9  C11 UNL     1     -34.356  15.339  -4.685  1.00 20.00    -0.014 C 
HETATM   10  C9  UNL     1     -32.925  14.912  -4.319  1.00 20.00     0.010 C 
HETATM   11  C10 UNL     1     -35.293  14.123  -4.582  1.00 20.00     0.010 C 
ENDBRANCH   7   9
TORSDOF 1
ENDMDL
MODEL 6
REMARK VINA RESULT:      -4.1     10.790     12.259
REMARK  1 active torsions:
REMARK  status: ('A' for Active; 'I' for Inactive)
REMARK    1  A    between atoms: C7_7  and  C11_11 
ROOT
HETATM    1  C1  UNL     1     -32.983   8.344   2.145  1.00 20.00    -0.084 C 
HETATM    2  C2  UNL     1     -32.923   9.357   1.274  1.00 20.00     0.014 C 
HETATM    3  C3  UNL     1     -34.264   7.734   2.670  1.00 20.00     0.044 C 
HETATM    4  C4  UNL     1     -33.208   5.349   2.544  1.00 20.00     0.016 A 
HETATM    5  C5  UNL     1     -31.794   7.560   2.675  1.00 20.00     0.014 C 
HETATM    6  C6  UNL     1     -32.379   6.326   3.336  1.00 20.00     0.003 A 
HETATM    7  C7  UNL     1     -33.876   6.438   3.355  1.00 20.00    -0.029 A 
HETATM    8  C8  UNL     1     -30.983   8.382   3.675  1.00 20.00     0.015 C 
ENDROOT
BRANCH   7   9
HETATM    9  C11 UNL     1     -34.642   6.059   4.582  1.00 20.00    -0.014 C 
HETATM   10  C9  UNL     1     -34.611   4.541   4.825  1.00 20.00     0.010 C 
HETATM   11  C10 UNL     1     -34.111   6.786   5.829  1.00 20.00     0.010 C 
ENDBRANCH   7   9
TORSDOF 1
ENDMDL
MODEL 7
REMARK VINA RESULT:      -4.1      1.711      4.407
REMARK  1 active torsions:
REMARK  status: ('A' for Active; 'I' for Inactive)
REMARK    1  A    between atoms: C7_7  and  C11_11 
ROOT
HETATM    1  C1  UNL     1     -33.544  17.563  -2.075  1.00 20.00    -0.084 C 
HETATM    2  C2  UNL     1     -32.705  18.127  -1.200  1.00 20.00     0.014 C 
HETATM    3  C3  UNL     1     -33.399  17.637  -3.579  1.00 20.00     0.044 C 
HETATM    4  C4  UNL     1     -34.172  15.153  -3.800  1.00 20.00     0.016 A 
HETATM    5  C5  UNL     1     -34.720  16.666  -1.723  1.00 20.00     0.014 C 
HETATM    6  C6  UNL     1     -35.138  16.010  -3.025  1.00 20.00     0.003 A 
HETATM    7  C7  UNL     1     -34.356  16.612  -4.156  1.00 20.00    -0.029 A 
HETATM    8  C8  UNL     1     -35.872  17.466  -1.121  1.00 20.00     0.015 C 
ENDROOT
BRANCH   7   9
HETATM    9  C11 UNL     1     -35.039  16.963  -5.439  1.00 20.00    -0.014 C 
HETATM   10  C9  UNL     1     -36.342  17.741  -5.194  1.00 20.00     0.010 C 
HETATM   11  C10 UNL     1     -34.122  17.782  -6.364  1.00 20.00     0.010 C 
ENDBRANCH   7   9
TORSDOF 1
ENDMDL
MODEL 8
REMARK VINA RESULT:      -4.0      1.236      1.474
REMARK  1 active torsions:
REMARK  status: ('A' for Active; 'I' for Inactive)
REMARK    1  A    between atoms: C7_7  and  C11_11 
ROOT
HETATM    1  C1  UNL     1     -36.855  15.002  -4.834  1.00 20.00    -0.084 C 
HETATM    2  C2  UNL     1     -38.163  14.740  -4.932  1.00 20.00     0.014 C 
HETATM    3  C3  UNL     1     -36.176  15.548  -3.596  1.00 20.00     0.044 C 
HETATM    4  C4  UNL     1     -34.119  13.994  -4.011  1.00 20.00     0.016 A 
HETATM    5  C5  UNL     1     -35.810  14.702  -5.895  1.00 20.00     0.014 C 
HETATM    6  C6  UNL     1     -34.469  14.850  -5.202  1.00 20.00     0.003 A 
HETATM    7  C7  UNL     1     -34.685  15.383  -3.815  1.00 20.00    -0.029 A 
HETATM    8  C8  UNL     1     -35.921  15.662  -7.077  1.00 20.00     0.015 C 
ENDROOT
BRANCH   7   9
HETATM    9  C11 UNL     1     -33.795  16.458  -3.276  1.00 20.00    -0.014 C 
HETATM   10  C9  UNL     1     -33.706  17.656  -4.235  1.00 20.00     0.010 C 
HETATM   11  C10 UNL     1     -34.265  16.943  -1.894  1.00 20.00     0.010 C 
ENDBRANCH   7   9
TORSDOF 1
ENDMDL
MODEL 9
REMARK VINA RESULT:      -4.0      1.087      3.947
REMARK  1 active torsions:
REMARK  status: ('A' for Active; 'I' for Inactive)
REMARK    1  A    between atoms: C7_7  and  C11_11 
ROOT
HETATM    1  C1  UNL     1     -34.542  15.860  -4.086  1.00 20.00    -0.084 C 
HETATM    2  C2  UNL     1     -34.777  16.205  -2.815  1.00 20.00     0.014 C 
HETATM    3  C3  UNL     1     -35.595  15.800  -5.171  1.00 20.00     0.044 C 
HETATM    4  C4  UNL     1     -33.908  16.799  -6.896  1.00 20.00     0.016 A 
HETATM    5  C5  UNL     1     -33.177  15.574  -4.689  1.00 20.00     0.014 C 
HETATM    6  C6  UNL     1     -33.384  15.574  -6.191  1.00 20.00     0.003 A 
HETATM    7  C7  UNL     1     -34.852  15.689  -6.488  1.00 20.00    -0.029 A 
HETATM    8  C8  UNL     1     -32.626  14.231  -4.214  1.00 20.00     0.015 C 
ENDROOT
BRANCH   7   9
HETATM    9  C11 UNL     1     -35.472  14.840  -7.551  1.00 20.00    -0.014 C 
HETATM   10  C9  UNL     1     -35.044  13.368  -7.424  1.00 20.00     0.010 C 
HETATM   11  C10 UNL     1     -37.007  14.929  -7.524  1.00 20.00     0.010 C 
ENDBRANCH   7   9
TORSDOF 1
ENDMDL
