MODEL 1
REMARK VINA RESULT:      -5.8      0.000      0.000
REMARK  2 active torsions:
REMARK  status: ('A' for Active; 'I' for Inactive)
REMARK    1  A    between atoms: C7_7  and  C9_9 
REMARK    2  A    between atoms: C8_8  and  C10_10 
ROOT
HETATM    1  C1  UNL     1     -34.814   5.787   3.774  1.00 20.00     0.012 C 
HETATM    2  C2  UNL     1     -33.827   6.287   3.308  1.00 20.00    -0.112 C 
HETATM    3  C6  UNL     1     -32.647   6.886   2.753  1.00 20.00     0.074 A 
HETATM    4  C9  UNL     1     -32.731   8.322   2.281  1.00 20.00     0.011 A 
HETATM    5  C10 UNL     1     -31.975   7.995   3.533  1.00 20.00     0.011 A 
ENDROOT
BRANCH   4   6
HETATM    6  C7  UNL     1     -31.692   9.004   1.394  1.00 20.00    -0.008 C 
HETATM    7  C3  UNL     1     -32.018   8.619  -0.068  1.00 20.00     0.005 C 
HETATM    8  C4  UNL     1     -33.321   9.409  -0.347  1.00 20.00     0.005 C 
HETATM    9  C8  UNL     1     -33.568  10.143   0.993  1.00 20.00    -0.008 C 
HETATM   10  C5  UNL     1     -32.121  10.480   1.388  1.00 20.00     0.010 C 
ENDBRANCH   4   6
TORSDOF 2
ENDMDL
MODEL 2
REMARK VINA RESULT:      -5.0      1.042      4.264
REMARK  2 active torsions:
REMARK  status: ('A' for Active; 'I' for Inactive)
REMARK    1  A    between atoms: C7_7  and  C9_9 
REMARK    2  A    between atoms: C8_8  and  C10_10 
ROOT
HETATM    1  C1  UNL     1     -33.182   9.940  -0.453  1.00 20.00     0.012 C 
HETATM    2  C2  UNL     1     -32.879   9.534   0.635  1.00 20.00    -0.112 C 
HETATM    3  C6  UNL     1     -32.516   9.048   1.936  1.00 20.00     0.074 A 
HETATM    4  C9  UNL     1     -32.822   7.604   2.268  1.00 20.00     0.011 A 
HETATM    5  C10 UNL     1     -31.404   8.026   2.030  1.00 20.00     0.011 A 
ENDROOT
BRANCH   4   6
HETATM    6  C7  UNL     1     -32.797   7.015   3.676  1.00 20.00    -0.008 C 
HETATM    7  C3  UNL     1     -34.210   7.210   4.276  1.00 20.00     0.005 C 
HETATM    8  C4  UNL     1     -35.066   6.203   3.468  1.00 20.00     0.005 C 
HETATM    9  C8  UNL     1     -34.029   5.564   2.513  1.00 20.00    -0.008 C 
HETATM   10  C5  UNL     1     -32.808   5.496   3.444  1.00 20.00     0.010 C 
ENDBRANCH   4   6
TORSDOF 2
ENDMDL
MODEL 3
REMARK VINA RESULT:      -4.6      9.057     10.220
REMARK  2 active torsions:
REMARK  status: ('A' for Active; 'I' for Inactive)
REMARK    1  A    between atoms: C7_7  and  C9_9 
REMARK    2  A    between atoms: C8_8  and  C10_10 
ROOT
HETATM    1  C1  UNL     1     -32.072  18.386  -0.601  1.00 20.00     0.012 C 
HETATM    2  C2  UNL     1     -32.984  18.090  -1.323  1.00 20.00    -0.112 C 
HETATM    3  C6  UNL     1     -34.074  17.736  -2.187  1.00 20.00     0.074 A 
HETATM    4  C9  UNL     1     -34.069  16.357  -2.810  1.00 20.00     0.011 A 
HETATM    5  C10 UNL     1     -35.041  16.673  -1.714  1.00 20.00     0.011 A 
ENDROOT
BRANCH   4   6
HETATM    6  C7  UNL     1     -34.959  15.930  -3.976  1.00 20.00    -0.008 C 
HETATM    7  C3  UNL     1     -34.340  16.525  -5.262  1.00 20.00     0.005 C 
HETATM    8  C4  UNL     1     -33.055  15.677  -5.445  1.00 20.00     0.005 C 
HETATM    9  C8  UNL     1     -33.111  14.709  -4.240  1.00 20.00    -0.008 C 
HETATM   10  C5  UNL     1     -34.624  14.444  -4.174  1.00 20.00     0.010 C 
ENDBRANCH   4   6
TORSDOF 2
ENDMDL
MODEL 4
REMARK VINA RESULT:      -4.3      8.934      9.995
REMARK  2 active torsions:
REMARK  status: ('A' for Active; 'I' for Inactive)
REMARK    1  A    between atoms: C7_7  and  C9_9 
REMARK    2  A    between atoms: C8_8  and  C10_10 
ROOT
HETATM    1  C1  UNL     1     -35.533  17.510  -0.090  1.00 20.00     0.012 C 
HETATM    2  C2  UNL     1     -34.729  17.260  -0.945  1.00 20.00    -0.112 C 
HETATM    3  C6  UNL     1     -33.768  16.961  -1.968  1.00 20.00     0.074 A 
HETATM    4  C9  UNL     1     -34.282  16.527  -3.324  1.00 20.00     0.011 A 
HETATM    5  C10 UNL     1     -33.683  17.891  -3.159  1.00 20.00     0.011 A 
ENDROOT
BRANCH   4   6
HETATM    6  C7  UNL     1     -33.424  15.879  -4.408  1.00 20.00    -0.008 C 
HETATM    7  C3  UNL     1     -33.550  14.347  -4.234  1.00 20.00     0.005 C 
HETATM    8  C4  UNL     1     -35.003  14.070  -4.694  1.00 20.00     0.005 C 
HETATM    9  C8  UNL     1     -35.516  15.480  -5.072  1.00 20.00    -0.008 C 
HETATM   10  C5  UNL     1     -34.242  16.074  -5.695  1.00 20.00     0.010 C 
ENDBRANCH   4   6
TORSDOF 2
ENDMDL
MODEL 5
REMARK VINA RESULT:      -4.3      1.279      1.955
REMARK  2 active torsions:
REMARK  status: ('A' for Active; 'I' for Inactive)
REMARK    1  A    between atoms: C7_7  and  C9_9 
REMARK    2  A    between atoms: C8_8  and  C10_10 
ROOT
HETATM    1  C1  UNL     1     -33.775   7.279   6.022  1.00 20.00     0.012 C 
HETATM    2  C2  UNL     1     -33.788   7.204   4.823  1.00 20.00    -0.112 C 
HETATM    3  C6  UNL     1     -33.803   7.115   3.391  1.00 20.00     0.074 A 
HETATM    4  C9  UNL     1     -32.756   7.887   2.618  1.00 20.00     0.011 A 
HETATM    5  C10 UNL     1     -32.660   6.394   2.710  1.00 20.00     0.011 A 
ENDROOT
BRANCH   4   6
HETATM    6  C7  UNL     1     -32.812   8.158   1.117  1.00 20.00    -0.008 C 
HETATM    7  C3  UNL     1     -33.639   9.450   0.918  1.00 20.00     0.005 C 
HETATM    8  C4  UNL     1     -32.689  10.549   1.459  1.00 20.00     0.005 C 
HETATM    9  C8  UNL     1     -31.444   9.740   1.894  1.00 20.00    -0.008 C 
HETATM   10  C5  UNL     1     -31.406   8.681   0.780  1.00 20.00     0.010 C 
ENDBRANCH   4   6
TORSDOF 2
ENDMDL
MODEL 6
REMARK VINA RESULT:      -4.1      9.014     10.080
REMARK  2 active torsions:
REMARK  status: ('A' for Active; 'I' for Inactive)
REMARK    1  A    between atoms: C7_7  and  C9_9 
REMARK    2  A    between atoms: C8_8  and  C10_10 
ROOT
HETATM    1  C1  UNL     1     -36.680  18.198  -0.720  1.00 20.00     0.012 C 
HETATM    2  C2  UNL     1     -35.782  17.505  -1.113  1.00 20.00    -0.112 C 
HETATM    3  C6  UNL     1     -34.709  16.676  -1.583  1.00 20.00     0.074 A 
HETATM    4  C9  UNL     1     -34.451  16.621  -3.073  1.00 20.00     0.011 A 
HETATM    5  C10 UNL     1     -33.495  17.353  -2.180  1.00 20.00     0.011 A 
ENDROOT
BRANCH   4   6
HETATM    6  C7  UNL     1     -33.579  15.575  -3.763  1.00 20.00    -0.008 C 
HETATM    7  C3  UNL     1     -34.499  14.388  -4.131  1.00 20.00     0.005 C 
HETATM    8  C4  UNL     1     -35.363  14.968  -5.279  1.00 20.00     0.005 C 
HETATM    9  C8  UNL     1     -34.821  16.411  -5.417  1.00 20.00    -0.008 C 
HETATM   10  C5  UNL     1     -33.326  16.166  -5.160  1.00 20.00     0.010 C 
ENDBRANCH   4   6
TORSDOF 2
ENDMDL
MODEL 7
REMARK VINA RESULT:      -4.0      9.091     10.528
REMARK  2 active torsions:
REMARK  status: ('A' for Active; 'I' for Inactive)
REMARK    1  A    between atoms: C7_7  and  C9_9 
REMARK    2  A    between atoms: C8_8  and  C10_10 
ROOT
HETATM    1  C1  UNL     1     -34.453  16.883  -2.317  1.00 20.00     0.012 C 
HETATM    2  C2  UNL     1     -34.440  15.929  -3.047  1.00 20.00    -0.112 C 
HETATM    3  C6  UNL     1     -34.424  14.790  -3.919  1.00 20.00     0.074 A 
HETATM    4  C9  UNL     1     -34.164  15.024  -5.392  1.00 20.00     0.011 A 
HETATM    5  C10 UNL     1     -33.105  14.388  -4.543  1.00 20.00     0.011 A 
ENDROOT
BRANCH   4   6
HETATM    6  C7  UNL     1     -34.419  13.995  -6.490  1.00 20.00    -0.008 C 
HETATM    7  C3  UNL     1     -35.935  14.020  -6.795  1.00 20.00     0.005 C 
HETATM    8  C4  UNL     1     -36.116  15.382  -7.513  1.00 20.00     0.005 C 
HETATM    9  C8  UNL     1     -34.678  15.954  -7.524  1.00 20.00    -0.008 C 
HETATM   10  C5  UNL     1     -33.875  14.665  -7.761  1.00 20.00     0.010 C 
ENDBRANCH   4   6
TORSDOF 2
ENDMDL
MODEL 8
REMARK VINA RESULT:      -4.0      9.362     10.146
REMARK  2 active torsions:
REMARK  status: ('A' for Active; 'I' for Inactive)
REMARK    1  A    between atoms: C7_7  and  C9_9 
REMARK    2  A    between atoms: C8_8  and  C10_10 
ROOT
HETATM    1  C1  UNL     1     -36.289  13.568  -5.287  1.00 20.00     0.012 C 
HETATM    2  C2  UNL     1     -35.521  14.465  -5.068  1.00 20.00    -0.112 C 
HETATM    3  C6  UNL     1     -34.604  15.537  -4.805  1.00 20.00     0.074 A 
HETATM    4  C9  UNL     1     -34.441  16.001  -3.374  1.00 20.00     0.011 A 
HETATM    5  C10 UNL     1     -33.342  15.222  -4.031  1.00 20.00     0.011 A 
ENDROOT
BRANCH   4   6
HETATM    6  C7  UNL     1     -33.766  17.306  -2.958  1.00 20.00    -0.008 C 
HETATM    7  C3  UNL     1     -34.789  18.442  -3.190  1.00 20.00     0.005 C 
HETATM    8  C4  UNL     1     -35.834  18.192  -2.073  1.00 20.00     0.005 C 
HETATM    9  C8  UNL     1     -35.269  16.947  -1.350  1.00 20.00    -0.008 C 
HETATM   10  C5  UNL     1     -33.764  17.251  -1.422  1.00 20.00     0.010 C 
ENDBRANCH   4   6
TORSDOF 2
ENDMDL
MODEL 9
REMARK VINA RESULT:      -3.9      9.229     10.813
REMARK  2 active torsions:
REMARK  status: ('A' for Active; 'I' for Inactive)
REMARK    1  A    between atoms: C7_7  and  C9_9 
REMARK    2  A    between atoms: C8_8  and  C10_10 
ROOT
HETATM    1  C1  UNL     1     -33.785  16.215  -7.156  1.00 20.00     0.012 C 
HETATM    2  C2  UNL     1     -33.551  16.060  -5.989  1.00 20.00    -0.112 C 
HETATM    3  C6  UNL     1     -33.272  15.874  -4.593  1.00 20.00     0.074 A 
HETATM    4  C9  UNL     1     -34.172  16.563  -3.590  1.00 20.00     0.011 A 
HETATM    5  C10 UNL     1     -34.261  15.078  -3.769  1.00 20.00     0.011 A 
ENDROOT
BRANCH   4   6
HETATM    6  C7  UNL     1     -33.845  16.734  -2.108  1.00 20.00    -0.008 C 
HETATM    7  C3  UNL     1     -33.190  18.125  -1.943  1.00 20.00     0.005 C 
HETATM    8  C4  UNL     1     -34.379  19.092  -2.175  1.00 20.00     0.005 C 
HETATM    9  C8  UNL     1     -35.557  18.124  -2.441  1.00 20.00    -0.008 C 
HETATM   10  C5  UNL     1     -35.211  16.997  -1.454  1.00 20.00     0.010 C 
ENDBRANCH   4   6
TORSDOF 2
ENDMDL
