MODEL 1
REMARK VINA RESULT:      -6.8      0.000      0.000
REMARK  2 active torsions:
REMARK  status: ('A' for Active; 'I' for Inactive)
REMARK    1  A    between atoms: C1_1  and  C6_6 
REMARK    2  A    between atoms: C2_2  and  C8_8 
ROOT
HETATM    1  C1  UNL     1     -32.591   8.181   2.317  1.00 20.00    -0.100 C 
HETATM    2  C2  UNL     1     -33.116   7.201   2.771  1.00 20.00    -0.088 C 
ENDROOT
BRANCH   1   3
HETATM    3  C6  UNL     1     -31.964   9.350   1.775  1.00 20.00     0.069 A 
HETATM    4  C5  UNL     1     -32.810  10.569   1.510  1.00 20.00     0.023 A 
HETATM    5  C7  UNL     1     -32.244   9.791   0.358  1.00 20.00    -0.002 A 
HETATM    6  C9  UNL     1     -33.154   9.041  -0.556  1.00 20.00     0.011 C 
ENDBRANCH   1   3
BRANCH   2   7
HETATM    7  C8  UNL     1     -33.756   6.008   3.323  1.00 20.00     0.055 A 
HETATM    8  C3  UNL     1     -35.164   5.988   3.681  1.00 20.00    -0.003 A 
HETATM    9  C4  UNL     1     -34.283   5.977   4.679  1.00 20.00    -0.003 A 
HETATM   10  C10 UNL     1     -33.163   4.732   2.785  1.00 20.00     0.038 C 
ENDBRANCH   2   7
TORSDOF 2
ENDMDL
MODEL 2
REMARK VINA RESULT:      -6.4      0.669      1.359
REMARK  2 active torsions:
REMARK  status: ('A' for Active; 'I' for Inactive)
REMARK    1  A    between atoms: C1_1  and  C6_6 
REMARK    2  A    between atoms: C2_2  and  C8_8 
ROOT
HETATM    1  C1  UNL     1     -32.568   8.318   2.514  1.00 20.00    -0.100 C 
HETATM    2  C2  UNL     1     -33.178   7.547   3.205  1.00 20.00    -0.088 C 
ENDROOT
BRANCH   1   3
HETATM    3  C6  UNL     1     -31.842   9.238   1.689  1.00 20.00     0.069 A 
HETATM    4  C5  UNL     1     -32.503  10.535   1.296  1.00 20.00     0.023 A 
HETATM    5  C7  UNL     1     -32.252   9.481   0.256  1.00 20.00    -0.002 A 
HETATM    6  C9  UNL     1     -33.401   8.776  -0.385  1.00 20.00     0.011 C 
ENDBRANCH   1   3
BRANCH   2   7
HETATM    7  C8  UNL     1     -33.918   6.609   4.047  1.00 20.00     0.055 A 
HETATM    8  C3  UNL     1     -34.024   5.198   3.713  1.00 20.00    -0.003 A 
HETATM    9  C4  UNL     1     -35.121   5.941   3.577  1.00 20.00    -0.003 A 
HETATM   10  C10 UNL     1     -33.856   6.970   5.508  1.00 20.00     0.038 C 
ENDBRANCH   2   7
TORSDOF 2
ENDMDL
MODEL 3
REMARK VINA RESULT:      -6.3      0.897      4.893
REMARK  2 active torsions:
REMARK  status: ('A' for Active; 'I' for Inactive)
REMARK    1  A    between atoms: C1_1  and  C6_6 
REMARK    2  A    between atoms: C2_2  and  C8_8 
ROOT
HETATM    1  C1  UNL     1     -33.278   6.955   2.718  1.00 20.00    -0.100 C 
HETATM    2  C2  UNL     1     -32.859   7.862   2.052  1.00 20.00    -0.088 C 
ENDROOT
BRANCH   1   3
HETATM    3  C6  UNL     1     -33.777   5.872   3.513  1.00 20.00     0.069 A 
HETATM    4  C5  UNL     1     -35.194   5.941   4.024  1.00 20.00     0.023 A 
HETATM    5  C7  UNL     1     -34.047   6.056   4.987  1.00 20.00    -0.002 A 
HETATM    6  C9  UNL     1     -33.796   7.344   5.699  1.00 20.00     0.011 C 
ENDBRANCH   1   3
BRANCH   2   7
HETATM    7  C8  UNL     1     -32.350   8.967   1.240  1.00 20.00     0.055 A 
HETATM    8  C3  UNL     1     -32.681  10.351   1.535  1.00 20.00    -0.003 A 
HETATM    9  C4  UNL     1     -33.234   9.809   0.451  1.00 20.00    -0.003 A 
HETATM   10  C10 UNL     1     -30.979   8.689   0.679  1.00 20.00     0.038 C 
ENDBRANCH   2   7
TORSDOF 2
ENDMDL
MODEL 4
REMARK VINA RESULT:      -5.6      1.206      5.062
REMARK  2 active torsions:
REMARK  status: ('A' for Active; 'I' for Inactive)
REMARK    1  A    between atoms: C1_1  and  C6_6 
REMARK    2  A    between atoms: C2_2  and  C8_8 
ROOT
HETATM    1  C1  UNL     1     -34.002   6.789   3.758  1.00 20.00    -0.100 C 
HETATM    2  C2  UNL     1     -33.180   7.467   3.205  1.00 20.00    -0.088 C 
ENDROOT
BRANCH   1   3
HETATM    3  C6  UNL     1     -34.984   5.981   4.419  1.00 20.00     0.069 A 
HETATM    4  C5  UNL     1     -34.633   5.352   5.744  1.00 20.00     0.023 A 
HETATM    5  C7  UNL     1     -34.806   4.485   4.529  1.00 20.00    -0.002 A 
HETATM    6  C9  UNL     1     -33.632   3.767   3.952  1.00 20.00     0.011 C 
ENDBRANCH   1   3
BRANCH   2   7
HETATM    7  C8  UNL     1     -32.178   8.292   2.531  1.00 20.00     0.055 A 
HETATM    8  C3  UNL     1     -32.550   9.356   1.614  1.00 20.00    -0.003 A 
HETATM    9  C4  UNL     1     -32.004   8.261   1.087  1.00 20.00    -0.003 A 
HETATM   10  C10 UNL     1     -30.944   8.503   3.369  1.00 20.00     0.038 C 
ENDBRANCH   2   7
TORSDOF 2
ENDMDL
MODEL 5
REMARK VINA RESULT:      -4.8      1.172      1.880
REMARK  2 active torsions:
REMARK  status: ('A' for Active; 'I' for Inactive)
REMARK    1  A    between atoms: C1_1  and  C6_6 
REMARK    2  A    between atoms: C2_2  and  C8_8 
ROOT
HETATM    1  C1  UNL     1     -32.980   7.594   2.220  1.00 20.00    -0.100 C 
HETATM    2  C2  UNL     1     -33.449   7.193   3.250  1.00 20.00    -0.088 C 
ENDROOT
BRANCH   1   3
HETATM    3  C6  UNL     1     -32.419   8.073   0.992  1.00 20.00     0.069 A 
HETATM    4  C5  UNL     1     -31.138   8.867   1.041  1.00 20.00     0.023 A 
HETATM    5  C7  UNL     1     -32.423   9.548   0.664  1.00 20.00    -0.002 A 
HETATM    6  C9  UNL     1     -33.017  10.575   1.569  1.00 20.00     0.011 C 
ENDBRANCH   1   3
BRANCH   2   7
HETATM    7  C8  UNL     1     -34.022   6.703   4.503  1.00 20.00     0.055 A 
HETATM    8  C3  UNL     1     -34.110   7.542   5.686  1.00 20.00    -0.003 A 
HETATM    9  C4  UNL     1     -33.219   6.552   5.707  1.00 20.00    -0.003 A 
HETATM   10  C10 UNL     1     -35.128   5.704   4.282  1.00 20.00     0.038 C 
ENDBRANCH   2   7
TORSDOF 2
ENDMDL
MODEL 6
REMARK VINA RESULT:      -4.4      9.927     10.770
REMARK  2 active torsions:
REMARK  status: ('A' for Active; 'I' for Inactive)
REMARK    1  A    between atoms: C1_1  and  C6_6 
REMARK    2  A    between atoms: C2_2  and  C8_8 
ROOT
HETATM    1  C1  UNL     1     -34.707  16.632  -1.971  1.00 20.00    -0.100 C 
HETATM    2  C2  UNL     1     -34.507  15.982  -2.961  1.00 20.00    -0.088 C 
ENDROOT
BRANCH   1   3
HETATM    3  C6  UNL     1     -34.944  17.407  -0.789  1.00 20.00     0.069 A 
HETATM    4  C5  UNL     1     -35.014  18.909  -0.910  1.00 20.00     0.023 A 
HETATM    5  C7  UNL     1     -33.854  18.271  -0.200  1.00 20.00    -0.002 A 
HETATM    6  C9  UNL     1     -32.484  18.354  -0.786  1.00 20.00     0.011 C 
ENDBRANCH   1   3
BRANCH   2   7
HETATM    7  C8  UNL     1     -34.266  15.191  -4.167  1.00 20.00     0.055 A 
HETATM    8  C3  UNL     1     -32.978  14.576  -4.436  1.00 20.00    -0.003 A 
HETATM    9  C4  UNL     1     -33.324  15.618  -5.189  1.00 20.00    -0.003 A 
HETATM   10  C10 UNL     1     -35.495  14.450  -4.627  1.00 20.00     0.038 C 
ENDBRANCH   2   7
TORSDOF 2
ENDMDL
MODEL 7
REMARK VINA RESULT:      -4.4      9.446     10.983
REMARK  2 active torsions:
REMARK  status: ('A' for Active; 'I' for Inactive)
REMARK    1  A    between atoms: C1_1  and  C6_6 
REMARK    2  A    between atoms: C2_2  and  C8_8 
ROOT
HETATM    1  C1  UNL     1     -34.615  16.267  -2.801  1.00 20.00    -0.100 C 
HETATM    2  C2  UNL     1     -34.205  17.027  -1.968  1.00 20.00    -0.088 C 
ENDROOT
BRANCH   1   3
HETATM    3  C6  UNL     1     -35.104  15.359  -3.797  1.00 20.00     0.069 A 
HETATM    4  C5  UNL     1     -34.318  14.104  -4.081  1.00 20.00     0.023 A 
HETATM    5  C7  UNL     1     -34.383  15.193  -5.113  1.00 20.00    -0.002 A 
HETATM    6  C9  UNL     1     -33.153  15.964  -5.462  1.00 20.00     0.011 C 
ENDBRANCH   1   3
BRANCH   2   7
HETATM    7  C8  UNL     1     -33.707  17.953  -0.952  1.00 20.00     0.055 A 
HETATM    8  C3  UNL     1     -33.028  19.188  -1.306  1.00 20.00    -0.003 A 
HETATM    9  C4  UNL     1     -32.286  18.214  -0.782  1.00 20.00    -0.003 A 
HETATM   10  C10 UNL     1     -34.564  17.968   0.288  1.00 20.00     0.038 C 
ENDBRANCH   2   7
TORSDOF 2
ENDMDL
MODEL 8
REMARK VINA RESULT:      -4.3      9.844     10.726
REMARK  2 active torsions:
REMARK  status: ('A' for Active; 'I' for Inactive)
REMARK    1  A    between atoms: C1_1  and  C6_6 
REMARK    2  A    between atoms: C2_2  and  C8_8 
ROOT
HETATM    1  C1  UNL     1     -34.813  16.550  -2.073  1.00 20.00    -0.100 C 
HETATM    2  C2  UNL     1     -34.664  15.934  -3.093  1.00 20.00    -0.088 C 
ENDROOT
BRANCH   1   3
HETATM    3  C6  UNL     1     -34.992  17.284  -0.856  1.00 20.00     0.069 A 
HETATM    4  C5  UNL     1     -35.087  18.788  -0.923  1.00 20.00     0.023 A 
HETATM    5  C7  UNL     1     -33.881  18.144  -0.301  1.00 20.00    -0.002 A 
HETATM    6  C9  UNL     1     -32.547  18.263  -0.960  1.00 20.00     0.011 C 
ENDBRANCH   1   3
BRANCH   2   7
HETATM    7  C8  UNL     1     -34.481  15.185  -4.336  1.00 20.00     0.055 A 
HETATM    8  C3  UNL     1     -35.551  15.041  -5.309  1.00 20.00    -0.003 A 
HETATM    9  C4  UNL     1     -35.216  13.960  -4.608  1.00 20.00    -0.003 A 
HETATM   10  C10 UNL     1     -33.074  15.278  -4.865  1.00 20.00     0.038 C 
ENDBRANCH   2   7
TORSDOF 2
ENDMDL
MODEL 9
REMARK VINA RESULT:      -4.3      9.837     10.714
REMARK  2 active torsions:
REMARK  status: ('A' for Active; 'I' for Inactive)
REMARK    1  A    between atoms: C1_1  and  C6_6 
REMARK    2  A    between atoms: C2_2  and  C8_8 
ROOT
HETATM    1  C1  UNL     1     -34.739  15.073  -3.721  1.00 20.00    -0.100 C 
HETATM    2  C2  UNL     1     -34.655  15.970  -2.927  1.00 20.00    -0.088 C 
ENDROOT
BRANCH   1   3
HETATM    3  C6  UNL     1     -34.838  14.002  -4.668  1.00 20.00     0.069 A 
HETATM    4  C5  UNL     1     -35.070  14.338  -6.120  1.00 20.00     0.023 A 
HETATM    5  C7  UNL     1     -36.157  13.671  -5.326  1.00 20.00    -0.002 A 
HETATM    6  C9  UNL     1     -37.418  14.408  -5.020  1.00 20.00     0.011 C 
ENDBRANCH   1   3
BRANCH   2   7
HETATM    7  C8  UNL     1     -34.555  17.062  -1.960  1.00 20.00     0.055 A 
HETATM    8  C3  UNL     1     -35.399  17.120  -0.778  1.00 20.00    -0.003 A 
HETATM    9  C4  UNL     1     -35.646  18.000  -1.746  1.00 20.00    -0.003 A 
HETATM   10  C10 UNL     1     -33.152  17.595  -1.833  1.00 20.00     0.038 C 
ENDBRANCH   2   7
TORSDOF 2
ENDMDL
