MODEL 1
REMARK VINA RESULT:      -6.6      0.000      0.000
REMARK  0 active torsions:
REMARK  status: ('A' for Active; 'I' for Inactive)
ROOT
HETATM    1  C1  UNL     1     -33.731   7.266   5.723  1.00 20.00     0.017 A 
HETATM    2  C2  UNL     1     -34.383   6.102   5.612  1.00 20.00     0.054 A 
HETATM    3  C3  UNL     1     -33.873   6.054   3.151  1.00 20.00     0.060 A 
HETATM    4  C4  UNL     1     -33.213   7.223   3.249  1.00 20.00    -0.044 A 
HETATM    5  C5  UNL     1     -33.074   7.955   4.562  1.00 20.00     0.221 A 
HETATM    6  C6  UNL     1     -34.527   5.367   4.314  1.00 20.00     0.280 A 
HETATM    7  C7  UNL     1     -32.577   7.874   2.057  1.00 20.00     0.046 C 
HETATM    8  F8  UNL     1     -31.751   8.139   4.845  1.00 20.00    -0.240 F 
HETATM    9  F9  UNL     1     -34.007   4.113   4.446  1.00 20.00    -0.197 F 
HETATM   10  F10 UNL     1     -35.851   5.183   4.043  1.00 20.00    -0.197 F 
ENDROOT
TORSDOF 0
ENDMDL
MODEL 2
REMARK VINA RESULT:      -6.2      1.457      1.820
REMARK  0 active torsions:
REMARK  status: ('A' for Active; 'I' for Inactive)
ROOT
HETATM    1  C1  UNL     1     -34.628   6.230   5.038  1.00 20.00     0.017 A 
HETATM    2  C2  UNL     1     -34.677   5.402   3.986  1.00 20.00     0.054 A 
HETATM    3  C3  UNL     1     -32.793   6.670   2.907  1.00 20.00     0.060 A 
HETATM    4  C4  UNL     1     -32.733   7.507   3.958  1.00 20.00    -0.044 A 
HETATM    5  C5  UNL     1     -33.656   7.369   5.145  1.00 20.00     0.221 A 
HETATM    6  C6  UNL     1     -33.765   5.531   2.804  1.00 20.00     0.280 A 
HETATM    7  C7  UNL     1     -31.745   8.635   4.015  1.00 20.00     0.046 C 
HETATM    8  F8  UNL     1     -32.918   7.218   6.284  1.00 20.00    -0.240 F 
HETATM    9  F9  UNL     1     -33.077   4.365   2.637  1.00 20.00    -0.197 F 
HETATM   10  F10 UNL     1     -34.511   5.675   1.671  1.00 20.00    -0.197 F 
ENDROOT
TORSDOF 0
ENDMDL
MODEL 3
REMARK VINA RESULT:      -6.0      1.229      3.788
REMARK  0 active torsions:
REMARK  status: ('A' for Active; 'I' for Inactive)
ROOT
HETATM    1  C1  UNL     1     -33.567   5.057   2.699  1.00 20.00     0.017 A 
HETATM    2  C2  UNL     1     -32.903   6.177   2.386  1.00 20.00     0.054 A 
HETATM    3  C3  UNL     1     -33.546   7.173   4.603  1.00 20.00     0.060 A 
HETATM    4  C4  UNL     1     -34.216   6.054   4.930  1.00 20.00    -0.044 A 
HETATM    5  C5  UNL     1     -34.294   4.868   3.999  1.00 20.00     0.221 A 
HETATM    6  C6  UNL     1     -32.818   7.360   3.304  1.00 20.00     0.280 A 
HETATM    7  C7  UNL     1     -34.931   5.914   6.241  1.00 20.00     0.046 C 
HETATM    8  F8  UNL     1     -33.801   3.760   4.627  1.00 20.00    -0.240 F 
HETATM    9  F9  UNL     1     -31.508   7.641   3.557  1.00 20.00    -0.197 F 
HETATM   10  F10 UNL     1     -33.308   8.462   2.666  1.00 20.00    -0.197 F 
ENDROOT
TORSDOF 0
ENDMDL
MODEL 4
REMARK VINA RESULT:      -5.9      1.625      2.997
REMARK  0 active torsions:
REMARK  status: ('A' for Active; 'I' for Inactive)
ROOT
HETATM    1  C1  UNL     1     -32.695   7.569   4.102  1.00 20.00     0.017 A 
HETATM    2  C2  UNL     1     -32.783   6.995   2.895  1.00 20.00     0.054 A 
HETATM    3  C3  UNL     1     -34.262   5.205   3.860  1.00 20.00     0.060 A 
HETATM    4  C4  UNL     1     -34.182   5.772   5.077  1.00 20.00    -0.044 A 
HETATM    5  C5  UNL     1     -33.381   7.028   5.323  1.00 20.00     0.221 A 
HETATM    6  C6  UNL     1     -33.577   5.749   2.641  1.00 20.00     0.280 A 
HETATM    7  C7  UNL     1     -34.883   5.190   6.269  1.00 20.00     0.046 C 
HETATM    8  F8  UNL     1     -34.193   7.995   5.842  1.00 20.00    -0.240 F 
HETATM    9  F9  UNL     1     -34.507   5.997   1.674  1.00 20.00    -0.197 F 
HETATM   10  F10 UNL     1     -32.758   4.791   2.118  1.00 20.00    -0.197 F 
ENDROOT
TORSDOF 0
ENDMDL
MODEL 5
REMARK VINA RESULT:      -5.6      1.188      2.525
REMARK  0 active torsions:
REMARK  status: ('A' for Active; 'I' for Inactive)
ROOT
HETATM    1  C1  UNL     1     -33.095   6.156   2.814  1.00 20.00     0.017 A 
HETATM    2  C2  UNL     1     -33.703   4.984   3.038  1.00 20.00     0.054 A 
HETATM    3  C3  UNL     1     -34.277   5.732   5.368  1.00 20.00     0.060 A 
HETATM    4  C4  UNL     1     -33.671   6.914   5.156  1.00 20.00    -0.044 A 
HETATM    5  C5  UNL     1     -33.011   7.249   3.840  1.00 20.00     0.221 A 
HETATM    6  C6  UNL     1     -34.362   4.642   4.340  1.00 20.00     0.280 A 
HETATM    7  C7  UNL     1     -33.609   7.973   6.216  1.00 20.00     0.046 C 
HETATM    8  F8  UNL     1     -33.566   8.385   3.325  1.00 20.00    -0.240 F 
HETATM    9  F9  UNL     1     -35.671   4.335   4.115  1.00 20.00    -0.197 F 
HETATM   10  F10 UNL     1     -33.804   3.503   4.843  1.00 20.00    -0.197 F 
ENDROOT
TORSDOF 0
ENDMDL
MODEL 6
REMARK VINA RESULT:      -5.5      1.407      3.387
REMARK  0 active torsions:
REMARK  status: ('A' for Active; 'I' for Inactive)
ROOT
HETATM    1  C1  UNL     1     -33.552   7.294   5.861  1.00 20.00     0.017 A 
HETATM    2  C2  UNL     1     -33.019   8.009   4.861  1.00 20.00     0.054 A 
HETATM    3  C3  UNL     1     -33.332   6.057   3.307  1.00 20.00     0.060 A 
HETATM    4  C4  UNL     1     -33.870   5.330   4.302  1.00 20.00    -0.044 A 
HETATM    5  C5  UNL     1     -34.038   5.883   5.697  1.00 20.00     0.221 A 
HETATM    6  C6  UNL     1     -32.850   7.469   3.473  1.00 20.00     0.280 A 
HETATM    7  C7  UNL     1     -34.336   3.920   4.089  1.00 20.00     0.046 C 
HETATM    8  F8  UNL     1     -35.352   5.820   6.060  1.00 20.00    -0.240 F 
HETATM    9  F9  UNL     1     -33.508   8.276   2.592  1.00 20.00    -0.197 F 
HETATM   10  F10 UNL     1     -31.535   7.542   3.117  1.00 20.00    -0.197 F 
ENDROOT
TORSDOF 0
ENDMDL
MODEL 7
REMARK VINA RESULT:      -5.5      1.563      2.897
REMARK  0 active torsions:
REMARK  status: ('A' for Active; 'I' for Inactive)
ROOT
HETATM    1  C1  UNL     1     -34.424   5.296   4.098  1.00 20.00     0.017 A 
HETATM    2  C2  UNL     1     -34.428   5.864   5.311  1.00 20.00     0.054 A 
HETATM    3  C3  UNL     1     -32.931   7.693   4.453  1.00 20.00     0.060 A 
HETATM    4  C4  UNL     1     -32.920   7.133   3.231  1.00 20.00    -0.044 A 
HETATM    5  C5  UNL     1     -33.676   5.862   2.926  1.00 20.00     0.221 A 
HETATM    6  C6  UNL     1     -33.682   7.125   5.623  1.00 20.00     0.280 A 
HETATM    7  C7  UNL     1     -32.152   7.735   2.092  1.00 20.00     0.046 C 
HETATM    8  F8  UNL     1     -34.554   6.085   1.904  1.00 20.00    -0.240 F 
HETATM    9  F9  UNL     1     -34.555   8.061   6.094  1.00 20.00    -0.197 F 
HETATM   10  F10 UNL     1     -32.812   6.894   6.648  1.00 20.00    -0.197 F 
ENDROOT
TORSDOF 0
ENDMDL
MODEL 8
REMARK VINA RESULT:      -5.1      1.277      1.678
REMARK  0 active torsions:
REMARK  status: ('A' for Active; 'I' for Inactive)
ROOT
HETATM    1  C1  UNL     1     -33.129   7.734   5.049  1.00 20.00     0.017 A 
HETATM    2  C2  UNL     1     -33.637   6.927   5.990  1.00 20.00     0.054 A 
HETATM    3  C3  UNL     1     -34.432   5.348   4.202  1.00 20.00     0.060 A 
HETATM    4  C4  UNL     1     -33.926   6.149   3.248  1.00 20.00    -0.044 A 
HETATM    5  C5  UNL     1     -33.214   7.439   3.580  1.00 20.00     0.221 A 
HETATM    6  C6  UNL     1     -34.344   5.645   5.671  1.00 20.00     0.280 A 
HETATM    7  C7  UNL     1     -34.040   5.813   1.790  1.00 20.00     0.046 C 
HETATM    8  F8  UNL     1     -31.952   7.412   3.058  1.00 20.00    -0.240 F 
HETATM    9  F9  UNL     1     -33.714   4.613   6.302  1.00 20.00    -0.197 F 
HETATM   10  F10 UNL     1     -35.601   5.678   6.201  1.00 20.00    -0.197 F 
ENDROOT
TORSDOF 0
ENDMDL
MODEL 9
REMARK VINA RESULT:      -5.0      2.046      3.544
REMARK  0 active torsions:
REMARK  status: ('A' for Active; 'I' for Inactive)
ROOT
HETATM    1  C1  UNL     1     -32.160   8.213   4.820  1.00 20.00     0.017 A 
HETATM    2  C2  UNL     1     -31.830   8.600   3.581  1.00 20.00     0.054 A 
HETATM    3  C3  UNL     1     -33.560   7.037   2.638  1.00 20.00     0.060 A 
HETATM    4  C4  UNL     1     -33.901   6.641   3.877  1.00 20.00    -0.044 A 
HETATM    5  C5  UNL     1     -33.227   7.198   5.109  1.00 20.00     0.221 A 
HETATM    6  C6  UNL     1     -32.494   8.055   2.353  1.00 20.00     0.280 A 
HETATM    7  C7  UNL     1     -34.972   5.618   4.114  1.00 20.00     0.046 C 
HETATM    8  F8  UNL     1     -34.163   7.758   5.930  1.00 20.00    -0.240 F 
HETATM    9  F9  UNL     1     -33.033   9.083   1.637  1.00 20.00    -0.197 F 
HETATM   10  F10 UNL     1     -31.550   7.503   1.537  1.00 20.00    -0.197 F 
ENDROOT
TORSDOF 0
ENDMDL
