MODEL 1
REMARK VINA RESULT:      -6.1      0.000      0.000
REMARK  1 active torsions:
REMARK  status: ('A' for Active; 'I' for Inactive)
REMARK    1  A    between atoms: C3_3  and  C6_6 
ROOT
HETATM    1  C1  UNL     1     -32.468   9.504   0.582  1.00 20.00     0.013 C 
HETATM    2  C2  UNL     1     -32.434   8.758   1.522  1.00 20.00    -0.107 C 
HETATM    3  C5  UNL     1     -32.418   6.377   2.357  1.00 20.00     0.033 A 
HETATM    4  C6  UNL     1     -33.650   7.041   2.910  1.00 20.00     0.030 A 
HETATM    5  C7  UNL     1     -32.393   7.861   2.650  1.00 20.00     0.027 A 
HETATM    6  C10 UNL     1     -31.534   8.333   3.795  1.00 20.00     0.030 C 
ENDROOT
BRANCH   4   7
HETATM    7  C3  UNL     1     -34.074   6.730   4.267  1.00 20.00    -0.018 C 
HETATM    8  C4  UNL     1     -34.353   5.518   4.785  1.00 20.00    -0.091 C 
HETATM    9  C8  UNL     1     -34.781   5.364   6.218  1.00 20.00     0.042 C 
HETATM   10  C9  UNL     1     -34.266   4.236   4.006  1.00 20.00     0.042 C 
ENDBRANCH   4   7
TORSDOF 1
ENDMDL
MODEL 2
REMARK VINA RESULT:      -6.1      1.243      4.944
REMARK  1 active torsions:
REMARK  status: ('A' for Active; 'I' for Inactive)
REMARK    1  A    between atoms: C3_3  and  C6_6 
ROOT
HETATM    1  C1  UNL     1     -34.077   7.019   5.976  1.00 20.00     0.013 C 
HETATM    2  C2  UNL     1     -33.576   7.006   4.886  1.00 20.00    -0.107 C 
HETATM    3  C5  UNL     1     -31.625   7.660   3.425  1.00 20.00     0.033 A 
HETATM    4  C6  UNL     1     -32.851   8.335   2.871  1.00 20.00     0.030 A 
HETATM    5  C7  UNL     1     -32.973   6.991   3.576  1.00 20.00     0.027 A 
HETATM    6  C10 UNL     1     -33.219   5.730   2.789  1.00 20.00     0.030 C 
ENDROOT
BRANCH   4   7
HETATM    7  C3  UNL     1     -33.009   8.440   1.427  1.00 20.00    -0.018 C 
HETATM    8  C4  UNL     1     -32.840   9.534   0.658  1.00 20.00    -0.091 C 
HETATM    9  C8  UNL     1     -33.043   9.476  -0.830  1.00 20.00     0.042 C 
HETATM   10  C9  UNL     1     -32.445  10.880   1.195  1.00 20.00     0.042 C 
ENDBRANCH   4   7
TORSDOF 1
ENDMDL
MODEL 3
REMARK VINA RESULT:      -5.6      1.297      1.977
REMARK  1 active torsions:
REMARK  status: ('A' for Active; 'I' for Inactive)
REMARK    1  A    between atoms: C3_3  and  C6_6 
ROOT
HETATM    1  C1  UNL     1     -33.355   9.421  -0.968  1.00 20.00     0.013 C 
HETATM    2  C2  UNL     1     -32.926   9.352   0.150  1.00 20.00    -0.107 C 
HETATM    3  C5  UNL     1     -31.243   8.336   1.733  1.00 20.00     0.033 A 
HETATM    4  C6  UNL     1     -32.613   7.944   2.217  1.00 20.00     0.030 A 
HETATM    5  C7  UNL     1     -32.410   9.268   1.495  1.00 20.00     0.027 A 
HETATM    6  C10 UNL     1     -32.432  10.569   2.255  1.00 20.00     0.030 C 
ENDROOT
BRANCH   4   7
HETATM    7  C3  UNL     1     -32.873   7.903   3.649  1.00 20.00    -0.018 C 
HETATM    8  C4  UNL     1     -33.707   7.078   4.311  1.00 20.00    -0.091 C 
HETATM    9  C8  UNL     1     -33.864   7.165   5.804  1.00 20.00     0.042 C 
HETATM   10  C9  UNL     1     -34.540   6.020   3.644  1.00 20.00     0.042 C 
ENDBRANCH   4   7
TORSDOF 1
ENDMDL
MODEL 4
REMARK VINA RESULT:      -5.5      1.064      4.731
REMARK  1 active torsions:
REMARK  status: ('A' for Active; 'I' for Inactive)
REMARK    1  A    between atoms: C3_3  and  C6_6 
ROOT
HETATM    1  C1  UNL     1     -34.604   4.986   6.187  1.00 20.00     0.013 C 
HETATM    2  C2  UNL     1     -34.509   5.304   5.034  1.00 20.00    -0.107 C 
HETATM    3  C5  UNL     1     -33.559   4.799   2.752  1.00 20.00     0.033 A 
HETATM    4  C6  UNL     1     -33.018   6.136   3.180  1.00 20.00     0.030 A 
HETATM    5  C7  UNL     1     -34.395   5.685   3.647  1.00 20.00     0.027 A 
HETATM    6  C10 UNL     1     -35.642   6.294   3.061  1.00 20.00     0.030 C 
ENDROOT
BRANCH   4   7
HETATM    7  C3  UNL     1     -32.871   7.192   2.189  1.00 20.00    -0.018 C 
HETATM    8  C4  UNL     1     -32.113   8.302   2.274  1.00 20.00    -0.091 C 
HETATM    9  C8  UNL     1     -32.071   9.303   1.153  1.00 20.00     0.042 C 
HETATM   10  C9  UNL     1     -31.260   8.642   3.464  1.00 20.00     0.042 C 
ENDBRANCH   4   7
TORSDOF 1
ENDMDL
MODEL 5
REMARK VINA RESULT:      -4.8     10.593     11.919
REMARK  1 active torsions:
REMARK  status: ('A' for Active; 'I' for Inactive)
REMARK    1  A    between atoms: C3_3  and  C6_6 
ROOT
HETATM    1  C1  UNL     1     -36.601  14.662  -6.540  1.00 20.00     0.013 C 
HETATM    2  C2  UNL     1     -35.602  14.867  -5.908  1.00 20.00    -0.107 C 
HETATM    3  C5  UNL     1     -34.029  14.098  -4.091  1.00 20.00     0.033 A 
HETATM    4  C6  UNL     1     -34.586  15.430  -3.671  1.00 20.00     0.030 A 
HETATM    5  C7  UNL     1     -34.400  15.113  -5.148  1.00 20.00     0.027 A 
HETATM    6  C10 UNL     1     -33.281  15.745  -5.935  1.00 20.00     0.030 C 
ENDROOT
BRANCH   4   7
HETATM    7  C3  UNL     1     -33.716  16.380  -2.993  1.00 20.00    -0.018 C 
HETATM    8  C4  UNL     1     -33.980  17.089  -1.878  1.00 20.00    -0.091 C 
HETATM    9  C8  UNL     1     -32.966  18.036  -1.300  1.00 20.00     0.042 C 
HETATM   10  C9  UNL     1     -35.277  17.007  -1.124  1.00 20.00     0.042 C 
ENDBRANCH   4   7
TORSDOF 1
ENDMDL
MODEL 6
REMARK VINA RESULT:      -4.7     11.078     11.917
REMARK  1 active torsions:
REMARK  status: ('A' for Active; 'I' for Inactive)
REMARK    1  A    between atoms: C3_3  and  C6_6 
ROOT
HETATM    1  C1  UNL     1     -33.253  14.473  -4.479  1.00 20.00     0.013 C 
HETATM    2  C2  UNL     1     -33.768  15.376  -3.880  1.00 20.00    -0.107 C 
HETATM    3  C5  UNL     1     -33.752  17.828  -3.286  1.00 20.00     0.033 A 
HETATM    4  C6  UNL     1     -33.588  17.054  -2.007  1.00 20.00     0.030 A 
HETATM    5  C7  UNL     1     -34.388  16.462  -3.160  1.00 20.00     0.027 A 
HETATM    6  C10 UNL     1     -35.892  16.394  -3.097  1.00 20.00     0.030 C 
ENDROOT
BRANCH   4   7
HETATM    7  C3  UNL     1     -34.252  17.528  -0.801  1.00 20.00    -0.018 C 
HETATM    8  C4  UNL     1     -33.739  18.314   0.165  1.00 20.00    -0.091 C 
HETATM    9  C8  UNL     1     -34.562  18.719   1.356  1.00 20.00     0.042 C 
HETATM   10  C9  UNL     1     -32.335  18.849   0.151  1.00 20.00     0.042 C 
ENDBRANCH   4   7
TORSDOF 1
ENDMDL
MODEL 7
REMARK VINA RESULT:      -4.6     11.412     12.095
REMARK  1 active torsions:
REMARK  status: ('A' for Active; 'I' for Inactive)
REMARK    1  A    between atoms: C3_3  and  C6_6 
ROOT
HETATM    1  C1  UNL     1     -34.241  18.517   2.575  1.00 20.00     0.013 C 
HETATM    2  C2  UNL     1     -33.852  18.504   1.440  1.00 20.00    -0.107 C 
HETATM    3  C5  UNL     1     -34.213  19.233  -0.949  1.00 20.00     0.033 A 
HETATM    4  C6  UNL     1     -34.247  17.729  -0.926  1.00 20.00     0.030 A 
HETATM    5  C7  UNL     1     -33.386  18.488   0.075  1.00 20.00     0.027 A 
HETATM    6  C10 UNL     1     -31.887  18.526  -0.075  1.00 20.00     0.030 C 
ENDROOT
BRANCH   4   7
HETATM    7  C3  UNL     1     -33.642  16.991  -2.026  1.00 20.00    -0.018 C 
HETATM    8  C4  UNL     1     -34.270  16.299  -2.997  1.00 20.00    -0.091 C 
HETATM    9  C8  UNL     1     -33.495  15.586  -4.069  1.00 20.00     0.042 C 
HETATM   10  C9  UNL     1     -35.764  16.175  -3.102  1.00 20.00     0.042 C 
ENDBRANCH   4   7
TORSDOF 1
ENDMDL
MODEL 8
REMARK VINA RESULT:      -4.5     11.220     11.925
REMARK  1 active torsions:
REMARK  status: ('A' for Active; 'I' for Inactive)
REMARK    1  A    between atoms: C3_3  and  C6_6 
ROOT
HETATM    1  C1  UNL     1     -35.795  13.423  -5.358  1.00 20.00     0.013 C 
HETATM    2  C2  UNL     1     -35.848  14.462  -4.759  1.00 20.00    -0.107 C 
HETATM    3  C5  UNL     1     -34.822  16.723  -4.311  1.00 20.00     0.033 A 
HETATM    4  C6  UNL     1     -34.811  15.959  -3.016  1.00 20.00     0.030 A 
HETATM    5  C7  UNL     1     -35.911  15.711  -4.039  1.00 20.00     0.027 A 
HETATM    6  C10 UNL     1     -37.307  16.230  -3.807  1.00 20.00     0.030 C 
ENDROOT
BRANCH   4   7
HETATM    7  C3  UNL     1     -35.089  16.666  -1.774  1.00 20.00    -0.018 C 
HETATM    8  C4  UNL     1     -34.268  17.490  -1.094  1.00 20.00    -0.091 C 
HETATM    9  C8  UNL     1     -34.711  18.148   0.183  1.00 20.00     0.042 C 
HETATM   10  C9  UNL     1     -32.870  17.824  -1.531  1.00 20.00     0.042 C 
ENDBRANCH   4   7
TORSDOF 1
ENDMDL
MODEL 9
REMARK VINA RESULT:      -4.4     11.049     12.061
REMARK  1 active torsions:
REMARK  status: ('A' for Active; 'I' for Inactive)
REMARK    1  A    between atoms: C3_3  and  C6_6 
ROOT
HETATM    1  C1  UNL     1     -32.162  18.479  -0.515  1.00 20.00     0.013 C 
HETATM    2  C2  UNL     1     -33.153  18.196  -1.129  1.00 20.00    -0.107 C 
HETATM    3  C5  UNL     1     -35.391  17.031  -1.150  1.00 20.00     0.033 A 
HETATM    4  C6  UNL     1     -34.535  16.384  -2.205  1.00 20.00     0.030 A 
HETATM    5  C7  UNL     1     -34.346  17.856  -1.866  1.00 20.00     0.027 A 
HETATM    6  C10 UNL     1     -34.827  18.930  -2.808  1.00 20.00     0.030 C 
ENDROOT
BRANCH   4   7
HETATM    7  C3  UNL     1     -35.147  15.978  -3.463  1.00 20.00    -0.018 C 
HETATM    8  C4  UNL     1     -34.610  15.207  -4.429  1.00 20.00    -0.091 C 
HETATM    9  C8  UNL     1     -35.379  14.877  -5.677  1.00 20.00     0.042 C 
HETATM   10  C9  UNL     1     -33.229  14.618  -4.356  1.00 20.00     0.042 C 
ENDBRANCH   4   7
TORSDOF 1
ENDMDL
