MODEL 1
REMARK VINA RESULT:      -5.5      0.000      0.000
REMARK  1 active torsions:
REMARK  status: ('A' for Active; 'I' for Inactive)
REMARK    1  A    between atoms: C5_5  and  C6_6 
ROOT
HETATM    1  C1  UNL     1     -35.541   5.999   3.624  1.00 20.00     0.024 A 
HETATM    2  C2  UNL     1     -34.523   5.196   5.903  1.00 20.00     0.275 C 
HETATM    3  C3  UNL     1     -33.618   7.177   4.945  1.00 20.00     0.285 C 
HETATM    4  C4  UNL     1     -34.654   5.076   4.421  1.00 20.00     0.030 A 
HETATM    5  C5  UNL     1     -34.069   6.297   3.813  1.00 20.00     0.051 A 
HETATM    6  N7  UNL     1     -34.245   6.623   6.166  1.00 20.00     0.084 N 
HETATM    7  H18 UNL     1     -35.140   7.097   6.298  1.00 20.00     0.315 HD
ENDROOT
BRANCH   5   8
HETATM    8  C6  UNL     1     -33.157   6.191   2.631  1.00 20.00     0.363 C 
HETATM    9  F8  UNL     1     -32.588   4.957   2.593  1.00 20.00    -0.214 F 
HETATM   10  F9  UNL     1     -32.137   7.081   2.750  1.00 20.00    -0.214 F 
ENDBRANCH   5   8
TORSDOF 1
ENDMDL
MODEL 2
REMARK VINA RESULT:      -5.4      1.304      1.650
REMARK  1 active torsions:
REMARK  status: ('A' for Active; 'I' for Inactive)
REMARK    1  A    between atoms: C5_5  and  C6_6 
ROOT
HETATM    1  C1  UNL     1     -35.175   6.228   3.226  1.00 20.00     0.024 A 
HETATM    2  C2  UNL     1     -34.304   4.139   4.548  1.00 20.00     0.275 C 
HETATM    3  C3  UNL     1     -34.314   6.224   5.693  1.00 20.00     0.285 C 
HETATM    4  C4  UNL     1     -34.105   5.210   3.528  1.00 20.00     0.030 A 
HETATM    5  C5  UNL     1     -34.085   6.514   4.237  1.00 20.00     0.051 A 
HETATM    6  N7  UNL     1     -34.796   4.826   5.759  1.00 20.00     0.084 N 
HETATM    7  H18 UNL     1     -35.816   4.847   5.716  1.00 20.00     0.315 HD
ENDROOT
BRANCH   5   8
HETATM    8  C6  UNL     1     -33.047   7.539   3.903  1.00 20.00     0.363 C 
HETATM    9  F8  UNL     1     -32.086   6.988   3.115  1.00 20.00    -0.214 F 
HETATM   10  F9  UNL     1     -32.423   7.955   5.037  1.00 20.00    -0.214 F 
ENDBRANCH   5   8
TORSDOF 1
ENDMDL
MODEL 3
REMARK VINA RESULT:      -5.1      2.337      3.097
REMARK  1 active torsions:
REMARK  status: ('A' for Active; 'I' for Inactive)
REMARK    1  A    between atoms: C5_5  and  C6_6 
ROOT
HETATM    1  C1  UNL     1     -35.392   6.353   3.607  1.00 20.00     0.024 A 
HETATM    2  C2  UNL     1     -33.003   7.426   3.707  1.00 20.00     0.275 C 
HETATM    3  C3  UNL     1     -33.159   5.196   2.895  1.00 20.00     0.285 C 
HETATM    4  C4  UNL     1     -34.172   6.788   4.379  1.00 20.00     0.030 A 
HETATM    5  C5  UNL     1     -34.264   5.387   3.897  1.00 20.00     0.051 A 
HETATM    6  N7  UNL     1     -32.673   6.553   2.563  1.00 20.00     0.084 N 
HETATM    7  H18 UNL     1     -33.201   6.884   1.754  1.00 20.00     0.315 HD
ENDROOT
BRANCH   5   8
HETATM    8  C6  UNL     1     -34.504   4.269   4.863  1.00 20.00     0.363 C 
HETATM    9  F8  UNL     1     -34.217   4.678   6.127  1.00 20.00    -0.214 F 
HETATM   10  F9  UNL     1     -33.667   3.234   4.594  1.00 20.00    -0.214 F 
ENDBRANCH   5   8
TORSDOF 1
ENDMDL
MODEL 4
REMARK VINA RESULT:      -5.0      2.189      2.851
REMARK  1 active torsions:
REMARK  status: ('A' for Active; 'I' for Inactive)
REMARK    1  A    between atoms: C5_5  and  C6_6 
ROOT
HETATM    1  C1  UNL     1     -35.179   6.361   3.285  1.00 20.00     0.024 A 
HETATM    2  C2  UNL     1     -33.387   4.449   3.213  1.00 20.00     0.275 C 
HETATM    3  C3  UNL     1     -34.427   4.887   5.307  1.00 20.00     0.285 C 
HETATM    4  C4  UNL     1     -33.745   5.898   3.239  1.00 20.00     0.030 A 
HETATM    5  C5  UNL     1     -34.373   6.186   4.554  1.00 20.00     0.051 A 
HETATM    6  N7  UNL     1     -34.154   3.827   4.311  1.00 20.00     0.084 N 
HETATM    7  H18 UNL     1     -35.050   3.518   3.932  1.00 20.00     0.315 HD
ENDROOT
BRANCH   5   8
HETATM    8  C6  UNL     1     -33.979   7.404   5.328  1.00 20.00     0.363 C 
HETATM    9  F8  UNL     1     -32.646   7.633   5.188  1.00 20.00    -0.214 F 
HETATM   10  F9  UNL     1     -34.197   7.203   6.654  1.00 20.00    -0.214 F 
ENDBRANCH   5   8
TORSDOF 1
ENDMDL
MODEL 5
REMARK VINA RESULT:      -4.9      2.472      3.373
REMARK  1 active torsions:
REMARK  status: ('A' for Active; 'I' for Inactive)
REMARK    1  A    between atoms: C5_5  and  C6_6 
ROOT
HETATM    1  C1  UNL     1     -35.425   6.292   3.402  1.00 20.00     0.024 A 
HETATM    2  C2  UNL     1     -32.896   6.341   2.716  1.00 20.00     0.275 C 
HETATM    3  C3  UNL     1     -33.698   4.366   3.773  1.00 20.00     0.285 C 
HETATM    4  C4  UNL     1     -34.005   6.743   3.630  1.00 20.00     0.030 A 
HETATM    5  C5  UNL     1     -34.496   5.520   4.314  1.00 20.00     0.051 A 
HETATM    6  N7  UNL     1     -33.013   4.876   2.565  1.00 20.00     0.084 N 
HETATM    7  H18 UNL     1     -33.617   4.691   1.763  1.00 20.00     0.315 HD
ENDROOT
BRANCH   5   8
HETATM    8  C6  UNL     1     -34.761   5.531   5.786  1.00 20.00     0.363 C 
HETATM    9  F8  UNL     1     -34.278   6.677   6.336  1.00 20.00    -0.214 F 
HETATM   10  F9  UNL     1     -34.098   4.508   6.386  1.00 20.00    -0.214 F 
ENDBRANCH   5   8
TORSDOF 1
ENDMDL
MODEL 6
REMARK VINA RESULT:      -4.8      2.327      3.165
REMARK  1 active torsions:
REMARK  status: ('A' for Active; 'I' for Inactive)
REMARK    1  A    between atoms: C5_5  and  C6_6 
ROOT
HETATM    1  C1  UNL     1     -32.888   5.102   2.881  1.00 20.00     0.024 A 
HETATM    2  C2  UNL     1     -32.888   7.666   2.335  1.00 20.00     0.275 C 
HETATM    3  C3  UNL     1     -33.137   7.041   4.616  1.00 20.00     0.285 C 
HETATM    4  C4  UNL     1     -33.573   6.341   2.362  1.00 20.00     0.030 A 
HETATM    5  C5  UNL     1     -33.756   5.953   3.784  1.00 20.00     0.051 A 
HETATM    6  N7  UNL     1     -32.321   7.852   3.685  1.00 20.00     0.084 N 
HETATM    7  H18 UNL     1     -31.376   7.466   3.684  1.00 20.00     0.315 HD
ENDROOT
BRANCH   5   8
HETATM    8  C6  UNL     1     -35.063   5.399   4.254  1.00 20.00     0.363 C 
HETATM    9  F8  UNL     1     -36.091   6.081   3.681  1.00 20.00    -0.214 F 
HETATM   10  F9  UNL     1     -35.187   5.574   5.596  1.00 20.00    -0.214 F 
ENDBRANCH   5   8
TORSDOF 1
ENDMDL
MODEL 7
REMARK VINA RESULT:      -4.8      1.367      1.742
REMARK  1 active torsions:
REMARK  status: ('A' for Active; 'I' for Inactive)
REMARK    1  A    between atoms: C5_5  and  C6_6 
ROOT
HETATM    1  C1  UNL     1     -35.500   6.184   3.912  1.00 20.00     0.024 A 
HETATM    2  C2  UNL     1     -33.880   6.981   5.812  1.00 20.00     0.275 C 
HETATM    3  C3  UNL     1     -33.005   6.897   3.602  1.00 20.00     0.285 C 
HETATM    4  C4  UNL     1     -34.601   5.894   5.088  1.00 20.00     0.030 A 
HETATM    5  C5  UNL     1     -34.044   5.817   3.714  1.00 20.00     0.051 A 
HETATM    6  N7  UNL     1     -33.212   7.784   4.768  1.00 20.00     0.084 N 
HETATM    7  H18 UNL     1     -33.855   8.526   4.484  1.00 20.00     0.315 HD
ENDROOT
BRANCH   5   8
HETATM    8  C6  UNL     1     -33.714   4.491   3.105  1.00 20.00     0.363 C 
HETATM    9  F8  UNL     1     -33.717   3.527   4.064  1.00 20.00    -0.214 F 
HETATM   10  F9  UNL     1     -32.457   4.516   2.590  1.00 20.00    -0.214 F 
ENDBRANCH   5   8
TORSDOF 1
ENDMDL
MODEL 8
REMARK VINA RESULT:      -4.6      1.833      2.423
REMARK  1 active torsions:
REMARK  status: ('A' for Active; 'I' for Inactive)
REMARK    1  A    between atoms: C5_5  and  C6_6 
ROOT
HETATM    1  C1  UNL     1     -33.261   7.232   5.074  1.00 20.00     0.024 A 
HETATM    2  C2  UNL     1     -35.106   5.772   3.919  1.00 20.00     0.275 C 
HETATM    3  C3  UNL     1     -32.909   5.662   3.015  1.00 20.00     0.285 C 
HETATM    4  C4  UNL     1     -34.456   7.092   4.165  1.00 20.00     0.030 A 
HETATM    5  C5  UNL     1     -33.091   7.042   3.582  1.00 20.00     0.051 A 
HETATM    6  N7  UNL     1     -34.011   4.845   3.569  1.00 20.00     0.084 N 
HETATM    7  H18 UNL     1     -33.676   4.416   4.433  1.00 20.00     0.315 HD
ENDROOT
BRANCH   5   8
HETATM    8  C6  UNL     1     -32.575   8.185   2.765  1.00 20.00     0.363 C 
HETATM    9  F8  UNL     1     -32.920   8.017   1.461  1.00 20.00    -0.214 F 
HETATM   10  F9  UNL     1     -31.217   8.209   2.804  1.00 20.00    -0.214 F 
ENDBRANCH   5   8
TORSDOF 1
ENDMDL
MODEL 9
REMARK VINA RESULT:      -4.3      2.403      3.026
REMARK  1 active torsions:
REMARK  status: ('A' for Active; 'I' for Inactive)
REMARK    1  A    between atoms: C5_5  and  C6_6 
ROOT
HETATM    1  C1  UNL     1     -35.255   6.287   3.720  1.00 20.00     0.024 A 
HETATM    2  C2  UNL     1     -33.027   7.667   3.723  1.00 20.00     0.275 C 
HETATM    3  C3  UNL     1     -32.963   5.501   2.741  1.00 20.00     0.285 C 
HETATM    4  C4  UNL     1     -34.039   6.827   4.428  1.00 20.00     0.030 A 
HETATM    5  C5  UNL     1     -33.990   5.465   3.839  1.00 20.00     0.051 A 
HETATM    6  N7  UNL     1     -32.689   6.932   2.487  1.00 20.00     0.084 N 
HETATM    7  H18 UNL     1     -33.325   7.245   1.752  1.00 20.00     0.315 HD
ENDROOT
BRANCH   5   8
HETATM    8  C6  UNL     1     -33.996   4.258   4.723  1.00 20.00     0.363 C 
HETATM    9  F8  UNL     1     -34.392   3.167   4.016  1.00 20.00    -0.214 F 
HETATM   10  F9  UNL     1     -34.904   4.418   5.722  1.00 20.00    -0.214 F 
ENDBRANCH   5   8
TORSDOF 1
ENDMDL
