MODEL 1
REMARK VINA RESULT:      -5.2      0.000      0.000
REMARK  0 active torsions:
REMARK  status: ('A' for Active; 'I' for Inactive)
ROOT
HETATM    1  C1  UNL     1     -33.673   4.244   3.638  1.00 20.00    -0.025 C 
HETATM    2  C2  UNL     1     -34.590   4.648   4.538  1.00 20.00    -0.025 C 
HETATM    3  C3  UNL     1     -31.978   7.711   3.446  1.00 20.00    -0.022 C 
HETATM    4  C4  UNL     1     -32.258   8.484   4.520  1.00 20.00     0.007 C 
HETATM    5  C5  UNL     1     -34.924   5.805   2.579  1.00 20.00     0.018 C 
HETATM    6  C6  UNL     1     -33.444   5.403   2.668  1.00 20.00     0.017 C 
HETATM    7  C7  UNL     1     -35.077   6.013   4.117  1.00 20.00     0.016 C 
HETATM    8  C8  UNL     1     -32.770   6.460   3.579  1.00 20.00     0.023 C 
HETATM    9  C9  UNL     1     -33.419   7.918   5.338  1.00 20.00     0.198 C 
HETATM   10  C10 UNL     1     -34.026   7.119   4.215  1.00 20.00     0.039 C 
HETATM   11  F11 UNL     1     -32.984   7.118   6.338  1.00 20.00    -0.245 F 
ENDROOT
TORSDOF 0
ENDMDL
MODEL 2
REMARK VINA RESULT:      -5.0      1.615      3.258
REMARK  0 active torsions:
REMARK  status: ('A' for Active; 'I' for Inactive)
ROOT
HETATM    1  C1  UNL     1     -31.961   7.567   3.492  1.00 20.00    -0.025 C 
HETATM    2  C2  UNL     1     -32.292   6.684   2.531  1.00 20.00    -0.025 C 
HETATM    3  C3  UNL     1     -34.481   6.114   6.035  1.00 20.00    -0.022 C 
HETATM    4  C4  UNL     1     -34.858   4.852   5.727  1.00 20.00     0.007 C 
HETATM    5  C5  UNL     1     -34.121   8.006   2.977  1.00 20.00     0.018 C 
HETATM    6  C6  UNL     1     -33.244   7.935   4.237  1.00 20.00     0.017 C 
HETATM    7  C7  UNL     1     -33.796   6.547   2.531  1.00 20.00     0.016 C 
HETATM    8  C8  UNL     1     -33.609   6.600   4.934  1.00 20.00     0.023 C 
HETATM    9  C9  UNL     1     -34.457   4.474   4.301  1.00 20.00     0.198 C 
HETATM   10  C10 UNL     1     -34.372   5.885   3.784  1.00 20.00     0.039 C 
HETATM   11  F11 UNL     1     -33.253   3.858   4.266  1.00 20.00    -0.245 F 
ENDROOT
TORSDOF 0
ENDMDL
MODEL 3
REMARK VINA RESULT:      -5.0      1.580      2.494
REMARK  0 active torsions:
REMARK  status: ('A' for Active; 'I' for Inactive)
ROOT
HETATM    1  C1  UNL     1     -35.541   6.139   3.707  1.00 20.00    -0.025 C 
HETATM    2  C2  UNL     1     -35.026   5.843   2.499  1.00 20.00    -0.025 C 
HETATM    3  C3  UNL     1     -32.406   8.097   4.834  1.00 20.00    -0.022 C 
HETATM    4  C4  UNL     1     -31.643   8.496   3.790  1.00 20.00     0.007 C 
HETATM    5  C5  UNL     1     -33.747   4.820   4.113  1.00 20.00     0.018 C 
HETATM    6  C6  UNL     1     -34.398   6.072   4.720  1.00 20.00     0.017 C 
HETATM    7  C7  UNL     1     -33.581   5.453   2.697  1.00 20.00     0.016 C 
HETATM    8  C8  UNL     1     -33.509   7.265   4.285  1.00 20.00     0.023 C 
HETATM    9  C9  UNL     1     -32.038   7.787   2.496  1.00 20.00     0.198 C 
HETATM   10  C10 UNL     1     -32.674   6.594   3.159  1.00 20.00     0.039 C 
HETATM   11  F11 UNL     1     -32.942   8.502   1.788  1.00 20.00    -0.245 F 
ENDROOT
TORSDOF 0
ENDMDL
MODEL 4
REMARK VINA RESULT:      -4.9      1.092      1.441
REMARK  0 active torsions:
REMARK  status: ('A' for Active; 'I' for Inactive)
ROOT
HETATM    1  C1  UNL     1     -33.948   4.486   5.000  1.00 20.00    -0.025 C 
HETATM    2  C2  UNL     1     -34.282   5.549   5.756  1.00 20.00    -0.025 C 
HETATM    3  C3  UNL     1     -32.488   6.657   2.157  1.00 20.00    -0.022 C 
HETATM    4  C4  UNL     1     -32.173   7.906   2.569  1.00 20.00     0.007 C 
HETATM    5  C5  UNL     1     -35.520   5.607   3.819  1.00 20.00     0.018 C 
HETATM    6  C6  UNL     1     -34.205   4.864   3.541  1.00 20.00     0.017 C 
HETATM    7  C7  UNL     1     -34.879   6.593   4.843  1.00 20.00     0.016 C 
HETATM    8  C8  UNL     1     -33.139   5.962   3.298  1.00 20.00     0.023 C 
HETATM    9  C9  UNL     1     -32.784   8.222   3.934  1.00 20.00     0.198 C 
HETATM   10  C10 UNL     1     -33.891   7.205   3.849  1.00 20.00     0.039 C 
HETATM   11  F11 UNL     1     -31.928   7.941   4.943  1.00 20.00    -0.245 F 
ENDROOT
TORSDOF 0
ENDMDL
MODEL 5
REMARK VINA RESULT:      -4.7     11.846     12.719
REMARK  0 active torsions:
REMARK  status: ('A' for Active; 'I' for Inactive)
ROOT
HETATM    1  C1  UNL     1     -35.319  16.089  -5.382  1.00 20.00    -0.025 C 
HETATM    2  C2  UNL     1     -33.984  16.246  -5.467  1.00 20.00    -0.025 C 
HETATM    3  C3  UNL     1     -35.403  16.801  -1.585  1.00 20.00    -0.022 C 
HETATM    4  C4  UNL     1     -34.303  17.462  -1.158  1.00 20.00     0.007 C 
HETATM    5  C5  UNL     1     -34.426  14.428  -4.129  1.00 20.00     0.018 C 
HETATM    6  C6  UNL     1     -35.613  15.400  -4.049  1.00 20.00     0.017 C 
HETATM    7  C7  UNL     1     -33.363  15.561  -4.274  1.00 20.00     0.016 C 
HETATM    8  C8  UNL     1     -35.203  16.488  -3.024  1.00 20.00     0.023 C 
HETATM    9  C9  UNL     1     -33.191  17.449  -2.207  1.00 20.00     0.198 C 
HETATM   10  C10 UNL     1     -33.675  16.220  -2.931  1.00 20.00     0.039 C 
HETATM   11  F11 UNL     1     -33.238  18.543  -3.000  1.00 20.00    -0.245 F 
ENDROOT
TORSDOF 0
ENDMDL
MODEL 6
REMARK VINA RESULT:      -4.6      1.641      3.364
REMARK  0 active torsions:
REMARK  status: ('A' for Active; 'I' for Inactive)
ROOT
HETATM    1  C1  UNL     1     -32.925   8.097   1.904  1.00 20.00    -0.025 C 
HETATM    2  C2  UNL     1     -33.749   8.620   2.832  1.00 20.00    -0.025 C 
HETATM    3  C3  UNL     1     -33.236   4.508   3.300  1.00 20.00    -0.022 C 
HETATM    4  C4  UNL     1     -34.337   4.345   4.068  1.00 20.00     0.007 C 
HETATM    5  C5  UNL     1     -31.877   7.804   3.889  1.00 20.00     0.018 C 
HETATM    6  C6  UNL     1     -32.095   7.012   2.591  1.00 20.00     0.017 C 
HETATM    7  C7  UNL     1     -33.401   7.996   4.161  1.00 20.00     0.016 C 
HETATM    8  C8  UNL     1     -33.167   5.943   2.919  1.00 20.00     0.023 C 
HETATM    9  C9  UNL     1     -34.966   5.685   4.448  1.00 20.00     0.198 C 
HETATM   10  C10 UNL     1     -33.714   6.503   4.262  1.00 20.00     0.039 C 
HETATM   11  F11 UNL     1     -35.932   6.051   3.575  1.00 20.00    -0.245 F 
ENDROOT
TORSDOF 0
ENDMDL
MODEL 7
REMARK VINA RESULT:      -4.6     11.928     12.793
REMARK  0 active torsions:
REMARK  status: ('A' for Active; 'I' for Inactive)
ROOT
HETATM    1  C1  UNL     1     -34.655  16.849  -1.512  1.00 20.00    -0.025 C 
HETATM    2  C2  UNL     1     -33.458  17.211  -2.010  1.00 20.00    -0.025 C 
HETATM    3  C3  UNL     1     -35.532  14.650  -4.565  1.00 20.00    -0.022 C 
HETATM    4  C4  UNL     1     -34.438  14.293  -5.277  1.00 20.00     0.007 C 
HETATM    5  C5  UNL     1     -35.105  18.038  -3.385  1.00 20.00     0.018 C 
HETATM    6  C6  UNL     1     -35.634  16.778  -2.684  1.00 20.00     0.017 C 
HETATM    7  C7  UNL     1     -33.641  17.509  -3.478  1.00 20.00     0.016 C 
HETATM    8  C8  UNL     1     -35.083  15.578  -3.494  1.00 20.00     0.023 C 
HETATM    9  C9  UNL     1     -33.214  15.121  -4.887  1.00 20.00     0.198 C 
HETATM   10  C10 UNL     1     -33.986  16.290  -4.334  1.00 20.00     0.039 C 
HETATM   11  F11 UNL     1     -32.482  14.510  -3.927  1.00 20.00    -0.245 F 
ENDROOT
TORSDOF 0
ENDMDL
MODEL 8
REMARK VINA RESULT:      -4.6     12.220     13.301
REMARK  0 active torsions:
REMARK  status: ('A' for Active; 'I' for Inactive)
ROOT
HETATM    1  C1  UNL     1     -33.854  16.470  -4.380  1.00 20.00    -0.025 C 
HETATM    2  C2  UNL     1     -34.785  15.680  -3.812  1.00 20.00    -0.025 C 
HETATM    3  C3  UNL     1     -33.988  14.608  -7.763  1.00 20.00    -0.022 C 
HETATM    4  C4  UNL     1     -35.129  13.897  -7.918  1.00 20.00     0.007 C 
HETATM    5  C5  UNL     1     -32.940  14.400  -4.311  1.00 20.00     0.018 C 
HETATM    6  C6  UNL     1     -32.996  15.586  -5.286  1.00 20.00     0.017 C 
HETATM    7  C7  UNL     1     -34.491  14.256  -4.220  1.00 20.00     0.016 C 
HETATM    8  C8  UNL     1     -34.003  15.181  -6.392  1.00 20.00     0.023 C 
HETATM    9  C9  UNL     1     -35.887  13.750  -6.599  1.00 20.00     0.198 C 
HETATM   10  C10 UNL     1     -34.693  13.968  -5.707  1.00 20.00     0.039 C 
HETATM   11  F11 UNL     1     -36.810  14.726  -6.441  1.00 20.00    -0.245 F 
ENDROOT
TORSDOF 0
ENDMDL
MODEL 9
REMARK VINA RESULT:      -4.4     11.925     12.938
REMARK  0 active torsions:
REMARK  status: ('A' for Active; 'I' for Inactive)
ROOT
HETATM    1  C1  UNL     1     -34.985  14.473  -5.472  1.00 20.00    -0.025 C 
HETATM    2  C2  UNL     1     -34.176  15.337  -6.113  1.00 20.00    -0.025 C 
HETATM    3  C3  UNL     1     -34.915  16.481  -2.171  1.00 20.00    -0.022 C 
HETATM    4  C4  UNL     1     -34.537  17.767  -2.356  1.00 20.00     0.007 C 
HETATM    5  C5  UNL     1     -32.999  14.370  -4.391  1.00 20.00     0.018 C 
HETATM    6  C6  UNL     1     -34.491  14.371  -4.028  1.00 20.00     0.017 C 
HETATM    7  C7  UNL     1     -33.069  15.723  -5.163  1.00 20.00     0.016 C 
HETATM    8  C8  UNL     1     -34.795  15.789  -3.481  1.00 20.00     0.023 C 
HETATM    9  C9  UNL     1     -33.924  17.984  -3.738  1.00 20.00     0.198 C 
HETATM   10  C10 UNL     1     -33.525  16.548  -3.959  1.00 20.00     0.039 C 
HETATM   11  F11 UNL     1     -34.849  18.386  -4.640  1.00 20.00    -0.245 F 
ENDROOT
TORSDOF 0
ENDMDL
