MODEL 1
REMARK VINA RESULT:      -5.2      0.000      0.000
REMARK  0 active torsions:
REMARK  status: ('A' for Active; 'I' for Inactive)
ROOT
HETATM    1  C1  UNL     1     -32.149   8.441   1.724  1.00 20.00     0.012 C 
HETATM    2  C2  UNL     1     -32.381   7.689   2.631  1.00 20.00    -0.112 C 
HETATM    3  C3  UNL     1     -35.437   5.997   3.502  1.00 20.00    -0.026 C 
HETATM    4  C4  UNL     1     -35.114   7.230   3.923  1.00 20.00    -0.024 C 
HETATM    5  C5  UNL     1     -34.254   4.934   5.387  1.00 20.00     0.009 C 
HETATM    6  C6  UNL     1     -33.904   6.361   5.876  1.00 20.00     0.010 C 
HETATM    7  C7  UNL     1     -33.072   5.359   3.220  1.00 20.00     0.026 C 
HETATM    8  C8  UNL     1     -32.667   6.766   3.744  1.00 20.00     0.072 C 
HETATM    9  C9  UNL     1     -34.420   4.931   3.850  1.00 20.00     0.009 C 
HETATM   10  C10 UNL     1     -33.793   7.317   4.665  1.00 20.00     0.023 C 
ENDROOT
TORSDOF 0
ENDMDL
MODEL 2
REMARK VINA RESULT:      -4.5     11.599     12.854
REMARK  0 active torsions:
REMARK  status: ('A' for Active; 'I' for Inactive)
ROOT
HETATM    1  C1  UNL     1     -35.427  17.112  -0.950  1.00 20.00     0.012 C 
HETATM    2  C2  UNL     1     -34.704  16.769  -1.846  1.00 20.00    -0.112 C 
HETATM    3  C3  UNL     1     -35.366  16.499  -5.374  1.00 20.00    -0.026 C 
HETATM    4  C4  UNL     1     -35.596  15.516  -4.489  1.00 20.00    -0.024 C 
HETATM    5  C5  UNL     1     -33.029  15.791  -5.709  1.00 20.00     0.009 C 
HETATM    6  C6  UNL     1     -33.307  14.648  -4.703  1.00 20.00     0.010 C 
HETATM    7  C7  UNL     1     -33.604  17.498  -3.970  1.00 20.00     0.026 C 
HETATM    8  C8  UNL     1     -33.817  16.348  -2.945  1.00 20.00     0.072 C 
HETATM    9  C9  UNL     1     -33.938  17.001  -5.397  1.00 20.00     0.009 C 
HETATM   10  C10 UNL     1     -34.379  15.099  -3.682  1.00 20.00     0.023 C 
ENDROOT
TORSDOF 0
ENDMDL
MODEL 3
REMARK VINA RESULT:      -4.4     11.736     12.764
REMARK  0 active torsions:
REMARK  status: ('A' for Active; 'I' for Inactive)
ROOT
HETATM    1  C1  UNL     1     -34.040  17.136  -1.961  1.00 20.00     0.012 C 
HETATM    2  C2  UNL     1     -34.079  16.261  -2.782  1.00 20.00    -0.112 C 
HETATM    3  C3  UNL     1     -34.946  16.407  -6.273  1.00 20.00    -0.026 C 
HETATM    4  C4  UNL     1     -35.837  16.228  -5.284  1.00 20.00    -0.024 C 
HETATM    5  C5  UNL     1     -34.489  13.990  -6.438  1.00 20.00     0.009 C 
HETATM    6  C6  UNL     1     -35.532  13.790  -5.312  1.00 20.00     0.010 C 
HETATM    7  C7  UNL     1     -33.110  15.446  -4.939  1.00 20.00     0.026 C 
HETATM    8  C8  UNL     1     -34.126  15.187  -3.791  1.00 20.00     0.072 C 
HETATM    9  C9  UNL     1     -33.833  15.383  -6.306  1.00 20.00     0.009 C 
HETATM   10  C10 UNL     1     -35.553  15.033  -4.391  1.00 20.00     0.023 C 
ENDROOT
TORSDOF 0
ENDMDL
MODEL 4
REMARK VINA RESULT:      -4.3      0.953      2.023
REMARK  0 active torsions:
REMARK  status: ('A' for Active; 'I' for Inactive)
ROOT
HETATM    1  C1  UNL     1     -31.664   8.458   2.102  1.00 20.00     0.012 C 
HETATM    2  C2  UNL     1     -32.576   8.016   2.747  1.00 20.00    -0.112 C 
HETATM    3  C3  UNL     1     -33.083   4.701   4.057  1.00 20.00    -0.026 C 
HETATM    4  C4  UNL     1     -33.459   5.089   2.828  1.00 20.00    -0.024 C 
HETATM    5  C5  UNL     1     -35.198   5.473   5.060  1.00 20.00     0.009 C 
HETATM    6  C6  UNL     1     -35.633   5.900   3.637  1.00 20.00     0.010 C 
HETATM    7  C7  UNL     1     -33.216   6.998   4.940  1.00 20.00     0.026 C 
HETATM    8  C8  UNL     1     -33.694   7.472   3.538  1.00 20.00     0.072 C 
HETATM    9  C9  UNL     1     -33.659   5.535   5.181  1.00 20.00     0.009 C 
HETATM   10  C10 UNL     1     -34.389   6.290   2.804  1.00 20.00     0.023 C 
ENDROOT
TORSDOF 0
ENDMDL
MODEL 5
REMARK VINA RESULT:      -4.3     11.153     12.687
REMARK  0 active torsions:
REMARK  status: ('A' for Active; 'I' for Inactive)
ROOT
HETATM    1  C1  UNL     1     -33.362  17.468  -1.524  1.00 20.00     0.012 C 
HETATM    2  C2  UNL     1     -33.802  17.202  -2.609  1.00 20.00    -0.112 C 
HETATM    3  C3  UNL     1     -34.364  13.996  -4.149  1.00 20.00    -0.026 C 
HETATM    4  C4  UNL     1     -33.203  14.667  -4.212  1.00 20.00    -0.024 C 
HETATM    5  C5  UNL     1     -35.261  15.159  -6.129  1.00 20.00     0.009 C 
HETATM    6  C6  UNL     1     -33.912  15.914  -6.207  1.00 20.00     0.010 C 
HETATM    7  C7  UNL     1     -35.665  16.065  -3.830  1.00 20.00     0.026 C 
HETATM    8  C8  UNL     1     -34.341  16.873  -3.941  1.00 20.00     0.072 C 
HETATM    9  C9  UNL     1     -35.560  14.766  -4.664  1.00 20.00     0.009 C 
HETATM   10  C10 UNL     1     -33.316  16.068  -4.788  1.00 20.00     0.023 C 
ENDROOT
TORSDOF 0
ENDMDL
MODEL 6
REMARK VINA RESULT:      -4.2     11.361     12.900
REMARK  0 active torsions:
REMARK  status: ('A' for Active; 'I' for Inactive)
ROOT
HETATM    1  C1  UNL     1     -34.036  17.016  -1.780  1.00 20.00     0.012 C 
HETATM    2  C2  UNL     1     -34.519  16.377  -2.674  1.00 20.00    -0.112 C 
HETATM    3  C3  UNL     1     -33.215  15.636  -5.947  1.00 20.00    -0.026 C 
HETATM    4  C4  UNL     1     -33.928  16.735  -5.653  1.00 20.00    -0.024 C 
HETATM    5  C5  UNL     1     -35.247  14.316  -6.404  1.00 20.00     0.009 C 
HETATM    6  C6  UNL     1     -36.061  15.593  -6.084  1.00 20.00     0.010 C 
HETATM    7  C7  UNL     1     -34.241  14.350  -4.111  1.00 20.00     0.026 C 
HETATM    8  C8  UNL     1     -35.111  15.593  -3.773  1.00 20.00     0.072 C 
HETATM    9  C9  UNL     1     -33.913  14.332  -5.624  1.00 20.00     0.009 C 
HETATM   10  C10 UNL     1     -35.295  16.457  -5.053  1.00 20.00     0.023 C 
ENDROOT
TORSDOF 0
ENDMDL
MODEL 7
REMARK VINA RESULT:      -4.2     11.868     12.697
REMARK  0 active torsions:
REMARK  status: ('A' for Active; 'I' for Inactive)
ROOT
HETATM    1  C1  UNL     1     -33.077  15.765  -5.880  1.00 20.00     0.012 C 
HETATM    2  C2  UNL     1     -33.434  15.873  -4.739  1.00 20.00    -0.112 C 
HETATM    3  C3  UNL     1     -35.667  18.264  -3.236  1.00 20.00    -0.026 C 
HETATM    4  C4  UNL     1     -34.347  18.458  -3.385  1.00 20.00    -0.024 C 
HETATM    5  C5  UNL     1     -35.358  17.121  -1.074  1.00 20.00     0.009 C 
HETATM    6  C6  UNL     1     -33.839  17.367  -1.243  1.00 20.00     0.010 C 
HETATM    7  C7  UNL     1     -35.411  15.813  -3.208  1.00 20.00     0.026 C 
HETATM    8  C8  UNL     1     -33.874  16.007  -3.338  1.00 20.00     0.072 C 
HETATM    9  C9  UNL     1     -36.032  17.017  -2.461  1.00 20.00     0.009 C 
HETATM   10  C10 UNL     1     -33.477  17.390  -2.748  1.00 20.00     0.023 C 
ENDROOT
TORSDOF 0
ENDMDL
MODEL 8
REMARK VINA RESULT:      -4.1     11.223     12.857
REMARK  0 active torsions:
REMARK  status: ('A' for Active; 'I' for Inactive)
ROOT
HETATM    1  C1  UNL     1     -36.559  14.493  -7.485  1.00 20.00     0.012 C 
HETATM    2  C2  UNL     1     -36.105  15.145  -6.585  1.00 20.00    -0.112 C 
HETATM    3  C3  UNL     1     -33.316  14.459  -4.414  1.00 20.00    -0.026 C 
HETATM    4  C4  UNL     1     -34.573  14.052  -4.175  1.00 20.00    -0.024 C 
HETATM    5  C5  UNL     1     -33.701  16.631  -3.313  1.00 20.00     0.009 C 
HETATM    6  C6  UNL     1     -35.142  16.146  -3.023  1.00 20.00     0.010 C 
HETATM    7  C7  UNL     1     -34.079  16.367  -5.774  1.00 20.00     0.026 C 
HETATM    8  C8  UNL     1     -35.547  15.945  -5.480  1.00 20.00     0.072 C 
HETATM    9  C9  UNL     1     -33.166  15.953  -4.595  1.00 20.00     0.009 C 
HETATM   10  C10 UNL     1     -35.599  15.170  -4.133  1.00 20.00     0.023 C 
ENDROOT
TORSDOF 0
ENDMDL
MODEL 9
REMARK VINA RESULT:      -4.0     11.376     12.884
REMARK  0 active torsions:
REMARK  status: ('A' for Active; 'I' for Inactive)
ROOT
HETATM    1  C1  UNL     1     -34.976  13.285  -7.478  1.00 20.00     0.012 C 
HETATM    2  C2  UNL     1     -34.467  13.963  -6.627  1.00 20.00    -0.112 C 
HETATM    3  C3  UNL     1     -35.991  16.074  -4.141  1.00 20.00    -0.026 C 
HETATM    4  C4  UNL     1     -35.677  16.480  -5.381  1.00 20.00    -0.024 C 
HETATM    5  C5  UNL     1     -33.742  16.608  -3.285  1.00 20.00     0.009 C 
HETATM    6  C6  UNL     1     -33.393  17.093  -4.713  1.00 20.00     0.010 C 
HETATM    7  C7  UNL     1     -34.260  14.320  -4.160  1.00 20.00     0.026 C 
HETATM    8  C8  UNL     1     -33.845  14.795  -5.581  1.00 20.00     0.072 C 
HETATM    9  C9  UNL     1     -34.829  15.511  -3.352  1.00 20.00     0.009 C 
HETATM   10  C10 UNL     1     -34.216  16.295  -5.752  1.00 20.00     0.023 C 
ENDROOT
TORSDOF 0
ENDMDL
