MODEL 1
REMARK VINA RESULT:      -6.0      0.000      0.000
REMARK  1 active torsions:
REMARK  status: ('A' for Active; 'I' for Inactive)
REMARK    1  A    between atoms: C9_9  and  C10_10 
ROOT
HETATM    1  C1  UNL     1     -33.440  18.173  -0.518  1.00 20.00     0.001 A 
HETATM    2  C2  UNL     1     -34.804  17.799  -0.126  1.00 20.00     0.001 A 
HETATM    3  C3  UNL     1     -32.896  17.779  -1.688  1.00 20.00     0.012 A 
HETATM    4  C4  UNL     1     -35.595  17.040  -0.912  1.00 20.00     0.012 A 
HETATM    5  C5  UNL     1     -33.418  16.438  -3.767  1.00 20.00     0.009 A 
HETATM    6  C6  UNL     1     -35.611  15.837  -3.137  1.00 20.00     0.009 A 
HETATM    7  C7  UNL     1     -33.701  16.965  -2.567  1.00 20.00    -0.028 A 
HETATM    8  C8  UNL     1     -35.058  16.593  -2.177  1.00 20.00    -0.028 A 
HETATM    9  C10 UNL     1     -34.620  15.673  -4.266  1.00 20.00     0.082 A 
HETATM   10  C11 UNL     1     -35.142  16.184  -5.598  1.00 20.00     0.035 C 
ENDROOT
BRANCH   9  11
HETATM   11  C9  UNL     1     -34.246  14.210  -4.360  1.00 20.00     0.189 C 
HETATM   12  O12 UNL     1     -33.011  13.963  -4.282  1.00 20.00    -0.647 OA
HETATM   13  O13 UNL     1     -35.223  13.422  -4.504  1.00 20.00    -0.647 OA
ENDBRANCH   9  11
TORSDOF 1
ENDMDL
MODEL 2
REMARK VINA RESULT:      -5.5     10.932     11.770
REMARK  1 active torsions:
REMARK  status: ('A' for Active; 'I' for Inactive)
REMARK    1  A    between atoms: C9_9  and  C10_10 
ROOT
HETATM    1  C1  UNL     1     -34.596   5.244   5.898  1.00 20.00     0.001 A 
HETATM    2  C2  UNL     1     -34.477   4.256   4.820  1.00 20.00     0.001 A 
HETATM    3  C3  UNL     1     -34.257   6.538   5.726  1.00 20.00     0.012 A 
HETATM    4  C4  UNL     1     -34.021   4.582   3.593  1.00 20.00     0.012 A 
HETATM    5  C5  UNL     1     -33.356   8.139   3.988  1.00 20.00     0.009 A 
HETATM    6  C6  UNL     1     -33.163   6.549   2.255  1.00 20.00     0.009 A 
HETATM    7  C7  UNL     1     -33.764   6.940   4.430  1.00 20.00    -0.028 A 
HETATM    8  C8  UNL     1     -33.644   5.956   3.357  1.00 20.00    -0.028 A 
HETATM    9  C10 UNL     1     -32.944   8.016   2.540  1.00 20.00     0.082 A 
HETATM   10  C11 UNL     1     -33.732   8.928   1.616  1.00 20.00     0.035 C 
ENDROOT
BRANCH   9  11
HETATM   11  C9  UNL     1     -31.461   8.302   2.443  1.00 20.00     0.189 C 
HETATM   12  O12 UNL     1     -30.833   8.269   3.537  1.00 20.00    -0.647 OA
HETATM   13  O13 UNL     1     -31.043   8.538   1.274  1.00 20.00    -0.647 OA
ENDBRANCH   9  11
TORSDOF 1
ENDMDL
MODEL 3
REMARK VINA RESULT:      -5.5      9.636     10.446
REMARK  1 active torsions:
REMARK  status: ('A' for Active; 'I' for Inactive)
REMARK    1  A    between atoms: C9_9  and  C10_10 
ROOT
HETATM    1  C1  UNL     1     -34.483   5.937   4.605  1.00 20.00     0.001 A 
HETATM    2  C2  UNL     1     -33.798   6.825   5.551  1.00 20.00     0.001 A 
HETATM    3  C3  UNL     1     -34.325   6.051   3.270  1.00 20.00     0.012 A 
HETATM    4  C4  UNL     1     -32.969   7.808   5.144  1.00 20.00     0.012 A 
HETATM    5  C5  UNL     1     -33.114   7.425   1.527  1.00 20.00     0.009 A 
HETATM    6  C6  UNL     1     -32.013   8.853   3.048  1.00 20.00     0.009 A 
HETATM    7  C7  UNL     1     -33.447   7.087   2.781  1.00 20.00    -0.028 A 
HETATM    8  C8  UNL     1     -32.765   7.971   3.722  1.00 20.00    -0.028 A 
HETATM    9  C10 UNL     1     -32.146   8.583   1.568  1.00 20.00     0.082 A 
HETATM   10  C11 UNL     1     -30.819   8.275   0.896  1.00 20.00     0.035 C 
ENDROOT
BRANCH   9  11
HETATM   11  C9  UNL     1     -32.811   9.781   0.925  1.00 20.00     0.189 C 
HETATM   12  O12 UNL     1     -32.795  10.839   1.612  1.00 20.00    -0.647 OA
HETATM   13  O13 UNL     1     -33.297   9.564  -0.221  1.00 20.00    -0.647 OA
ENDBRANCH   9  11
TORSDOF 1
ENDMDL
MODEL 4
REMARK VINA RESULT:      -5.5      1.524      2.466
REMARK  1 active torsions:
REMARK  status: ('A' for Active; 'I' for Inactive)
REMARK    1  A    between atoms: C9_9  and  C10_10 
ROOT
HETATM    1  C1  UNL     1     -34.636  18.063   0.397  1.00 20.00     0.001 A 
HETATM    2  C2  UNL     1     -33.280  18.392  -0.055  1.00 20.00     0.001 A 
HETATM    3  C3  UNL     1     -35.486  17.334  -0.355  1.00 20.00     0.012 A 
HETATM    4  C4  UNL     1     -32.802  17.985  -1.249  1.00 20.00     0.012 A 
HETATM    5  C5  UNL     1     -35.647  16.147  -2.582  1.00 20.00     0.009 A 
HETATM    6  C6  UNL     1     -33.465  16.677  -3.309  1.00 20.00     0.009 A 
HETATM    7  C7  UNL     1     -35.024  16.872  -1.642  1.00 20.00    -0.028 A 
HETATM    8  C8  UNL     1     -33.673  17.200  -2.092  1.00 20.00    -0.028 A 
HETATM    9  C10 UNL     1     -34.705  15.931  -3.742  1.00 20.00     0.082 A 
HETATM   10  C11 UNL     1     -34.448  14.463  -4.037  1.00 20.00     0.035 C 
ENDROOT
BRANCH   9  11
HETATM   11  C9  UNL     1     -35.280  16.631  -4.955  1.00 20.00     0.189 C 
HETATM   12  O12 UNL     1     -34.434  17.192  -5.705  1.00 20.00    -0.647 OA
HETATM   13  O13 UNL     1     -36.537  16.562  -5.060  1.00 20.00    -0.647 OA
ENDBRANCH   9  11
TORSDOF 1
ENDMDL
MODEL 5
REMARK VINA RESULT:      -5.3      1.213      1.559
REMARK  1 active torsions:
REMARK  status: ('A' for Active; 'I' for Inactive)
REMARK    1  A    between atoms: C9_9  and  C10_10 
ROOT
HETATM    1  C1  UNL     1     -33.490  17.400  -1.504  1.00 20.00     0.001 A 
HETATM    2  C2  UNL     1     -34.836  17.633  -0.971  1.00 20.00     0.001 A 
HETATM    3  C3  UNL     1     -33.282  16.772  -2.680  1.00 20.00     0.012 A 
HETATM    4  C4  UNL     1     -35.947  17.233  -1.623  1.00 20.00     0.012 A 
HETATM    5  C5  UNL     1     -34.525  15.680  -4.592  1.00 20.00     0.009 A 
HETATM    6  C6  UNL     1     -36.690  16.054  -3.734  1.00 20.00     0.009 A 
HETATM    7  C7  UNL     1     -34.438  16.324  -3.419  1.00 20.00    -0.028 A 
HETATM    8  C8  UNL     1     -35.779  16.556  -2.888  1.00 20.00    -0.028 A 
HETATM    9  C10 UNL     1     -35.980  15.455  -4.925  1.00 20.00     0.082 A 
HETATM   10  C11 UNL     1     -36.395  16.081  -6.245  1.00 20.00     0.035 C 
ENDROOT
BRANCH   9  11
HETATM   11  C9  UNL     1     -36.240  13.964  -4.931  1.00 20.00     0.189 C 
HETATM   12  O12 UNL     1     -35.209  13.237  -4.946  1.00 20.00    -0.647 OA
HETATM   13  O13 UNL     1     -37.461  13.639  -4.919  1.00 20.00    -0.647 OA
ENDBRANCH   9  11
TORSDOF 1
ENDMDL
MODEL 6
REMARK VINA RESULT:      -5.3      1.426      2.088
REMARK  1 active torsions:
REMARK  status: ('A' for Active; 'I' for Inactive)
REMARK    1  A    between atoms: C9_9  and  C10_10 
ROOT
HETATM    1  C1  UNL     1     -33.875  17.017  -1.936  1.00 20.00     0.001 A 
HETATM    2  C2  UNL     1     -35.322  17.000  -1.692  1.00 20.00     0.001 A 
HETATM    3  C3  UNL     1     -33.331  16.513  -3.063  1.00 20.00     0.012 A 
HETATM    4  C4  UNL     1     -36.195  16.481  -2.580  1.00 20.00     0.012 A 
HETATM    5  C5  UNL     1     -33.961  15.382  -5.235  1.00 20.00     0.009 A 
HETATM    6  C6  UNL     1     -36.287  15.355  -4.842  1.00 20.00     0.009 A 
HETATM    7  C7  UNL     1     -34.222  15.947  -4.047  1.00 20.00    -0.028 A 
HETATM    8  C8  UNL     1     -35.662  15.930  -3.804  1.00 20.00    -0.028 A 
HETATM    9  C10 UNL     1     -35.260  14.959  -5.877  1.00 20.00     0.082 A 
HETATM   10  C11 UNL     1     -35.496  15.606  -7.231  1.00 20.00     0.035 C 
ENDROOT
BRANCH   9  11
HETATM   11  C9  UNL     1     -35.262  13.450  -5.994  1.00 20.00     0.189 C 
HETATM   12  O12 UNL     1     -36.041  12.849  -5.203  1.00 20.00    -0.647 OA
HETATM   13  O13 UNL     1     -34.481  12.986  -6.872  1.00 20.00    -0.647 OA
ENDBRANCH   9  11
TORSDOF 1
ENDMDL
MODEL 7
REMARK VINA RESULT:      -5.0      2.466      4.358
REMARK  1 active torsions:
REMARK  status: ('A' for Active; 'I' for Inactive)
REMARK    1  A    between atoms: C9_9  and  C10_10 
ROOT
HETATM    1  C1  UNL     1     -35.589  13.702  -4.937  1.00 20.00     0.001 A 
HETATM    2  C2  UNL     1     -36.907  14.346  -4.882  1.00 20.00     0.001 A 
HETATM    3  C3  UNL     1     -34.508  14.226  -4.323  1.00 20.00     0.012 A 
HETATM    4  C4  UNL     1     -37.116  15.500  -4.215  1.00 20.00     0.012 A 
HETATM    5  C5  UNL     1     -33.791  16.193  -2.905  1.00 20.00     0.009 A 
HETATM    6  C6  UNL     1     -35.909  17.229  -2.818  1.00 20.00     0.009 A 
HETATM    7  C7  UNL     1     -34.678  15.460  -3.594  1.00 20.00    -0.028 A 
HETATM    8  C8  UNL     1     -35.989  16.101  -3.539  1.00 20.00    -0.028 A 
HETATM    9  C10 UNL     1     -34.492  17.396  -2.321  1.00 20.00     0.082 A 
HETATM   10  C11 UNL     1     -34.395  17.467  -0.807  1.00 20.00     0.035 C 
ENDROOT
BRANCH   9  11
HETATM   11  C9  UNL     1     -33.911  18.640  -2.957  1.00 20.00     0.189 C 
HETATM   12  O12 UNL     1     -32.738  18.932  -2.595  1.00 20.00    -0.647 OA
HETATM   13  O13 UNL     1     -34.678  19.226  -3.772  1.00 20.00    -0.647 OA
ENDBRANCH   9  11
TORSDOF 1
ENDMDL
MODEL 8
REMARK VINA RESULT:      -4.9      1.168      1.446
REMARK  1 active torsions:
REMARK  status: ('A' for Active; 'I' for Inactive)
REMARK    1  A    between atoms: C9_9  and  C10_10 
ROOT
HETATM    1  C1  UNL     1     -34.857  17.710  -0.903  1.00 20.00     0.001 A 
HETATM    2  C2  UNL     1     -36.213  17.850  -1.445  1.00 20.00     0.001 A 
HETATM    3  C3  UNL     1     -33.869  17.100  -1.590  1.00 20.00     0.012 A 
HETATM    4  C4  UNL     1     -36.553  17.378  -2.662  1.00 20.00     0.012 A 
HETATM    5  C5  UNL     1     -33.406  15.933  -3.785  1.00 20.00     0.009 A 
HETATM    6  C6  UNL     1     -35.588  16.158  -4.656  1.00 20.00     0.009 A 
HETATM    7  C7  UNL     1     -34.179  16.578  -2.900  1.00 20.00    -0.028 A 
HETATM    8  C8  UNL     1     -35.529  16.717  -3.439  1.00 20.00    -0.028 A 
HETATM    9  C10 UNL     1     -34.225  15.611  -5.012  1.00 20.00     0.082 A 
HETATM   10  C11 UNL     1     -33.654  16.213  -6.285  1.00 20.00     0.035 C 
ENDROOT
BRANCH   9  11
HETATM   11  C9  UNL     1     -34.334  14.106  -5.129  1.00 20.00     0.189 C 
HETATM   12  O12 UNL     1     -34.268  13.651  -6.304  1.00 20.00    -0.647 OA
HETATM   13  O13 UNL     1     -34.476  13.499  -4.030  1.00 20.00    -0.647 OA
ENDBRANCH   9  11
TORSDOF 1
ENDMDL
MODEL 9
REMARK VINA RESULT:      -4.7      2.527      4.581
REMARK  1 active torsions:
REMARK  status: ('A' for Active; 'I' for Inactive)
REMARK    1  A    between atoms: C9_9  and  C10_10 
ROOT
HETATM    1  C1  UNL     1     -36.863  14.344  -4.872  1.00 20.00     0.001 A 
HETATM    2  C2  UNL     1     -35.553  13.684  -4.846  1.00 20.00     0.001 A 
HETATM    3  C3  UNL     1     -37.077  15.538  -4.282  1.00 20.00     0.012 A 
HETATM    4  C4  UNL     1     -34.484  14.232  -4.232  1.00 20.00     0.012 A 
HETATM    5  C5  UNL     1     -35.894  17.332  -2.949  1.00 20.00     0.009 A 
HETATM    6  C6  UNL     1     -33.788  16.270  -2.907  1.00 20.00     0.009 A 
HETATM    7  C7  UNL     1     -35.965  16.168  -3.611  1.00 20.00    -0.028 A 
HETATM    8  C8  UNL     1     -34.661  15.512  -3.585  1.00 20.00    -0.028 A 
HETATM    9  C10 UNL     1     -34.485  17.527  -2.442  1.00 20.00     0.082 A 
HETATM   10  C11 UNL     1     -33.835  18.798  -2.962  1.00 20.00     0.035 C 
ENDROOT
BRANCH   9  11
HETATM   11  C9  UNL     1     -34.519  17.519  -0.929  1.00 20.00     0.189 C 
HETATM   12  O12 UNL     1     -35.577  17.061  -0.417  1.00 20.00    -0.647 OA
HETATM   13  O13 UNL     1     -33.479  17.974  -0.374  1.00 20.00    -0.647 OA
ENDBRANCH   9  11
TORSDOF 1
ENDMDL
