MODEL 1
REMARK VINA RESULT:      -5.6      0.000      0.000
REMARK  0 active torsions:
REMARK  status: ('A' for Active; 'I' for Inactive)
ROOT
HETATM    1  C1  UNL     1     -34.515   4.662   5.989  1.00 20.00     0.012 C 
HETATM    2  C2  UNL     1     -32.495   9.143   1.389  1.00 20.00     0.012 C 
HETATM    3  C3  UNL     1     -34.547   5.647   5.303  1.00 20.00    -0.113 C 
HETATM    4  C4  UNL     1     -32.405   8.305   2.245  1.00 20.00    -0.113 C 
HETATM    5  C5  UNL     1     -34.001   5.669   2.269  1.00 20.00     0.002 C 
HETATM    6  C6  UNL     1     -35.026   6.510   3.037  1.00 20.00     0.017 C 
HETATM    7  C7  UNL     1     -32.553   5.884   2.720  1.00 20.00     0.017 C 
HETATM    8  C8  UNL     1     -33.231   7.593   4.482  1.00 20.00     0.034 C 
HETATM    9  C9  UNL     1     -34.586   6.858   4.460  1.00 20.00     0.065 C 
HETATM   10  C10 UNL     1     -32.295   7.277   3.299  1.00 20.00     0.065 C 
ENDROOT
TORSDOF 0
ENDMDL
MODEL 2
REMARK VINA RESULT:      -5.6      0.020      3.992
REMARK  0 active torsions:
REMARK  status: ('A' for Active; 'I' for Inactive)
ROOT
HETATM    1  C1  UNL     1     -32.528   9.152   1.400  1.00 20.00     0.012 C 
HETATM    2  C2  UNL     1     -34.507   4.646   5.993  1.00 20.00     0.012 C 
HETATM    3  C3  UNL     1     -32.430   8.315   2.254  1.00 20.00    -0.113 C 
HETATM    4  C4  UNL     1     -34.546   5.632   5.308  1.00 20.00    -0.113 C 
HETATM    5  C5  UNL     1     -33.999   5.662   2.275  1.00 20.00     0.002 C 
HETATM    6  C6  UNL     1     -32.553   5.892   2.724  1.00 20.00     0.017 C 
HETATM    7  C7  UNL     1     -35.031   6.494   3.043  1.00 20.00     0.017 C 
HETATM    8  C8  UNL     1     -33.245   7.589   4.491  1.00 20.00     0.034 C 
HETATM    9  C9  UNL     1     -32.308   7.285   3.305  1.00 20.00     0.065 C 
HETATM   10  C10 UNL     1     -34.594   6.844   4.467  1.00 20.00     0.065 C 
ENDROOT
TORSDOF 0
ENDMDL
MODEL 3
REMARK VINA RESULT:      -4.5     10.891     12.395
REMARK  0 active torsions:
REMARK  status: ('A' for Active; 'I' for Inactive)
ROOT
HETATM    1  C1  UNL     1     -33.903  17.086  -2.072  1.00 20.00     0.012 C 
HETATM    2  C2  UNL     1     -35.144  13.086  -7.342  1.00 20.00     0.012 C 
HETATM    3  C3  UNL     1     -33.676  16.317  -2.964  1.00 20.00    -0.113 C 
HETATM    4  C4  UNL     1     -35.347  13.669  -6.311  1.00 20.00    -0.113 C 
HETATM    5  C5  UNL     1     -34.711  16.649  -5.849  1.00 20.00     0.002 C 
HETATM    6  C6  UNL     1     -33.351  16.101  -5.405  1.00 20.00     0.017 C 
HETATM    7  C7  UNL     1     -35.908  15.859  -5.312  1.00 20.00     0.017 C 
HETATM    8  C8  UNL     1     -34.416  14.212  -4.069  1.00 20.00     0.034 C 
HETATM    9  C9  UNL     1     -33.397  15.370  -4.063  1.00 20.00     0.065 C 
HETATM   10  C10 UNL     1     -35.596  14.386  -5.044  1.00 20.00     0.065 C 
ENDROOT
TORSDOF 0
ENDMDL
MODEL 4
REMARK VINA RESULT:      -4.5     10.881     12.328
REMARK  0 active torsions:
REMARK  status: ('A' for Active; 'I' for Inactive)
ROOT
HETATM    1  C1  UNL     1     -35.110  13.088  -7.340  1.00 20.00     0.012 C 
HETATM    2  C2  UNL     1     -33.979  17.080  -2.039  1.00 20.00     0.012 C 
HETATM    3  C3  UNL     1     -35.328  13.652  -6.304  1.00 20.00    -0.113 C 
HETATM    4  C4  UNL     1     -33.732  16.327  -2.942  1.00 20.00    -0.113 C 
HETATM    5  C5  UNL     1     -34.802  16.650  -5.813  1.00 20.00     0.002 C 
HETATM    6  C6  UNL     1     -35.965  15.809  -5.279  1.00 20.00     0.017 C 
HETATM    7  C7  UNL     1     -33.420  16.147  -5.387  1.00 20.00     0.017 C 
HETATM    8  C8  UNL     1     -34.404  14.209  -4.060  1.00 20.00     0.034 C 
HETATM    9  C9  UNL     1     -35.596  14.347  -5.028  1.00 20.00     0.065 C 
HETATM   10  C10 UNL     1     -33.428  15.401  -4.051  1.00 20.00     0.065 C 
ENDROOT
TORSDOF 0
ENDMDL
MODEL 5
REMARK VINA RESULT:      -4.5     10.874     12.305
REMARK  0 active torsions:
REMARK  status: ('A' for Active; 'I' for Inactive)
ROOT
HETATM    1  C1  UNL     1     -34.600  16.942  -1.470  1.00 20.00     0.012 C 
HETATM    2  C2  UNL     1     -33.904  14.984  -7.873  1.00 20.00     0.012 C 
HETATM    3  C3  UNL     1     -34.894  16.769  -2.620  1.00 20.00    -0.113 C 
HETATM    4  C4  UNL     1     -33.580  15.380  -6.786  1.00 20.00    -0.113 C 
HETATM    5  C5  UNL     1     -34.504  14.112  -4.133  1.00 20.00     0.002 C 
HETATM    6  C6  UNL     1     -35.663  15.102  -4.275  1.00 20.00     0.017 C 
HETATM    7  C7  UNL     1     -33.130  14.709  -4.449  1.00 20.00     0.017 C 
HETATM    8  C8  UNL     1     -34.114  16.999  -4.973  1.00 20.00     0.034 C 
HETATM    9  C9  UNL     1     -35.256  16.557  -4.036  1.00 20.00     0.065 C 
HETATM   10  C10 UNL     1     -33.184  15.866  -5.449  1.00 20.00     0.065 C 
ENDROOT
TORSDOF 0
ENDMDL
MODEL 6
REMARK VINA RESULT:      -4.5     10.892     12.716
REMARK  0 active torsions:
REMARK  status: ('A' for Active; 'I' for Inactive)
ROOT
HETATM    1  C1  UNL     1     -34.028  14.971  -7.905  1.00 20.00     0.012 C 
HETATM    2  C2  UNL     1     -34.299  17.041  -1.505  1.00 20.00     0.012 C 
HETATM    3  C3  UNL     1     -33.632  15.382  -6.849  1.00 20.00    -0.113 C 
HETATM    4  C4  UNL     1     -34.667  16.850  -2.633  1.00 20.00    -0.113 C 
HETATM    5  C5  UNL     1     -34.386  14.165  -4.119  1.00 20.00     0.002 C 
HETATM    6  C6  UNL     1     -33.032  14.747  -4.537  1.00 20.00     0.017 C 
HETATM    7  C7  UNL     1     -35.548  15.160  -4.206  1.00 20.00     0.017 C 
HETATM    8  C8  UNL     1     -34.036  17.035  -5.032  1.00 20.00     0.034 C 
HETATM    9  C9  UNL     1     -33.145  15.888  -5.550  1.00 20.00     0.065 C 
HETATM   10  C10 UNL     1     -35.118  16.616  -4.019  1.00 20.00     0.065 C 
ENDROOT
TORSDOF 0
ENDMDL
MODEL 7
REMARK VINA RESULT:      -4.5     10.748     12.575
REMARK  0 active torsions:
REMARK  status: ('A' for Active; 'I' for Inactive)
ROOT
HETATM    1  C1  UNL     1     -34.744  14.043  -7.918  1.00 20.00     0.012 C 
HETATM    2  C2  UNL     1     -34.370  17.012  -1.887  1.00 20.00     0.012 C 
HETATM    3  C3  UNL     1     -34.525  14.905  -7.111  1.00 20.00    -0.113 C 
HETATM    4  C4  UNL     1     -34.778  16.277  -2.746  1.00 20.00    -0.113 C 
HETATM    5  C5  UNL     1     -32.982  14.469  -4.479  1.00 20.00     0.002 C 
HETATM    6  C6  UNL     1     -32.937  15.699  -5.391  1.00 20.00     0.017 C 
HETATM    7  C7  UNL     1     -34.376  14.147  -3.932  1.00 20.00     0.017 C 
HETATM    8  C8  UNL     1     -35.436  16.122  -5.140  1.00 20.00     0.034 C 
HETATM    9  C9  UNL     1     -34.255  15.966  -6.120  1.00 20.00     0.065 C 
HETATM   10  C10 UNL     1     -35.278  15.375  -3.802  1.00 20.00     0.065 C 
ENDROOT
TORSDOF 0
ENDMDL
MODEL 8
REMARK VINA RESULT:      -4.4     10.787     12.352
REMARK  0 active torsions:
REMARK  status: ('A' for Active; 'I' for Inactive)
ROOT
HETATM    1  C1  UNL     1     -34.063  17.070  -1.926  1.00 20.00     0.012 C 
HETATM    2  C2  UNL     1     -34.825  14.097  -7.917  1.00 20.00     0.012 C 
HETATM    3  C3  UNL     1     -34.552  16.367  -2.767  1.00 20.00    -0.113 C 
HETATM    4  C4  UNL     1     -34.514  14.943  -7.123  1.00 20.00    -0.113 C 
HETATM    5  C5  UNL     1     -32.962  14.390  -4.518  1.00 20.00     0.002 C 
HETATM    6  C6  UNL     1     -34.367  14.199  -3.938  1.00 20.00     0.017 C 
HETATM    7  C7  UNL     1     -32.828  15.605  -5.441  1.00 20.00     0.017 C 
HETATM    8  C8  UNL     1     -35.274  16.248  -5.146  1.00 20.00     0.034 C 
HETATM    9  C9  UNL     1     -35.154  15.503  -3.802  1.00 20.00     0.065 C 
HETATM   10  C10 UNL     1     -34.132  15.982  -6.146  1.00 20.00     0.065 C 
ENDROOT
TORSDOF 0
ENDMDL
MODEL 9
REMARK VINA RESULT:      -4.2     11.323     12.729
REMARK  0 active torsions:
REMARK  status: ('A' for Active; 'I' for Inactive)
ROOT
HETATM    1  C1  UNL     1     -36.079  14.296  -7.312  1.00 20.00     0.012 C 
HETATM    2  C2  UNL     1     -33.411  17.459  -2.003  1.00 20.00     0.012 C 
HETATM    3  C3  UNL     1     -35.777  15.211  -6.597  1.00 20.00    -0.113 C 
HETATM    4  C4  UNL     1     -33.927  16.575  -2.631  1.00 20.00    -0.113 C 
HETATM    5  C5  UNL     1     -32.966  15.623  -5.400  1.00 20.00     0.002 C 
HETATM    6  C6  UNL     1     -33.931  16.701  -5.903  1.00 20.00     0.017 C 
HETATM    7  C7  UNL     1     -33.527  14.763  -4.264  1.00 20.00     0.017 C 
HETATM    8  C8  UNL     1     -35.740  16.023  -4.244  1.00 20.00     0.034 C 
HETATM    9  C9  UNL     1     -35.404  16.336  -5.716  1.00 20.00     0.065 C 
HETATM   10  C10 UNL     1     -34.563  15.490  -3.404  1.00 20.00     0.065 C 
ENDROOT
TORSDOF 0
ENDMDL
