MODEL 1
REMARK VINA RESULT:      -6.5      0.000      0.000
REMARK  4 active torsions:
REMARK  status: ('A' for Active; 'I' for Inactive)
REMARK    1  A    between atoms: C1_1  and  C7_7 
REMARK    2  A    between atoms: C2_2  and  C9_9 
REMARK    3  A    between atoms: C9_9  and  C11_11 
REMARK    4  A    between atoms: C10_10  and  C11_11 
ROOT
HETATM    1  C1  UNL     1     -33.450   6.742   3.014  1.00 20.00    -0.098 C 
HETATM    2  C2  UNL     1     -32.574   7.538   2.803  1.00 20.00    -0.106 C 
ENDROOT
BRANCH   1   3
HETATM    3  C7  UNL     1     -34.518   5.771   3.273  1.00 20.00     0.087 C 
HETATM    4  C4  UNL     1     -33.939   4.402   3.445  1.00 20.00    -0.014 C 
HETATM    5  C3  UNL     1     -33.967   3.999   4.719  1.00 20.00    -0.029 C 
HETATM    6  C5  UNL     1     -34.559   5.034   5.614  1.00 20.00     0.028 C 
HETATM    7  C6  UNL     1     -35.204   6.009   4.625  1.00 20.00     0.025 C 
ENDBRANCH   1   3
BRANCH   2   8
HETATM    8  C9  UNL     1     -31.506   8.512   2.543  1.00 20.00     0.094 C 
BRANCH   8   9
HETATM    9  C11 UNL     1     -31.426   8.859   1.057  1.00 20.00     0.012 C 
BRANCH   9  10
HETATM   10  C10 UNL     1     -32.498   9.877   0.665  1.00 20.00    -0.004 C 
HETATM   11  C8  UNL     1     -33.281   9.418  -0.555  1.00 20.00     0.005 C 
ENDBRANCH   9  10
ENDBRANCH   8   9
ENDBRANCH   2   8
TORSDOF 4
ENDMDL
MODEL 2
REMARK VINA RESULT:      -6.4      0.993      5.494
REMARK  4 active torsions:
REMARK  status: ('A' for Active; 'I' for Inactive)
REMARK    1  A    between atoms: C1_1  and  C7_7 
REMARK    2  A    between atoms: C2_2  and  C9_9 
REMARK    3  A    between atoms: C9_9  and  C11_11 
REMARK    4  A    between atoms: C10_10  and  C11_11 
ROOT
HETATM    1  C1  UNL     1     -32.536   7.437   2.498  1.00 20.00    -0.098 C 
HETATM    2  C2  UNL     1     -33.161   6.473   2.849  1.00 20.00    -0.106 C 
ENDROOT
BRANCH   1   3
HETATM    3  C7  UNL     1     -31.771   8.612   2.070  1.00 20.00     0.087 C 
HETATM    4  C4  UNL     1     -31.476   8.531   0.605  1.00 20.00    -0.014 C 
HETATM    5  C3  UNL     1     -32.212   9.391  -0.106  1.00 20.00    -0.029 C 
HETATM    6  C5  UNL     1     -33.129  10.184   0.762  1.00 20.00     0.028 C 
HETATM    7  C6  UNL     1     -32.590   9.906   2.168  1.00 20.00     0.025 C 
ENDBRANCH   1   3
BRANCH   2   8
HETATM    8  C9  UNL     1     -33.929   5.295   3.276  1.00 20.00     0.094 C 
BRANCH   8   9
HETATM    9  C11 UNL     1     -35.014   5.679   4.281  1.00 20.00     0.012 C 
BRANCH   9  10
HETATM   10  C10 UNL     1     -34.455   5.752   5.702  1.00 20.00    -0.004 C 
HETATM   11  C8  UNL     1     -33.908   7.135   6.016  1.00 20.00     0.005 C 
ENDBRANCH   9  10
ENDBRANCH   8   9
ENDBRANCH   2   8
TORSDOF 4
ENDMDL
MODEL 3
REMARK VINA RESULT:      -5.9      0.876      5.757
REMARK  4 active torsions:
REMARK  status: ('A' for Active; 'I' for Inactive)
REMARK    1  A    between atoms: C1_1  and  C7_7 
REMARK    2  A    between atoms: C2_2  and  C9_9 
REMARK    3  A    between atoms: C9_9  and  C11_11 
REMARK    4  A    between atoms: C10_10  and  C11_11 
ROOT
HETATM    1  C1  UNL     1     -32.504   8.305   2.410  1.00 20.00    -0.098 C 
HETATM    2  C2  UNL     1     -33.029   7.570   3.203  1.00 20.00    -0.106 C 
ENDROOT
BRANCH   1   3
HETATM    3  C7  UNL     1     -31.861   9.200   1.443  1.00 20.00     0.087 C 
HETATM    4  C4  UNL     1     -31.673   8.498   0.136  1.00 20.00    -0.014 C 
HETATM    5  C3  UNL     1     -32.521   8.937  -0.799  1.00 20.00    -0.029 C 
HETATM    6  C5  UNL     1     -33.425   9.998  -0.272  1.00 20.00     0.028 C 
HETATM    7  C6  UNL     1     -32.762  10.380   1.055  1.00 20.00     0.025 C 
ENDBRANCH   1   3
BRANCH   2   8
HETATM    8  C9  UNL     1     -33.674   6.673   4.171  1.00 20.00     0.094 C 
BRANCH   8   9
HETATM    9  C11 UNL     1     -34.092   5.359   3.511  1.00 20.00     0.012 C 
BRANCH   9  10
HETATM   10  C10 UNL     1     -34.473   4.308   4.554  1.00 20.00    -0.004 C 
HETATM   11  C8  UNL     1     -34.646   4.928   5.931  1.00 20.00     0.005 C 
ENDBRANCH   9  10
ENDBRANCH   8   9
ENDBRANCH   2   8
TORSDOF 4
ENDMDL
MODEL 4
REMARK VINA RESULT:      -4.8      1.061      1.905
REMARK  4 active torsions:
REMARK  status: ('A' for Active; 'I' for Inactive)
REMARK    1  A    between atoms: C1_1  and  C7_7 
REMARK    2  A    between atoms: C2_2  and  C9_9 
REMARK    3  A    between atoms: C9_9  and  C11_11 
REMARK    4  A    between atoms: C10_10  and  C11_11 
ROOT
HETATM    1  C1  UNL     1     -32.446   7.383   2.919  1.00 20.00    -0.098 C 
HETATM    2  C2  UNL     1     -32.143   8.309   2.217  1.00 20.00    -0.106 C 
ENDROOT
BRANCH   1   3
HETATM    3  C7  UNL     1     -32.817   6.253   3.778  1.00 20.00     0.087 C 
HETATM    4  C4  UNL     1     -33.455   6.750   5.037  1.00 20.00    -0.014 C 
HETATM    5  C3  UNL     1     -34.774   6.531   5.054  1.00 20.00    -0.029 C 
HETATM    6  C5  UNL     1     -35.240   5.861   3.806  1.00 20.00     0.028 C 
HETATM    7  C6  UNL     1     -33.931   5.397   3.161  1.00 20.00     0.025 C 
ENDBRANCH   1   3
BRANCH   2   8
HETATM    8  C9  UNL     1     -31.771   9.440   1.355  1.00 20.00     0.094 C 
BRANCH   8   9
HETATM    9  C11 UNL     1     -32.995  10.276   0.984  1.00 20.00     0.012 C 
BRANCH   9  10
HETATM   10  C10 UNL     1     -33.525   9.903  -0.400  1.00 20.00    -0.004 C 
HETATM   11  C8  UNL     1     -32.706   8.787  -1.029  1.00 20.00     0.005 C 
ENDBRANCH   9  10
ENDBRANCH   8   9
ENDBRANCH   2   8
TORSDOF 4
ENDMDL
MODEL 5
REMARK VINA RESULT:      -4.4     10.538     11.834
REMARK  4 active torsions:
REMARK  status: ('A' for Active; 'I' for Inactive)
REMARK    1  A    between atoms: C1_1  and  C7_7 
REMARK    2  A    between atoms: C2_2  and  C9_9 
REMARK    3  A    between atoms: C9_9  and  C11_11 
REMARK    4  A    between atoms: C10_10  and  C11_11 
ROOT
HETATM    1  C1  UNL     1     -35.191  16.254  -2.755  1.00 20.00    -0.098 C 
HETATM    2  C2  UNL     1     -35.243  16.744  -1.659  1.00 20.00    -0.106 C 
ENDROOT
BRANCH   1   3
HETATM    3  C7  UNL     1     -35.126  15.653  -4.091  1.00 20.00     0.087 C 
HETATM    4  C4  UNL     1     -34.176  16.420  -4.956  1.00 20.00    -0.014 C 
HETATM    5  C3  UNL     1     -33.035  15.754  -5.164  1.00 20.00    -0.029 C 
HETATM    6  C5  UNL     1     -33.027  14.437  -4.466  1.00 20.00     0.028 C 
HETATM    7  C6  UNL     1     -34.494  14.254  -4.069  1.00 20.00     0.025 C 
ENDBRANCH   1   3
BRANCH   2   8
HETATM    8  C9  UNL     1     -35.310  17.346  -0.321  1.00 20.00     0.094 C 
BRANCH   8   9
HETATM    9  C11 UNL     1     -34.321  18.503  -0.187  1.00 20.00     0.012 C 
BRANCH   9  10
HETATM   10  C10 UNL     1     -32.993  18.182  -0.874  1.00 20.00    -0.004 C 
HETATM   11  C8  UNL     1     -31.808  18.576  -0.008  1.00 20.00     0.005 C 
ENDBRANCH   9  10
ENDBRANCH   8   9
ENDBRANCH   2   8
TORSDOF 4
ENDMDL
MODEL 6
REMARK VINA RESULT:      -4.3     11.044     12.071
REMARK  4 active torsions:
REMARK  status: ('A' for Active; 'I' for Inactive)
REMARK    1  A    between atoms: C1_1  and  C7_7 
REMARK    2  A    between atoms: C2_2  and  C9_9 
REMARK    3  A    between atoms: C9_9  and  C11_11 
REMARK    4  A    between atoms: C10_10  and  C11_11 
ROOT
HETATM    1  C1  UNL     1     -34.373  15.580  -3.413  1.00 20.00    -0.098 C 
HETATM    2  C2  UNL     1     -34.872  16.271  -2.567  1.00 20.00    -0.106 C 
ENDROOT
BRANCH   1   3
HETATM    3  C7  UNL     1     -33.765  14.734  -4.445  1.00 20.00     0.087 C 
HETATM    4  C4  UNL     1     -34.825  14.162  -5.333  1.00 20.00    -0.014 C 
HETATM    5  C3  UNL     1     -34.836  14.737  -6.540  1.00 20.00    -0.029 C 
HETATM    6  C5  UNL     1     -33.794  15.797  -6.658  1.00 20.00     0.028 C 
HETATM    7  C6  UNL     1     -32.912  15.543  -5.432  1.00 20.00     0.025 C 
ENDBRANCH   1   3
BRANCH   2   8
HETATM    8  C9  UNL     1     -35.481  17.120  -1.534  1.00 20.00     0.094 C 
BRANCH   8   9
HETATM    9  C11 UNL     1     -34.431  17.622  -0.543  1.00 20.00     0.012 C 
BRANCH   9  10
HETATM   10  C10 UNL     1     -33.156  18.065  -1.261  1.00 20.00    -0.004 C 
HETATM   11  C8  UNL     1     -32.114  18.576  -0.279  1.00 20.00     0.005 C 
ENDBRANCH   9  10
ENDBRANCH   8   9
ENDBRANCH   2   8
TORSDOF 4
ENDMDL
MODEL 7
REMARK VINA RESULT:      -4.3     10.463     11.888
REMARK  4 active torsions:
REMARK  status: ('A' for Active; 'I' for Inactive)
REMARK    1  A    between atoms: C1_1  and  C7_7 
REMARK    2  A    between atoms: C2_2  and  C9_9 
REMARK    3  A    between atoms: C9_9  and  C11_11 
REMARK    4  A    between atoms: C10_10  and  C11_11 
ROOT
HETATM    1  C1  UNL     1     -33.706  16.286  -3.113  1.00 20.00    -0.098 C 
HETATM    2  C2  UNL     1     -33.777  16.985  -2.138  1.00 20.00    -0.106 C 
ENDROOT
BRANCH   1   3
HETATM    3  C7  UNL     1     -33.622  15.432  -4.302  1.00 20.00     0.087 C 
HETATM    4  C4  UNL     1     -34.368  14.156  -4.075  1.00 20.00    -0.014 C 
HETATM    5  C3  UNL     1     -35.516  14.114  -4.759  1.00 20.00    -0.029 C 
HETATM    6  C5  UNL     1     -35.735  15.359  -5.549  1.00 20.00     0.028 C 
HETATM    7  C6  UNL     1     -34.362  16.036  -5.504  1.00 20.00     0.025 C 
ENDBRANCH   1   3
BRANCH   2   8
HETATM    8  C9  UNL     1     -33.861  17.842  -0.948  1.00 20.00     0.094 C 
BRANCH   8   9
HETATM    9  C11 UNL     1     -32.500  18.450  -0.610  1.00 20.00     0.012 C 
BRANCH   9  10
HETATM   10  C10 UNL     1     -32.420  18.852   0.863  1.00 20.00    -0.004 C 
HETATM   11  C8  UNL     1     -31.009  18.697   1.406  1.00 20.00     0.005 C 
ENDBRANCH   9  10
ENDBRANCH   8   9
ENDBRANCH   2   8
TORSDOF 4
ENDMDL
MODEL 8
REMARK VINA RESULT:      -4.2     10.951     11.891
REMARK  4 active torsions:
REMARK  status: ('A' for Active; 'I' for Inactive)
REMARK    1  A    between atoms: C1_1  and  C7_7 
REMARK    2  A    between atoms: C2_2  and  C9_9 
REMARK    3  A    between atoms: C9_9  and  C11_11 
REMARK    4  A    between atoms: C10_10  and  C11_11 
ROOT
HETATM    1  C1  UNL     1     -34.855  14.780  -4.175  1.00 20.00    -0.098 C 
HETATM    2  C2  UNL     1     -34.362  15.626  -3.479  1.00 20.00    -0.106 C 
ENDROOT
BRANCH   1   3
HETATM    3  C7  UNL     1     -35.458  13.746  -5.023  1.00 20.00     0.087 C 
HETATM    4  C4  UNL     1     -36.908  14.042  -5.244  1.00 20.00    -0.014 C 
HETATM    5  C3  UNL     1     -37.150  14.474  -6.486  1.00 20.00    -0.029 C 
HETATM    6  C5  UNL     1     -35.902  14.549  -7.299  1.00 20.00     0.028 C 
HETATM    7  C6  UNL     1     -34.897  13.765  -6.451  1.00 20.00     0.025 C 
ENDBRANCH   1   3
BRANCH   2   8
HETATM    8  C9  UNL     1     -33.758  16.663  -2.631  1.00 20.00     0.094 C 
BRANCH   8   9
HETATM    9  C11 UNL     1     -34.670  17.012  -1.455  1.00 20.00     0.012 C 
BRANCH   9  10
HETATM   10  C10 UNL     1     -33.989  17.987  -0.493  1.00 20.00    -0.004 C 
HETATM   11  C8  UNL     1     -32.580  18.329  -0.952  1.00 20.00     0.005 C 
ENDBRANCH   9  10
ENDBRANCH   8   9
ENDBRANCH   2   8
TORSDOF 4
ENDMDL
MODEL 9
REMARK VINA RESULT:      -4.2     10.861     12.149
REMARK  4 active torsions:
REMARK  status: ('A' for Active; 'I' for Inactive)
REMARK    1  A    between atoms: C1_1  and  C7_7 
REMARK    2  A    between atoms: C2_2  and  C9_9 
REMARK    3  A    between atoms: C9_9  and  C11_11 
REMARK    4  A    between atoms: C10_10  and  C11_11 
ROOT
HETATM    1  C1  UNL     1     -34.696  16.294  -2.616  1.00 20.00    -0.098 C 
HETATM    2  C2  UNL     1     -34.559  16.994  -1.650  1.00 20.00    -0.106 C 
ENDROOT
BRANCH   1   3
HETATM    3  C7  UNL     1     -34.865  15.438  -3.795  1.00 20.00     0.087 C 
HETATM    4  C4  UNL     1     -35.116  16.275  -5.009  1.00 20.00    -0.014 C 
HETATM    5  C3  UNL     1     -34.058  16.311  -5.825  1.00 20.00    -0.029 C 
HETATM    6  C5  UNL     1     -32.918  15.513  -5.289  1.00 20.00     0.028 C 
HETATM    7  C6  UNL     1     -33.572  14.700  -4.167  1.00 20.00     0.025 C 
ENDBRANCH   1   3
BRANCH   2   8
HETATM    8  C9  UNL     1     -34.390  17.854  -0.470  1.00 20.00     0.094 C 
BRANCH   8   9
HETATM    9  C11 UNL     1     -33.012  18.514  -0.461  1.00 20.00     0.012 C 
BRANCH   9  10
HETATM   10  C10 UNL     1     -32.590  18.902   0.956  1.00 20.00    -0.004 C 
HETATM   11  C8  UNL     1     -31.090  18.749   1.152  1.00 20.00     0.005 C 
ENDBRANCH   9  10
ENDBRANCH   8   9
ENDBRANCH   2   8
TORSDOF 4
ENDMDL
