MODEL 1
REMARK VINA RESULT:      -4.7      0.000      0.000
REMARK  1 active torsions:
REMARK  status: ('A' for Active; 'I' for Inactive)
REMARK    1  A    between atoms: C5_5  and  C7_7 
ROOT
HETATM    1  C1  UNL     1     -33.252   5.467   2.412  1.00 20.00     0.001 C 
HETATM    2  C2  UNL     1     -34.623   6.128   2.262  1.00 20.00     0.001 C 
HETATM    3  C3  UNL     1     -33.189   4.937   3.842  1.00 20.00     0.018 C 
HETATM    4  C4  UNL     1     -35.324   5.964   3.608  1.00 20.00     0.018 C 
HETATM    5  C5  UNL     1     -34.191   5.794   4.630  1.00 20.00     0.054 C 
HETATM    6  C6  UNL     1     -34.674   5.077   5.893  1.00 20.00     0.024 C 
ENDROOT
BRANCH   5   7
HETATM    7  C7  UNL     1     -33.581   7.150   5.018  1.00 20.00     0.395 C 
HETATM    8  F8  UNL     1     -34.437   8.132   4.715  1.00 20.00    -0.170 F 
HETATM    9  F9  UNL     1     -33.330   7.170   6.332  1.00 20.00    -0.170 F 
HETATM   10  F10 UNL     1     -32.437   7.337   4.347  1.00 20.00    -0.170 F 
ENDBRANCH   5   7
TORSDOF 1
ENDMDL
MODEL 2
REMARK VINA RESULT:      -4.6      1.768      3.094
REMARK  1 active torsions:
REMARK  status: ('A' for Active; 'I' for Inactive)
REMARK    1  A    between atoms: C5_5  and  C7_7 
ROOT
HETATM    1  C1  UNL     1     -34.801   5.686   6.009  1.00 20.00     0.001 C 
HETATM    2  C2  UNL     1     -33.918   6.926   5.861  1.00 20.00     0.001 C 
HETATM    3  C3  UNL     1     -34.423   4.755   4.861  1.00 20.00     0.018 C 
HETATM    4  C4  UNL     1     -33.047   6.683   4.631  1.00 20.00     0.018 C 
HETATM    5  C5  UNL     1     -33.828   5.672   3.782  1.00 20.00     0.054 C 
HETATM    6  C6  UNL     1     -32.907   4.901   2.834  1.00 20.00     0.024 C 
ENDROOT
BRANCH   5   7
HETATM    7  C7  UNL     1     -34.932   6.363   2.966  1.00 20.00     0.395 C 
HETATM    8  F8  UNL     1     -36.131   6.028   3.457  1.00 20.00    -0.170 F 
HETATM    9  F9  UNL     1     -34.779   7.690   3.037  1.00 20.00    -0.170 F 
HETATM   10  F10 UNL     1     -34.854   5.977   1.686  1.00 20.00    -0.170 F 
ENDBRANCH   5   7
TORSDOF 1
ENDMDL
MODEL 3
REMARK VINA RESULT:      -4.6      1.154      2.717
REMARK  1 active torsions:
REMARK  status: ('A' for Active; 'I' for Inactive)
REMARK    1  A    between atoms: C5_5  and  C7_7 
ROOT
HETATM    1  C1  UNL     1     -34.840   5.065   5.196  1.00 20.00     0.001 C 
HETATM    2  C2  UNL     1     -33.684   4.221   4.657  1.00 20.00     0.001 C 
HETATM    3  C3  UNL     1     -35.337   5.905   4.022  1.00 20.00     0.018 C 
HETATM    4  C4  UNL     1     -33.539   4.591   3.183  1.00 20.00     0.018 C 
HETATM    5  C5  UNL     1     -34.142   5.997   3.062  1.00 20.00     0.054 C 
HETATM    6  C6  UNL     1     -34.592   6.297   1.631  1.00 20.00     0.024 C 
ENDROOT
BRANCH   5   7
HETATM    7  C7  UNL     1     -33.143   7.073   3.516  1.00 20.00     0.395 C 
HETATM    8  F8  UNL     1     -33.278   7.288   4.830  1.00 20.00    -0.170 F 
HETATM    9  F9  UNL     1     -31.895   6.664   3.260  1.00 20.00    -0.170 F 
HETATM   10  F10 UNL     1     -33.378   8.213   2.854  1.00 20.00    -0.170 F 
ENDBRANCH   5   7
TORSDOF 1
ENDMDL
MODEL 4
REMARK VINA RESULT:      -4.6      2.432      3.240
REMARK  1 active torsions:
REMARK  status: ('A' for Active; 'I' for Inactive)
REMARK    1  A    between atoms: C5_5  and  C7_7 
ROOT
HETATM    1  C1  UNL     1     -33.035   8.645   1.737  1.00 20.00     0.001 C 
HETATM    2  C2  UNL     1     -31.649   8.153   2.155  1.00 20.00     0.001 C 
HETATM    3  C3  UNL     1     -33.958   8.374   2.921  1.00 20.00     0.018 C 
HETATM    4  C4  UNL     1     -31.801   7.610   3.574  1.00 20.00     0.018 C 
HETATM    5  C5  UNL     1     -33.283   7.236   3.702  1.00 20.00     0.054 C 
HETATM    6  C6  UNL     1     -33.735   7.211   5.163  1.00 20.00     0.024 C 
ENDROOT
BRANCH   5   7
HETATM    7  C7  UNL     1     -33.572   5.870   3.058  1.00 20.00     0.395 C 
HETATM    8  F8  UNL     1     -34.374   6.032   1.999  1.00 20.00    -0.170 F 
HETATM    9  F9  UNL     1     -32.424   5.308   2.664  1.00 20.00    -0.170 F 
HETATM   10  F10 UNL     1     -34.173   5.071   3.949  1.00 20.00    -0.170 F 
ENDBRANCH   5   7
TORSDOF 1
ENDMDL
MODEL 5
REMARK VINA RESULT:      -4.5      1.944      3.295
REMARK  1 active torsions:
REMARK  status: ('A' for Active; 'I' for Inactive)
REMARK    1  A    between atoms: C5_5  and  C7_7 
ROOT
HETATM    1  C1  UNL     1     -33.669   6.905   5.477  1.00 20.00     0.001 C 
HETATM    2  C2  UNL     1     -34.626   5.731   5.687  1.00 20.00     0.001 C 
HETATM    3  C3  UNL     1     -33.788   7.293   4.006  1.00 20.00     0.018 C 
HETATM    4  C4  UNL     1     -35.279   5.468   4.332  1.00 20.00     0.018 C 
HETATM    5  C5  UNL     1     -34.294   6.028   3.298  1.00 20.00     0.054 C 
HETATM    6  C6  UNL     1     -34.991   6.362   1.978  1.00 20.00     0.024 C 
ENDROOT
BRANCH   5   7
HETATM    7  C7  UNL     1     -33.145   5.041   3.030  1.00 20.00     0.395 C 
HETATM    8  F8  UNL     1     -33.183   4.052   3.930  1.00 20.00    -0.170 F 
HETATM    9  F9  UNL     1     -33.271   4.529   1.801  1.00 20.00    -0.170 F 
HETATM   10  F10 UNL     1     -31.972   5.681   3.124  1.00 20.00    -0.170 F 
ENDBRANCH   5   7
TORSDOF 1
ENDMDL
MODEL 6
REMARK VINA RESULT:      -4.4      2.049      2.842
REMARK  1 active torsions:
REMARK  status: ('A' for Active; 'I' for Inactive)
REMARK    1  A    between atoms: C5_5  and  C7_7 
ROOT
HETATM    1  C1  UNL     1     -32.416   7.036   3.057  1.00 20.00     0.001 C 
HETATM    2  C2  UNL     1     -32.685   7.558   4.469  1.00 20.00     0.001 C 
HETATM    3  C3  UNL     1     -33.743   6.478   2.550  1.00 20.00     0.018 C 
HETATM    4  C4  UNL     1     -34.163   7.292   4.746  1.00 20.00     0.018 C 
HETATM    5  C5  UNL     1     -34.542   6.133   3.815  1.00 20.00     0.054 C 
HETATM    6  C6  UNL     1     -36.046   6.099   3.539  1.00 20.00     0.024 C 
ENDROOT
BRANCH   5   7
HETATM    7  C7  UNL     1     -34.103   4.780   4.400  1.00 20.00     0.395 C 
HETATM    8  F8  UNL     1     -33.076   4.296   3.691  1.00 20.00    -0.170 F 
HETATM    9  F9  UNL     1     -33.726   4.943   5.673  1.00 20.00    -0.170 F 
HETATM   10  F10 UNL     1     -35.124   3.915   4.348  1.00 20.00    -0.170 F 
ENDBRANCH   5   7
TORSDOF 1
ENDMDL
MODEL 7
REMARK VINA RESULT:      -4.1      2.022      2.723
REMARK  1 active torsions:
REMARK  status: ('A' for Active; 'I' for Inactive)
REMARK    1  A    between atoms: C5_5  and  C7_7 
ROOT
HETATM    1  C1  UNL     1     -34.721   6.112   2.218  1.00 20.00     0.001 C 
HETATM    2  C2  UNL     1     -33.223   5.816   2.294  1.00 20.00     0.001 C 
HETATM    3  C3  UNL     1     -35.113   6.674   3.582  1.00 20.00     0.018 C 
HETATM    4  C4  UNL     1     -32.781   6.214   3.700  1.00 20.00     0.018 C 
HETATM    5  C5  UNL     1     -34.053   6.138   4.555  1.00 20.00     0.054 C 
HETATM    6  C6  UNL     1     -33.944   7.011   5.807  1.00 20.00     0.024 C 
ENDROOT
BRANCH   5   7
HETATM    7  C7  UNL     1     -34.359   4.690   4.971  1.00 20.00     0.395 C 
HETATM    8  F8  UNL     1     -35.616   4.380   4.631  1.00 20.00    -0.170 F 
HETATM    9  F9  UNL     1     -33.514   3.857   4.354  1.00 20.00    -0.170 F 
HETATM   10  F10 UNL     1     -34.216   4.563   6.297  1.00 20.00    -0.170 F 
ENDBRANCH   5   7
TORSDOF 1
ENDMDL
MODEL 8
REMARK VINA RESULT:      -4.1      1.830      2.538
REMARK  1 active torsions:
REMARK  status: ('A' for Active; 'I' for Inactive)
REMARK    1  A    between atoms: C5_5  and  C7_7 
ROOT
HETATM    1  C1  UNL     1     -34.656   4.679   4.393  1.00 20.00     0.001 C 
HETATM    2  C2  UNL     1     -35.575   5.707   3.733  1.00 20.00     0.001 C 
HETATM    3  C3  UNL     1     -33.599   5.478   5.151  1.00 20.00     0.018 C 
HETATM    4  C4  UNL     1     -35.031   7.078   4.124  1.00 20.00     0.018 C 
HETATM    5  C5  UNL     1     -33.549   6.842   4.447  1.00 20.00     0.054 C 
HETATM    6  C6  UNL     1     -32.992   7.931   5.367  1.00 20.00     0.024 C 
ENDROOT
BRANCH   5   7
HETATM    7  C7  UNL     1     -32.702   6.779   3.166  1.00 20.00     0.395 C 
HETATM    8  F8  UNL     1     -32.396   5.505   2.892  1.00 20.00    -0.170 F 
HETATM    9  F9  UNL     1     -33.392   7.299   2.145  1.00 20.00    -0.170 F 
HETATM   10  F10 UNL     1     -31.573   7.478   3.339  1.00 20.00    -0.170 F 
ENDBRANCH   5   7
TORSDOF 1
ENDMDL
MODEL 9
REMARK VINA RESULT:      -4.1     11.861     12.910
REMARK  1 active torsions:
REMARK  status: ('A' for Active; 'I' for Inactive)
REMARK    1  A    between atoms: C5_5  and  C7_7 
ROOT
HETATM    1  C1  UNL     1     -33.613  16.942  -2.660  1.00 20.00     0.001 C 
HETATM    2  C2  UNL     1     -34.967  16.335  -2.294  1.00 20.00     0.001 C 
HETATM    3  C3  UNL     1     -33.561  16.980  -4.185  1.00 20.00     0.018 C 
HETATM    4  C4  UNL     1     -35.670  16.036  -3.616  1.00 20.00     0.018 C 
HETATM    5  C5  UNL     1     -34.541  15.891  -4.645  1.00 20.00     0.054 C 
HETATM    6  C6  UNL     1     -35.039  16.147  -6.069  1.00 20.00     0.024 C 
ENDROOT
BRANCH   5   7
HETATM    7  C7  UNL     1     -33.898  14.496  -4.575  1.00 20.00     0.395 C 
HETATM    8  F8  UNL     1     -34.622  13.707  -3.773  1.00 20.00    -0.170 F 
HETATM    9  F9  UNL     1     -33.853  13.961  -5.800  1.00 20.00    -0.170 F 
HETATM   10  F10 UNL     1     -32.654  14.598  -4.091  1.00 20.00    -0.170 F 
ENDBRANCH   5   7
TORSDOF 1
ENDMDL
