MODEL 1
REMARK VINA RESULT:      -4.1      0.000      0.000
REMARK  0 active torsions:
REMARK  status: ('A' for Active; 'I' for Inactive)
ROOT
HETATM    1  C1  UNL     1     -34.121   5.984   2.492  1.00 20.00    -0.027 A 
HETATM    2  C2  UNL     1     -33.225   5.667   3.442  1.00 20.00    -0.010 A 
HETATM    3  C3  UNL     1     -35.255   6.172   3.476  1.00 20.00     0.051 A 
HETATM    4  C4  UNL     1     -34.226   5.792   4.580  1.00 20.00     0.035 A 
HETATM    5  C5  UNL     1     -34.520   4.505   5.339  1.00 20.00     0.032 C 
HETATM    6 BR6  UNL     1     -33.752   7.256   5.786  1.00 20.00    -0.081 Br
ENDROOT
TORSDOF 0
ENDMDL
MODEL 2
REMARK VINA RESULT:      -4.1      1.846      2.708
REMARK  0 active torsions:
REMARK  status: ('A' for Active; 'I' for Inactive)
ROOT
HETATM    1  C1  UNL     1     -33.820   6.890   5.943  1.00 20.00    -0.027 A 
HETATM    2  C2  UNL     1     -33.783   7.283   4.657  1.00 20.00    -0.010 A 
HETATM    3  C3  UNL     1     -34.419   5.539   5.622  1.00 20.00     0.051 A 
HETATM    4  C4  UNL     1     -34.393   5.991   4.134  1.00 20.00     0.035 A 
HETATM    5  C5  UNL     1     -35.753   6.133   3.465  1.00 20.00     0.032 C 
HETATM    6 BR6  UNL     1     -33.127   5.013   3.010  1.00 20.00    -0.081 Br
ENDROOT
TORSDOF 0
ENDMDL
MODEL 3
REMARK VINA RESULT:      -3.9      1.653      2.095
REMARK  0 active torsions:
REMARK  status: ('A' for Active; 'I' for Inactive)
ROOT
HETATM    1  C1  UNL     1     -34.834   4.548   4.368  1.00 20.00    -0.027 A 
HETATM    2  C2  UNL     1     -33.600   4.937   4.732  1.00 20.00    -0.010 A 
HETATM    3  C3  UNL     1     -35.298   5.954   4.054  1.00 20.00     0.051 A 
HETATM    4  C4  UNL     1     -33.876   6.412   4.488  1.00 20.00     0.035 A 
HETATM    5  C5  UNL     1     -33.819   7.303   5.721  1.00 20.00     0.032 C 
HETATM    6 BR6  UNL     1     -32.769   7.110   3.034  1.00 20.00    -0.081 Br
ENDROOT
TORSDOF 0
ENDMDL
MODEL 4
REMARK VINA RESULT:      -3.7      0.983      1.670
REMARK  0 active torsions:
REMARK  status: ('A' for Active; 'I' for Inactive)
ROOT
HETATM    1  C1  UNL     1     -32.937   4.911   2.797  1.00 20.00    -0.027 A 
HETATM    2  C2  UNL     1     -33.784   4.601   3.793  1.00 20.00    -0.010 A 
HETATM    3  C3  UNL     1     -33.336   6.371   2.771  1.00 20.00     0.051 A 
HETATM    4  C4  UNL     1     -34.328   6.016   3.915  1.00 20.00     0.035 A 
HETATM    5  C5  UNL     1     -35.804   6.181   3.580  1.00 20.00     0.032 C 
HETATM    6 BR6  UNL     1     -33.882   6.802   5.649  1.00 20.00    -0.081 Br
ENDROOT
TORSDOF 0
ENDMDL
MODEL 5
REMARK VINA RESULT:      -3.7      1.432      1.925
REMARK  0 active torsions:
REMARK  status: ('A' for Active; 'I' for Inactive)
ROOT
HETATM    1  C1  UNL     1     -32.673   6.572   2.944  1.00 20.00    -0.027 A 
HETATM    2  C2  UNL     1     -33.441   5.469   2.902  1.00 20.00    -0.010 A 
HETATM    3  C3  UNL     1     -33.523   7.252   3.994  1.00 20.00     0.051 A 
HETATM    4  C4  UNL     1     -34.425   5.986   3.941  1.00 20.00     0.035 A 
HETATM    5  C5  UNL     1     -35.846   6.210   3.444  1.00 20.00     0.032 C 
HETATM    6 BR6  UNL     1     -34.385   4.893   5.562  1.00 20.00    -0.081 Br
ENDROOT
TORSDOF 0
ENDMDL
MODEL 6
REMARK VINA RESULT:      -3.5      2.063      2.621
REMARK  0 active torsions:
REMARK  status: ('A' for Active; 'I' for Inactive)
ROOT
HETATM    1  C1  UNL     1     -32.022   8.583   2.298  1.00 20.00    -0.027 A 
HETATM    2  C2  UNL     1     -31.620   7.679   3.208  1.00 20.00    -0.010 A 
HETATM    3  C3  UNL     1     -33.438   8.053   2.243  1.00 20.00     0.051 A 
HETATM    4  C4  UNL     1     -32.976   6.994   3.285  1.00 20.00     0.035 A 
HETATM    5  C5  UNL     1     -33.008   5.548   2.813  1.00 20.00     0.032 C 
HETATM    6 BR6  UNL     1     -33.774   7.199   5.058  1.00 20.00    -0.081 Br
ENDROOT
TORSDOF 0
ENDMDL
MODEL 7
REMARK VINA RESULT:      -3.5      1.431      2.075
REMARK  0 active torsions:
REMARK  status: ('A' for Active; 'I' for Inactive)
ROOT
HETATM    1  C1  UNL     1     -34.091   6.148   2.323  1.00 20.00    -0.027 A 
HETATM    2  C2  UNL     1     -35.004   6.359   3.287  1.00 20.00    -0.010 A 
HETATM    3  C3  UNL     1     -32.972   5.859   3.300  1.00 20.00     0.051 A 
HETATM    4  C4  UNL     1     -34.020   6.116   4.421  1.00 20.00     0.035 A 
HETATM    5  C5  UNL     1     -33.744   7.314   5.318  1.00 20.00     0.032 C 
HETATM    6 BR6  UNL     1     -34.507   4.529   5.455  1.00 20.00    -0.081 Br
ENDROOT
TORSDOF 0
ENDMDL
MODEL 8
REMARK VINA RESULT:      -3.4      1.513      2.448
REMARK  0 active torsions:
REMARK  status: ('A' for Active; 'I' for Inactive)
ROOT
HETATM    1  C1  UNL     1     -35.183   5.828   4.605  1.00 20.00    -0.027 A 
HETATM    2  C2  UNL     1     -35.035   6.062   3.289  1.00 20.00    -0.010 A 
HETATM    3  C3  UNL     1     -33.698   5.666   4.850  1.00 20.00     0.051 A 
HETATM    4  C4  UNL     1     -33.521   5.923   3.325  1.00 20.00     0.035 A 
HETATM    5  C5  UNL     1     -32.950   4.762   2.524  1.00 20.00     0.032 C 
HETATM    6 BR6  UNL     1     -32.642   7.613   2.885  1.00 20.00    -0.081 Br
ENDROOT
TORSDOF 0
ENDMDL
MODEL 9
REMARK VINA RESULT:      -3.4      2.701      3.269
REMARK  0 active torsions:
REMARK  status: ('A' for Active; 'I' for Inactive)
ROOT
HETATM    1  C1  UNL     1     -33.816   6.106   3.290  1.00 20.00    -0.027 A 
HETATM    2  C2  UNL     1     -32.682   6.283   2.590  1.00 20.00    -0.010 A 
HETATM    3  C3  UNL     1     -33.882   7.546   3.748  1.00 20.00     0.051 A 
HETATM    4  C4  UNL     1     -32.563   7.756   2.951  1.00 20.00     0.035 A 
HETATM    5  C5  UNL     1     -31.344   8.130   3.783  1.00 20.00     0.032 C 
HETATM    6 BR6  UNL     1     -32.741   8.892   1.369  1.00 20.00    -0.081 Br
ENDROOT
TORSDOF 0
ENDMDL
