MODEL 1
REMARK VINA RESULT:      -5.6      0.000      0.000
REMARK  0 active torsions:
REMARK  status: ('A' for Active; 'I' for Inactive)
ROOT
HETATM    1  C1  UNL     1     -32.560   8.200   2.214  1.00 20.00     0.179 C 
HETATM    2  C2  UNL     1     -33.533   7.387   5.708  1.00 20.00    -0.010 C 
HETATM    3  C3  UNL     1     -34.332   6.344   5.450  1.00 20.00    -0.023 C 
HETATM    4  C4  UNL     1     -32.601   7.987   4.697  1.00 20.00     0.161 C 
HETATM    5  C5  UNL     1     -33.106   6.014   3.279  1.00 20.00     0.143 C 
HETATM    6  C6  UNL     1     -34.340   5.645   4.116  1.00 20.00     0.022 C 
HETATM    7  C7  UNL     1     -34.415   4.129   4.296  1.00 20.00     0.016 C 
HETATM    8  N8  UNL     1     -32.264   8.804   1.269  1.00 20.00    -0.172 NA
HETATM    9  N9  UNL     1     -32.903   7.496   3.313  1.00 20.00    -0.316 N 
ENDROOT
TORSDOF 0
ENDMDL
MODEL 2
REMARK VINA RESULT:      -4.4      1.674      3.643
REMARK  0 active torsions:
REMARK  status: ('A' for Active; 'I' for Inactive)
ROOT
HETATM    1  C1  UNL     1     -34.296   5.072   4.352  1.00 20.00     0.179 C 
HETATM    2  C2  UNL     1     -32.542   8.235   5.207  1.00 20.00    -0.010 C 
HETATM    3  C3  UNL     1     -31.851   8.388   4.070  1.00 20.00    -0.023 C 
HETATM    4  C4  UNL     1     -33.673   7.262   5.365  1.00 20.00     0.161 C 
HETATM    5  C5  UNL     1     -33.563   6.963   2.904  1.00 20.00     0.143 C 
HETATM    6  C6  UNL     1     -32.175   7.615   2.819  1.00 20.00     0.022 C 
HETATM    7  C7  UNL     1     -32.095   8.516   1.586  1.00 20.00     0.016 C 
HETATM    8  N8  UNL     1     -34.792   4.029   4.457  1.00 20.00    -0.172 NA
HETATM    9  N9  UNL     1     -33.718   6.285   4.229  1.00 20.00    -0.316 N 
ENDROOT
TORSDOF 0
ENDMDL
MODEL 3
REMARK VINA RESULT:      -4.1     11.434     12.227
REMARK  0 active torsions:
REMARK  status: ('A' for Active; 'I' for Inactive)
ROOT
HETATM    1  C1  UNL     1     -35.835  13.871  -4.830  1.00 20.00     0.179 C 
HETATM    2  C2  UNL     1     -36.933  17.149  -3.464  1.00 20.00    -0.010 C 
HETATM    3  C3  UNL     1     -36.055  17.243  -2.457  1.00 20.00    -0.023 C 
HETATM    4  C4  UNL     1     -36.813  16.150  -4.576  1.00 20.00     0.161 C 
HETATM    5  C5  UNL     1     -34.537  15.678  -3.709  1.00 20.00     0.143 C 
HETATM    6  C6  UNL     1     -34.831  16.371  -2.370  1.00 20.00     0.022 C 
HETATM    7  C7  UNL     1     -33.615  17.183  -1.923  1.00 20.00     0.016 C 
HETATM    8  N8  UNL     1     -35.866  12.821  -5.323  1.00 20.00    -0.172 NA
HETATM    9  N9  UNL     1     -35.800  15.092  -4.257  1.00 20.00    -0.316 N 
ENDROOT
TORSDOF 0
ENDMDL
MODEL 4
REMARK VINA RESULT:      -4.0     11.254     12.015
REMARK  0 active torsions:
REMARK  status: ('A' for Active; 'I' for Inactive)
ROOT
HETATM    1  C1  UNL     1     -34.713  14.573  -4.074  1.00 20.00     0.179 C 
HETATM    2  C2  UNL     1     -36.213  17.283  -2.020  1.00 20.00    -0.010 C 
HETATM    3  C3  UNL     1     -35.143  17.572  -1.268  1.00 20.00    -0.023 C 
HETATM    4  C4  UNL     1     -36.152  16.437  -3.257  1.00 20.00     0.161 C 
HETATM    5  C5  UNL     1     -33.683  16.611  -3.075  1.00 20.00     0.143 C 
HETATM    6  C6  UNL     1     -33.757  17.100  -1.621  1.00 20.00     0.022 C 
HETATM    7  C7  UNL     1     -32.729  18.207  -1.389  1.00 20.00     0.016 C 
HETATM    8  N8  UNL     1     -34.599  13.595  -4.687  1.00 20.00    -0.172 NA
HETATM    9  N9  UNL     1     -34.844  15.711  -3.361  1.00 20.00    -0.316 N 
ENDROOT
TORSDOF 0
ENDMDL
MODEL 5
REMARK VINA RESULT:      -3.9     11.425     12.662
REMARK  0 active torsions:
REMARK  status: ('A' for Active; 'I' for Inactive)
ROOT
HETATM    1  C1  UNL     1     -35.339  13.830  -5.118  1.00 20.00     0.179 C 
HETATM    2  C2  UNL     1     -33.674  17.103  -5.688  1.00 20.00    -0.010 C 
HETATM    3  C3  UNL     1     -33.861  17.631  -4.470  1.00 20.00    -0.023 C 
HETATM    4  C4  UNL     1     -33.888  15.653  -6.003  1.00 20.00     0.161 C 
HETATM    5  C5  UNL     1     -34.072  15.299  -3.554  1.00 20.00     0.143 C 
HETATM    6  C6  UNL     1     -34.270  16.798  -3.284  1.00 20.00     0.022 C 
HETATM    7  C7  UNL     1     -33.493  17.211  -2.034  1.00 20.00     0.016 C 
HETATM    8  N8  UNL     1     -35.952  12.863  -5.304  1.00 20.00    -0.172 NA
HETATM    9  N9  UNL     1     -34.626  14.954  -4.901  1.00 20.00    -0.316 N 
ENDROOT
TORSDOF 0
ENDMDL
MODEL 6
REMARK VINA RESULT:      -3.9     11.614     12.579
REMARK  0 active torsions:
REMARK  status: ('A' for Active; 'I' for Inactive)
ROOT
HETATM    1  C1  UNL     1     -36.848  14.387  -4.916  1.00 20.00     0.179 C 
HETATM    2  C2  UNL     1     -33.410  15.546  -5.725  1.00 20.00    -0.010 C 
HETATM    3  C3  UNL     1     -33.317  16.526  -4.817  1.00 20.00    -0.023 C 
HETATM    4  C4  UNL     1     -34.488  14.503  -5.710  1.00 20.00     0.161 C 
HETATM    5  C5  UNL     1     -35.076  15.354  -3.455  1.00 20.00     0.143 C 
HETATM    6  C6  UNL     1     -34.273  16.647  -3.660  1.00 20.00     0.022 C 
HETATM    7  C7  UNL     1     -33.531  17.012  -2.375  1.00 20.00     0.016 C 
HETATM    8  N8  UNL     1     -37.922  13.968  -5.039  1.00 20.00    -0.172 NA
HETATM    9  N9  UNL     1     -35.597  14.873  -4.772  1.00 20.00    -0.316 N 
ENDROOT
TORSDOF 0
ENDMDL
MODEL 7
REMARK VINA RESULT:      -3.8     11.246     12.885
REMARK  0 active torsions:
REMARK  status: ('A' for Active; 'I' for Inactive)
ROOT
HETATM    1  C1  UNL     1     -36.994  14.416  -4.896  1.00 20.00     0.179 C 
HETATM    2  C2  UNL     1     -33.295  14.565  -4.567  1.00 20.00    -0.010 C 
HETATM    3  C3  UNL     1     -33.091  15.727  -5.201  1.00 20.00    -0.023 C 
HETATM    4  C4  UNL     1     -34.647  14.091  -4.123  1.00 20.00     0.161 C 
HETATM    5  C5  UNL     1     -35.463  16.369  -4.672  1.00 20.00     0.143 C 
HETATM    6  C6  UNL     1     -34.207  16.693  -5.495  1.00 20.00     0.022 C 
HETATM    7  C7  UNL     1     -33.766  18.133  -5.230  1.00 20.00     0.016 C 
HETATM    8  N8  UNL     1     -38.069  13.999  -5.025  1.00 20.00    -0.172 NA
HETATM    9  N9  UNL     1     -35.745  14.901  -4.745  1.00 20.00    -0.316 N 
ENDROOT
TORSDOF 0
ENDMDL
MODEL 8
REMARK VINA RESULT:      -3.8     11.368     11.909
REMARK  0 active torsions:
REMARK  status: ('A' for Active; 'I' for Inactive)
ROOT
HETATM    1  C1  UNL     1     -35.157  16.687  -1.888  1.00 20.00     0.179 C 
HETATM    2  C2  UNL     1     -33.097  15.578  -4.776  1.00 20.00    -0.010 C 
HETATM    3  C3  UNL     1     -33.720  14.419  -5.026  1.00 20.00    -0.023 C 
HETATM    4  C4  UNL     1     -33.654  16.640  -3.876  1.00 20.00     0.161 C 
HETATM    5  C5  UNL     1     -35.768  15.342  -3.895  1.00 20.00     0.143 C 
HETATM    6  C6  UNL     1     -35.072  14.090  -4.450  1.00 20.00     0.022 C 
HETATM    7  C7  UNL     1     -35.961  13.417  -5.495  1.00 20.00     0.016 C 
HETATM    8  N8  UNL     1     -35.463  17.172  -0.880  1.00 20.00    -0.172 NA
HETATM    9  N9  UNL     1     -34.802  16.124  -3.062  1.00 20.00    -0.316 N 
ENDROOT
TORSDOF 0
ENDMDL
MODEL 9
REMARK VINA RESULT:      -3.7     11.827     12.393
REMARK  0 active torsions:
REMARK  status: ('A' for Active; 'I' for Inactive)
ROOT
HETATM    1  C1  UNL     1     -37.672  14.743  -4.681  1.00 20.00     0.179 C 
HETATM    2  C2  UNL     1     -35.187  16.597  -2.631  1.00 20.00    -0.010 C 
HETATM    3  C3  UNL     1     -34.076  16.006  -3.090  1.00 20.00    -0.023 C 
HETATM    4  C4  UNL     1     -36.528  16.466  -3.290  1.00 20.00     0.161 C 
HETATM    5  C5  UNL     1     -35.327  15.415  -5.190  1.00 20.00     0.143 C 
HETATM    6  C6  UNL     1     -34.064  15.178  -4.348  1.00 20.00     0.022 C 
HETATM    7  C7  UNL     1     -32.817  15.472  -5.182  1.00 20.00     0.016 C 
HETATM    8  N8  UNL     1     -38.650  14.208  -5.002  1.00 20.00    -0.172 NA
HETATM    9  N9  UNL     1     -36.535  15.365  -4.307  1.00 20.00    -0.316 N 
ENDROOT
TORSDOF 0
ENDMDL
