MODEL 1
REMARK VINA RESULT:      -5.9      0.000      0.000
REMARK  2 active torsions:
REMARK  status: ('A' for Active; 'I' for Inactive)
REMARK    1  A    between atoms: C4_4  and  C12_12 
REMARK    2  A    between atoms: C5_5  and  C11_11 
ROOT
HETATM    1  C1  UNL     1     -31.651   8.582   3.192  1.00 20.00     0.004 A 
HETATM    2  C2  UNL     1     -31.958   7.669   4.124  1.00 20.00    -0.017 A 
HETATM    3  C3  UNL     1     -33.252   7.298   2.212  1.00 20.00    -0.010 A 
HETATM    4  C4  UNL     1     -32.448   8.355   2.010  1.00 20.00    -0.054 A 
HETATM    5  C5  UNL     1     -33.022   6.743   3.594  1.00 20.00     0.034 A 
ENDROOT
BRANCH   4   6
HETATM    6  C12 UNL     1     -32.334   9.203   0.799  1.00 20.00    -0.024 C 
HETATM    7  C8  UNL     1     -32.450  10.691   1.188  1.00 20.00     0.019 C 
HETATM    8  C9  UNL     1     -33.456   8.860  -0.203  1.00 20.00     0.019 C 
HETATM    9  C10 UNL     1     -30.974   8.974   0.109  1.00 20.00     0.019 C 
ENDBRANCH   4   6
BRANCH   5  10
HETATM   10  C11 UNL     1     -34.286   6.769   4.443  1.00 20.00    -0.012 C 
HETATM   11  C6  UNL     1     -35.024   5.432   4.358  1.00 20.00     0.010 C 
HETATM   12  C7  UNL     1     -33.954   7.104   5.897  1.00 20.00     0.010 C 
ENDBRANCH   5  10
TORSDOF 2
ENDMDL
MODEL 2
REMARK VINA RESULT:      -5.9      0.014      1.256
REMARK  2 active torsions:
REMARK  status: ('A' for Active; 'I' for Inactive)
REMARK    1  A    between atoms: C4_4  and  C12_12 
REMARK    2  A    between atoms: C5_5  and  C11_11 
ROOT
HETATM    1  C1  UNL     1     -31.649   8.578   3.190  1.00 20.00     0.004 A 
HETATM    2  C2  UNL     1     -31.957   7.669   4.126  1.00 20.00    -0.017 A 
HETATM    3  C3  UNL     1     -33.250   7.291   2.214  1.00 20.00    -0.010 A 
HETATM    4  C4  UNL     1     -32.445   8.346   2.009  1.00 20.00    -0.054 A 
HETATM    5  C5  UNL     1     -33.021   6.741   3.599  1.00 20.00     0.034 A 
ENDROOT
BRANCH   4   6
HETATM    6  C12 UNL     1     -32.330   9.189   0.794  1.00 20.00    -0.024 C 
HETATM    7  C8  UNL     1     -30.970   8.941   0.111  1.00 20.00     0.019 C 
HETATM    8  C9  UNL     1     -32.437  10.683   1.165  1.00 20.00     0.019 C 
HETATM    9  C10 UNL     1     -33.457   8.851  -0.204  1.00 20.00     0.019 C 
ENDBRANCH   4   6
BRANCH   5  10
HETATM   10  C11 UNL     1     -34.286   6.772   4.447  1.00 20.00    -0.012 C 
HETATM   11  C6  UNL     1     -35.028   5.437   4.360  1.00 20.00     0.010 C 
HETATM   12  C7  UNL     1     -33.954   7.104   5.901  1.00 20.00     0.010 C 
ENDBRANCH   5  10
TORSDOF 2
ENDMDL
MODEL 3
REMARK VINA RESULT:      -5.9      0.009      1.255
REMARK  2 active torsions:
REMARK  status: ('A' for Active; 'I' for Inactive)
REMARK    1  A    between atoms: C4_4  and  C12_12 
REMARK    2  A    between atoms: C5_5  and  C11_11 
ROOT
HETATM    1  C1  UNL     1     -31.652   8.577   3.197  1.00 20.00     0.004 A 
HETATM    2  C2  UNL     1     -31.961   7.661   4.125  1.00 20.00    -0.017 A 
HETATM    3  C3  UNL     1     -33.257   7.301   2.212  1.00 20.00    -0.010 A 
HETATM    4  C4  UNL     1     -32.451   8.357   2.015  1.00 20.00    -0.054 A 
HETATM    5  C5  UNL     1     -33.028   6.740   3.592  1.00 20.00     0.034 A 
ENDROOT
BRANCH   4   6
HETATM    6  C12 UNL     1     -32.336   9.210   0.807  1.00 20.00    -0.024 C 
HETATM    7  C8  UNL     1     -33.459   8.860  -0.190  1.00 20.00     0.019 C 
HETATM    8  C9  UNL     1     -30.972   8.987   0.120  1.00 20.00     0.019 C 
HETATM    9  C10 UNL     1     -32.454  10.700   1.188  1.00 20.00     0.019 C 
ENDBRANCH   4   6
BRANCH   5  10
HETATM   10  C11 UNL     1     -34.291   6.766   4.442  1.00 20.00    -0.012 C 
HETATM   11  C6  UNL     1     -35.025   5.427   4.363  1.00 20.00     0.010 C 
HETATM   12  C7  UNL     1     -33.959   7.107   5.895  1.00 20.00     0.010 C 
ENDBRANCH   5  10
TORSDOF 2
ENDMDL
MODEL 4
REMARK VINA RESULT:      -5.7      1.227      2.061
REMARK  2 active torsions:
REMARK  status: ('A' for Active; 'I' for Inactive)
REMARK    1  A    between atoms: C4_4  and  C12_12 
REMARK    2  A    between atoms: C5_5  and  C11_11 
ROOT
HETATM    1  C1  UNL     1     -32.741   5.971   2.398  1.00 20.00     0.004 A 
HETATM    2  C2  UNL     1     -33.703   5.209   2.937  1.00 20.00    -0.017 A 
HETATM    3  C3  UNL     1     -34.151   7.460   3.382  1.00 20.00    -0.010 A 
HETATM    4  C4  UNL     1     -33.016   7.362   2.671  1.00 20.00    -0.054 A 
HETATM    5  C5  UNL     1     -34.715   6.084   3.629  1.00 20.00     0.034 A 
ENDROOT
BRANCH   4   6
HETATM    6  C12 UNL     1     -32.131   8.455   2.199  1.00 20.00    -0.024 C 
HETATM    7  C8  UNL     1     -31.045   8.742   3.256  1.00 20.00     0.019 C 
HETATM    8  C9  UNL     1     -32.949   9.742   1.961  1.00 20.00     0.019 C 
HETATM    9  C10 UNL     1     -31.446   8.058   0.876  1.00 20.00     0.019 C 
ENDBRANCH   4   6
BRANCH   5  10
HETATM   10  C11 UNL     1     -34.833   5.768   5.114  1.00 20.00    -0.012 C 
HETATM   11  C6  UNL     1     -34.346   4.348   5.406  1.00 20.00     0.010 C 
HETATM   12  C7  UNL     1     -34.049   6.782   5.946  1.00 20.00     0.010 C 
ENDBRANCH   5  10
TORSDOF 2
ENDMDL
MODEL 5
REMARK VINA RESULT:      -5.1      1.026      4.844
REMARK  2 active torsions:
REMARK  status: ('A' for Active; 'I' for Inactive)
REMARK    1  A    between atoms: C4_4  and  C12_12 
REMARK    2  A    between atoms: C5_5  and  C11_11 
ROOT
HETATM    1  C1  UNL     1     -32.481   6.241   2.585  1.00 20.00     0.004 A 
HETATM    2  C2  UNL     1     -31.812   7.259   2.025  1.00 20.00    -0.017 A 
HETATM    3  C3  UNL     1     -33.437   8.101   3.480  1.00 20.00    -0.010 A 
HETATM    4  C4  UNL     1     -33.485   6.758   3.485  1.00 20.00    -0.054 A 
HETATM    5  C5  UNL     1     -32.355   8.567   2.540  1.00 20.00     0.034 A 
ENDROOT
BRANCH   4   6
HETATM    6  C12 UNL     1     -34.388   5.875   4.261  1.00 20.00    -0.024 C 
HETATM    7  C8  UNL     1     -35.833   6.018   3.742  1.00 20.00     0.019 C 
HETATM    8  C9  UNL     1     -34.355   6.254   5.756  1.00 20.00     0.019 C 
HETATM    9  C10 UNL     1     -33.952   4.402   4.120  1.00 20.00     0.019 C 
ENDBRANCH   4   6
BRANCH   5  10
HETATM   10  C11 UNL     1     -32.901   9.445   1.423  1.00 20.00    -0.012 C 
HETATM   11  C6  UNL     1     -32.659  10.924   1.730  1.00 20.00     0.010 C 
HETATM   12  C7  UNL     1     -32.272   9.069   0.082  1.00 20.00     0.010 C 
ENDBRANCH   5  10
TORSDOF 2
ENDMDL
MODEL 6
REMARK VINA RESULT:      -5.0      1.160      2.135
REMARK  2 active torsions:
REMARK  status: ('A' for Active; 'I' for Inactive)
REMARK    1  A    between atoms: C4_4  and  C12_12 
REMARK    2  A    between atoms: C5_5  and  C11_11 
ROOT
HETATM    1  C1  UNL     1     -32.955   6.463   1.789  1.00 20.00     0.004 A 
HETATM    2  C2  UNL     1     -33.598   5.716   2.697  1.00 20.00    -0.017 A 
HETATM    3  C3  UNL     1     -33.817   7.977   3.250  1.00 20.00    -0.010 A 
HETATM    4  C4  UNL     1     -33.089   7.860   2.128  1.00 20.00    -0.054 A 
HETATM    5  C5  UNL     1     -34.224   6.610   3.737  1.00 20.00     0.034 A 
ENDROOT
BRANCH   4   6
HETATM    6  C12 UNL     1     -32.487   8.939   1.308  1.00 20.00    -0.024 C 
HETATM    7  C8  UNL     1     -31.015   8.602   0.998  1.00 20.00     0.019 C 
HETATM    8  C9  UNL     1     -32.544  10.283   2.064  1.00 20.00     0.019 C 
HETATM    9  C10 UNL     1     -33.253   9.093  -0.023  1.00 20.00     0.019 C 
ENDBRANCH   4   6
BRANCH   5  10
HETATM   10  C11 UNL     1     -33.703   6.319   5.138  1.00 20.00    -0.012 C 
HETATM   11  C6  UNL     1     -33.659   7.597   5.976  1.00 20.00     0.010 C 
HETATM   12  C7  UNL     1     -34.563   5.259   5.826  1.00 20.00     0.010 C 
ENDBRANCH   5  10
TORSDOF 2
ENDMDL
MODEL 7
REMARK VINA RESULT:      -4.7      9.555     10.627
REMARK  2 active torsions:
REMARK  status: ('A' for Active; 'I' for Inactive)
REMARK    1  A    between atoms: C4_4  and  C12_12 
REMARK    2  A    between atoms: C5_5  and  C11_11 
ROOT
HETATM    1  C1  UNL     1     -35.588  15.993  -2.762  1.00 20.00     0.004 A 
HETATM    2  C2  UNL     1     -35.624  16.996  -1.873  1.00 20.00    -0.017 A 
HETATM    3  C3  UNL     1     -33.570  17.018  -2.990  1.00 20.00    -0.010 A 
HETATM    4  C4  UNL     1     -34.320  16.005  -3.453  1.00 20.00    -0.054 A 
HETATM    5  C5  UNL     1     -34.329  17.765  -1.923  1.00 20.00     0.034 A 
ENDROOT
BRANCH   4   6
HETATM    6  C12 UNL     1     -33.978  15.017  -4.504  1.00 20.00    -0.024 C 
HETATM    7  C8  UNL     1     -33.721  15.741  -5.841  1.00 20.00     0.019 C 
HETATM    8  C9  UNL     1     -35.136  14.014  -4.695  1.00 20.00     0.019 C 
HETATM    9  C10 UNL     1     -32.710  14.232  -4.111  1.00 20.00     0.019 C 
ENDBRANCH   4   6
BRANCH   5  10
HETATM   10  C11 UNL     1     -33.601  17.758  -0.586  1.00 20.00    -0.012 C 
HETATM   11  C6  UNL     1     -32.282  18.526  -0.684  1.00 20.00     0.010 C 
HETATM   12  C7  UNL     1     -34.483  18.351   0.513  1.00 20.00     0.010 C 
ENDBRANCH   5  10
TORSDOF 2
ENDMDL
MODEL 8
REMARK VINA RESULT:      -4.7      9.903     11.154
REMARK  2 active torsions:
REMARK  status: ('A' for Active; 'I' for Inactive)
REMARK    1  A    between atoms: C4_4  and  C12_12 
REMARK    2  A    between atoms: C5_5  and  C11_11 
ROOT
HETATM    1  C1  UNL     1     -36.104  15.799  -3.658  1.00 20.00     0.004 A 
HETATM    2  C2  UNL     1     -35.946  14.737  -4.461  1.00 20.00    -0.017 A 
HETATM    3  C3  UNL     1     -33.877  15.349  -3.559  1.00 20.00    -0.010 A 
HETATM    4  C4  UNL     1     -34.828  16.179  -3.100  1.00 20.00    -0.054 A 
HETATM    5  C5  UNL     1     -34.494  14.332  -4.483  1.00 20.00     0.034 A 
ENDROOT
BRANCH   4   6
HETATM    6  C12 UNL     1     -34.677  17.322  -2.167  1.00 20.00    -0.024 C 
HETATM    7  C8  UNL     1     -35.244  18.603  -2.811  1.00 20.00     0.019 C 
HETATM    8  C9  UNL     1     -33.188  17.548  -1.833  1.00 20.00     0.019 C 
HETATM    9  C10 UNL     1     -35.437  17.046  -0.853  1.00 20.00     0.019 C 
ENDBRANCH   4   6
BRANCH   5  10
HETATM   10  C11 UNL     1     -33.900  14.391  -5.884  1.00 20.00    -0.012 C 
HETATM   11  C6  UNL     1     -34.935  13.971  -6.929  1.00 20.00     0.010 C 
HETATM   12  C7  UNL     1     -33.373  15.793  -6.189  1.00 20.00     0.010 C 
ENDBRANCH   5  10
TORSDOF 2
ENDMDL
MODEL 9
REMARK VINA RESULT:      -4.6      9.818     10.769
REMARK  2 active torsions:
REMARK  status: ('A' for Active; 'I' for Inactive)
REMARK    1  A    between atoms: C4_4  and  C12_12 
REMARK    2  A    between atoms: C5_5  and  C11_11 
ROOT
HETATM    1  C1  UNL     1     -33.460  16.950  -2.508  1.00 20.00     0.004 A 
HETATM    2  C2  UNL     1     -33.822  17.425  -1.308  1.00 20.00    -0.017 A 
HETATM    3  C3  UNL     1     -35.636  16.325  -2.291  1.00 20.00    -0.010 A 
HETATM    4  C4  UNL     1     -34.579  16.270  -3.117  1.00 20.00    -0.054 A 
HETATM    5  C5  UNL     1     -35.262  17.074  -1.037  1.00 20.00     0.034 A 
ENDROOT
BRANCH   4   6
HETATM    6  C12 UNL     1     -34.490  15.632  -4.453  1.00 20.00    -0.024 C 
HETATM    7  C8  UNL     1     -33.067  15.803  -5.021  1.00 20.00     0.019 C 
HETATM    8  C9  UNL     1     -35.498  16.281  -5.425  1.00 20.00     0.019 C 
HETATM    9  C10 UNL     1     -34.808  14.126  -4.350  1.00 20.00     0.019 C 
ENDBRANCH   4   6
BRANCH   5  10
HETATM   10  C11 UNL     1     -36.127  18.309  -0.824  1.00 20.00    -0.012 C 
HETATM   11  C6  UNL     1     -37.235  18.382  -1.875  1.00 20.00     0.010 C 
HETATM   12  C7  UNL     1     -36.726  18.314   0.583  1.00 20.00     0.010 C 
ENDBRANCH   5  10
TORSDOF 2
ENDMDL
