MODEL 1
REMARK VINA RESULT:      -5.6      0.000      0.000
REMARK  1 active torsions:
REMARK  status: ('A' for Active; 'I' for Inactive)
REMARK    1  A    between atoms: C6_6  and  C11_11 
ROOT
HETATM    1  C1  UNL     1     -33.362   5.462   2.951  1.00 20.00     0.003 C 
HETATM    2  C2  UNL     1     -32.674   6.377   2.254  1.00 20.00    -0.016 C 
HETATM    3  C3  UNL     1     -34.349   7.109   4.422  1.00 20.00    -0.019 C 
HETATM    4  C4  UNL     1     -34.116   5.816   4.136  1.00 20.00    -0.066 C 
HETATM    5  C5  UNL     1     -33.849   8.226   3.548  1.00 20.00     0.041 C 
HETATM    6  C6  UNL     1     -32.639   7.845   2.644  1.00 20.00    -0.020 C 
HETATM    7  C7  UNL     1     -34.630   4.690   4.979  1.00 20.00     0.048 C 
HETATM    8  C8  UNL     1     -31.320   8.103   3.398  1.00 20.00     0.020 C 
ENDROOT
BRANCH   6   9
HETATM    9  C11 UNL     1     -32.665   8.719   1.381  1.00 20.00    -0.011 C 
HETATM   10  C9  UNL     1     -32.940  10.169   1.752  1.00 20.00     0.010 C 
HETATM   11  C10 UNL     1     -31.350   8.586   0.625  1.00 20.00     0.010 C 
ENDBRANCH   6   9
TORSDOF 1
ENDMDL
MODEL 2
REMARK VINA RESULT:      -5.4      1.181      4.501
REMARK  1 active torsions:
REMARK  status: ('A' for Active; 'I' for Inactive)
REMARK    1  A    between atoms: C6_6  and  C11_11 
ROOT
HETATM    1  C1  UNL     1     -32.534   6.462   2.463  1.00 20.00     0.003 C 
HETATM    2  C2  UNL     1     -33.501   5.605   2.825  1.00 20.00    -0.016 C 
HETATM    3  C3  UNL     1     -32.959   7.953   4.320  1.00 20.00    -0.019 C 
HETATM    4  C4  UNL     1     -32.340   7.723   3.149  1.00 20.00    -0.066 C 
HETATM    5  C5  UNL     1     -33.865   6.937   4.961  1.00 20.00     0.041 C 
HETATM    6  C6  UNL     1     -34.452   5.884   3.975  1.00 20.00    -0.020 C 
HETATM    7  C7  UNL     1     -31.414   8.711   2.510  1.00 20.00     0.048 C 
HETATM    8  C8  UNL     1     -35.775   6.403   3.381  1.00 20.00     0.020 C 
ENDROOT
BRANCH   6   9
HETATM    9  C11 UNL     1     -34.732   4.583   4.744  1.00 20.00    -0.011 C 
HETATM   10  C9  UNL     1     -33.754   3.498   4.314  1.00 20.00     0.010 C 
HETATM   11  C10 UNL     1     -34.649   4.833   6.243  1.00 20.00     0.010 C 
ENDBRANCH   6   9
TORSDOF 1
ENDMDL
MODEL 3
REMARK VINA RESULT:      -5.3      1.076      4.346
REMARK  1 active torsions:
REMARK  status: ('A' for Active; 'I' for Inactive)
REMARK    1  A    between atoms: C6_6  and  C11_11 
ROOT
HETATM    1  C1  UNL     1     -31.900   8.178   2.970  1.00 20.00     0.003 C 
HETATM    2  C2  UNL     1     -32.397   7.248   3.798  1.00 20.00    -0.016 C 
HETATM    3  C3  UNL     1     -33.569   7.767   1.268  1.00 20.00    -0.019 C 
HETATM    4  C4  UNL     1     -32.415   8.356   1.628  1.00 20.00    -0.066 C 
HETATM    5  C5  UNL     1     -34.362   6.910   2.217  1.00 20.00     0.041 C 
HETATM    6  C6  UNL     1     -33.535   6.325   3.400  1.00 20.00    -0.020 C 
HETATM    7  C7  UNL     1     -31.627   9.234   0.706  1.00 20.00     0.048 C 
HETATM    8  C8  UNL     1     -32.925   4.970   2.993  1.00 20.00     0.020 C 
ENDROOT
BRANCH   6   9
HETATM    9  C11 UNL     1     -34.469   6.105   4.601  1.00 20.00    -0.011 C 
HETATM   10  C9  UNL     1     -34.553   4.622   4.936  1.00 20.00     0.010 C 
HETATM   11  C10 UNL     1     -33.982   6.910   5.797  1.00 20.00     0.010 C 
ENDBRANCH   6   9
TORSDOF 1
ENDMDL
MODEL 4
REMARK VINA RESULT:      -4.7     10.535     11.514
REMARK  1 active torsions:
REMARK  status: ('A' for Active; 'I' for Inactive)
REMARK    1  A    between atoms: C6_6  and  C11_11 
ROOT
HETATM    1  C1  UNL     1     -33.153  18.207  -0.702  1.00 20.00     0.003 C 
HETATM    2  C2  UNL     1     -33.059  17.836  -1.988  1.00 20.00    -0.016 C 
HETATM    3  C3  UNL     1     -35.383  17.304  -0.451  1.00 20.00    -0.019 C 
HETATM    4  C4  UNL     1     -34.383  18.052   0.047  1.00 20.00    -0.066 C 
HETATM    5  C5  UNL     1     -35.279  16.609  -1.781  1.00 20.00     0.041 C 
HETATM    6  C6  UNL     1     -34.222  17.223  -2.748  1.00 20.00    -0.020 C 
HETATM    7  C7  UNL     1     -34.458  18.728   1.381  1.00 20.00     0.048 C 
HETATM    8  C8  UNL     1     -34.872  18.333  -3.597  1.00 20.00     0.020 C 
ENDROOT
BRANCH   6   9
HETATM    9  C11 UNL     1     -33.706  16.121  -3.686  1.00 20.00    -0.011 C 
HETATM   10  C9  UNL     1     -34.729  14.999  -3.791  1.00 20.00     0.010 C 
HETATM   11  C10 UNL     1     -33.392  16.706  -5.057  1.00 20.00     0.010 C 
ENDBRANCH   6   9
TORSDOF 1
ENDMDL
MODEL 5
REMARK VINA RESULT:      -4.7     10.189     11.495
REMARK  1 active torsions:
REMARK  status: ('A' for Active; 'I' for Inactive)
REMARK    1  A    between atoms: C6_6  and  C11_11 
ROOT
HETATM    1  C1  UNL     1     -33.255  17.560  -1.853  1.00 20.00     0.003 C 
HETATM    2  C2  UNL     1     -33.377  17.209  -3.141  1.00 20.00    -0.016 C 
HETATM    3  C3  UNL     1     -35.523  16.915  -1.310  1.00 20.00    -0.019 C 
HETATM    4  C4  UNL     1     -34.384  17.532  -0.946  1.00 20.00    -0.066 C 
HETATM    5  C5  UNL     1     -35.678  16.242  -2.646  1.00 20.00     0.041 C 
HETATM    6  C6  UNL     1     -34.694  16.751  -3.742  1.00 20.00    -0.020 C 
HETATM    7  C7  UNL     1     -34.202  18.183   0.390  1.00 20.00     0.048 C 
HETATM    8  C8  UNL     1     -35.316  17.946  -4.489  1.00 20.00     0.020 C 
ENDROOT
BRANCH   6   9
HETATM    9  C11 UNL     1     -34.439  15.617  -4.748  1.00 20.00    -0.011 C 
HETATM   10  C9  UNL     1     -33.052  15.761  -5.359  1.00 20.00     0.010 C 
HETATM   11  C10 UNL     1     -34.600  14.266  -4.066  1.00 20.00     0.010 C 
ENDBRANCH   6   9
TORSDOF 1
ENDMDL
MODEL 6
REMARK VINA RESULT:      -4.6     10.537     11.287
REMARK  1 active torsions:
REMARK  status: ('A' for Active; 'I' for Inactive)
REMARK    1  A    between atoms: C6_6  and  C11_11 
ROOT
HETATM    1  C1  UNL     1     -36.231  15.237  -4.075  1.00 20.00     0.003 C 
HETATM    2  C2  UNL     1     -35.741  16.246  -3.339  1.00 20.00    -0.016 C 
HETATM    3  C3  UNL     1     -34.036  14.406  -4.664  1.00 20.00    -0.019 C 
HETATM    4  C4  UNL     1     -35.367  14.375  -4.856  1.00 20.00    -0.066 C 
HETATM    5  C5  UNL     1     -33.393  15.319  -3.656  1.00 20.00     0.041 C 
HETATM    6  C6  UNL     1     -34.256  16.554  -3.261  1.00 20.00    -0.020 C 
HETATM    7  C7  UNL     1     -36.027  13.454  -5.834  1.00 20.00     0.048 C 
HETATM    8  C8  UNL     1     -33.964  17.724  -4.219  1.00 20.00     0.020 C 
ENDROOT
BRANCH   6   9
HETATM    9  C11 UNL     1     -33.889  16.982  -1.831  1.00 20.00    -0.011 C 
HETATM   10  C9  UNL     1     -33.043  18.248  -1.864  1.00 20.00     0.010 C 
HETATM   11  C10 UNL     1     -35.152  17.187  -1.006  1.00 20.00     0.010 C 
ENDBRANCH   6   9
TORSDOF 1
ENDMDL
MODEL 7
REMARK VINA RESULT:      -4.6     10.661     11.714
REMARK  1 active torsions:
REMARK  status: ('A' for Active; 'I' for Inactive)
REMARK    1  A    between atoms: C6_6  and  C11_11 
ROOT
HETATM    1  C1  UNL     1     -35.130  14.183  -4.901  1.00 20.00     0.003 C 
HETATM    2  C2  UNL     1     -35.260  15.026  -3.866  1.00 20.00    -0.016 C 
HETATM    3  C3  UNL     1     -33.451  15.544  -5.989  1.00 20.00    -0.019 C 
HETATM    4  C4  UNL     1     -34.305  14.506  -6.047  1.00 20.00    -0.066 C 
HETATM    5  C5  UNL     1     -33.316  16.403  -4.761  1.00 20.00     0.041 C 
HETATM    6  C6  UNL     1     -34.550  16.368  -3.811  1.00 20.00    -0.020 C 
HETATM    7  C7  UNL     1     -34.432  13.624  -7.250  1.00 20.00     0.048 C 
HETATM    8  C8  UNL     1     -35.561  17.455  -4.225  1.00 20.00     0.020 C 
ENDROOT
BRANCH   6   9
HETATM    9  C11 UNL     1     -34.082  16.649  -2.374  1.00 20.00    -0.011 C 
HETATM   10  C9  UNL     1     -33.195  17.885  -2.345  1.00 20.00     0.010 C 
HETATM   11  C10 UNL     1     -35.285  16.815  -1.455  1.00 20.00     0.010 C 
ENDBRANCH   6   9
TORSDOF 1
ENDMDL
MODEL 8
REMARK VINA RESULT:      -4.6     10.090     11.479
REMARK  1 active torsions:
REMARK  status: ('A' for Active; 'I' for Inactive)
REMARK    1  A    between atoms: C6_6  and  C11_11 
ROOT
HETATM    1  C1  UNL     1     -36.099  16.636  -2.641  1.00 20.00     0.003 C 
HETATM    2  C2  UNL     1     -36.023  16.009  -3.824  1.00 20.00    -0.016 C 
HETATM    3  C3  UNL     1     -33.697  16.785  -2.399  1.00 20.00    -0.019 C 
HETATM    4  C4  UNL     1     -34.918  16.918  -1.852  1.00 20.00    -0.066 C 
HETATM    5  C5  UNL     1     -33.501  16.343  -3.824  1.00 20.00     0.041 C 
HETATM    6  C6  UNL     1     -34.704  15.559  -4.426  1.00 20.00    -0.020 C 
HETATM    7  C7  UNL     1     -35.133  17.383  -0.445  1.00 20.00     0.048 C 
HETATM    8  C8  UNL     1     -34.542  14.053  -4.141  1.00 20.00     0.020 C 
ENDROOT
BRANCH   6   9
HETATM    9  C11 UNL     1     -34.728  15.773  -5.948  1.00 20.00    -0.011 C 
HETATM   10  C9  UNL     1     -33.901  16.997  -6.318  1.00 20.00     0.010 C 
HETATM   11  C10 UNL     1     -34.214  14.530  -6.660  1.00 20.00     0.010 C 
ENDBRANCH   6   9
TORSDOF 1
ENDMDL
MODEL 9
REMARK VINA RESULT:      -4.5     10.813     11.712
REMARK  1 active torsions:
REMARK  status: ('A' for Active; 'I' for Inactive)
REMARK    1  A    between atoms: C6_6  and  C11_11 
ROOT
HETATM    1  C1  UNL     1     -33.528  15.989  -3.395  1.00 20.00     0.003 C 
HETATM    2  C2  UNL     1     -33.371  15.604  -4.671  1.00 20.00    -0.016 C 
HETATM    3  C3  UNL     1     -35.942  15.885  -3.506  1.00 20.00    -0.019 C 
HETATM    4  C4  UNL     1     -34.837  16.256  -2.836  1.00 20.00    -0.066 C 
HETATM    5  C5  UNL     1     -35.876  15.191  -4.839  1.00 20.00     0.041 C 
HETATM    6  C6  UNL     1     -34.544  15.413  -5.616  1.00 20.00    -0.020 C 
HETATM    7  C7  UNL     1     -34.883  16.923  -1.496  1.00 20.00     0.048 C 
HETATM    8  C8  UNL     1     -34.654  16.673  -6.495  1.00 20.00     0.020 C 
ENDROOT
BRANCH   6   9
HETATM    9  C11 UNL     1     -34.287  14.199  -6.523  1.00 20.00    -0.011 C 
HETATM   10  C9  UNL     1     -35.523  13.312  -6.574  1.00 20.00     0.010 C 
HETATM   11  C10 UNL     1     -33.887  14.663  -7.917  1.00 20.00     0.010 C 
ENDBRANCH   6   9
TORSDOF 1
ENDMDL
