MODEL 1
REMARK VINA RESULT:      -4.4      0.000      0.000
REMARK  1 active torsions:
REMARK  status: ('A' for Active; 'I' for Inactive)
REMARK    1  A    between atoms: C1_1  and  C4_4 
ROOT
HETATM    1  C2  UNL     1     -34.575   5.467   5.553  1.00 20.00     0.054 A 
HETATM    2  C3  UNL     1     -34.468   4.328   4.582  1.00 20.00     0.054 A 
HETATM    3  C4  UNL     1     -34.687   5.728   4.075  1.00 20.00     0.156 A 
HETATM    4  F6  UNL     1     -35.971   6.001   3.614  1.00 20.00    -0.235 F 
ENDROOT
BRANCH   3   5
HETATM    5  C1  UNL     1     -33.607   6.427   3.375  1.00 20.00     0.274 C 
HETATM    6  O5  UNL     1     -33.032   7.410   3.828  1.00 20.00    -0.303 OA
ENDBRANCH   3   5
TORSDOF 1
ENDMDL
MODEL 2
REMARK VINA RESULT:      -4.2      1.741      2.550
REMARK  1 active torsions:
REMARK  status: ('A' for Active; 'I' for Inactive)
REMARK    1  A    between atoms: C1_1  and  C4_4 
ROOT
HETATM    1  C2  UNL     1     -33.619   6.212   2.897  1.00 20.00     0.054 A 
HETATM    2  C3  UNL     1     -33.820   7.075   4.107  1.00 20.00     0.054 A 
HETATM    3  C4  UNL     1     -34.694   5.868   3.892  1.00 20.00     0.156 A 
HETATM    4  F6  UNL     1     -35.995   6.140   3.481  1.00 20.00    -0.235 F 
ENDROOT
BRANCH   3   5
HETATM    5  C1  UNL     1     -34.541   4.694   4.755  1.00 20.00     0.274 C 
HETATM    6  O5  UNL     1     -34.253   3.580   4.335  1.00 20.00    -0.303 OA
ENDBRANCH   3   5
TORSDOF 1
ENDMDL
MODEL 3
REMARK VINA RESULT:      -4.0      1.620      2.100
REMARK  1 active torsions:
REMARK  status: ('A' for Active; 'I' for Inactive)
REMARK    1  A    between atoms: C1_1  and  C4_4 
ROOT
HETATM    1  C2  UNL     1     -33.924   5.495   3.638  1.00 20.00     0.054 A 
HETATM    2  C3  UNL     1     -35.367   5.851   3.836  1.00 20.00     0.054 A 
HETATM    3  C4  UNL     1     -34.454   5.731   5.027  1.00 20.00     0.156 A 
HETATM    4  F6  UNL     1     -34.630   4.588   5.800  1.00 20.00    -0.235 F 
ENDROOT
BRANCH   3   5
HETATM    5  C1  UNL     1     -34.057   6.933   5.765  1.00 20.00     0.274 C 
HETATM    6  O5  UNL     1     -33.018   7.546   5.549  1.00 20.00    -0.303 OA
ENDBRANCH   3   5
TORSDOF 1
ENDMDL
MODEL 4
REMARK VINA RESULT:      -4.0      1.683      2.460
REMARK  1 active torsions:
REMARK  status: ('A' for Active; 'I' for Inactive)
REMARK    1  A    between atoms: C1_1  and  C4_4 
ROOT
HETATM    1  C2  UNL     1     -33.479   5.451   2.957  1.00 20.00     0.054 A 
HETATM    2  C3  UNL     1     -33.504   6.927   3.221  1.00 20.00     0.054 A 
HETATM    3  C4  UNL     1     -34.527   6.032   3.867  1.00 20.00     0.156 A 
HETATM    4  F6  UNL     1     -35.808   6.107   3.330  1.00 20.00    -0.235 F 
ENDROOT
BRANCH   3   5
HETATM    5  C1  UNL     1     -34.465   5.775   5.308  1.00 20.00     0.274 C 
HETATM    6  O5  UNL     1     -34.502   4.652   5.797  1.00 20.00    -0.303 OA
ENDBRANCH   3   5
TORSDOF 1
ENDMDL
MODEL 5
REMARK VINA RESULT:      -3.9      4.323      5.431
REMARK  1 active torsions:
REMARK  status: ('A' for Active; 'I' for Inactive)
REMARK    1  A    between atoms: C1_1  and  C4_4 
ROOT
HETATM    1  C2  UNL     1     -32.448  10.418   0.903  1.00 20.00     0.054 A 
HETATM    2  C3  UNL     1     -33.080   9.426  -0.027  1.00 20.00     0.054 A 
HETATM    3  C4  UNL     1     -32.091   8.960   1.008  1.00 20.00     0.156 A 
HETATM    4  F6  UNL     1     -30.834   8.618   0.521  1.00 20.00    -0.235 F 
ENDROOT
BRANCH   3   5
HETATM    5  C1  UNL     1     -32.553   8.177   2.157  1.00 20.00     0.274 C 
HETATM    6  O5  UNL     1     -31.888   8.009   3.172  1.00 20.00    -0.303 OA
ENDBRANCH   3   5
TORSDOF 1
ENDMDL
MODEL 6
REMARK VINA RESULT:      -3.9      1.448      1.669
REMARK  1 active torsions:
REMARK  status: ('A' for Active; 'I' for Inactive)
REMARK    1  A    between atoms: C1_1  and  C4_4 
ROOT
HETATM    1  C2  UNL     1     -35.400   5.854   3.825  1.00 20.00     0.054 A 
HETATM    2  C3  UNL     1     -34.548   5.419   4.980  1.00 20.00     0.054 A 
HETATM    3  C4  UNL     1     -33.901   5.929   3.721  1.00 20.00     0.156 A 
HETATM    4  F6  UNL     1     -33.309   4.958   2.919  1.00 20.00    -0.235 F 
ENDROOT
BRANCH   3   5
HETATM    5  C1  UNL     1     -33.234   7.233   3.721  1.00 20.00     0.274 C 
HETATM    6  O5  UNL     1     -32.153   7.440   3.182  1.00 20.00    -0.303 OA
ENDBRANCH   3   5
TORSDOF 1
ENDMDL
MODEL 7
REMARK VINA RESULT:      -3.7      1.686      1.939
REMARK  1 active torsions:
REMARK  status: ('A' for Active; 'I' for Inactive)
REMARK    1  A    between atoms: C1_1  and  C4_4 
ROOT
HETATM    1  C2  UNL     1     -35.433   5.820   3.842  1.00 20.00     0.054 A 
HETATM    2  C3  UNL     1     -34.559   4.794   4.500  1.00 20.00     0.054 A 
HETATM    3  C4  UNL     1     -34.077   6.213   4.360  1.00 20.00     0.156 A 
HETATM    4  F6  UNL     1     -33.103   6.419   3.387  1.00 20.00    -0.235 F 
ENDROOT
BRANCH   3   5
HETATM    5  C1  UNL     1     -33.967   7.066   5.546  1.00 20.00     0.274 C 
HETATM    6  O5  UNL     1     -32.951   7.682   5.844  1.00 20.00    -0.303 OA
ENDBRANCH   3   5
TORSDOF 1
ENDMDL
MODEL 8
REMARK VINA RESULT:      -3.7      2.374      3.384
REMARK  1 active torsions:
REMARK  status: ('A' for Active; 'I' for Inactive)
REMARK    1  A    between atoms: C1_1  and  C4_4 
ROOT
HETATM    1  C2  UNL     1     -31.622   8.082   3.271  1.00 20.00     0.054 A 
HETATM    2  C3  UNL     1     -32.655   8.245   2.195  1.00 20.00     0.054 A 
HETATM    3  C4  UNL     1     -32.779   7.123   3.191  1.00 20.00     0.156 A 
HETATM    4  F6  UNL     1     -32.472   5.857   2.704  1.00 20.00    -0.235 F 
ENDROOT
BRANCH   3   5
HETATM    5  C1  UNL     1     -33.832   7.165   4.209  1.00 20.00     0.274 C 
HETATM    6  O5  UNL     1     -33.607   7.231   5.412  1.00 20.00    -0.303 OA
ENDBRANCH   3   5
TORSDOF 1
ENDMDL
MODEL 9
REMARK VINA RESULT:      -3.5      3.250      3.712
REMARK  1 active torsions:
REMARK  status: ('A' for Active; 'I' for Inactive)
REMARK    1  A    between atoms: C1_1  and  C4_4 
ROOT
HETATM    1  C2  UNL     1     -32.871   6.388   2.829  1.00 20.00     0.054 A 
HETATM    2  C3  UNL     1     -33.550   7.424   3.675  1.00 20.00     0.054 A 
HETATM    3  C4  UNL     1     -32.346   7.798   2.853  1.00 20.00     0.156 A 
HETATM    4  F6  UNL     1     -31.168   7.982   3.571  1.00 20.00    -0.235 F 
ENDROOT
BRANCH   3   5
HETATM    5  C1  UNL     1     -32.504   8.656   1.677  1.00 20.00     0.274 C 
HETATM    6  O5  UNL     1     -31.608   8.865   0.867  1.00 20.00    -0.303 OA
ENDBRANCH   3   5
TORSDOF 1
ENDMDL
