MODEL 1
REMARK VINA RESULT:      -5.4      0.000      0.000
REMARK  1 active torsions:
REMARK  status: ('A' for Active; 'I' for Inactive)
REMARK    1  A    between atoms: C3_3  and  C6_6 
ROOT
HETATM    1  C1  UNL     1     -33.625   7.492   6.034  1.00 20.00     0.013 C 
HETATM    2  C2  UNL     1     -33.932   6.697   5.187  1.00 20.00    -0.099 C 
HETATM    3  C4  UNL     1     -35.672   6.140   3.557  1.00 20.00     0.038 C 
HETATM    4  C5  UNL     1     -34.432   4.331   4.803  1.00 20.00     0.038 C 
HETATM    5  C6  UNL     1     -34.317   5.713   4.143  1.00 20.00     0.091 C 
ENDROOT
BRANCH   5   6
HETATM    6  C3  UNL     1     -33.237   5.694   3.039  1.00 20.00     0.238 C 
HETATM    7  O7  UNL     1     -32.870   4.651   2.501  1.00 20.00    -0.278 OA
HETATM    8 CL8  UNL     1     -32.597   7.271   2.634  1.00 20.00    -0.042 Cl
ENDBRANCH   5   6
TORSDOF 1
ENDMDL
MODEL 2
REMARK VINA RESULT:      -4.8      1.763      2.913
REMARK  1 active torsions:
REMARK  status: ('A' for Active; 'I' for Inactive)
REMARK    1  A    between atoms: C3_3  and  C6_6 
ROOT
HETATM    1  C1  UNL     1     -32.866   4.454   2.464  1.00 20.00     0.013 C 
HETATM    2  C2  UNL     1     -33.520   5.048   3.278  1.00 20.00    -0.099 C 
HETATM    3  C4  UNL     1     -34.573   4.844   5.479  1.00 20.00     0.038 C 
HETATM    4  C5  UNL     1     -35.668   6.168   3.633  1.00 20.00     0.038 C 
HETATM    5  C6  UNL     1     -34.332   5.780   4.284  1.00 20.00     0.091 C 
ENDROOT
BRANCH   5   6
HETATM    6  C3  UNL     1     -33.567   7.043   4.736  1.00 20.00     0.238 C 
HETATM    7  O7  UNL     1     -33.668   7.497   5.874  1.00 20.00    -0.278 OA
HETATM    8 CL8  UNL     1     -32.559   7.754   3.494  1.00 20.00    -0.042 Cl
ENDBRANCH   5   6
TORSDOF 1
ENDMDL
MODEL 3
REMARK VINA RESULT:      -4.8      1.732      2.088
REMARK  1 active torsions:
REMARK  status: ('A' for Active; 'I' for Inactive)
REMARK    1  A    between atoms: C3_3  and  C6_6 
ROOT
HETATM    1  C1  UNL     1     -32.471   7.726   3.148  1.00 20.00     0.013 C 
HETATM    2  C2  UNL     1     -33.274   6.961   3.611  1.00 20.00    -0.099 C 
HETATM    3  C4  UNL     1     -35.638   6.325   3.557  1.00 20.00     0.038 C 
HETATM    4  C5  UNL     1     -34.318   6.236   5.704  1.00 20.00     0.038 C 
HETATM    5  C6  UNL     1     -34.269   6.018   4.184  1.00 20.00     0.091 C 
ENDROOT
BRANCH   5   6
HETATM    6  C3  UNL     1     -33.843   4.569   3.862  1.00 20.00     0.238 C 
HETATM    7  O7  UNL     1     -34.189   3.616   4.557  1.00 20.00    -0.278 OA
HETATM    8 CL8  UNL     1     -32.837   4.417   2.439  1.00 20.00    -0.042 Cl
ENDBRANCH   5   6
TORSDOF 1
ENDMDL
MODEL 4
REMARK VINA RESULT:      -4.8      2.154      2.819
REMARK  1 active torsions:
REMARK  status: ('A' for Active; 'I' for Inactive)
REMARK    1  A    between atoms: C3_3  and  C6_6 
ROOT
HETATM    1  C1  UNL     1     -32.169   7.900   3.057  1.00 20.00     0.013 C 
HETATM    2  C2  UNL     1     -32.964   7.043   3.332  1.00 20.00    -0.099 C 
HETATM    3  C4  UNL     1     -33.405   4.642   3.147  1.00 20.00     0.038 C 
HETATM    4  C5  UNL     1     -35.278   6.323   2.978  1.00 20.00     0.038 C 
HETATM    5  C6  UNL     1     -33.948   5.982   3.667  1.00 20.00     0.091 C 
ENDROOT
BRANCH   5   6
HETATM    6  C3  UNL     1     -34.136   5.927   5.200  1.00 20.00     0.238 C 
HETATM    7  O7  UNL     1     -34.532   4.915   5.774  1.00 20.00    -0.278 OA
HETATM    8 CL8  UNL     1     -33.739   7.418   6.025  1.00 20.00    -0.042 Cl
ENDBRANCH   5   6
TORSDOF 1
ENDMDL
MODEL 5
REMARK VINA RESULT:      -4.8      2.490      3.169
REMARK  1 active torsions:
REMARK  status: ('A' for Active; 'I' for Inactive)
REMARK    1  A    between atoms: C3_3  and  C6_6 
ROOT
HETATM    1  C1  UNL     1     -32.043   8.134   2.663  1.00 20.00     0.013 C 
HETATM    2  C2  UNL     1     -32.802   7.275   3.021  1.00 20.00    -0.099 C 
HETATM    3  C4  UNL     1     -33.144   4.850   3.063  1.00 20.00     0.038 C 
HETATM    4  C5  UNL     1     -35.085   6.430   2.748  1.00 20.00     0.038 C 
HETATM    5  C6  UNL     1     -33.741   6.210   3.459  1.00 20.00     0.091 C 
ENDROOT
BRANCH   5   6
HETATM    6  C3  UNL     1     -33.924   6.291   4.991  1.00 20.00     0.238 C 
HETATM    7  O7  UNL     1     -33.606   7.288   5.636  1.00 20.00    -0.278 OA
HETATM    8 CL8  UNL     1     -34.615   4.852   5.708  1.00 20.00    -0.042 Cl
ENDBRANCH   5   6
TORSDOF 1
ENDMDL
MODEL 6
REMARK VINA RESULT:      -4.6      1.714      2.164
REMARK  1 active torsions:
REMARK  status: ('A' for Active; 'I' for Inactive)
REMARK    1  A    between atoms: C3_3  and  C6_6 
ROOT
HETATM    1  C1  UNL     1     -33.708   7.291   6.017  1.00 20.00     0.013 C 
HETATM    2  C2  UNL     1     -33.830   6.890   4.891  1.00 20.00    -0.099 C 
HETATM    3  C4  UNL     1     -33.123   7.282   2.580  1.00 20.00     0.038 C 
HETATM    4  C5  UNL     1     -35.465   6.507   3.108  1.00 20.00     0.038 C 
HETATM    5  C6  UNL     1     -33.983   6.398   3.497  1.00 20.00     0.091 C 
ENDROOT
BRANCH   5   6
HETATM    6  C3  UNL     1     -33.513   4.929   3.421  1.00 20.00     0.238 C 
HETATM    7  O7  UNL     1     -32.747   4.531   2.545  1.00 20.00    -0.278 OA
HETATM    8 CL8  UNL     1     -34.165   3.901   4.678  1.00 20.00    -0.042 Cl
ENDBRANCH   5   6
TORSDOF 1
ENDMDL
MODEL 7
REMARK VINA RESULT:      -4.5      1.953      2.362
REMARK  1 active torsions:
REMARK  status: ('A' for Active; 'I' for Inactive)
REMARK    1  A    between atoms: C3_3  and  C6_6 
ROOT
HETATM    1  C1  UNL     1     -34.765   4.596   5.675  1.00 20.00     0.013 C 
HETATM    2  C2  UNL     1     -34.373   5.199   4.713  1.00 20.00    -0.099 C 
HETATM    3  C4  UNL     1     -35.113   6.383   2.702  1.00 20.00     0.038 C 
HETATM    4  C5  UNL     1     -33.006   4.998   2.691  1.00 20.00     0.038 C 
HETATM    5  C6  UNL     1     -33.889   5.941   3.520  1.00 20.00     0.091 C 
ENDROOT
BRANCH   5   6
HETATM    6  C3  UNL     1     -33.078   7.173   3.981  1.00 20.00     0.238 C 
HETATM    7  O7  UNL     1     -32.320   7.777   3.224  1.00 20.00    -0.278 OA
HETATM    8 CL8  UNL     1     -33.336   7.617   5.653  1.00 20.00    -0.042 Cl
ENDBRANCH   5   6
TORSDOF 1
ENDMDL
MODEL 8
REMARK VINA RESULT:      -4.2      2.430      3.366
REMARK  1 active torsions:
REMARK  status: ('A' for Active; 'I' for Inactive)
REMARK    1  A    between atoms: C3_3  and  C6_6 
ROOT
HETATM    1  C1  UNL     1     -32.830   4.322   2.589  1.00 20.00     0.013 C 
HETATM    2  C2  UNL     1     -33.380   5.270   3.081  1.00 20.00    -0.099 C 
HETATM    3  C4  UNL     1     -35.524   6.445   3.213  1.00 20.00     0.038 C 
HETATM    4  C5  UNL     1     -33.345   7.716   3.205  1.00 20.00     0.038 C 
HETATM    5  C6  UNL     1     -34.061   6.444   3.685  1.00 20.00     0.091 C 
ENDROOT
BRANCH   5   6
HETATM    6  C3  UNL     1     -33.994   6.337   5.224  1.00 20.00     0.238 C 
HETATM    7  O7  UNL     1     -33.562   7.250   5.926  1.00 20.00    -0.278 OA
HETATM    8 CL8  UNL     1     -34.580   4.817   5.864  1.00 20.00    -0.042 Cl
ENDBRANCH   5   6
TORSDOF 1
ENDMDL
MODEL 9
REMARK VINA RESULT:      -3.9      2.017      2.189
REMARK  1 active torsions:
REMARK  status: ('A' for Active; 'I' for Inactive)
REMARK    1  A    between atoms: C3_3  and  C6_6 
ROOT
HETATM    1  C1  UNL     1     -33.819   7.127   5.924  1.00 20.00     0.013 C 
HETATM    2  C2  UNL     1     -33.588   6.989   4.753  1.00 20.00    -0.099 C 
HETATM    3  C4  UNL     1     -34.618   7.016   2.532  1.00 20.00     0.038 C 
HETATM    4  C5  UNL     1     -32.771   5.391   3.087  1.00 20.00     0.038 C 
HETATM    5  C6  UNL     1     -33.305   6.814   3.305  1.00 20.00     0.091 C 
ENDROOT
BRANCH   5   6
HETATM    6  C3  UNL     1     -32.255   7.857   2.862  1.00 20.00     0.238 C 
HETATM    7  O7  UNL     1     -31.295   8.159   3.568  1.00 20.00    -0.278 OA
HETATM    8 CL8  UNL     1     -32.558   8.554   1.286  1.00 20.00    -0.042 Cl
ENDBRANCH   5   6
TORSDOF 1
ENDMDL
