MODEL 1
REMARK VINA RESULT:      -4.3      0.000      0.000
REMARK  0 active torsions:
REMARK  status: ('A' for Active; 'I' for Inactive)
ROOT
HETATM    1  C1  UNL     1     -31.475   8.610   1.648  1.00 20.00     0.029 C 
HETATM    2  C2  UNL     1     -31.416   7.991   3.021  1.00 20.00     0.042 C 
HETATM    3  C3  UNL     1     -32.958   5.989   2.557  1.00 20.00     0.070 C 
HETATM    4  C4  UNL     1     -33.774   5.204   3.583  1.00 20.00     0.275 C 
HETATM    5  C5  UNL     1     -33.287   7.244   4.598  1.00 20.00     0.309 C 
HETATM    6  C6  UNL     1     -32.891   9.141   1.606  1.00 20.00     0.169 C 
HETATM    7  C7  UNL     1     -32.806   7.392   3.160  1.00 20.00     0.089 C 
HETATM    8  C8  UNL     1     -34.767   5.695   5.742  1.00 20.00     0.310 C 
HETATM    9  N9  UNL     1     -34.338   6.231   4.460  1.00 20.00     0.087 N 
HETATM   10  O10 UNL     1     -33.684   8.288   2.446  1.00 20.00    -0.378 OA
ENDROOT
TORSDOF 0
ENDMDL
MODEL 2
REMARK VINA RESULT:      -4.0      1.674      3.919
REMARK  0 active torsions:
REMARK  status: ('A' for Active; 'I' for Inactive)
ROOT
HETATM    1  C1  UNL     1     -34.075   4.717   4.115  1.00 20.00     0.029 C 
HETATM    2  C2  UNL     1     -33.243   5.099   2.917  1.00 20.00     0.042 C 
HETATM    3  C3  UNL     1     -32.243   7.263   3.877  1.00 20.00     0.070 C 
HETATM    4  C4  UNL     1     -31.713   8.458   3.084  1.00 20.00     0.275 C 
HETATM    5  C5  UNL     1     -33.102   7.298   1.615  1.00 20.00     0.309 C 
HETATM    6  C6  UNL     1     -35.167   5.763   4.082  1.00 20.00     0.169 C 
HETATM    7  C7  UNL     1     -33.297   6.618   2.965  1.00 20.00     0.089 C 
HETATM    8  C8  UNL     1     -32.167   9.424   0.904  1.00 20.00     0.310 C 
HETATM    9  N9  UNL     1     -32.696   8.649   2.016  1.00 20.00     0.087 N 
HETATM   10  O10 UNL     1     -34.603   6.941   3.486  1.00 20.00    -0.378 OA
ENDROOT
TORSDOF 0
ENDMDL
MODEL 3
REMARK VINA RESULT:      -3.9     11.024     11.661
REMARK  0 active torsions:
REMARK  status: ('A' for Active; 'I' for Inactive)
ROOT
HETATM    1  C1  UNL     1     -33.386  17.414  -2.123  1.00 20.00     0.029 C 
HETATM    2  C2  UNL     1     -34.674  16.639  -1.997  1.00 20.00     0.042 C 
HETATM    3  C3  UNL     1     -34.181  14.870  -3.795  1.00 20.00     0.070 C 
HETATM    4  C4  UNL     1     -35.206  14.060  -4.588  1.00 20.00     0.275 C 
HETATM    5  C5  UNL     1     -36.365  15.911  -3.774  1.00 20.00     0.309 C 
HETATM    6  C6  UNL     1     -33.558  18.087  -3.466  1.00 20.00     0.169 C 
HETATM    7  C7  UNL     1     -34.905  16.173  -3.425  1.00 20.00     0.089 C 
HETATM    8  C8  UNL     1     -37.502  14.401  -5.298  1.00 20.00     0.310 C 
HETATM    9  N9  UNL     1     -36.242  15.033  -4.942  1.00 20.00     0.087 N 
HETATM   10  O10 UNL     1     -34.389  17.229  -4.263  1.00 20.00    -0.378 OA
ENDROOT
TORSDOF 0
ENDMDL
MODEL 4
REMARK VINA RESULT:      -3.8     11.229     12.064
REMARK  0 active torsions:
REMARK  status: ('A' for Active; 'I' for Inactive)
ROOT
HETATM    1  C1  UNL     1     -34.021  14.276  -7.918  1.00 20.00     0.029 C 
HETATM    2  C2  UNL     1     -34.476  15.537  -7.226  1.00 20.00     0.042 C 
HETATM    3  C3  UNL     1     -33.215  15.183  -5.015  1.00 20.00     0.070 C 
HETATM    4  C4  UNL     1     -33.575  15.770  -3.650  1.00 20.00     0.275 C 
HETATM    5  C5  UNL     1     -35.527  15.889  -4.919  1.00 20.00     0.309 C 
HETATM    6  C6  UNL     1     -34.768  13.211  -7.146  1.00 20.00     0.169 C 
HETATM    7  C7  UNL     1     -34.547  15.094  -5.773  1.00 20.00     0.089 C 
HETATM    8  C8  UNL     1     -35.622  16.504  -2.572  1.00 20.00     0.310 C 
HETATM    9  N9  UNL     1     -35.029  15.622  -3.566  1.00 20.00     0.087 N 
HETATM   10  O10 UNL     1     -34.952  13.708  -5.813  1.00 20.00    -0.378 OA
ENDROOT
TORSDOF 0
ENDMDL
MODEL 5
REMARK VINA RESULT:      -3.7     11.063     12.166
REMARK  0 active torsions:
REMARK  status: ('A' for Active; 'I' for Inactive)
ROOT
HETATM    1  C1  UNL     1     -35.127  16.689  -1.587  1.00 20.00     0.029 C 
HETATM    2  C2  UNL     1     -35.759  16.676  -2.956  1.00 20.00     0.042 C 
HETATM    3  C3  UNL     1     -34.432  14.700  -3.924  1.00 20.00     0.070 C 
HETATM    4  C4  UNL     1     -34.152  14.420  -5.400  1.00 20.00     0.275 C 
HETATM    5  C5  UNL     1     -34.700  16.682  -5.285  1.00 20.00     0.309 C 
HETATM    6  C6  UNL     1     -33.734  17.197  -1.893  1.00 20.00     0.169 C 
HETATM    7  C7  UNL     1     -34.605  16.224  -3.835  1.00 20.00     0.089 C 
HETATM    8  C8  UNL     1     -33.951  15.769  -7.408  1.00 20.00     0.310 C 
HETATM    9  N9  UNL     1     -33.813  15.729  -5.960  1.00 20.00     0.087 N 
HETATM   10  O10 UNL     1     -33.418  16.778  -3.229  1.00 20.00    -0.378 OA
ENDROOT
TORSDOF 0
ENDMDL
MODEL 6
REMARK VINA RESULT:      -3.6     10.833     11.659
REMARK  0 active torsions:
REMARK  status: ('A' for Active; 'I' for Inactive)
ROOT
HETATM    1  C1  UNL     1     -33.914  17.744  -1.792  1.00 20.00     0.029 C 
HETATM    2  C2  UNL     1     -33.474  16.715  -2.803  1.00 20.00     0.042 C 
HETATM    3  C3  UNL     1     -35.429  16.997  -4.447  1.00 20.00     0.070 C 
HETATM    4  C4  UNL     1     -35.945  15.959  -5.443  1.00 20.00     0.275 C 
HETATM    5  C5  UNL     1     -34.742  14.755  -3.851  1.00 20.00     0.309 C 
HETATM    6  C6  UNL     1     -35.118  17.073  -1.169  1.00 20.00     0.169 C 
HETATM    7  C7  UNL     1     -34.803  16.178  -3.309  1.00 20.00     0.089 C 
HETATM    8  C8  UNL     1     -35.964  13.535  -5.558  1.00 20.00     0.310 C 
HETATM    9  N9  UNL     1     -35.942  14.703  -4.692  1.00 20.00     0.087 N 
HETATM   10  O10 UNL     1     -35.695  16.226  -2.175  1.00 20.00    -0.378 OA
ENDROOT
TORSDOF 0
ENDMDL
MODEL 7
REMARK VINA RESULT:      -3.5      1.311      1.922
REMARK  0 active torsions:
REMARK  status: ('A' for Active; 'I' for Inactive)
ROOT
HETATM    1  C1  UNL     1     -32.260   9.013   1.889  1.00 20.00     0.029 C 
HETATM    2  C2  UNL     1     -32.913   7.699   1.540  1.00 20.00     0.042 C 
HETATM    3  C3  UNL     1     -34.332   7.449   3.667  1.00 20.00     0.070 C 
HETATM    4  C4  UNL     1     -34.862   6.147   4.266  1.00 20.00     0.275 C 
HETATM    5  C5  UNL     1     -33.102   5.523   2.872  1.00 20.00     0.309 C 
HETATM    6  C6  UNL     1     -31.321   8.608   3.004  1.00 20.00     0.169 C 
HETATM    7  C7  UNL     1     -33.062   7.046   2.904  1.00 20.00     0.089 C 
HETATM    8  C8  UNL     1     -34.161   3.823   4.246  1.00 20.00     0.310 C 
HETATM    9  N9  UNL     1     -33.741   5.213   4.155  1.00 20.00     0.087 N 
HETATM   10  O10 UNL     1     -31.918   7.484   3.668  1.00 20.00    -0.378 OA
ENDROOT
TORSDOF 0
ENDMDL
MODEL 8
REMARK VINA RESULT:      -3.4     11.130     12.102
REMARK  0 active torsions:
REMARK  status: ('A' for Active; 'I' for Inactive)
ROOT
HETATM    1  C1  UNL     1     -35.847  13.365  -6.767  1.00 20.00     0.029 C 
HETATM    2  C2  UNL     1     -35.890  13.638  -5.284  1.00 20.00     0.042 C 
HETATM    3  C3  UNL     1     -35.761  16.201  -5.408  1.00 20.00     0.070 C 
HETATM    4  C4  UNL     1     -35.250  17.147  -4.321  1.00 20.00     0.275 C 
HETATM    5  C5  UNL     1     -34.360  15.056  -3.803  1.00 20.00     0.309 C 
HETATM    6  C6  UNL     1     -34.417  13.721  -7.108  1.00 20.00     0.169 C 
HETATM    7  C7  UNL     1     -35.020  14.879  -5.165  1.00 20.00     0.089 C 
HETATM    8  C8  UNL     1     -33.667  16.978  -2.489  1.00 20.00     0.310 C 
HETATM    9  N9  UNL     1     -34.049  16.489  -3.805  1.00 20.00     0.087 N 
HETATM   10  O10 UNL     1     -34.005  14.736  -6.181  1.00 20.00    -0.378 OA
ENDROOT
TORSDOF 0
ENDMDL
MODEL 9
REMARK VINA RESULT:      -3.4     11.413     12.461
REMARK  0 active torsions:
REMARK  status: ('A' for Active; 'I' for Inactive)
ROOT
HETATM    1  C1  UNL     1     -34.473  17.059  -2.501  1.00 20.00     0.029 C 
HETATM    2  C2  UNL     1     -33.739  15.935  -3.190  1.00 20.00     0.042 C 
HETATM    3  C3  UNL     1     -33.812  16.894  -5.573  1.00 20.00     0.070 C 
HETATM    4  C4  UNL     1     -33.726  16.106  -6.880  1.00 20.00     0.275 C 
HETATM    5  C5  UNL     1     -34.355  14.558  -5.256  1.00 20.00     0.309 C 
HETATM    6  C6  UNL     1     -35.884  16.869  -3.013  1.00 20.00     0.169 C 
HETATM    7  C7  UNL     1     -34.407  15.910  -4.555  1.00 20.00     0.089 C 
HETATM    8  C8  UNL     1     -34.287  13.851  -7.578  1.00 20.00     0.310 C 
HETATM    9  N9  UNL     1     -34.577  14.937  -6.655  1.00 20.00     0.087 N 
HETATM   10  O10 UNL     1     -35.782  16.281  -4.319  1.00 20.00    -0.378 OA
ENDROOT
TORSDOF 0
ENDMDL
