MODEL 1
REMARK VINA RESULT:      -4.7      0.000      0.000
REMARK  2 active torsions:
REMARK  status: ('A' for Active; 'I' for Inactive)
REMARK    1  A    between atoms: C1_1  and  C4_4 
REMARK    2  A    between atoms: C1_1  and  C5_5 
ROOT
HETATM    1  C1  UNL     1     -33.718   6.957   4.567  1.00 20.00     0.159 C 
HETATM    2  O6  UNL     1     -33.305   7.440   5.613  1.00 20.00    -0.295 OA
ENDROOT
BRANCH   1   3
HETATM    3  C4  UNL     1     -34.725   5.891   4.584  1.00 20.00     0.058 A 
HETATM    4  C2  UNL     1     -34.302   4.469   4.333  1.00 20.00     0.013 A 
HETATM    5  C3  UNL     1     -34.723   4.892   5.708  1.00 20.00     0.013 A 
ENDBRANCH   1   3
BRANCH   1   6
HETATM    6  C5  UNL     1     -33.246   7.391   3.211  1.00 20.00     0.300 C 
HETATM    7  F7  UNL     1     -32.353   6.503   2.695  1.00 20.00    -0.248 F 
ENDBRANCH   1   6
TORSDOF 2
ENDMDL
MODEL 2
REMARK VINA RESULT:      -4.7      1.697      1.877
REMARK  2 active torsions:
REMARK  status: ('A' for Active; 'I' for Inactive)
REMARK    1  A    between atoms: C1_1  and  C4_4 
REMARK    2  A    between atoms: C1_1  and  C5_5 
ROOT
HETATM    1  C1  UNL     1     -33.541   6.093   3.264  1.00 20.00     0.159 C 
HETATM    2  O6  UNL     1     -33.268   5.000   2.787  1.00 20.00    -0.295 OA
ENDROOT
BRANCH   1   3
HETATM    3  C4  UNL     1     -34.543   6.213   4.329  1.00 20.00     0.058 A 
HETATM    4  C2  UNL     1     -34.513   5.249   5.484  1.00 20.00     0.013 A 
HETATM    5  C3  UNL     1     -34.116   6.679   5.694  1.00 20.00     0.013 A 
ENDBRANCH   1   3
BRANCH   1   6
HETATM    6  C5  UNL     1     -32.903   7.375   2.819  1.00 20.00     0.300 C 
HETATM    7  F7  UNL     1     -31.747   7.609   3.498  1.00 20.00    -0.248 F 
ENDBRANCH   1   6
TORSDOF 2
ENDMDL
MODEL 3
REMARK VINA RESULT:      -4.7      2.071      2.546
REMARK  2 active torsions:
REMARK  status: ('A' for Active; 'I' for Inactive)
REMARK    1  A    between atoms: C1_1  and  C4_4 
REMARK    2  A    between atoms: C1_1  and  C5_5 
ROOT
HETATM    1  C1  UNL     1     -34.116   4.921   3.891  1.00 20.00     0.159 C 
HETATM    2  O6  UNL     1     -34.378   3.772   4.222  1.00 20.00    -0.295 OA
ENDROOT
BRANCH   1   3
HETATM    3  C4  UNL     1     -34.687   6.056   4.625  1.00 20.00     0.058 A 
HETATM    4  C2  UNL     1     -34.246   6.319   6.039  1.00 20.00     0.013 A 
HETATM    5  C3  UNL     1     -33.818   7.243   4.940  1.00 20.00     0.013 A 
ENDBRANCH   1   3
BRANCH   1   6
HETATM    6  C5  UNL     1     -33.221   5.270   2.740  1.00 20.00     0.300 C 
HETATM    7  F7  UNL     1     -32.779   4.150   2.106  1.00 20.00    -0.248 F 
ENDBRANCH   1   6
TORSDOF 2
ENDMDL
MODEL 4
REMARK VINA RESULT:      -4.6      1.938      2.033
REMARK  2 active torsions:
REMARK  status: ('A' for Active; 'I' for Inactive)
REMARK    1  A    between atoms: C1_1  and  C4_4 
REMARK    2  A    between atoms: C1_1  and  C5_5 
ROOT
HETATM    1  C1  UNL     1     -33.800   6.703   4.053  1.00 20.00     0.159 C 
HETATM    2  O6  UNL     1     -33.524   6.986   2.895  1.00 20.00    -0.295 OA
ENDROOT
BRANCH   1   3
HETATM    3  C4  UNL     1     -34.764   5.640   4.352  1.00 20.00     0.058 A 
HETATM    4  C2  UNL     1     -34.314   4.205   4.329  1.00 20.00     0.013 A 
HETATM    5  C3  UNL     1     -34.636   4.866   5.635  1.00 20.00     0.013 A 
ENDBRANCH   1   3
BRANCH   1   6
HETATM    6  C5  UNL     1     -33.200   7.396   5.241  1.00 20.00     0.300 C 
HETATM    7  F7  UNL     1     -34.166   7.807   6.107  1.00 20.00    -0.248 F 
ENDBRANCH   1   6
TORSDOF 2
ENDMDL
MODEL 5
REMARK VINA RESULT:      -4.6      1.810      2.925
REMARK  2 active torsions:
REMARK  status: ('A' for Active; 'I' for Inactive)
REMARK    1  A    between atoms: C1_1  and  C4_4 
REMARK    2  A    between atoms: C1_1  and  C5_5 
ROOT
HETATM    1  C1  UNL     1     -34.080   6.699   5.093  1.00 20.00     0.159 C 
HETATM    2  O6  UNL     1     -33.797   7.338   6.098  1.00 20.00    -0.295 OA
ENDROOT
BRANCH   1   3
HETATM    3  C4  UNL     1     -33.815   7.251   3.761  1.00 20.00     0.058 A 
HETATM    4  C2  UNL     1     -32.393   7.432   3.304  1.00 20.00     0.013 A 
HETATM    5  C3  UNL     1     -33.242   6.359   2.694  1.00 20.00     0.013 A 
ENDBRANCH   1   3
BRANCH   1   6
HETATM    6  C5  UNL     1     -34.709   5.338   5.125  1.00 20.00     0.300 C 
HETATM    7  F7  UNL     1     -34.162   4.568   6.105  1.00 20.00    -0.248 F 
ENDBRANCH   1   6
TORSDOF 2
ENDMDL
MODEL 6
REMARK VINA RESULT:      -4.6      1.574      1.642
REMARK  2 active torsions:
REMARK  status: ('A' for Active; 'I' for Inactive)
REMARK    1  A    between atoms: C1_1  and  C4_4 
REMARK    2  A    between atoms: C1_1  and  C5_5 
ROOT
HETATM    1  C1  UNL     1     -33.768   6.616   3.789  1.00 20.00     0.159 C 
HETATM    2  O6  UNL     1     -33.453   6.662   2.607  1.00 20.00    -0.295 OA
ENDROOT
BRANCH   1   3
HETATM    3  C4  UNL     1     -34.769   5.651   4.256  1.00 20.00     0.058 A 
HETATM    4  C2  UNL     1     -34.375   4.212   4.453  1.00 20.00     0.013 A 
HETATM    5  C3  UNL     1     -34.653   5.081   5.642  1.00 20.00     0.013 A 
ENDBRANCH   1   3
BRANCH   1   6
HETATM    6  C5  UNL     1     -33.185   7.514   4.839  1.00 20.00     0.300 C 
HETATM    7  F7  UNL     1     -32.009   8.057   4.421  1.00 20.00    -0.248 F 
ENDBRANCH   1   6
TORSDOF 2
ENDMDL
MODEL 7
REMARK VINA RESULT:      -4.6      1.560      1.945
REMARK  2 active torsions:
REMARK  status: ('A' for Active; 'I' for Inactive)
REMARK    1  A    between atoms: C1_1  and  C4_4 
REMARK    2  A    between atoms: C1_1  and  C5_5 
ROOT
HETATM    1  C1  UNL     1     -33.272   6.749   3.504  1.00 20.00     0.159 C 
HETATM    2  O6  UNL     1     -32.265   7.440   3.430  1.00 20.00    -0.295 OA
ENDROOT
BRANCH   1   3
HETATM    3  C4  UNL     1     -34.241   6.957   4.586  1.00 20.00     0.058 A 
HETATM    4  C2  UNL     1     -34.342   5.945   5.694  1.00 20.00     0.013 A 
HETATM    5  C3  UNL     1     -33.745   7.292   5.966  1.00 20.00     0.013 A 
ENDBRANCH   1   3
BRANCH   1   6
HETATM    6  C5  UNL     1     -33.601   5.655   2.532  1.00 20.00     0.300 C 
HETATM    7  F7  UNL     1     -32.668   4.666   2.573  1.00 20.00    -0.248 F 
ENDBRANCH   1   6
TORSDOF 2
ENDMDL
MODEL 8
REMARK VINA RESULT:      -4.5      2.397      3.451
REMARK  2 active torsions:
REMARK  status: ('A' for Active; 'I' for Inactive)
REMARK    1  A    between atoms: C1_1  and  C4_4 
REMARK    2  A    between atoms: C1_1  and  C5_5 
ROOT
HETATM    1  C1  UNL     1     -33.820   6.744   3.995  1.00 20.00     0.159 C 
HETATM    2  O6  UNL     1     -34.826   6.162   3.611  1.00 20.00    -0.295 OA
ENDROOT
BRANCH   1   3
HETATM    3  C4  UNL     1     -32.690   6.957   3.085  1.00 20.00     0.058 A 
HETATM    4  C2  UNL     1     -32.666   8.179   2.208  1.00 20.00     0.013 A 
HETATM    5  C3  UNL     1     -31.718   8.070   3.364  1.00 20.00     0.013 A 
ENDBRANCH   1   3
BRANCH   1   6
HETATM    6  C5  UNL     1     -33.649   7.274   5.387  1.00 20.00     0.300 C 
HETATM    7  F7  UNL     1     -34.402   6.571   6.276  1.00 20.00    -0.248 F 
ENDBRANCH   1   6
TORSDOF 2
ENDMDL
MODEL 9
REMARK VINA RESULT:      -4.4      2.326      3.231
REMARK  2 active torsions:
REMARK  status: ('A' for Active; 'I' for Inactive)
REMARK    1  A    between atoms: C1_1  and  C4_4 
REMARK    2  A    between atoms: C1_1  and  C5_5 
ROOT
HETATM    1  C1  UNL     1     -34.491   5.006   4.603  1.00 20.00     0.159 C 
HETATM    2  O6  UNL     1     -34.377   3.845   4.232  1.00 20.00    -0.295 OA
ENDROOT
BRANCH   1   3
HETATM    3  C4  UNL     1     -34.455   6.105   3.633  1.00 20.00     0.058 A 
HETATM    4  C2  UNL     1     -33.154   6.811   3.363  1.00 20.00     0.013 A 
HETATM    5  C3  UNL     1     -33.745   5.909   2.322  1.00 20.00     0.013 A 
ENDBRANCH   1   3
BRANCH   1   6
HETATM    6  C5  UNL     1     -34.669   5.404   6.038  1.00 20.00     0.300 C 
HETATM    7  F7  UNL     1     -34.346   6.713   6.227  1.00 20.00    -0.248 F 
ENDBRANCH   1   6
TORSDOF 2
ENDMDL
