MODEL 1
REMARK VINA RESULT:      -5.4      0.000      0.000
REMARK  1 active torsions:
REMARK  status: ('A' for Active; 'I' for Inactive)
REMARK    1  A    between atoms: C2_2  and  C4_4 
ROOT
HETATM    1  C1  UNL     1     -32.429   7.754   2.942  1.00 20.00     0.107 C 
HETATM    2  C2  UNL     1     -33.674   5.736   3.506  1.00 20.00     0.118 C 
HETATM    3  C3  UNL     1     -33.188   6.945   3.830  1.00 20.00     0.095 C 
HETATM    4  N5  UNL     1     -31.809   8.421   2.223  1.00 20.00    -0.191 NA
HETATM    5 BR9  UNL     1     -33.478   7.687   5.526  1.00 20.00    -0.039 Br
ENDROOT
BRANCH   2   6
HETATM    6  C4  UNL     1     -34.478   4.800   4.348  1.00 20.00     0.409 C 
HETATM    7  F6  UNL     1     -34.370   3.524   3.897  1.00 20.00    -0.167 F 
HETATM    8  F7  UNL     1     -34.129   4.780   5.658  1.00 20.00    -0.167 F 
HETATM    9  F8  UNL     1     -35.797   5.116   4.303  1.00 20.00    -0.167 F 
ENDBRANCH   2   6
TORSDOF 1
ENDMDL
MODEL 2
REMARK VINA RESULT:      -5.3      1.759      2.042
REMARK  1 active torsions:
REMARK  status: ('A' for Active; 'I' for Inactive)
REMARK    1  A    between atoms: C2_2  and  C4_4 
ROOT
HETATM    1  C1  UNL     1     -32.362   7.754   2.576  1.00 20.00     0.107 C 
HETATM    2  C2  UNL     1     -33.620   7.037   4.537  1.00 20.00     0.118 C 
HETATM    3  C3  UNL     1     -33.057   6.782   3.345  1.00 20.00     0.095 C 
HETATM    4  N5  UNL     1     -31.792   8.542   1.943  1.00 20.00    -0.191 NA
HETATM    5 BR9  UNL     1     -33.142   5.076   2.574  1.00 20.00    -0.039 Br
ENDROOT
BRANCH   2   6
HETATM    6  C4  UNL     1     -34.371   6.104   5.429  1.00 20.00     0.409 C 
HETATM    7  F6  UNL     1     -35.498   5.651   4.822  1.00 20.00    -0.167 F 
HETATM    8  F7  UNL     1     -33.672   5.009   5.816  1.00 20.00    -0.167 F 
HETATM    9  F8  UNL     1     -34.769   6.732   6.565  1.00 20.00    -0.167 F 
ENDBRANCH   2   6
TORSDOF 1
ENDMDL
MODEL 3
REMARK VINA RESULT:      -5.3      0.045      1.253
REMARK  1 active torsions:
REMARK  status: ('A' for Active; 'I' for Inactive)
REMARK    1  A    between atoms: C2_2  and  C4_4 
ROOT
HETATM    1  C1  UNL     1     -32.415   7.769   2.937  1.00 20.00     0.107 C 
HETATM    2  C2  UNL     1     -33.668   5.752   3.487  1.00 20.00     0.118 C 
HETATM    3  C3  UNL     1     -33.180   6.958   3.818  1.00 20.00     0.095 C 
HETATM    4  N5  UNL     1     -31.790   8.437   2.223  1.00 20.00    -0.191 NA
HETATM    5 BR9  UNL     1     -33.476   7.695   5.515  1.00 20.00    -0.039 Br
ENDROOT
BRANCH   2   6
HETATM    6  C4  UNL     1     -34.478   4.815   4.321  1.00 20.00     0.409 C 
HETATM    7  F6  UNL     1     -35.794   5.151   4.291  1.00 20.00    -0.167 F 
HETATM    8  F7  UNL     1     -34.401   3.515   3.946  1.00 20.00    -0.167 F 
HETATM    9  F8  UNL     1     -34.095   4.867   5.623  1.00 20.00    -0.167 F 
ENDBRANCH   2   6
TORSDOF 1
ENDMDL
MODEL 4
REMARK VINA RESULT:      -5.3      3.640      4.199
REMARK  1 active torsions:
REMARK  status: ('A' for Active; 'I' for Inactive)
REMARK    1  A    between atoms: C2_2  and  C4_4 
ROOT
HETATM    1  C1  UNL     1     -34.115   5.054   4.147  1.00 20.00     0.107 C 
HETATM    2  C2  UNL     1     -32.892   6.719   2.853  1.00 20.00     0.118 C 
HETATM    3  C3  UNL     1     -33.508   6.328   3.981  1.00 20.00     0.095 C 
HETATM    4  N5  UNL     1     -34.613   4.016   4.290  1.00 20.00    -0.191 NA
HETATM    5 BR9  UNL     1     -33.620   7.459   5.471  1.00 20.00    -0.039 Br
ENDROOT
BRANCH   2   6
HETATM    6  C4  UNL     1     -32.223   8.023   2.563  1.00 20.00     0.409 C 
HETATM    7  F6  UNL     1     -33.135   9.021   2.436  1.00 20.00    -0.167 F 
HETATM    8  F7  UNL     1     -31.338   8.425   3.508  1.00 20.00    -0.167 F 
HETATM    9  F8  UNL     1     -31.541   7.970   1.391  1.00 20.00    -0.167 F 
ENDBRANCH   2   6
TORSDOF 1
ENDMDL
MODEL 5
REMARK VINA RESULT:      -4.6      4.609      5.253
REMARK  1 active torsions:
REMARK  status: ('A' for Active; 'I' for Inactive)
REMARK    1  A    between atoms: C2_2  and  C4_4 
ROOT
HETATM    1  C1  UNL     1     -33.498   6.598   2.997  1.00 20.00     0.107 C 
HETATM    2  C2  UNL     1     -33.120   8.372   1.369  1.00 20.00     0.118 C 
HETATM    3  C3  UNL     1     -32.804   7.738   2.510  1.00 20.00     0.095 C 
HETATM    4  N5  UNL     1     -34.059   5.666   3.401  1.00 20.00    -0.191 NA
HETATM    5 BR9  UNL     1     -31.383   8.319   3.584  1.00 20.00    -0.039 Br
ENDROOT
BRANCH   2   6
HETATM    6  C4  UNL     1     -32.469   9.570   0.760  1.00 20.00     0.409 C 
HETATM    7  F6  UNL     1     -33.071   9.910  -0.409  1.00 20.00    -0.167 F 
HETATM    8  F7  UNL     1     -32.485  10.678   1.541  1.00 20.00    -0.167 F 
HETATM    9  F8  UNL     1     -31.167   9.321   0.467  1.00 20.00    -0.167 F 
ENDBRANCH   2   6
TORSDOF 1
ENDMDL
MODEL 6
REMARK VINA RESULT:      -4.5      4.178      4.758
REMARK  1 active torsions:
REMARK  status: ('A' for Active; 'I' for Inactive)
REMARK    1  A    between atoms: C2_2  and  C4_4 
ROOT
HETATM    1  C1  UNL     1     -33.431   7.313   4.822  1.00 20.00     0.107 C 
HETATM    2  C2  UNL     1     -32.704   8.578   2.870  1.00 20.00     0.118 C 
HETATM    3  C3  UNL     1     -33.086   7.429   3.449  1.00 20.00     0.095 C 
HETATM    4  N5  UNL     1     -33.716   7.211   5.943  1.00 20.00    -0.191 NA
HETATM    5 BR9  UNL     1     -33.200   5.836   2.468  1.00 20.00    -0.039 Br
ENDROOT
BRANCH   2   6
HETATM    6  C4  UNL     1     -32.319   8.820   1.447  1.00 20.00     0.409 C 
HETATM    7  F6  UNL     1     -31.160   8.181   1.141  1.00 20.00    -0.167 F 
HETATM    8  F7  UNL     1     -33.238   8.413   0.537  1.00 20.00    -0.167 F 
HETATM    9  F8  UNL     1     -32.104  10.141   1.218  1.00 20.00    -0.167 F 
ENDBRANCH   2   6
TORSDOF 1
ENDMDL
MODEL 7
REMARK VINA RESULT:      -4.4      1.810      1.996
REMARK  1 active torsions:
REMARK  status: ('A' for Active; 'I' for Inactive)
REMARK    1  A    between atoms: C2_2  and  C4_4 
ROOT
HETATM    1  C1  UNL     1     -32.535   8.931   1.280  1.00 20.00     0.107 C 
HETATM    2  C2  UNL     1     -33.749   7.171   2.451  1.00 20.00     0.118 C 
HETATM    3  C3  UNL     1     -32.730   8.042   2.371  1.00 20.00     0.095 C 
HETATM    4  N5  UNL     1     -32.369   9.661   0.393  1.00 20.00    -0.191 NA
HETATM    5 BR9  UNL     1     -31.444   8.161   3.729  1.00 20.00    -0.039 Br
ENDROOT
BRANCH   2   6
HETATM    6  C4  UNL     1     -34.055   6.194   3.538  1.00 20.00     0.409 C 
HETATM    7  F6  UNL     1     -33.317   5.063   3.398  1.00 20.00    -0.167 F 
HETATM    8  F7  UNL     1     -33.823   6.655   4.792  1.00 20.00    -0.167 F 
HETATM    9  F8  UNL     1     -35.357   5.814   3.499  1.00 20.00    -0.167 F 
ENDBRANCH   2   6
TORSDOF 1
ENDMDL
MODEL 8
REMARK VINA RESULT:      -4.2     12.544     13.019
REMARK  1 active torsions:
REMARK  status: ('A' for Active; 'I' for Inactive)
REMARK    1  A    between atoms: C2_2  and  C4_4 
ROOT
HETATM    1  C1  UNL     1     -36.977  14.163  -5.113  1.00 20.00     0.107 C 
HETATM    2  C2  UNL     1     -34.917  15.067  -4.175  1.00 20.00     0.118 C 
HETATM    3  C3  UNL     1     -35.585  14.442  -5.157  1.00 20.00     0.095 C 
HETATM    4  N5  UNL     1     -38.114  13.933  -5.085  1.00 20.00    -0.191 NA
HETATM    5 BR9  UNL     1     -34.712  13.868  -6.713  1.00 20.00    -0.039 Br
ENDROOT
BRANCH   2   6
HETATM    6  C4  UNL     1     -33.466  15.412  -4.109  1.00 20.00     0.409 C 
HETATM    7  F6  UNL     1     -32.699  14.290  -4.099  1.00 20.00    -0.167 F 
HETATM    8  F7  UNL     1     -33.021  16.177  -5.136  1.00 20.00    -0.167 F 
HETATM    9  F8  UNL     1     -33.177  16.088  -2.968  1.00 20.00    -0.167 F 
ENDBRANCH   2   6
TORSDOF 1
ENDMDL
MODEL 9
REMARK VINA RESULT:      -4.2     12.352     12.762
REMARK  1 active torsions:
REMARK  status: ('A' for Active; 'I' for Inactive)
REMARK    1  A    between atoms: C2_2  and  C4_4 
ROOT
HETATM    1  C1  UNL     1     -35.356  13.836  -4.819  1.00 20.00     0.107 C 
HETATM    2  C2  UNL     1     -35.108  15.550  -3.104  1.00 20.00     0.118 C 
HETATM    3  C3  UNL     1     -34.708  14.961  -4.242  1.00 20.00     0.095 C 
HETATM    4  N5  UNL     1     -35.881  12.917  -5.297  1.00 20.00    -0.191 NA
HETATM    5 BR9  UNL     1     -33.222  15.592  -5.193  1.00 20.00    -0.039 Br
ENDROOT
BRANCH   2   6
HETATM    6  C4  UNL     1     -34.511  16.728  -2.406  1.00 20.00     0.409 C 
HETATM    7  F6  UNL     1     -35.053  16.888  -1.171  1.00 20.00    -0.167 F 
HETATM    8  F7  UNL     1     -33.168  16.660  -2.234  1.00 20.00    -0.167 F 
HETATM    9  F8  UNL     1     -34.758  17.874  -3.089  1.00 20.00    -0.167 F 
ENDBRANCH   2   6
TORSDOF 1
ENDMDL
