MODEL 1
REMARK VINA RESULT:      -4.9      0.000      0.000
REMARK  1 active torsions:
REMARK  status: ('A' for Active; 'I' for Inactive)
REMARK    1  A    between atoms: C7_7  and  O10_10 
ROOT
HETATM    1  C1  UNL     1     -32.913   8.912   0.846  1.00 20.00     0.013 C 
HETATM    2  C2  UNL     1     -32.833   8.224   1.827  1.00 20.00    -0.102 C 
HETATM    3  C3  UNL     1     -33.260   6.006   3.060  1.00 20.00    -0.040 C 
HETATM    4  C4  UNL     1     -32.842   4.964   2.329  1.00 20.00     0.019 C 
HETATM    5  C5  UNL     1     -33.925   7.024   5.141  1.00 20.00     0.043 C 
HETATM    6  C6  UNL     1     -31.687   7.785   4.026  1.00 20.00     0.034 A 
HETATM    7  C7  UNL     1     -34.286   5.894   4.162  1.00 20.00     0.148 C 
HETATM    8  C8  UNL     1     -33.140   8.022   4.329  1.00 20.00     0.015 A 
HETATM    9  C9  UNL     1     -32.738   7.399   3.004  1.00 20.00     0.052 A 
ENDROOT
BRANCH   7  10
HETATM   10  O10 UNL     1     -35.574   6.134   3.606  1.00 20.00    -0.391 OA
HETATM   11  H20 UNL     1     -35.582   7.060   3.313  1.00 20.00     0.210 HD
ENDBRANCH   7  10
TORSDOF 1
ENDMDL
MODEL 2
REMARK VINA RESULT:      -4.4     10.615     11.783
REMARK  1 active torsions:
REMARK  status: ('A' for Active; 'I' for Inactive)
REMARK    1  A    between atoms: C7_7  and  O10_10 
ROOT
HETATM    1  C1  UNL     1     -35.175  16.690  -1.784  1.00 20.00     0.013 C 
HETATM    2  C2  UNL     1     -35.175  16.170  -2.866  1.00 20.00    -0.102 C 
HETATM    3  C3  UNL     1     -36.271  15.740  -5.154  1.00 20.00    -0.040 C 
HETATM    4  C4  UNL     1     -36.629  16.892  -5.738  1.00 20.00     0.019 C 
HETATM    5  C5  UNL     1     -35.763  13.385  -5.214  1.00 20.00     0.043 C 
HETATM    6  C6  UNL     1     -33.838  15.075  -4.697  1.00 20.00     0.034 A 
HETATM    7  C7  UNL     1     -36.878  14.403  -5.507  1.00 20.00     0.148 C 
HETATM    8  C8  UNL     1     -34.848  14.065  -4.229  1.00 20.00     0.015 A 
HETATM    9  C9  UNL     1     -35.176  15.546  -4.164  1.00 20.00     0.052 A 
ENDROOT
BRANCH   7  10
HETATM   10  O10 UNL     1     -37.983  14.167  -4.641  1.00 20.00    -0.391 OA
HETATM   11  H20 UNL     1     -37.677  13.542  -3.964  1.00 20.00     0.210 HD
ENDBRANCH   7  10
TORSDOF 1
ENDMDL
MODEL 3
REMARK VINA RESULT:      -4.3     11.070     12.035
REMARK  1 active torsions:
REMARK  status: ('A' for Active; 'I' for Inactive)
REMARK    1  A    between atoms: C7_7  and  O10_10 
ROOT
HETATM    1  C1  UNL     1     -34.138  16.363  -2.642  1.00 20.00     0.013 C 
HETATM    2  C2  UNL     1     -34.671  16.059  -3.674  1.00 20.00    -0.102 C 
HETATM    3  C3  UNL     1     -36.540  14.856  -4.971  1.00 20.00    -0.040 C 
HETATM    4  C4  UNL     1     -37.744  15.164  -4.472  1.00 20.00     0.019 C 
HETATM    5  C5  UNL     1     -35.104  14.011  -6.713  1.00 20.00     0.043 C 
HETATM    6  C6  UNL     1     -35.002  16.554  -6.121  1.00 20.00     0.034 A 
HETATM    7  C7  UNL     1     -36.269  13.616  -5.789  1.00 20.00     0.148 C 
HETATM    8  C8  UNL     1     -34.425  15.169  -6.029  1.00 20.00     0.015 A 
HETATM    9  C9  UNL     1     -35.311  15.694  -4.912  1.00 20.00     0.052 A 
ENDROOT
BRANCH   7  10
HETATM   10  O10 UNL     1     -35.852  12.577  -4.909  1.00 20.00    -0.391 OA
HETATM   11  H20 UNL     1     -35.320  11.962  -5.439  1.00 20.00     0.210 HD
ENDBRANCH   7  10
TORSDOF 1
ENDMDL
MODEL 4
REMARK VINA RESULT:      -4.2      1.642      3.200
REMARK  1 active torsions:
REMARK  status: ('A' for Active; 'I' for Inactive)
REMARK    1  A    between atoms: C7_7  and  O10_10 
ROOT
HETATM    1  C1  UNL     1     -32.685   4.031   2.248  1.00 20.00     0.013 C 
HETATM    2  C2  UNL     1     -33.220   4.967   2.774  1.00 20.00    -0.102 C 
HETATM    3  C3  UNL     1     -33.425   7.499   3.191  1.00 20.00    -0.040 C 
HETATM    4  C4  UNL     1     -33.442   8.175   2.034  1.00 20.00     0.019 C 
HETATM    5  C5  UNL     1     -33.833   7.310   5.559  1.00 20.00     0.043 C 
HETATM    6  C6  UNL     1     -35.272   5.876   3.916  1.00 20.00     0.034 A 
HETATM    7  C7  UNL     1     -33.047   8.120   4.514  1.00 20.00     0.148 C 
HETATM    8  C8  UNL     1     -34.139   5.992   4.896  1.00 20.00     0.015 A 
HETATM    9  C9  UNL     1     -33.862   6.092   3.407  1.00 20.00     0.052 A 
ENDROOT
BRANCH   7  10
HETATM   10  O10 UNL     1     -31.650   7.936   4.716  1.00 20.00    -0.391 OA
HETATM   11  H20 UNL     1     -31.529   7.016   5.003  1.00 20.00     0.210 HD
ENDBRANCH   7  10
TORSDOF 1
ENDMDL
MODEL 5
REMARK VINA RESULT:      -4.1      1.581      2.756
REMARK  1 active torsions:
REMARK  status: ('A' for Active; 'I' for Inactive)
REMARK    1  A    between atoms: C7_7  and  O10_10 
ROOT
HETATM    1  C1  UNL     1     -31.996   7.989   2.845  1.00 20.00     0.013 C 
HETATM    2  C2  UNL     1     -32.695   7.017   2.924  1.00 20.00    -0.102 C 
HETATM    3  C3  UNL     1     -34.867   5.863   3.681  1.00 20.00    -0.040 C 
HETATM    4  C4  UNL     1     -35.941   6.570   3.304  1.00 20.00     0.019 C 
HETATM    5  C5  UNL     1     -33.802   3.835   4.429  1.00 20.00     0.043 C 
HETATM    6  C6  UNL     1     -33.262   4.730   2.035  1.00 20.00     0.034 A 
HETATM    7  C7  UNL     1     -34.884   4.860   4.810  1.00 20.00     0.148 C 
HETATM    8  C8  UNL     1     -32.882   4.556   3.478  1.00 20.00     0.015 A 
HETATM    9  C9  UNL     1     -33.534   5.849   3.020  1.00 20.00     0.052 A 
ENDROOT
BRANCH   7  10
HETATM   10  O10 UNL     1     -34.511   5.527   6.011  1.00 20.00    -0.391 OA
HETATM   11  H20 UNL     1     -35.314   5.948   6.356  1.00 20.00     0.210 HD
ENDBRANCH   7  10
TORSDOF 1
ENDMDL
MODEL 6
REMARK VINA RESULT:      -4.0     11.202     12.354
REMARK  1 active torsions:
REMARK  status: ('A' for Active; 'I' for Inactive)
REMARK    1  A    between atoms: C7_7  and  O10_10 
ROOT
HETATM    1  C1  UNL     1     -32.924  17.768  -1.501  1.00 20.00     0.013 C 
HETATM    2  C2  UNL     1     -33.579  17.181  -2.318  1.00 20.00    -0.102 C 
HETATM    3  C3  UNL     1     -33.756  15.676  -4.398  1.00 20.00    -0.040 C 
HETATM    4  C4  UNL     1     -32.993  14.583  -4.265  1.00 20.00     0.019 C 
HETATM    5  C5  UNL     1     -35.552  16.912  -5.425  1.00 20.00     0.043 C 
HETATM    6  C6  UNL     1     -35.801  16.168  -2.932  1.00 20.00     0.034 A 
HETATM    7  C7  UNL     1     -34.217  16.213  -5.732  1.00 20.00     0.148 C 
HETATM    8  C8  UNL     1     -35.508  17.232  -3.953  1.00 20.00     0.015 A 
HETATM    9  C9  UNL     1     -34.364  16.477  -3.300  1.00 20.00     0.052 A 
ENDROOT
BRANCH   7  10
HETATM   10  O10 UNL     1     -33.267  17.172  -6.185  1.00 20.00    -0.391 OA
HETATM   11  H20 UNL     1     -32.436  16.692  -6.330  1.00 20.00     0.210 HD
ENDBRANCH   7  10
TORSDOF 1
ENDMDL
MODEL 7
REMARK VINA RESULT:      -4.0     11.052     12.631
REMARK  1 active torsions:
REMARK  status: ('A' for Active; 'I' for Inactive)
REMARK    1  A    between atoms: C7_7  and  O10_10 
ROOT
HETATM    1  C1  UNL     1     -34.477  14.245  -4.122  1.00 20.00     0.013 C 
HETATM    2  C2  UNL     1     -34.556  15.349  -3.658  1.00 20.00    -0.102 C 
HETATM    3  C3  UNL     1     -34.942  17.879  -3.924  1.00 20.00    -0.040 C 
HETATM    4  C4  UNL     1     -36.061  18.123  -4.619  1.00 20.00     0.019 C 
HETATM    5  C5  UNL     1     -33.174  18.541  -2.425  1.00 20.00     0.043 C 
HETATM    6  C6  UNL     1     -34.917  16.772  -1.612  1.00 20.00     0.034 A 
HETATM    7  C7  UNL     1     -33.815  18.875  -3.783  1.00 20.00     0.148 C 
HETATM    8  C8  UNL     1     -33.553  17.110  -2.144  1.00 20.00     0.015 A 
HETATM    9  C9  UNL     1     -34.649  16.674  -3.100  1.00 20.00     0.052 A 
ENDROOT
BRANCH   7  10
HETATM   10  O10 UNL     1     -32.875  18.644  -4.827  1.00 20.00    -0.391 OA
HETATM   11  H20 UNL     1     -33.128  19.225  -5.562  1.00 20.00     0.210 HD
ENDBRANCH   7  10
TORSDOF 1
ENDMDL
MODEL 8
REMARK VINA RESULT:      -3.9     10.857     12.132
REMARK  1 active torsions:
REMARK  status: ('A' for Active; 'I' for Inactive)
REMARK    1  A    between atoms: C7_7  and  O10_10 
ROOT
HETATM    1  C1  UNL     1     -37.865  15.136  -4.506  1.00 20.00     0.013 C 
HETATM    2  C2  UNL     1     -36.691  15.217  -4.272  1.00 20.00    -0.102 C 
HETATM    3  C3  UNL     1     -34.693  16.408  -3.171  1.00 20.00    -0.040 C 
HETATM    4  C4  UNL     1     -34.939  16.662  -1.879  1.00 20.00     0.019 C 
HETATM    5  C5  UNL     1     -33.203  16.142  -5.048  1.00 20.00     0.043 C 
HETATM    6  C6  UNL     1     -34.466  14.044  -4.136  1.00 20.00     0.034 A 
HETATM    7  C7  UNL     1     -33.665  17.155  -3.986  1.00 20.00     0.148 C 
HETATM    8  C8  UNL     1     -34.322  15.138  -5.156  1.00 20.00     0.015 A 
HETATM    9  C9  UNL     1     -35.280  15.313  -3.991  1.00 20.00     0.052 A 
ENDROOT
BRANCH   7  10
HETATM   10  O10 UNL     1     -34.306  18.256  -4.622  1.00 20.00    -0.391 OA
HETATM   11  H20 UNL     1     -34.565  18.871  -3.917  1.00 20.00     0.210 HD
ENDBRANCH   7  10
TORSDOF 1
ENDMDL
MODEL 9
REMARK VINA RESULT:      -3.9     10.890     12.277
REMARK  1 active torsions:
REMARK  status: ('A' for Active; 'I' for Inactive)
REMARK    1  A    between atoms: C7_7  and  O10_10 
ROOT
HETATM    1  C1  UNL     1     -37.779  14.791  -4.690  1.00 20.00     0.013 C 
HETATM    2  C2  UNL     1     -36.649  15.179  -4.580  1.00 20.00    -0.102 C 
HETATM    3  C3  UNL     1     -34.546  16.287  -5.566  1.00 20.00    -0.040 C 
HETATM    4  C4  UNL     1     -34.853  17.440  -6.177  1.00 20.00     0.019 C 
HETATM    5  C5  UNL     1     -32.982  14.765  -4.543  1.00 20.00     0.043 C 
HETATM    6  C6  UNL     1     -34.792  15.907  -3.043  1.00 20.00     0.034 A 
HETATM    7  C7  UNL     1     -33.293  15.496  -5.859  1.00 20.00     0.148 C 
HETATM    8  C8  UNL     1     -34.290  14.708  -3.797  1.00 20.00     0.015 A 
HETATM    9  C9  UNL     1     -35.291  15.645  -4.449  1.00 20.00     0.052 A 
ENDROOT
BRANCH   7  10
HETATM   10  O10 UNL     1     -33.588  14.546  -6.878  1.00 20.00    -0.391 OA
HETATM   11  H20 UNL     1     -34.323  14.913  -7.396  1.00 20.00     0.210 HD
ENDBRANCH   7  10
TORSDOF 1
ENDMDL
