MODEL 1
REMARK VINA RESULT:      -3.9      0.000      0.000
REMARK  0 active torsions:
REMARK  status: ('A' for Active; 'I' for Inactive)
ROOT
HETATM    1  C1  UNL     1     -34.100   5.134   3.985  1.00 20.00     0.128 A 
HETATM    2  C2  UNL     1     -33.102   5.481   2.856  1.00 20.00     0.089 A 
HETATM    3  C3  UNL     1     -34.208   6.611   4.433  1.00 20.00     0.089 A 
HETATM    4  C4  UNL     1     -31.959   7.671   3.676  1.00 20.00     0.085 C 
HETATM    5  C5  UNL     1     -33.709   7.940   2.256  1.00 20.00     0.085 C 
HETATM    6  C6  UNL     1     -33.240   6.937   3.303  1.00 20.00    -0.011 A 
HETATM    7  O7  UNL     1     -34.607   4.102   4.371  1.00 20.00    -0.298 OA
HETATM    8  S8  UNL     1     -31.970   8.469   2.027  1.00 20.00    -0.167 SA
ENDROOT
TORSDOF 0
ENDMDL
MODEL 2
REMARK VINA RESULT:      -3.7     11.120     11.717
REMARK  0 active torsions:
REMARK  status: ('A' for Active; 'I' for Inactive)
ROOT
HETATM    1  C1  UNL     1     -35.563  13.793  -4.768  1.00 20.00     0.128 A 
HETATM    2  C2  UNL     1     -34.259  14.317  -4.125  1.00 20.00     0.089 A 
HETATM    3  C3  UNL     1     -36.276  15.154  -4.590  1.00 20.00     0.089 A 
HETATM    4  C4  UNL     1     -35.053  16.254  -2.579  1.00 20.00     0.085 C 
HETATM    5  C5  UNL     1     -34.323  16.868  -4.638  1.00 20.00     0.085 C 
HETATM    6  C6  UNL     1     -34.976  15.660  -3.979  1.00 20.00    -0.011 A 
HETATM    7  O7  UNL     1     -35.899  12.725  -5.236  1.00 20.00    -0.298 OA
HETATM    8  S8  UNL     1     -33.658  17.364  -3.004  1.00 20.00    -0.167 SA
ENDROOT
TORSDOF 0
ENDMDL
MODEL 3
REMARK VINA RESULT:      -3.7      2.929      3.590
REMARK  0 active torsions:
REMARK  status: ('A' for Active; 'I' for Inactive)
ROOT
HETATM    1  C1  UNL     1     -32.604   7.684   2.488  1.00 20.00     0.128 A 
HETATM    2  C2  UNL     1     -32.622   6.257   3.083  1.00 20.00     0.089 A 
HETATM    3  C3  UNL     1     -33.844   8.112   3.308  1.00 20.00     0.089 A 
HETATM    4  C4  UNL     1     -35.108   5.887   3.760  1.00 20.00     0.085 C 
HETATM    5  C5  UNL     1     -33.728   6.596   5.415  1.00 20.00     0.085 C 
HETATM    6  C6  UNL     1     -33.834   6.709   3.899  1.00 20.00    -0.011 A 
HETATM    7  O7  UNL     1     -31.891   8.251   1.688  1.00 20.00    -0.298 OA
HETATM    8  S8  UNL     1     -34.708   5.050   5.340  1.00 20.00    -0.167 SA
ENDROOT
TORSDOF 0
ENDMDL
MODEL 4
REMARK VINA RESULT:      -3.7     11.093     11.832
REMARK  0 active torsions:
REMARK  status: ('A' for Active; 'I' for Inactive)
ROOT
HETATM    1  C1  UNL     1     -35.409  13.815  -4.807  1.00 20.00     0.128 A 
HETATM    2  C2  UNL     1     -35.807  15.309  -4.836  1.00 20.00     0.089 A 
HETATM    3  C3  UNL     1     -34.070  14.119  -4.095  1.00 20.00     0.089 A 
HETATM    4  C4  UNL     1     -33.531  16.570  -4.768  1.00 20.00     0.085 C 
HETATM    5  C5  UNL     1     -34.571  16.298  -2.770  1.00 20.00     0.085 C 
HETATM    6  C6  UNL     1     -34.488  15.583  -4.113  1.00 20.00    -0.011 A 
HETATM    7  O7  UNL     1     -35.942  12.796  -5.192  1.00 20.00    -0.298 OA
HETATM    8  S8  UNL     1     -34.113  17.862  -3.607  1.00 20.00    -0.167 SA
ENDROOT
TORSDOF 0
ENDMDL
MODEL 5
REMARK VINA RESULT:      -3.6      2.973      3.783
REMARK  0 active torsions:
REMARK  status: ('A' for Active; 'I' for Inactive)
ROOT
HETATM    1  C1  UNL     1     -32.269   8.663   1.869  1.00 20.00     0.128 A 
HETATM    2  C2  UNL     1     -33.642   7.964   1.999  1.00 20.00     0.089 A 
HETATM    3  C3  UNL     1     -31.663   7.832   3.024  1.00 20.00     0.089 A 
HETATM    4  C4  UNL     1     -33.714   7.172   4.477  1.00 20.00     0.085 C 
HETATM    5  C5  UNL     1     -33.034   5.625   2.963  1.00 20.00     0.085 C 
HETATM    6  C6  UNL     1     -33.016   7.140   3.124  1.00 20.00    -0.011 A 
HETATM    7  O7  UNL     1     -31.832   9.528   1.139  1.00 20.00    -0.298 OA
HETATM    8  S8  UNL     1     -34.475   5.551   4.091  1.00 20.00    -0.167 SA
ENDROOT
TORSDOF 0
ENDMDL
MODEL 6
REMARK VINA RESULT:      -3.5     11.459     12.149
REMARK  0 active torsions:
REMARK  status: ('A' for Active; 'I' for Inactive)
ROOT
HETATM    1  C1  UNL     1     -37.232  14.234  -5.071  1.00 20.00     0.128 A 
HETATM    2  C2  UNL     1     -36.358  15.505  -4.961  1.00 20.00     0.089 A 
HETATM    3  C3  UNL     1     -36.008  13.341  -5.380  1.00 20.00     0.089 A 
HETATM    4  C4  UNL     1     -34.278  14.970  -6.430  1.00 20.00     0.085 C 
HETATM    5  C5  UNL     1     -34.046  14.577  -4.207  1.00 20.00     0.085 C 
HETATM    6  C6  UNL     1     -35.160  14.598  -5.246  1.00 20.00    -0.011 A 
HETATM    7  O7  UNL     1     -38.420  14.019  -4.957  1.00 20.00    -0.298 OA
HETATM    8  S8  UNL     1     -33.078  15.718  -5.265  1.00 20.00    -0.167 SA
ENDROOT
TORSDOF 0
ENDMDL
MODEL 7
REMARK VINA RESULT:      -3.4     11.623     12.481
REMARK  0 active torsions:
REMARK  status: ('A' for Active; 'I' for Inactive)
ROOT
HETATM    1  C1  UNL     1     -35.492  13.782  -5.201  1.00 20.00     0.128 A 
HETATM    2  C2  UNL     1     -35.136  14.864  -4.156  1.00 20.00     0.089 A 
HETATM    3  C3  UNL     1     -34.980  14.652  -6.373  1.00 20.00     0.089 A 
HETATM    4  C4  UNL     1     -35.207  17.090  -5.502  1.00 20.00     0.085 C 
HETATM    5  C5  UNL     1     -33.160  16.142  -5.267  1.00 20.00     0.085 C 
HETATM    6  C6  UNL     1     -34.616  15.698  -5.328  1.00 20.00    -0.011 A 
HETATM    7  O7  UNL     1     -35.983  12.675  -5.130  1.00 20.00    -0.298 OA
HETATM    8  S8  UNL     1     -33.716  17.794  -4.704  1.00 20.00    -0.167 SA
ENDROOT
TORSDOF 0
ENDMDL
MODEL 8
REMARK VINA RESULT:      -3.4     11.765     12.190
REMARK  0 active torsions:
REMARK  status: ('A' for Active; 'I' for Inactive)
ROOT
HETATM    1  C1  UNL     1     -34.983  16.799  -1.764  1.00 20.00     0.128 A 
HETATM    2  C2  UNL     1     -35.402  16.266  -3.154  1.00 20.00     0.089 A 
HETATM    3  C3  UNL     1     -33.510  16.971  -2.203  1.00 20.00     0.089 A 
HETATM    4  C4  UNL     1     -33.213  15.251  -4.128  1.00 20.00     0.085 C 
HETATM    5  C5  UNL     1     -33.686  17.378  -4.763  1.00 20.00     0.085 C 
HETATM    6  C6  UNL     1     -33.945  16.465  -3.571  1.00 20.00    -0.011 A 
HETATM    7  O7  UNL     1     -35.579  17.006  -0.728  1.00 20.00    -0.298 OA
HETATM    8  S8  UNL     1     -33.493  15.894  -5.821  1.00 20.00    -0.167 SA
ENDROOT
TORSDOF 0
ENDMDL
MODEL 9
REMARK VINA RESULT:      -3.3     11.578     12.115
REMARK  0 active torsions:
REMARK  status: ('A' for Active; 'I' for Inactive)
ROOT
HETATM    1  C1  UNL     1     -34.974  16.966  -1.458  1.00 20.00     0.128 A 
HETATM    2  C2  UNL     1     -33.647  16.879  -2.247  1.00 20.00     0.089 A 
HETATM    3  C3  UNL     1     -35.800  16.462  -2.664  1.00 20.00     0.089 A 
HETATM    4  C4  UNL     1     -34.375  17.124  -4.734  1.00 20.00     0.085 C 
HETATM    5  C5  UNL     1     -34.108  14.999  -3.986  1.00 20.00     0.085 C 
HETATM    6  C6  UNL     1     -34.482  16.363  -3.420  1.00 20.00    -0.011 A 
HETATM    7  O7  UNL     1     -35.258  17.299  -0.327  1.00 20.00    -0.298 OA
HETATM    8  S8  UNL     1     -33.223  15.841  -5.352  1.00 20.00    -0.167 SA
ENDROOT
TORSDOF 0
ENDMDL
