MODEL 1
REMARK VINA RESULT:      -4.5      0.000      0.000
REMARK  4 active torsions:
REMARK  status: ('A' for Active; 'I' for Inactive)
REMARK    1  A    between atoms: C1_1  and  O8_8 
REMARK    2  A    between atoms: C5_5  and  C6_6 
REMARK    3  A    between atoms: C6_6  and  C7_7 
REMARK    4  A    between atoms: C7_7  and  O8_8 
ROOT
HETATM    1  C4  UNL     1     -32.945   5.045   2.477  1.00 20.00     0.040 C 
HETATM    2  C7  UNL     1     -32.932   6.486   2.971  1.00 20.00     0.125 C 
ENDROOT
BRANCH   2   3
HETATM    3  C6  UNL     1     -32.879   7.479   1.806  1.00 20.00     0.032 C 
BRANCH   3   4
HETATM    4  C5  UNL     1     -32.073   8.733   2.154  1.00 20.00    -0.002 C 
HETATM    5  C3  UNL     1     -32.417   9.889   1.228  1.00 20.00     0.005 C 
ENDBRANCH   3   4
ENDBRANCH   2   3
BRANCH   2   6
HETATM    6  O8  UNL     1     -34.101   6.712   3.755  1.00 20.00    -0.340 OA
BRANCH   6   7
HETATM    7  C1  UNL     1     -34.111   6.459   5.082  1.00 20.00     0.109 C 
HETATM    8  C2  UNL     1     -33.621   7.505   6.033  1.00 20.00     0.089 C 
HETATM    9  S9  UNL     1     -34.679   4.969   5.563  1.00 20.00    -0.058 SA
ENDBRANCH   6   7
ENDBRANCH   2   6
TORSDOF 4
ENDMDL
MODEL 2
REMARK VINA RESULT:      -4.4      1.611      2.201
REMARK  4 active torsions:
REMARK  status: ('A' for Active; 'I' for Inactive)
REMARK    1  A    between atoms: C1_1  and  O8_8 
REMARK    2  A    between atoms: C5_5  and  C6_6 
REMARK    3  A    between atoms: C6_6  and  C7_7 
REMARK    4  A    between atoms: C7_7  and  O8_8 
ROOT
HETATM    1  C4  UNL     1     -31.192   8.322   3.785  1.00 20.00     0.040 C 
HETATM    2  C7  UNL     1     -32.465   8.047   2.995  1.00 20.00     0.125 C 
ENDROOT
BRANCH   2   3
HETATM    3  C6  UNL     1     -32.223   8.152   1.486  1.00 20.00     0.032 C 
BRANCH   3   4
HETATM    4  C5  UNL     1     -32.537   9.550   0.947  1.00 20.00    -0.002 C 
HETATM    5  C3  UNL     1     -33.155   9.485  -0.441  1.00 20.00     0.005 C 
ENDBRANCH   3   4
ENDBRANCH   2   3
BRANCH   2   6
HETATM    6  O8  UNL     1     -32.938   6.744   3.326  1.00 20.00    -0.340 OA
BRANCH   6   7
HETATM    7  C1  UNL     1     -33.965   6.572   4.188  1.00 20.00     0.109 C 
HETATM    8  C2  UNL     1     -35.200   5.866   3.727  1.00 20.00     0.089 C 
HETATM    9  S9  UNL     1     -33.770   7.177   5.727  1.00 20.00    -0.058 SA
ENDBRANCH   6   7
ENDBRANCH   2   6
TORSDOF 4
ENDMDL
MODEL 3
REMARK VINA RESULT:      -4.4      1.378      1.849
REMARK  4 active torsions:
REMARK  status: ('A' for Active; 'I' for Inactive)
REMARK    1  A    between atoms: C1_1  and  O8_8 
REMARK    2  A    between atoms: C5_5  and  C6_6 
REMARK    3  A    between atoms: C6_6  and  C7_7 
REMARK    4  A    between atoms: C7_7  and  O8_8 
ROOT
HETATM    1  C4  UNL     1     -31.147   8.408   3.780  1.00 20.00     0.040 C 
HETATM    2  C7  UNL     1     -32.459   8.099   3.070  1.00 20.00     0.125 C 
ENDROOT
BRANCH   2   3
HETATM    3  C6  UNL     1     -32.303   8.166   1.548  1.00 20.00     0.032 C 
BRANCH   3   4
HETATM    4  C5  UNL     1     -32.497   9.586   1.010  1.00 20.00    -0.002 C 
HETATM    5  C3  UNL     1     -33.129   9.576  -0.372  1.00 20.00     0.005 C 
ENDBRANCH   3   4
ENDBRANCH   2   3
BRANCH   2   6
HETATM    6  O8  UNL     1     -32.896   6.800   3.461  1.00 20.00    -0.340 OA
BRANCH   6   7
HETATM    7  C1  UNL     1     -33.859   6.639   4.395  1.00 20.00     0.109 C 
HETATM    8  C2  UNL     1     -33.721   7.323   5.718  1.00 20.00     0.089 C 
HETATM    9  S9  UNL     1     -35.149   5.666   3.992  1.00 20.00    -0.058 SA
ENDBRANCH   6   7
ENDBRANCH   2   6
TORSDOF 4
ENDMDL
MODEL 4
REMARK VINA RESULT:      -4.3      2.825      4.639
REMARK  4 active torsions:
REMARK  status: ('A' for Active; 'I' for Inactive)
REMARK    1  A    between atoms: C1_1  and  O8_8 
REMARK    2  A    between atoms: C5_5  and  C6_6 
REMARK    3  A    between atoms: C6_6  and  C7_7 
REMARK    4  A    between atoms: C7_7  and  O8_8 
ROOT
HETATM    1  C4  UNL     1     -32.895   7.700   4.573  1.00 20.00     0.040 C 
HETATM    2  C7  UNL     1     -32.693   7.229   3.139  1.00 20.00     0.125 C 
ENDROOT
BRANCH   2   3
HETATM    3  C6  UNL     1     -33.349   5.866   2.897  1.00 20.00     0.032 C 
BRANCH   3   4
HETATM    4  C5  UNL     1     -34.580   5.653   3.782  1.00 20.00    -0.002 C 
HETATM    5  C3  UNL     1     -34.478   4.360   4.575  1.00 20.00     0.005 C 
ENDBRANCH   3   4
ENDBRANCH   2   3
BRANCH   2   6
HETATM    6  O8  UNL     1     -33.245   8.202   2.255  1.00 20.00    -0.340 OA
BRANCH   6   7
HETATM    7  C1  UNL     1     -32.449   8.999   1.509  1.00 20.00     0.109 C 
HETATM    8  C2  UNL     1     -31.285   8.403   0.783  1.00 20.00     0.089 C 
HETATM    9  S9  UNL     1     -32.835  10.619   1.460  1.00 20.00    -0.058 SA
ENDBRANCH   6   7
ENDBRANCH   2   6
TORSDOF 4
ENDMDL
MODEL 5
REMARK VINA RESULT:      -4.3      2.402      3.728
REMARK  4 active torsions:
REMARK  status: ('A' for Active; 'I' for Inactive)
REMARK    1  A    between atoms: C1_1  and  O8_8 
REMARK    2  A    between atoms: C5_5  and  C6_6 
REMARK    3  A    between atoms: C6_6  and  C7_7 
REMARK    4  A    between atoms: C7_7  and  O8_8 
ROOT
HETATM    1  C4  UNL     1     -33.341   4.587   2.717  1.00 20.00     0.040 C 
HETATM    2  C7  UNL     1     -33.476   6.102   2.648  1.00 20.00     0.125 C 
ENDROOT
BRANCH   2   3
HETATM    3  C6  UNL     1     -34.527   6.619   3.635  1.00 20.00     0.032 C 
BRANCH   3   4
HETATM    4  C5  UNL     1     -34.353   6.015   5.031  1.00 20.00    -0.002 C 
HETATM    5  C3  UNL     1     -33.924   7.067   6.042  1.00 20.00     0.005 C 
ENDBRANCH   3   4
ENDBRANCH   2   3
BRANCH   2   6
HETATM    6  O8  UNL     1     -32.208   6.689   2.931  1.00 20.00    -0.340 OA
BRANCH   6   7
HETATM    7  C1  UNL     1     -32.022   8.024   2.847  1.00 20.00     0.109 C 
HETATM    8  C2  UNL     1     -31.494   8.769   4.032  1.00 20.00     0.089 C 
HETATM    9  S9  UNL     1     -32.407   8.751   1.398  1.00 20.00    -0.058 SA
ENDBRANCH   6   7
ENDBRANCH   2   6
TORSDOF 4
ENDMDL
MODEL 6
REMARK VINA RESULT:      -4.3      2.624      4.445
REMARK  4 active torsions:
REMARK  status: ('A' for Active; 'I' for Inactive)
REMARK    1  A    between atoms: C1_1  and  O8_8 
REMARK    2  A    between atoms: C5_5  and  C6_6 
REMARK    3  A    between atoms: C6_6  and  C7_7 
REMARK    4  A    between atoms: C7_7  and  O8_8 
ROOT
HETATM    1  C4  UNL     1     -33.660   7.424   5.468  1.00 20.00     0.040 C 
HETATM    2  C7  UNL     1     -33.603   6.911   4.035  1.00 20.00     0.125 C 
ENDROOT
BRANCH   2   3
HETATM    3  C6  UNL     1     -34.820   6.042   3.700  1.00 20.00     0.032 C 
BRANCH   3   4
HETATM    4  C5  UNL     1     -34.980   4.873   4.675  1.00 20.00    -0.002 C 
HETATM    5  C3  UNL     1     -33.961   3.777   4.401  1.00 20.00     0.005 C 
ENDBRANCH   3   4
ENDBRANCH   2   3
BRANCH   2   6
HETATM    6  O8  UNL     1     -33.540   8.027   3.151  1.00 20.00    -0.340 OA
BRANCH   6   7
HETATM    7  C1  UNL     1     -32.372   8.403   2.584  1.00 20.00     0.109 C 
HETATM    8  C2  UNL     1     -31.088   8.153   3.309  1.00 20.00     0.089 C 
HETATM    9  S9  UNL     1     -32.459   9.136   1.091  1.00 20.00    -0.058 SA
ENDBRANCH   6   7
ENDBRANCH   2   6
TORSDOF 4
ENDMDL
MODEL 7
REMARK VINA RESULT:      -4.2      2.860      4.613
REMARK  4 active torsions:
REMARK  status: ('A' for Active; 'I' for Inactive)
REMARK    1  A    between atoms: C1_1  and  O8_8 
REMARK    2  A    between atoms: C5_5  and  C6_6 
REMARK    3  A    between atoms: C6_6  and  C7_7 
REMARK    4  A    between atoms: C7_7  and  O8_8 
ROOT
HETATM    1  C4  UNL     1     -31.520   8.159   3.661  1.00 20.00     0.040 C 
HETATM    2  C7  UNL     1     -32.387   7.669   2.509  1.00 20.00     0.125 C 
ENDROOT
BRANCH   2   3
HETATM    3  C6  UNL     1     -33.235   6.460   2.919  1.00 20.00     0.032 C 
BRANCH   3   4
HETATM    4  C5  UNL     1     -33.991   6.704   4.227  1.00 20.00    -0.002 C 
HETATM    5  C3  UNL     1     -34.685   5.440   4.711  1.00 20.00     0.005 C 
ENDBRANCH   3   4
ENDBRANCH   2   3
BRANCH   2   6
HETATM    6  O8  UNL     1     -33.230   8.737   2.084  1.00 20.00    -0.340 OA
BRANCH   6   7
HETATM    7  C1  UNL     1     -32.824   9.613   1.138  1.00 20.00     0.109 C 
HETATM    8  C2  UNL     1     -32.399  10.988   1.545  1.00 20.00     0.089 C 
HETATM    9  S9  UNL     1     -32.834   9.080  -0.440  1.00 20.00    -0.058 SA
ENDBRANCH   6   7
ENDBRANCH   2   6
TORSDOF 4
ENDMDL
MODEL 8
REMARK VINA RESULT:      -3.9      1.604      2.278
REMARK  4 active torsions:
REMARK  status: ('A' for Active; 'I' for Inactive)
REMARK    1  A    between atoms: C1_1  and  O8_8 
REMARK    2  A    between atoms: C5_5  and  C6_6 
REMARK    3  A    between atoms: C6_6  and  C7_7 
REMARK    4  A    between atoms: C7_7  and  O8_8 
ROOT
HETATM    1  C4  UNL     1     -33.459   7.379   5.616  1.00 20.00     0.040 C 
HETATM    2  C7  UNL     1     -33.647   7.647   4.128  1.00 20.00     0.125 C 
ENDROOT
BRANCH   2   3
HETATM    3  C6  UNL     1     -32.302   7.769   3.404  1.00 20.00     0.032 C 
BRANCH   3   4
HETATM    4  C5  UNL     1     -32.475   8.062   1.912  1.00 20.00    -0.002 C 
HETATM    5  C3  UNL     1     -32.287   9.540   1.610  1.00 20.00     0.005 C 
ENDBRANCH   3   4
ENDBRANCH   2   3
BRANCH   2   6
HETATM    6  O8  UNL     1     -34.412   6.585   3.565  1.00 20.00    -0.340 OA
BRANCH   6   7
HETATM    7  C1  UNL     1     -34.111   5.294   3.823  1.00 20.00     0.109 C 
HETATM    8  C2  UNL     1     -34.673   4.638   5.044  1.00 20.00     0.089 C 
HETATM    9  S9  UNL     1     -33.113   4.519   2.738  1.00 20.00    -0.058 SA
ENDBRANCH   6   7
ENDBRANCH   2   6
TORSDOF 4
ENDMDL
MODEL 9
REMARK VINA RESULT:      -3.5     10.919     11.797
REMARK  4 active torsions:
REMARK  status: ('A' for Active; 'I' for Inactive)
REMARK    1  A    between atoms: C1_1  and  O8_8 
REMARK    2  A    between atoms: C5_5  and  C6_6 
REMARK    3  A    between atoms: C6_6  and  C7_7 
REMARK    4  A    between atoms: C7_7  and  O8_8 
ROOT
HETATM    1  C4  UNL     1     -33.896  17.947  -3.996  1.00 20.00     0.040 C 
HETATM    2  C7  UNL     1     -33.755  16.746  -3.071  1.00 20.00     0.125 C 
ENDROOT
BRANCH   2   3
HETATM    3  C6  UNL     1     -33.938  17.143  -1.603  1.00 20.00     0.032 C 
BRANCH   3   4
HETATM    4  C5  UNL     1     -35.388  16.982  -1.138  1.00 20.00    -0.002 C 
HETATM    5  C3  UNL     1     -35.593  17.558   0.254  1.00 20.00     0.005 C 
ENDBRANCH   3   4
ENDBRANCH   2   3
BRANCH   2   6
HETATM    6  O8  UNL     1     -34.725  15.769  -3.438  1.00 20.00    -0.340 OA
BRANCH   6   7
HETATM    7  C1  UNL     1     -34.393  14.711  -4.211  1.00 20.00     0.109 C 
HETATM    8  C2  UNL     1     -32.952  14.346  -4.378  1.00 20.00     0.089 C 
HETATM    9  S9  UNL     1     -35.643  13.882  -4.935  1.00 20.00    -0.058 SA
ENDBRANCH   6   7
ENDBRANCH   2   6
TORSDOF 4
ENDMDL
