MODEL 1
REMARK VINA RESULT:      -4.4      0.000      0.000
REMARK  1 active torsions:
REMARK  status: ('A' for Active; 'I' for Inactive)
REMARK    1  A    between atoms: C1_1  and  C8_8 
ROOT
HETATM    1  C1  UNL     1     -33.234   7.297   3.652  1.00 20.00     0.069 C 
HETATM    2  C2  UNL     1     -31.370   8.467   3.118  1.00 20.00     0.169 C 
HETATM    3  C3  UNL     1     -32.158   8.642   1.812  1.00 20.00     0.025 C 
HETATM    4  C4  UNL     1     -31.271   8.480   0.581  1.00 20.00     0.029 C 
HETATM    5  C5  UNL     1     -32.901   9.981   1.774  1.00 20.00     0.029 C 
HETATM    6  N9  UNL     1     -32.252   7.943   4.186  1.00 20.00    -0.285 NA
HETATM    7  S10 UNL     1     -33.366   7.285   1.913  1.00 20.00    -0.104 SA
ENDROOT
BRANCH   1   8
HETATM    8  C8  UNL     1     -34.283   6.594   4.443  1.00 20.00     0.036 C 
HETATM    9  C6  UNL     1     -34.328   5.112   4.079  1.00 20.00     0.016 C 
HETATM   10  C7  UNL     1     -34.052   6.772   5.944  1.00 20.00     0.016 C 
ENDBRANCH   1   8
TORSDOF 1
ENDMDL
MODEL 2
REMARK VINA RESULT:      -4.3      1.655      4.313
REMARK  1 active torsions:
REMARK  status: ('A' for Active; 'I' for Inactive)
REMARK    1  A    between atoms: C1_1  and  C8_8 
ROOT
HETATM    1  C1  UNL     1     -32.660   6.801   3.061  1.00 20.00     0.069 C 
HETATM    2  C2  UNL     1     -33.618   4.776   3.386  1.00 20.00     0.169 C 
HETATM    3  C3  UNL     1     -34.484   5.618   4.333  1.00 20.00     0.025 C 
HETATM    4  C4  UNL     1     -34.744   4.906   5.658  1.00 20.00     0.029 C 
HETATM    5  C5  UNL     1     -35.803   6.036   3.674  1.00 20.00     0.029 C 
HETATM    6  N9  UNL     1     -32.828   5.653   2.494  1.00 20.00    -0.285 NA
HETATM    7  S10 UNL     1     -33.446   7.090   4.590  1.00 20.00    -0.104 SA
ENDROOT
BRANCH   1   8
HETATM    8  C8  UNL     1     -31.863   7.907   2.459  1.00 20.00     0.036 C 
HETATM    9  C6  UNL     1     -32.724   8.733   1.505  1.00 20.00     0.016 C 
HETATM   10  C7  UNL     1     -31.253   8.799   3.542  1.00 20.00     0.016 C 
ENDBRANCH   1   8
TORSDOF 1
ENDMDL
MODEL 3
REMARK VINA RESULT:      -4.0     10.780     11.458
REMARK  1 active torsions:
REMARK  status: ('A' for Active; 'I' for Inactive)
REMARK    1  A    between atoms: C1_1  and  C8_8 
ROOT
HETATM    1  C1  UNL     1     -34.519  16.128  -3.660  1.00 20.00     0.069 C 
HETATM    2  C2  UNL     1     -35.576  15.964  -5.656  1.00 20.00     0.169 C 
HETATM    3  C3  UNL     1     -34.909  14.582  -5.611  1.00 20.00     0.025 C 
HETATM    4  C4  UNL     1     -34.310  14.191  -6.959  1.00 20.00     0.029 C 
HETATM    5  C5  UNL     1     -35.875  13.503  -5.112  1.00 20.00     0.029 C 
HETATM    6  N9  UNL     1     -35.518  16.607  -4.324  1.00 20.00    -0.285 NA
HETATM    7  S10 UNL     1     -33.596  14.834  -4.376  1.00 20.00    -0.104 SA
ENDROOT
BRANCH   1   8
HETATM    8  C8  UNL     1     -34.138  16.595  -2.297  1.00 20.00     0.036 C 
HETATM    9  C6  UNL     1     -33.252  17.835  -2.382  1.00 20.00     0.016 C 
HETATM   10  C7  UNL     1     -35.377  16.877  -1.446  1.00 20.00     0.016 C 
ENDBRANCH   1   8
TORSDOF 1
ENDMDL
MODEL 4
REMARK VINA RESULT:      -4.0     10.910     11.692
REMARK  1 active torsions:
REMARK  status: ('A' for Active; 'I' for Inactive)
REMARK    1  A    between atoms: C1_1  and  C8_8 
ROOT
HETATM    1  C1  UNL     1     -33.869  16.157  -3.862  1.00 20.00     0.069 C 
HETATM    2  C2  UNL     1     -33.439  16.061  -6.083  1.00 20.00     0.169 C 
HETATM    3  C3  UNL     1     -34.624  15.087  -6.015  1.00 20.00     0.025 C 
HETATM    4  C4  UNL     1     -34.396  13.845  -6.872  1.00 20.00     0.029 C 
HETATM    5  C5  UNL     1     -35.942  15.772  -6.391  1.00 20.00     0.029 C 
HETATM    6  N9  UNL     1     -33.332  16.831  -4.824  1.00 20.00    -0.285 NA
HETATM    7  S10 UNL     1     -34.654  14.649  -4.249  1.00 20.00    -0.104 SA
ENDROOT
BRANCH   1   8
HETATM    8  C8  UNL     1     -33.888  16.618  -2.445  1.00 20.00     0.036 C 
HETATM    9  C6  UNL     1     -33.173  17.960  -2.307  1.00 20.00     0.016 C 
HETATM   10  C7  UNL     1     -35.320  16.713  -1.917  1.00 20.00     0.016 C 
ENDBRANCH   1   8
TORSDOF 1
ENDMDL
MODEL 5
REMARK VINA RESULT:      -3.9     10.500     11.146
REMARK  1 active torsions:
REMARK  status: ('A' for Active; 'I' for Inactive)
REMARK    1  A    between atoms: C1_1  and  C8_8 
ROOT
HETATM    1  C1  UNL     1     -34.563  16.199  -3.117  1.00 20.00     0.069 C 
HETATM    2  C2  UNL     1     -33.920  14.452  -4.405  1.00 20.00     0.169 C 
HETATM    3  C3  UNL     1     -35.276  14.756  -5.056  1.00 20.00     0.025 C 
HETATM    4  C4  UNL     1     -36.060  13.485  -5.370  1.00 20.00     0.029 C 
HETATM    5  C5  UNL     1     -35.121  15.622  -6.310  1.00 20.00     0.029 C 
HETATM    6  N9  UNL     1     -33.513  15.564  -3.518  1.00 20.00    -0.285 NA
HETATM    7  S10 UNL     1     -36.112  15.720  -3.758  1.00 20.00    -0.104 SA
ENDROOT
BRANCH   1   8
HETATM    8  C8  UNL     1     -34.519  17.347  -2.167  1.00 20.00     0.036 C 
HETATM    9  C6  UNL     1     -35.400  17.071  -0.950  1.00 20.00     0.016 C 
HETATM   10  C7  UNL     1     -33.083  17.647  -1.734  1.00 20.00     0.016 C 
ENDBRANCH   1   8
TORSDOF 1
ENDMDL
MODEL 6
REMARK VINA RESULT:      -3.9      1.433      1.873
REMARK  1 active torsions:
REMARK  status: ('A' for Active; 'I' for Inactive)
REMARK    1  A    between atoms: C1_1  and  C8_8 
ROOT
HETATM    1  C1  UNL     1     -33.855   6.266   3.601  1.00 20.00     0.069 C 
HETATM    2  C2  UNL     1     -32.440   6.739   1.898  1.00 20.00     0.169 C 
HETATM    3  C3  UNL     1     -32.440   8.099   2.609  1.00 20.00     0.025 C 
HETATM    4  C4  UNL     1     -32.516   9.262   1.623  1.00 20.00     0.029 C 
HETATM    5  C5  UNL     1     -31.231   8.253   3.538  1.00 20.00     0.029 C 
HETATM    6  N9  UNL     1     -33.046   5.704   2.765  1.00 20.00    -0.285 NA
HETATM    7  S10 UNL     1     -33.959   8.006   3.607  1.00 20.00    -0.104 SA
ENDROOT
BRANCH   1   8
HETATM    8  C8  UNL     1     -34.675   5.508   4.588  1.00 20.00     0.036 C 
HETATM    9  C6  UNL     1     -34.337   4.019   4.537  1.00 20.00     0.016 C 
HETATM   10  C7  UNL     1     -34.479   6.056   6.002  1.00 20.00     0.016 C 
ENDBRANCH   1   8
TORSDOF 1
ENDMDL
MODEL 7
REMARK VINA RESULT:      -3.8      1.016      4.135
REMARK  1 active torsions:
REMARK  status: ('A' for Active; 'I' for Inactive)
REMARK    1  A    between atoms: C1_1  and  C8_8 
ROOT
HETATM    1  C1  UNL     1     -32.540   8.252   2.532  1.00 20.00     0.069 C 
HETATM    2  C2  UNL     1     -32.997   7.056   4.399  1.00 20.00     0.169 C 
HETATM    3  C3  UNL     1     -33.779   6.226   3.372  1.00 20.00     0.025 C 
HETATM    4  C4  UNL     1     -35.146   5.800   3.900  1.00 20.00     0.029 C 
HETATM    5  C5  UNL     1     -32.978   5.010   2.897  1.00 20.00     0.029 C 
HETATM    6  N9  UNL     1     -32.083   7.997   3.713  1.00 20.00    -0.285 NA
HETATM    7  S10 UNL     1     -33.963   7.402   1.995  1.00 20.00    -0.104 SA
ENDROOT
BRANCH   1   8
HETATM    8  C8  UNL     1     -31.891   9.206   1.588  1.00 20.00     0.036 C 
HETATM    9  C6  UNL     1     -31.356   8.469   0.362  1.00 20.00     0.016 C 
HETATM   10  C7  UNL     1     -32.861  10.312   1.170  1.00 20.00     0.016 C 
ENDBRANCH   1   8
TORSDOF 1
ENDMDL
MODEL 8
REMARK VINA RESULT:      -3.7     10.779     11.698
REMARK  1 active torsions:
REMARK  status: ('A' for Active; 'I' for Inactive)
REMARK    1  A    between atoms: C1_1  and  C8_8 
ROOT
HETATM    1  C1  UNL     1     -34.957  15.198  -4.126  1.00 20.00     0.069 C 
HETATM    2  C2  UNL     1     -36.137  13.518  -5.081  1.00 20.00     0.169 C 
HETATM    3  C3  UNL     1     -37.044  14.701  -5.448  1.00 20.00     0.025 C 
HETATM    4  C4  UNL     1     -38.522  14.369  -5.260  1.00 20.00     0.029 C 
HETATM    5  C5  UNL     1     -36.776  15.201  -6.871  1.00 20.00     0.029 C 
HETATM    6  N9  UNL     1     -34.824  14.005  -4.602  1.00 20.00    -0.285 NA
HETATM    7  S10 UNL     1     -36.516  15.968  -4.253  1.00 20.00    -0.104 SA
ENDROOT
BRANCH   1   8
HETATM    8  C8  UNL     1     -33.839  15.968  -3.510  1.00 20.00     0.036 C 
HETATM    9  C6  UNL     1     -33.285  16.994  -4.497  1.00 20.00     0.016 C 
HETATM   10  C7  UNL     1     -34.289  16.652  -2.218  1.00 20.00     0.016 C 
ENDBRANCH   1   8
TORSDOF 1
ENDMDL
MODEL 9
REMARK VINA RESULT:      -3.5     10.638     12.295
REMARK  1 active torsions:
REMARK  status: ('A' for Active; 'I' for Inactive)
REMARK    1  A    between atoms: C1_1  and  C8_8 
ROOT
HETATM    1  C1  UNL     1     -36.905  14.514  -4.756  1.00 20.00     0.069 C 
HETATM    2  C2  UNL     1     -39.043  15.248  -4.618  1.00 20.00     0.169 C 
HETATM    3  C3  UNL     1     -38.317  16.599  -4.676  1.00 20.00     0.025 C 
HETATM    4  C4  UNL     1     -38.901  17.606  -3.688  1.00 20.00     0.029 C 
HETATM    5  C5  UNL     1     -38.306  17.176  -6.095  1.00 20.00     0.029 C 
HETATM    6  N9  UNL     1     -38.122  14.152  -4.994  1.00 20.00    -0.285 NA
HETATM    7  S10 UNL     1     -36.622  16.141  -4.197  1.00 20.00    -0.104 SA
ENDROOT
BRANCH   1   8
HETATM    8  C8  UNL     1     -35.726  13.628  -4.970  1.00 20.00     0.036 C 
HETATM    9  C6  UNL     1     -35.452  13.451  -6.462  1.00 20.00     0.016 C 
HETATM   10  C7  UNL     1     -34.489  14.177  -4.258  1.00 20.00     0.016 C 
ENDBRANCH   1   8
TORSDOF 1
ENDMDL
