MODEL 1
REMARK VINA RESULT:      -4.8      0.000      0.000
REMARK  1 active torsions:
REMARK  status: ('A' for Active; 'I' for Inactive)
REMARK    1  A    between atoms: C2_2  and  C6_6 
ROOT
HETATM    1  C3  UNL     1     -35.196   5.521   4.562  1.00 20.00     0.181 C 
HETATM    2  C4  UNL     1     -33.759   5.820   2.527  1.00 20.00     0.181 C 
HETATM    3  C5  UNL     1     -33.832   3.800   3.726  1.00 20.00     0.337 C 
HETATM    4  C6  UNL     1     -34.430   6.535   3.705  1.00 20.00     0.061 C 
HETATM    5  O8  UNL     1     -34.368   4.407   4.898  1.00 20.00    -0.366 OA
HETATM    6  O9  UNL     1     -33.010   4.689   2.974  1.00 20.00    -0.366 OA
ENDROOT
BRANCH   4   7
HETATM    7  C2  UNL     1     -33.412   7.272   4.530  1.00 20.00    -0.085 C 
HETATM    8  C1  UNL     1     -33.543   7.414   5.857  1.00 20.00     0.014 C 
HETATM    9  C7  UNL     1     -32.241   7.839   3.784  1.00 20.00     0.043 C 
ENDBRANCH   4   7
TORSDOF 1
ENDMDL
MODEL 2
REMARK VINA RESULT:      -4.6      1.321      2.230
REMARK  1 active torsions:
REMARK  status: ('A' for Active; 'I' for Inactive)
REMARK    1  A    between atoms: C2_2  and  C6_6 
ROOT
HETATM    1  C3  UNL     1     -33.953   7.238   5.398  1.00 20.00     0.181 C 
HETATM    2  C4  UNL     1     -35.302   5.867   3.788  1.00 20.00     0.181 C 
HETATM    3  C5  UNL     1     -34.627   5.039   5.882  1.00 20.00     0.337 C 
HETATM    4  C6  UNL     1     -34.289   7.009   3.921  1.00 20.00     0.061 C 
HETATM    5  O8  UNL     1     -33.597   6.012   6.038  1.00 20.00    -0.366 OA
HETATM    6  O9  UNL     1     -34.873   4.715   4.516  1.00 20.00    -0.366 OA
ENDROOT
BRANCH   4   7
HETATM    7  C2  UNL     1     -33.046   6.714   3.129  1.00 20.00    -0.085 C 
HETATM    8  C1  UNL     1     -32.869   5.545   2.497  1.00 20.00     0.014 C 
HETATM    9  C7  UNL     1     -32.015   7.802   3.087  1.00 20.00     0.043 C 
ENDBRANCH   4   7
TORSDOF 1
ENDMDL
MODEL 3
REMARK VINA RESULT:      -4.6      1.469      3.246
REMARK  1 active torsions:
REMARK  status: ('A' for Active; 'I' for Inactive)
REMARK    1  A    between atoms: C2_2  and  C6_6 
ROOT
HETATM    1  C3  UNL     1     -33.923   6.096   2.485  1.00 20.00     0.181 C 
HETATM    2  C4  UNL     1     -34.298   7.426   4.579  1.00 20.00     0.181 C 
HETATM    3  C5  UNL     1     -32.278   7.515   3.381  1.00 20.00     0.337 C 
HETATM    4  C6  UNL     1     -34.690   6.159   3.810  1.00 20.00     0.061 C 
HETATM    5  O8  UNL     1     -32.524   6.291   2.693  1.00 20.00    -0.366 OA
HETATM    6  O9  UNL     1     -32.878   7.549   4.673  1.00 20.00    -0.366 OA
ENDROOT
BRANCH   4   7
HETATM    7  C2  UNL     1     -34.429   4.932   4.637  1.00 20.00    -0.085 C 
HETATM    8  C1  UNL     1     -34.021   3.779   4.087  1.00 20.00     0.014 C 
HETATM    9  C7  UNL     1     -34.651   5.070   6.114  1.00 20.00     0.043 C 
ENDBRANCH   4   7
TORSDOF 1
ENDMDL
MODEL 4
REMARK VINA RESULT:      -4.3      1.815      3.574
REMARK  1 active torsions:
REMARK  status: ('A' for Active; 'I' for Inactive)
REMARK    1  A    between atoms: C2_2  and  C6_6 
ROOT
HETATM    1  C3  UNL     1     -33.243   7.381   2.544  1.00 20.00     0.181 C 
HETATM    2  C4  UNL     1     -34.297   7.218   4.815  1.00 20.00     0.181 C 
HETATM    3  C5  UNL     1     -32.176   8.172   4.482  1.00 20.00     0.337 C 
HETATM    4  C6  UNL     1     -34.229   6.595   3.416  1.00 20.00     0.061 C 
HETATM    5  O8  UNL     1     -31.993   7.552   3.213  1.00 20.00    -0.366 OA
HETATM    6  O9  UNL     1     -32.989   7.398   5.360  1.00 20.00    -0.366 OA
ENDROOT
BRANCH   4   7
HETATM    7  C2  UNL     1     -33.835   5.147   3.496  1.00 20.00    -0.085 C 
HETATM    8  C1  UNL     1     -32.992   4.591   2.614  1.00 20.00     0.014 C 
HETATM    9  C7  UNL     1     -34.439   4.359   4.621  1.00 20.00     0.043 C 
ENDBRANCH   4   7
TORSDOF 1
ENDMDL
MODEL 5
REMARK VINA RESULT:      -4.3      1.473      2.619
REMARK  1 active torsions:
REMARK  status: ('A' for Active; 'I' for Inactive)
REMARK    1  A    between atoms: C2_2  and  C6_6 
ROOT
HETATM    1  C3  UNL     1     -34.070   5.511   2.790  1.00 20.00     0.181 C 
HETATM    2  C4  UNL     1     -33.879   7.883   3.585  1.00 20.00     0.181 C 
HETATM    3  C5  UNL     1     -32.102   6.769   2.525  1.00 20.00     0.337 C 
HETATM    4  C6  UNL     1     -34.582   6.539   3.806  1.00 20.00     0.061 C 
HETATM    5  O8  UNL     1     -32.642   5.474   2.775  1.00 20.00    -0.366 OA
HETATM    6  O9  UNL     1     -32.462   7.717   3.526  1.00 20.00    -0.366 OA
ENDROOT
BRANCH   4   7
HETATM    7  C2  UNL     1     -34.371   6.052   5.212  1.00 20.00    -0.085 C 
HETATM    8  C1  UNL     1     -34.579   4.773   5.558  1.00 20.00     0.014 C 
HETATM    9  C7  UNL     1     -33.914   7.079   6.205  1.00 20.00     0.043 C 
ENDBRANCH   4   7
TORSDOF 1
ENDMDL
MODEL 6
REMARK VINA RESULT:      -3.7     12.479     13.058
REMARK  1 active torsions:
REMARK  status: ('A' for Active; 'I' for Inactive)
REMARK    1  A    between atoms: C2_2  and  C6_6 
ROOT
HETATM    1  C3  UNL     1     -32.961  14.789  -4.524  1.00 20.00     0.181 C 
HETATM    2  C4  UNL     1     -35.362  14.319  -5.081  1.00 20.00     0.181 C 
HETATM    3  C5  UNL     1     -33.867  15.234  -6.646  1.00 20.00     0.337 C 
HETATM    4  C6  UNL     1     -34.378  14.655  -3.955  1.00 20.00     0.061 C 
HETATM    5  O8  UNL     1     -32.943  15.666  -5.651  1.00 20.00    -0.366 OA
HETATM    6  O9  UNL     1     -35.213  15.221  -6.178  1.00 20.00    -0.366 OA
ENDROOT
BRANCH   4   7
HETATM    7  C2  UNL     1     -34.790  15.914  -3.246  1.00 20.00    -0.085 C 
HETATM    8  C1  UNL     1     -36.069  16.316  -3.199  1.00 20.00     0.014 C 
HETATM    9  C7  UNL     1     -33.689  16.697  -2.593  1.00 20.00     0.043 C 
ENDBRANCH   4   7
TORSDOF 1
ENDMDL
MODEL 7
REMARK VINA RESULT:      -3.6     12.286     13.197
REMARK  1 active torsions:
REMARK  status: ('A' for Active; 'I' for Inactive)
REMARK    1  A    between atoms: C2_2  and  C6_6 
ROOT
HETATM    1  C3  UNL     1     -36.260  14.065  -5.427  1.00 20.00     0.181 C 
HETATM    2  C4  UNL     1     -34.901  15.107  -7.260  1.00 20.00     0.181 C 
HETATM    3  C5  UNL     1     -35.165  12.780  -7.062  1.00 20.00     0.337 C 
HETATM    4  C6  UNL     1     -35.418  15.281  -5.828  1.00 20.00     0.061 C 
HETATM    5  O8  UNL     1     -35.562  12.848  -5.695  1.00 20.00    -0.366 OA
HETATM    6  O9  UNL     1     -34.278  13.833  -7.429  1.00 20.00    -0.366 OA
ENDROOT
BRANCH   4   7
HETATM    7  C2  UNL     1     -34.276  15.479  -4.870  1.00 20.00    -0.085 C 
HETATM    8  C1  UNL     1     -33.010  15.609  -5.293  1.00 20.00     0.014 C 
HETATM    9  C7  UNL     1     -34.635  15.523  -3.414  1.00 20.00     0.043 C 
ENDBRANCH   4   7
TORSDOF 1
ENDMDL
MODEL 8
REMARK VINA RESULT:      -3.5     11.932     12.722
REMARK  1 active torsions:
REMARK  status: ('A' for Active; 'I' for Inactive)
REMARK    1  A    between atoms: C2_2  and  C6_6 
ROOT
HETATM    1  C3  UNL     1     -35.817  15.861  -5.181  1.00 20.00     0.181 C 
HETATM    2  C4  UNL     1     -34.607  13.941  -6.251  1.00 20.00     0.181 C 
HETATM    3  C5  UNL     1     -36.713  13.690  -5.238  1.00 20.00     0.337 C 
HETATM    4  C6  UNL     1     -34.442  15.296  -5.554  1.00 20.00     0.061 C 
HETATM    5  O8  UNL     1     -36.596  14.890  -4.480  1.00 20.00    -0.366 OA
HETATM    6  O9  UNL     1     -35.453  13.075  -5.492  1.00 20.00    -0.366 OA
ENDROOT
BRANCH   4   7
HETATM    7  C2  UNL     1     -33.569  15.166  -4.337  1.00 20.00    -0.085 C 
HETATM    8  C1  UNL     1     -32.663  14.185  -4.215  1.00 20.00     0.014 C 
HETATM    9  C7  UNL     1     -33.770  16.198  -3.266  1.00 20.00     0.043 C 
ENDBRANCH   4   7
TORSDOF 1
ENDMDL
MODEL 9
REMARK VINA RESULT:      -3.5     12.867     13.450
REMARK  1 active torsions:
REMARK  status: ('A' for Active; 'I' for Inactive)
REMARK    1  A    between atoms: C2_2  and  C6_6 
ROOT
HETATM    1  C3  UNL     1     -33.370  16.049  -4.460  1.00 20.00     0.181 C 
HETATM    2  C4  UNL     1     -35.792  15.511  -4.082  1.00 20.00     0.181 C 
HETATM    3  C5  UNL     1     -35.074  16.903  -5.835  1.00 20.00     0.337 C 
HETATM    4  C6  UNL     1     -34.420  15.657  -3.414  1.00 20.00     0.061 C 
HETATM    5  O8  UNL     1     -33.810  17.167  -5.232  1.00 20.00    -0.366 OA
HETATM    6  O9  UNL     1     -36.099  16.658  -4.875  1.00 20.00    -0.366 OA
ENDROOT
BRANCH   4   7
HETATM    7  C2  UNL     1     -34.472  16.670  -2.305  1.00 20.00    -0.085 C 
HETATM    8  C1  UNL     1     -35.592  16.895  -1.602  1.00 20.00     0.014 C 
HETATM    9  C7  UNL     1     -33.199  17.414  -2.028  1.00 20.00     0.043 C 
ENDBRANCH   4   7
TORSDOF 1
ENDMDL
