MODEL 1
REMARK VINA RESULT:      -4.6      0.000      0.000
REMARK  2 active torsions:
REMARK  status: ('A' for Active; 'I' for Inactive)
REMARK    1  A    between atoms: C5_5  and  C6_6 
REMARK    2  A    between atoms: C5_5  and  O8_8 
ROOT
HETATM    1  C1  UNL     1     -32.302   8.082   2.465  1.00 20.00     0.228 C 
HETATM    2  N7  UNL     1     -32.117   8.756   1.539  1.00 20.00    -0.164 NA
HETATM    3  O8  UNL     1     -32.510   7.315   3.534  1.00 20.00    -0.283 OA
ENDROOT
BRANCH   3   4
HETATM    4  C5  UNL     1     -33.201   6.128   3.167  1.00 20.00     0.198 C 
BRANCH   4   5
HETATM    5  C6  UNL     1     -34.290   5.779   4.203  1.00 20.00    -0.029 C 
HETATM    6  C2  UNL     1     -34.240   4.280   4.543  1.00 20.00     0.016 C 
HETATM    7  C3  UNL     1     -35.667   6.120   3.613  1.00 20.00     0.016 C 
HETATM    8  C4  UNL     1     -34.077   6.590   5.492  1.00 20.00     0.016 C 
ENDBRANCH   4   5
ENDBRANCH   3   4
TORSDOF 2
ENDMDL
MODEL 2
REMARK VINA RESULT:      -4.6      0.024      1.533
REMARK  2 active torsions:
REMARK  status: ('A' for Active; 'I' for Inactive)
REMARK    1  A    between atoms: C5_5  and  C6_6 
REMARK    2  A    between atoms: C5_5  and  O8_8 
ROOT
HETATM    1  C1  UNL     1     -32.302   8.085   2.484  1.00 20.00     0.228 C 
HETATM    2  N7  UNL     1     -32.136   8.772   1.564  1.00 20.00    -0.164 NA
HETATM    3  O8  UNL     1     -32.488   7.304   3.547  1.00 20.00    -0.283 OA
ENDROOT
BRANCH   3   4
HETATM    4  C5  UNL     1     -33.181   6.119   3.176  1.00 20.00     0.198 C 
BRANCH   4   5
HETATM    5  C6  UNL     1     -34.290   5.785   4.194  1.00 20.00    -0.029 C 
HETATM    6  C2  UNL     1     -35.671   6.126   3.608  1.00 20.00     0.016 C 
HETATM    7  C3  UNL     1     -34.063   6.610   5.469  1.00 20.00     0.016 C 
HETATM    8  C4  UNL     1     -34.256   4.288   4.547  1.00 20.00     0.016 C 
ENDBRANCH   4   5
ENDBRANCH   3   4
TORSDOF 2
ENDMDL
MODEL 3
REMARK VINA RESULT:      -4.5      0.030      1.530
REMARK  2 active torsions:
REMARK  status: ('A' for Active; 'I' for Inactive)
REMARK    1  A    between atoms: C5_5  and  C6_6 
REMARK    2  A    between atoms: C5_5  and  O8_8 
ROOT
HETATM    1  C1  UNL     1     -32.318   8.074   2.437  1.00 20.00     0.228 C 
HETATM    2  N7  UNL     1     -32.137   8.744   1.507  1.00 20.00    -0.164 NA
HETATM    3  O8  UNL     1     -32.519   7.313   3.511  1.00 20.00    -0.283 OA
ENDROOT
BRANCH   3   4
HETATM    4  C5  UNL     1     -33.201   6.119   3.152  1.00 20.00     0.198 C 
BRANCH   4   5
HETATM    5  C6  UNL     1     -34.294   5.773   4.185  1.00 20.00    -0.029 C 
HETATM    6  C2  UNL     1     -34.071   6.569   5.482  1.00 20.00     0.016 C 
HETATM    7  C3  UNL     1     -34.229   4.270   4.496  1.00 20.00     0.016 C 
HETATM    8  C4  UNL     1     -35.684   6.115   3.623  1.00 20.00     0.016 C 
ENDBRANCH   4   5
ENDBRANCH   3   4
TORSDOF 2
ENDMDL
MODEL 4
REMARK VINA RESULT:      -3.7      2.436      4.735
REMARK  2 active torsions:
REMARK  status: ('A' for Active; 'I' for Inactive)
REMARK    1  A    between atoms: C5_5  and  C6_6 
REMARK    2  A    between atoms: C5_5  and  O8_8 
ROOT
HETATM    1  C1  UNL     1     -33.067   6.413   2.869  1.00 20.00     0.228 C 
HETATM    2  N7  UNL     1     -33.633   5.451   3.185  1.00 20.00    -0.164 NA
HETATM    3  O8  UNL     1     -32.408   7.514   2.512  1.00 20.00    -0.283 OA
ENDROOT
BRANCH   3   4
HETATM    4  C5  UNL     1     -33.284   8.429   1.867  1.00 20.00     0.198 C 
BRANCH   4   5
HETATM    5  C6  UNL     1     -32.518   9.312   0.859  1.00 20.00    -0.029 C 
HETATM    6  C2  UNL     1     -32.421  10.755   1.383  1.00 20.00     0.016 C 
HETATM    7  C3  UNL     1     -33.271   9.308  -0.480  1.00 20.00     0.016 C 
HETATM    8  C4  UNL     1     -31.098   8.763   0.644  1.00 20.00     0.016 C 
ENDBRANCH   4   5
ENDBRANCH   3   4
TORSDOF 2
ENDMDL
MODEL 5
REMARK VINA RESULT:      -3.7      2.554      4.714
REMARK  2 active torsions:
REMARK  status: ('A' for Active; 'I' for Inactive)
REMARK    1  A    between atoms: C5_5  and  C6_6 
REMARK    2  A    between atoms: C5_5  and  O8_8 
ROOT
HETATM    1  C1  UNL     1     -32.912   7.519   3.952  1.00 20.00     0.228 C 
HETATM    2  N7  UNL     1     -33.454   7.250   4.942  1.00 20.00    -0.164 NA
HETATM    3  O8  UNL     1     -32.280   7.827   2.820  1.00 20.00    -0.283 OA
ENDROOT
BRANCH   3   4
HETATM    4  C5  UNL     1     -33.201   8.323   1.857  1.00 20.00     0.198 C 
BRANCH   4   5
HETATM    5  C6  UNL     1     -32.498   9.255   0.849  1.00 20.00    -0.029 C 
HETATM    6  C2  UNL     1     -31.047   8.798   0.623  1.00 20.00     0.016 C 
HETATM    7  C3  UNL     1     -32.498  10.686   1.408  1.00 20.00     0.016 C 
HETATM    8  C4  UNL     1     -33.240   9.238  -0.498  1.00 20.00     0.016 C 
ENDBRANCH   4   5
ENDBRANCH   3   4
TORSDOF 2
ENDMDL
MODEL 6
REMARK VINA RESULT:      -3.4      2.655      3.880
REMARK  2 active torsions:
REMARK  status: ('A' for Active; 'I' for Inactive)
REMARK    1  A    between atoms: C5_5  and  C6_6 
REMARK    2  A    between atoms: C5_5  and  O8_8 
ROOT
HETATM    1  C1  UNL     1     -34.199   6.132   5.572  1.00 20.00     0.228 C 
HETATM    2  N7  UNL     1     -34.705   5.125   5.848  1.00 20.00    -0.164 NA
HETATM    3  O8  UNL     1     -33.613   7.288   5.266  1.00 20.00    -0.283 OA
ENDROOT
BRANCH   3   4
HETATM    4  C5  UNL     1     -33.957   7.684   3.945  1.00 20.00     0.198 C 
BRANCH   4   5
HETATM    5  C6  UNL     1     -32.736   7.600   3.006  1.00 20.00    -0.029 C 
HETATM    6  C2  UNL     1     -32.937   8.516   1.787  1.00 20.00     0.016 C 
HETATM    7  C3  UNL     1     -32.573   6.149   2.528  1.00 20.00     0.016 C 
HETATM    8  C4  UNL     1     -31.462   8.034   3.750  1.00 20.00     0.016 C 
ENDBRANCH   4   5
ENDBRANCH   3   4
TORSDOF 2
ENDMDL
MODEL 7
REMARK VINA RESULT:      -3.4      2.647      3.878
REMARK  2 active torsions:
REMARK  status: ('A' for Active; 'I' for Inactive)
REMARK    1  A    between atoms: C5_5  and  C6_6 
REMARK    2  A    between atoms: C5_5  and  O8_8 
ROOT
HETATM    1  C1  UNL     1     -34.217   6.102   5.542  1.00 20.00     0.228 C 
HETATM    2  N7  UNL     1     -34.711   5.082   5.792  1.00 20.00    -0.164 NA
HETATM    3  O8  UNL     1     -33.646   7.274   5.267  1.00 20.00    -0.283 OA
ENDROOT
BRANCH   3   4
HETATM    4  C5  UNL     1     -33.975   7.687   3.947  1.00 20.00     0.198 C 
BRANCH   4   5
HETATM    5  C6  UNL     1     -32.751   7.586   3.014  1.00 20.00    -0.029 C 
HETATM    6  C2  UNL     1     -32.560   6.135   2.541  1.00 20.00     0.016 C 
HETATM    7  C3  UNL     1     -31.499   8.037   3.782  1.00 20.00     0.016 C 
HETATM    8  C4  UNL     1     -32.943   8.489   1.784  1.00 20.00     0.016 C 
ENDBRANCH   4   5
ENDBRANCH   3   4
TORSDOF 2
ENDMDL
MODEL 8
REMARK VINA RESULT:      -3.3     11.608     12.222
REMARK  2 active torsions:
REMARK  status: ('A' for Active; 'I' for Inactive)
REMARK    1  A    between atoms: C5_5  and  C6_6 
REMARK    2  A    between atoms: C5_5  and  O8_8 
ROOT
HETATM    1  C1  UNL     1     -35.305  13.854  -5.179  1.00 20.00     0.228 C 
HETATM    2  N7  UNL     1     -35.914  12.869  -5.243  1.00 20.00    -0.164 NA
HETATM    3  O8  UNL     1     -34.607  14.987  -5.117  1.00 20.00    -0.283 OA
ENDROOT
BRANCH   3   4
HETATM    4  C5  UNL     1     -34.121  15.199  -3.798  1.00 20.00     0.198 C 
BRANCH   4   5
HETATM    5  C6  UNL     1     -34.504  16.602  -3.285  1.00 20.00    -0.029 C 
HETATM    6  C2  UNL     1     -35.934  16.590  -2.719  1.00 20.00     0.016 C 
HETATM    7  C3  UNL     1     -34.430  17.598  -4.452  1.00 20.00     0.016 C 
HETATM    8  C4  UNL     1     -33.534  17.047  -2.178  1.00 20.00     0.016 C 
ENDBRANCH   4   5
ENDBRANCH   3   4
TORSDOF 2
ENDMDL
MODEL 9
REMARK VINA RESULT:      -3.3     11.630     12.307
REMARK  2 active torsions:
REMARK  status: ('A' for Active; 'I' for Inactive)
REMARK    1  A    between atoms: C5_5  and  C6_6 
REMARK    2  A    between atoms: C5_5  and  O8_8 
ROOT
HETATM    1  C1  UNL     1     -35.380  13.882  -5.143  1.00 20.00     0.228 C 
HETATM    2  N7  UNL     1     -35.895  12.845  -5.221  1.00 20.00    -0.164 NA
HETATM    3  O8  UNL     1     -34.791  15.074  -5.064  1.00 20.00    -0.283 OA
ENDROOT
BRANCH   3   4
HETATM    4  C5  UNL     1     -34.230  15.266  -3.772  1.00 20.00     0.198 C 
BRANCH   4   5
HETATM    5  C6  UNL     1     -34.558  16.672  -3.229  1.00 20.00    -0.029 C 
HETATM    6  C2  UNL     1     -34.496  17.708  -4.363  1.00 20.00     0.016 C 
HETATM    7  C3  UNL     1     -33.531  17.042  -2.147  1.00 20.00     0.016 C 
HETATM    8  C4  UNL     1     -35.968  16.689  -2.615  1.00 20.00     0.016 C 
ENDBRANCH   4   5
ENDBRANCH   3   4
TORSDOF 2
ENDMDL
