MODEL 1
REMARK VINA RESULT:      -5.2      0.000      0.000
REMARK  2 active torsions:
REMARK  status: ('A' for Active; 'I' for Inactive)
REMARK    1  A    between atoms: C1_1  and  C2_2 
REMARK    2  A    between atoms: C2_2  and  C3_3 
ROOT
HETATM    1  C2  UNL     1     -34.019   7.043   4.254  1.00 20.00     0.218 C 
HETATM    2 CL8  UNL     1     -33.435   7.424   5.901  1.00 20.00    -0.113 Cl
ENDROOT
BRANCH   1   3
HETATM    3  C1  UNL     1     -32.846   7.041   3.285  1.00 20.00     0.251 C 
HETATM    4  F4  UNL     1     -31.861   7.854   3.748  1.00 20.00    -0.254 F 
ENDBRANCH   1   3
BRANCH   1   5
HETATM    5  C3  UNL     1     -34.752   5.715   4.272  1.00 20.00     0.406 C 
HETATM    6  F5  UNL     1     -35.967   5.830   3.689  1.00 20.00    -0.169 F 
HETATM    7  F6  UNL     1     -34.943   5.257   5.528  1.00 20.00    -0.169 F 
HETATM    8  F7  UNL     1     -34.069   4.771   3.588  1.00 20.00    -0.169 F 
ENDBRANCH   1   5
TORSDOF 2
ENDMDL
MODEL 2
REMARK VINA RESULT:      -5.2      0.016      1.335
REMARK  2 active torsions:
REMARK  status: ('A' for Active; 'I' for Inactive)
REMARK    1  A    between atoms: C1_1  and  C2_2 
REMARK    2  A    between atoms: C2_2  and  C3_3 
ROOT
HETATM    1  C2  UNL     1     -34.018   7.048   4.244  1.00 20.00     0.218 C 
HETATM    2 CL8  UNL     1     -33.441   7.423   5.894  1.00 20.00    -0.113 Cl
ENDROOT
BRANCH   1   3
HETATM    3  C1  UNL     1     -32.841   7.051   3.279  1.00 20.00     0.251 C 
HETATM    4  F4  UNL     1     -31.852   7.852   3.757  1.00 20.00    -0.254 F 
ENDBRANCH   1   3
BRANCH   1   5
HETATM    5  C3  UNL     1     -34.750   5.720   4.253  1.00 20.00     0.406 C 
HETATM    6  F5  UNL     1     -34.937   5.284   5.520  1.00 20.00    -0.169 F 
HETATM    7  F6  UNL     1     -34.072   4.761   3.586  1.00 20.00    -0.169 F 
HETATM    8  F7  UNL     1     -35.972   5.833   3.686  1.00 20.00    -0.169 F 
ENDBRANCH   1   5
TORSDOF 2
ENDMDL
MODEL 3
REMARK VINA RESULT:      -5.2      0.020      1.336
REMARK  2 active torsions:
REMARK  status: ('A' for Active; 'I' for Inactive)
REMARK    1  A    between atoms: C1_1  and  C2_2 
REMARK    2  A    between atoms: C2_2  and  C3_3 
ROOT
HETATM    1  C2  UNL     1     -34.010   7.053   4.240  1.00 20.00     0.218 C 
HETATM    2 CL8  UNL     1     -33.429   7.426   5.889  1.00 20.00    -0.113 Cl
ENDROOT
BRANCH   1   3
HETATM    3  C1  UNL     1     -32.834   7.038   3.276  1.00 20.00     0.251 C 
HETATM    4  F4  UNL     1     -31.846   7.849   3.737  1.00 20.00    -0.254 F 
ENDBRANCH   1   3
BRANCH   1   5
HETATM    5  C3  UNL     1     -34.759   5.733   4.253  1.00 20.00     0.406 C 
HETATM    6  F5  UNL     1     -34.068   4.783   3.584  1.00 20.00    -0.169 F 
HETATM    7  F6  UNL     1     -35.977   5.835   3.680  1.00 20.00    -0.169 F 
HETATM    8  F7  UNL     1     -34.933   5.285   5.517  1.00 20.00    -0.169 F 
ENDBRANCH   1   5
TORSDOF 2
ENDMDL
MODEL 4
REMARK VINA RESULT:      -5.2      1.853      2.706
REMARK  2 active torsions:
REMARK  status: ('A' for Active; 'I' for Inactive)
REMARK    1  A    between atoms: C1_1  and  C2_2 
REMARK    2  A    between atoms: C2_2  and  C3_3 
ROOT
HETATM    1  C2  UNL     1     -34.381   6.117   4.317  1.00 20.00     0.218 C 
HETATM    2 CL8  UNL     1     -34.576   4.638   5.303  1.00 20.00    -0.113 Cl
ENDROOT
BRANCH   1   3
HETATM    3  C1  UNL     1     -33.705   7.198   5.148  1.00 20.00     0.251 C 
HETATM    4  F4  UNL     1     -34.168   7.158   6.425  1.00 20.00    -0.254 F 
ENDBRANCH   1   3
BRANCH   1   5
HETATM    5  C3  UNL     1     -33.601   5.787   3.058  1.00 20.00     0.406 C 
HETATM    6  F5  UNL     1     -32.467   6.521   2.991  1.00 20.00    -0.169 F 
HETATM    7  F6  UNL     1     -34.316   6.033   1.940  1.00 20.00    -0.169 F 
HETATM    8  F7  UNL     1     -33.236   4.486   3.038  1.00 20.00    -0.169 F 
ENDBRANCH   1   5
TORSDOF 2
ENDMDL
MODEL 5
REMARK VINA RESULT:      -5.0      1.801      2.293
REMARK  2 active torsions:
REMARK  status: ('A' for Active; 'I' for Inactive)
REMARK    1  A    between atoms: C1_1  and  C2_2 
REMARK    2  A    between atoms: C2_2  and  C3_3 
ROOT
HETATM    1  C2  UNL     1     -33.565   6.145   4.328  1.00 20.00     0.218 C 
HETATM    2 CL8  UNL     1     -33.393   6.461   2.577  1.00 20.00    -0.113 Cl
ENDROOT
BRANCH   1   3
HETATM    3  C1  UNL     1     -33.692   7.465   5.074  1.00 20.00     0.251 C 
HETATM    4  F4  UNL     1     -33.244   7.321   6.350  1.00 20.00    -0.254 F 
ENDBRANCH   1   3
BRANCH   1   5
HETATM    5  C3  UNL     1     -34.755   5.234   4.564  1.00 20.00     0.406 C 
HETATM    6  F5  UNL     1     -34.496   3.983   4.120  1.00 20.00    -0.169 F 
HETATM    7  F6  UNL     1     -35.863   5.672   3.929  1.00 20.00    -0.169 F 
HETATM    8  F7  UNL     1     -35.043   5.139   5.881  1.00 20.00    -0.169 F 
ENDBRANCH   1   5
TORSDOF 2
ENDMDL
MODEL 6
REMARK VINA RESULT:      -5.0      1.908      3.137
REMARK  2 active torsions:
REMARK  status: ('A' for Active; 'I' for Inactive)
REMARK    1  A    between atoms: C1_1  and  C2_2 
REMARK    2  A    between atoms: C2_2  and  C3_3 
ROOT
HETATM    1  C2  UNL     1     -33.991   7.185   4.055  1.00 20.00     0.218 C 
HETATM    2 CL8  UNL     1     -35.044   5.751   3.875  1.00 20.00    -0.113 Cl
ENDROOT
BRANCH   1   3
HETATM    3  C1  UNL     1     -33.546   7.313   5.504  1.00 20.00     0.251 C 
HETATM    4  F4  UNL     1     -34.340   6.550   6.302  1.00 20.00    -0.254 F 
ENDBRANCH   1   3
BRANCH   1   5
HETATM    5  C3  UNL     1     -32.817   7.074   3.101  1.00 20.00     0.406 C 
HETATM    6  F5  UNL     1     -33.069   7.739   1.951  1.00 20.00    -0.169 F 
HETATM    7  F6  UNL     1     -32.543   5.791   2.780  1.00 20.00    -0.169 F 
HETATM    8  F7  UNL     1     -31.700   7.613   3.638  1.00 20.00    -0.169 F 
ENDBRANCH   1   5
TORSDOF 2
ENDMDL
MODEL 7
REMARK VINA RESULT:      -4.8      1.804      2.287
REMARK  2 active torsions:
REMARK  status: ('A' for Active; 'I' for Inactive)
REMARK    1  A    between atoms: C1_1  and  C2_2 
REMARK    2  A    between atoms: C2_2  and  C3_3 
ROOT
HETATM    1  C2  UNL     1     -33.347   6.533   4.227  1.00 20.00     0.218 C 
HETATM    2 CL8  UNL     1     -32.756   7.795   3.107  1.00 20.00    -0.113 Cl
ENDROOT
BRANCH   1   3
HETATM    3  C1  UNL     1     -33.931   7.189   5.470  1.00 20.00     0.251 C 
HETATM    4  F4  UNL     1     -34.426   6.238   6.306  1.00 20.00    -0.254 F 
ENDBRANCH   1   3
BRANCH   1   5
HETATM    5  C3  UNL     1     -34.356   5.655   3.512  1.00 20.00     0.406 C 
HETATM    6  F5  UNL     1     -34.143   5.669   2.177  1.00 20.00    -0.169 F 
HETATM    7  F6  UNL     1     -35.626   6.060   3.729  1.00 20.00    -0.169 F 
HETATM    8  F7  UNL     1     -34.258   4.369   3.919  1.00 20.00    -0.169 F 
ENDBRANCH   1   5
TORSDOF 2
ENDMDL
MODEL 8
REMARK VINA RESULT:      -4.8      1.774      2.193
REMARK  2 active torsions:
REMARK  status: ('A' for Active; 'I' for Inactive)
REMARK    1  A    between atoms: C1_1  and  C2_2 
REMARK    2  A    between atoms: C2_2  and  C3_3 
ROOT
HETATM    1  C2  UNL     1     -33.446   5.860   3.915  1.00 20.00     0.218 C 
HETATM    2 CL8  UNL     1     -33.001   4.805   2.542  1.00 20.00    -0.113 Cl
ENDROOT
BRANCH   1   3
HETATM    3  C1  UNL     1     -33.555   7.300   3.436  1.00 20.00     0.251 C 
HETATM    4  F4  UNL     1     -32.537   7.583   2.581  1.00 20.00    -0.254 F 
ENDBRANCH   1   3
BRANCH   1   5
HETATM    5  C3  UNL     1     -34.735   5.362   4.540  1.00 20.00     0.406 C 
HETATM    6  F5  UNL     1     -34.798   4.012   4.497  1.00 20.00    -0.169 F 
HETATM    7  F6  UNL     1     -35.826   5.843   3.905  1.00 20.00    -0.169 F 
HETATM    8  F7  UNL     1     -34.819   5.726   5.839  1.00 20.00    -0.169 F 
ENDBRANCH   1   5
TORSDOF 2
ENDMDL
MODEL 9
REMARK VINA RESULT:      -4.8      1.762      2.104
REMARK  2 active torsions:
REMARK  status: ('A' for Active; 'I' for Inactive)
REMARK    1  A    between atoms: C1_1  and  C2_2 
REMARK    2  A    between atoms: C2_2  and  C3_3 
ROOT
HETATM    1  C2  UNL     1     -33.451   5.873   3.906  1.00 20.00     0.218 C 
HETATM    2 CL8  UNL     1     -32.995   4.822   2.533  1.00 20.00    -0.113 Cl
ENDROOT
BRANCH   1   3
HETATM    3  C1  UNL     1     -33.594   7.308   3.423  1.00 20.00     0.251 C 
HETATM    4  F4  UNL     1     -32.492   7.672   2.717  1.00 20.00    -0.254 F 
ENDBRANCH   1   3
BRANCH   1   5
HETATM    5  C3  UNL     1     -34.725   5.350   4.543  1.00 20.00     0.406 C 
HETATM    6  F5  UNL     1     -34.803   5.727   5.839  1.00 20.00    -0.169 F 
HETATM    7  F6  UNL     1     -34.796   4.002   4.504  1.00 20.00    -0.169 F 
HETATM    8  F7  UNL     1     -35.819   5.840   3.917  1.00 20.00    -0.169 F 
ENDBRANCH   1   5
TORSDOF 2
ENDMDL
