MODEL 1
REMARK VINA RESULT:      -4.5      0.000      0.000
REMARK  0 active torsions:
REMARK  status: ('A' for Active; 'I' for Inactive)
ROOT
HETATM    1  C1  UNL     1     -35.691  13.683  -6.059  1.00 20.00     0.141 C 
HETATM    2  C2  UNL     1     -35.221  13.193  -7.414  1.00 20.00     0.079 C 
HETATM    3  C3  UNL     1     -34.043  14.016  -7.918  1.00 20.00     0.008 C 
HETATM    4  C4  UNL     1     -34.305  15.524  -7.834  1.00 20.00     0.017 C 
HETATM    5  C5  UNL     1     -35.178  15.566  -3.305  1.00 20.00     0.085 C 
HETATM    6  C6  UNL     1     -34.060  16.480  -3.771  1.00 20.00     0.084 C 
HETATM    7  C7  UNL     1     -35.956  15.181  -5.970  1.00 20.00     0.130 C 
HETATM    8  C8  UNL     1     -34.738  15.993  -6.430  1.00 20.00     0.068 C 
HETATM    9  O9  UNL     1     -35.918  12.887  -5.149  1.00 20.00    -0.297 OA
HETATM   10  S10 UNL     1     -36.651  15.672  -4.361  1.00 20.00    -0.155 SA
HETATM   11  S11 UNL     1     -33.293  15.888  -5.302  1.00 20.00    -0.162 SA
ENDROOT
TORSDOF 0
ENDMDL
MODEL 2
REMARK VINA RESULT:      -4.2      1.958      3.261
REMARK  0 active torsions:
REMARK  status: ('A' for Active; 'I' for Inactive)
ROOT
HETATM    1  C1  UNL     1     -34.956  13.695  -5.172  1.00 20.00     0.141 C 
HETATM    2  C2  UNL     1     -34.105  14.017  -3.960  1.00 20.00     0.079 C 
HETATM    3  C3  UNL     1     -33.808  15.508  -3.877  1.00 20.00     0.008 C 
HETATM    4  C4  UNL     1     -33.282  16.074  -5.201  1.00 20.00     0.017 C 
HETATM    5  C5  UNL     1     -36.911  14.740  -7.718  1.00 20.00     0.085 C 
HETATM    6  C6  UNL     1     -36.595  16.224  -7.749  1.00 20.00     0.084 C 
HETATM    7  C7  UNL     1     -34.438  14.253  -6.492  1.00 20.00     0.130 C 
HETATM    8  C8  UNL     1     -34.197  15.766  -6.404  1.00 20.00     0.068 C 
HETATM    9  O9  UNL     1     -35.936  12.959  -5.072  1.00 20.00    -0.297 OA
HETATM   10  S10 UNL     1     -35.430  13.709  -7.917  1.00 20.00    -0.155 SA
HETATM   11  S11 UNL     1     -35.730  16.765  -6.251  1.00 20.00    -0.162 SA
ENDROOT
TORSDOF 0
ENDMDL
MODEL 3
REMARK VINA RESULT:      -4.1      1.840      4.091
REMARK  0 active torsions:
REMARK  status: ('A' for Active; 'I' for Inactive)
ROOT
HETATM    1  C1  UNL     1     -33.511  15.978  -4.994  1.00 20.00     0.141 C 
HETATM    2  C2  UNL     1     -33.719  16.477  -3.578  1.00 20.00     0.079 C 
HETATM    3  C3  UNL     1     -34.992  15.901  -2.973  1.00 20.00     0.008 C 
HETATM    4  C4  UNL     1     -36.204  16.065  -3.897  1.00 20.00     0.017 C 
HETATM    5  C5  UNL     1     -34.327  13.843  -7.478  1.00 20.00     0.085 C 
HETATM    6  C6  UNL     1     -35.648  13.289  -6.976  1.00 20.00     0.084 C 
HETATM    7  C7  UNL     1     -34.712  16.140  -5.919  1.00 20.00     0.130 C 
HETATM    8  C8  UNL     1     -35.972  15.505  -5.315  1.00 20.00     0.068 C 
HETATM    9  O9  UNL     1     -32.412  15.563  -5.358  1.00 20.00    -0.297 OA
HETATM   10  S10 UNL     1     -34.343  15.652  -7.633  1.00 20.00    -0.155 SA
HETATM   11  S11 UNL     1     -35.922  13.671  -5.226  1.00 20.00    -0.162 SA
ENDROOT
TORSDOF 0
ENDMDL
MODEL 4
REMARK VINA RESULT:      -4.0      1.992      3.137
REMARK  0 active torsions:
REMARK  status: ('A' for Active; 'I' for Inactive)
ROOT
HETATM    1  C1  UNL     1     -34.968  14.086  -5.050  1.00 20.00     0.141 C 
HETATM    2  C2  UNL     1     -33.623  14.413  -4.432  1.00 20.00     0.079 C 
HETATM    3  C3  UNL     1     -33.669  15.738  -3.683  1.00 20.00     0.008 C 
HETATM    4  C4  UNL     1     -34.281  16.864  -4.524  1.00 20.00     0.017 C 
HETATM    5  C5  UNL     1     -38.278  14.699  -5.311  1.00 20.00     0.085 C 
HETATM    6  C6  UNL     1     -38.383  16.062  -4.653  1.00 20.00     0.084 C 
HETATM    7  C7  UNL     1     -35.581  15.201  -5.889  1.00 20.00     0.130 C 
HETATM    8  C8  UNL     1     -35.669  16.513  -5.098  1.00 20.00     0.068 C 
HETATM    9  O9  UNL     1     -35.455  12.963  -4.934  1.00 20.00    -0.297 OA
HETATM   10  S10 UNL     1     -37.122  14.688  -6.711  1.00 20.00    -0.155 SA
HETATM   11  S11 UNL     1     -36.886  16.485  -3.724  1.00 20.00    -0.162 SA
ENDROOT
TORSDOF 0
ENDMDL
MODEL 5
REMARK VINA RESULT:      -3.9      1.497      1.732
REMARK  0 active torsions:
REMARK  status: ('A' for Active; 'I' for Inactive)
ROOT
HETATM    1  C1  UNL     1     -35.275  14.067  -4.781  1.00 20.00     0.141 C 
HETATM    2  C2  UNL     1     -35.829  13.297  -5.963  1.00 20.00     0.079 C 
HETATM    3  C3  UNL     1     -35.777  14.131  -7.236  1.00 20.00     0.008 C 
HETATM    4  C4  UNL     1     -36.374  15.530  -7.043  1.00 20.00     0.017 C 
HETATM    5  C5  UNL     1     -33.577  16.723  -3.574  1.00 20.00     0.085 C 
HETATM    6  C6  UNL     1     -33.564  17.644  -4.780  1.00 20.00     0.084 C 
HETATM    7  C7  UNL     1     -35.866  15.458  -4.582  1.00 20.00     0.130 C 
HETATM    8  C8  UNL     1     -35.755  16.301  -5.859  1.00 20.00     0.068 C 
HETATM    9  O9  UNL     1     -34.475  13.541  -4.009  1.00 20.00    -0.297 OA
HETATM   10  S10 UNL     1     -35.259  16.263  -3.067  1.00 20.00    -0.155 SA
HETATM   11  S11 UNL     1     -34.037  16.778  -6.300  1.00 20.00    -0.162 SA
ENDROOT
TORSDOF 0
ENDMDL
MODEL 6
REMARK VINA RESULT:      -3.8      1.979      3.640
REMARK  0 active torsions:
REMARK  status: ('A' for Active; 'I' for Inactive)
ROOT
HETATM    1  C1  UNL     1     -36.059  15.867  -3.769  1.00 20.00     0.141 C 
HETATM    2  C2  UNL     1     -35.030  16.206  -2.709  1.00 20.00     0.079 C 
HETATM    3  C3  UNL     1     -33.632  16.289  -3.307  1.00 20.00     0.008 C 
HETATM    4  C4  UNL     1     -33.291  15.066  -4.167  1.00 20.00     0.017 C 
HETATM    5  C5  UNL     1     -36.883  15.527  -7.025  1.00 20.00     0.085 C 
HETATM    6  C6  UNL     1     -35.514  15.514  -7.680  1.00 20.00     0.084 C 
HETATM    7  C7  UNL     1     -35.727  14.651  -4.626  1.00 20.00     0.130 C 
HETATM    8  C8  UNL     1     -34.337  14.779  -5.263  1.00 20.00     0.068 C 
HETATM    9  O9  UNL     1     -37.114  16.494  -3.842  1.00 20.00    -0.297 OA
HETATM   10  S10 UNL     1     -37.070  14.222  -5.777  1.00 20.00    -0.155 SA
HETATM   11  S11 UNL     1     -34.216  16.082  -6.551  1.00 20.00    -0.162 SA
ENDROOT
TORSDOF 0
ENDMDL
MODEL 7
REMARK VINA RESULT:      -3.8      2.349      2.890
REMARK  0 active torsions:
REMARK  status: ('A' for Active; 'I' for Inactive)
ROOT
HETATM    1  C1  UNL     1     -36.981  14.399  -5.115  1.00 20.00     0.141 C 
HETATM    2  C2  UNL     1     -35.775  13.482  -5.066  1.00 20.00     0.079 C 
HETATM    3  C3  UNL     1     -34.641  14.107  -4.264  1.00 20.00     0.008 C 
HETATM    4  C4  UNL     1     -34.338  15.544  -4.703  1.00 20.00     0.017 C 
HETATM    5  C5  UNL     1     -38.610  17.130  -3.982  1.00 20.00     0.085 C 
HETATM    6  C6  UNL     1     -37.503  17.852  -3.237  1.00 20.00     0.084 C 
HETATM    7  C7  UNL     1     -36.687  15.829  -5.553  1.00 20.00     0.130 C 
HETATM    8  C8  UNL     1     -35.580  16.459  -4.697  1.00 20.00     0.068 C 
HETATM    9  O9  UNL     1     -38.110  13.962  -4.899  1.00 20.00    -0.297 OA
HETATM   10  S10 UNL     1     -38.197  16.830  -5.725  1.00 20.00    -0.155 SA
HETATM   11  S11 UNL     1     -36.066  16.784  -2.956  1.00 20.00    -0.162 SA
ENDROOT
TORSDOF 0
ENDMDL
MODEL 8
REMARK VINA RESULT:      -3.8      2.357      3.822
REMARK  0 active torsions:
REMARK  status: ('A' for Active; 'I' for Inactive)
ROOT
HETATM    1  C1  UNL     1     -36.337  16.202  -3.911  1.00 20.00     0.141 C 
HETATM    2  C2  UNL     1     -35.090  16.288  -3.054  1.00 20.00     0.079 C 
HETATM    3  C3  UNL     1     -33.923  15.559  -3.706  1.00 20.00     0.008 C 
HETATM    4  C4  UNL     1     -34.297  14.143  -4.157  1.00 20.00     0.017 C 
HETATM    5  C5  UNL     1     -37.795  15.456  -6.862  1.00 20.00     0.085 C 
HETATM    6  C6  UNL     1     -36.706  14.644  -7.539  1.00 20.00     0.084 C 
HETATM    7  C7  UNL     1     -36.716  14.796  -4.361  1.00 20.00     0.130 C 
HETATM    8  C8  UNL     1     -35.543  14.099  -5.065  1.00 20.00     0.068 C 
HETATM    9  O9  UNL     1     -37.017  17.203  -4.131  1.00 20.00    -0.297 OA
HETATM   10  S10 UNL     1     -38.295  14.755  -5.264  1.00 20.00    -0.155 SA
HETATM   11  S11 UNL     1     -35.110  14.818  -6.698  1.00 20.00    -0.162 SA
ENDROOT
TORSDOF 0
ENDMDL
MODEL 9
REMARK VINA RESULT:      -3.8      1.675      3.796
REMARK  0 active torsions:
REMARK  status: ('A' for Active; 'I' for Inactive)
ROOT
HETATM    1  C1  UNL     1     -36.284  15.751  -3.874  1.00 20.00     0.141 C 
HETATM    2  C2  UNL     1     -35.915  16.633  -2.699  1.00 20.00     0.079 C 
HETATM    3  C3  UNL     1     -34.515  17.211  -2.863  1.00 20.00     0.008 C 
HETATM    4  C4  UNL     1     -33.478  16.138  -3.212  1.00 20.00     0.017 C 
HETATM    5  C5  UNL     1     -35.648  14.649  -7.001  1.00 20.00     0.085 C 
HETATM    6  C6  UNL     1     -34.219  15.120  -7.200  1.00 20.00     0.084 C 
HETATM    7  C7  UNL     1     -35.258  14.680  -4.226  1.00 20.00     0.130 C 
HETATM    8  C8  UNL     1     -33.866  15.289  -4.441  1.00 20.00     0.068 C 
HETATM    9  O9  UNL     1     -37.380  15.861  -4.421  1.00 20.00    -0.297 OA
HETATM   10  S10 UNL     1     -35.831  13.572  -5.551  1.00 20.00    -0.155 SA
HETATM   11  S11 UNL     1     -33.723  16.331  -5.946  1.00 20.00    -0.162 SA
ENDROOT
TORSDOF 0
ENDMDL
