MODEL 1
REMARK VINA RESULT:      -4.6      0.000      0.000
REMARK  0 active torsions:
REMARK  status: ('A' for Active; 'I' for Inactive)
ROOT
HETATM    1  C1  UNL     1     -33.962   6.687   5.487  1.00 20.00     0.411 C 
HETATM    2  C2  UNL     1     -34.704   4.782   4.573  1.00 20.00     0.368 C 
HETATM    3  C3  UNL     1     -34.042   5.613   3.507  1.00 20.00     0.199 C 
HETATM    4  C4  UNL     1     -35.034   6.358   2.618  1.00 20.00     0.070 C 
HETATM    5  O5  UNL     1     -33.719   7.544   6.322  1.00 20.00    -0.229 OA
HETATM    6  O6  UNL     1     -34.921   5.718   5.619  1.00 20.00    -0.257 OA
HETATM    7  O7  UNL     1     -33.315   6.561   4.287  1.00 20.00    -0.265 OA
HETATM    8  F8  UNL     1     -33.857   3.842   5.065  1.00 20.00    -0.214 F 
HETATM    9 CL9  UNL     1     -32.921   4.666   2.510  1.00 20.00    -0.082 Cl
ENDROOT
TORSDOF 0
ENDMDL
MODEL 2
REMARK VINA RESULT:      -4.4      2.466      3.232
REMARK  0 active torsions:
REMARK  status: ('A' for Active; 'I' for Inactive)
ROOT
HETATM    1  C1  UNL     1     -32.784   7.975   2.539  1.00 20.00     0.411 C 
HETATM    2  C2  UNL     1     -32.846   5.888   3.346  1.00 20.00     0.368 C 
HETATM    3  C3  UNL     1     -33.954   6.689   3.974  1.00 20.00     0.199 C 
HETATM    4  C4  UNL     1     -33.631   7.164   5.388  1.00 20.00     0.070 C 
HETATM    5  O5  UNL     1     -32.433   8.948   1.889  1.00 20.00    -0.229 OA
HETATM    6  O6  UNL     1     -31.995   6.888   2.805  1.00 20.00    -0.257 OA
HETATM    7  O7  UNL     1     -34.020   7.822   3.108  1.00 20.00    -0.265 OA
HETATM    8  F8  UNL     1     -33.298   5.154   2.298  1.00 20.00    -0.214 F 
HETATM    9 CL9  UNL     1     -35.505   5.828   3.958  1.00 20.00    -0.082 Cl
ENDROOT
TORSDOF 0
ENDMDL
MODEL 3
REMARK VINA RESULT:      -4.4      2.081      2.689
REMARK  0 active torsions:
REMARK  status: ('A' for Active; 'I' for Inactive)
ROOT
HETATM    1  C1  UNL     1     -32.845   7.140   3.272  1.00 20.00     0.411 C 
HETATM    2  C2  UNL     1     -34.066   7.145   5.149  1.00 20.00     0.368 C 
HETATM    3  C3  UNL     1     -34.374   5.896   4.366  1.00 20.00     0.199 C 
HETATM    4  C4  UNL     1     -35.682   5.981   3.583  1.00 20.00     0.070 C 
HETATM    5  O5  UNL     1     -32.047   7.493   2.417  1.00 20.00    -0.229 OA
HETATM    6  O6  UNL     1     -33.426   7.973   4.189  1.00 20.00    -0.257 OA
HETATM    7  O7  UNL     1     -33.285   5.854   3.445  1.00 20.00    -0.265 OA
HETATM    8  F8  UNL     1     -33.154   6.905   6.124  1.00 20.00    -0.214 F 
HETATM    9 CL9  UNL     1     -34.363   4.442   5.380  1.00 20.00    -0.082 Cl
ENDROOT
TORSDOF 0
ENDMDL
MODEL 4
REMARK VINA RESULT:      -4.3     12.509     13.118
REMARK  0 active torsions:
REMARK  status: ('A' for Active; 'I' for Inactive)
ROOT
HETATM    1  C1  UNL     1     -35.207  13.705  -4.992  1.00 20.00     0.411 C 
HETATM    2  C2  UNL     1     -33.306  14.887  -4.974  1.00 20.00     0.368 C 
HETATM    3  C3  UNL     1     -34.391  15.693  -4.312  1.00 20.00     0.199 C 
HETATM    4  C4  UNL     1     -34.983  16.769  -5.220  1.00 20.00     0.070 C 
HETATM    5  O5  UNL     1     -35.991  12.789  -5.188  1.00 20.00    -0.229 OA
HETATM    6  O6  UNL     1     -34.032  13.885  -5.670  1.00 20.00    -0.257 OA
HETATM    7  O7  UNL     1     -35.383  14.698  -4.065  1.00 20.00    -0.265 OA
HETATM    8  F8  UNL     1     -32.539  14.243  -4.057  1.00 20.00    -0.214 F 
HETATM    9 CL9  UNL     1     -33.862  16.411  -2.779  1.00 20.00    -0.082 Cl
ENDROOT
TORSDOF 0
ENDMDL
MODEL 5
REMARK VINA RESULT:      -4.3     12.654     13.393
REMARK  0 active torsions:
REMARK  status: ('A' for Active; 'I' for Inactive)
ROOT
HETATM    1  C1  UNL     1     -35.319  13.747  -4.978  1.00 20.00     0.411 C 
HETATM    2  C2  UNL     1     -33.953  15.162  -3.909  1.00 20.00     0.368 C 
HETATM    3  C3  UNL     1     -34.415  15.800  -5.191  1.00 20.00     0.199 C 
HETATM    4  C4  UNL     1     -33.376  15.733  -6.308  1.00 20.00     0.070 C 
HETATM    5  O5  UNL     1     -35.979  12.749  -5.223  1.00 20.00    -0.229 OA
HETATM    6  O6  UNL     1     -34.266  13.791  -4.104  1.00 20.00    -0.257 OA
HETATM    7  O7  UNL     1     -35.527  14.978  -5.541  1.00 20.00    -0.265 OA
HETATM    8  F8  UNL     1     -34.693  15.583  -2.852  1.00 20.00    -0.214 F 
HETATM    9 CL9  UNL     1     -34.953  17.474  -4.958  1.00 20.00    -0.082 Cl
ENDROOT
TORSDOF 0
ENDMDL
MODEL 6
REMARK VINA RESULT:      -4.2      9.047      9.739
REMARK  0 active torsions:
REMARK  status: ('A' for Active; 'I' for Inactive)
ROOT
HETATM    1  C1  UNL     1     -41.990   7.840  -0.949  1.00 20.00     0.411 C 
HETATM    2  C2  UNL     1     -41.201   6.059   0.156  1.00 20.00     0.368 C 
HETATM    3  C3  UNL     1     -42.704   5.992   0.127  1.00 20.00     0.199 C 
HETATM    4  C4  UNL     1     -43.354   6.442   1.434  1.00 20.00     0.070 C 
HETATM    5  O5  UNL     1     -42.013   8.883  -1.583  1.00 20.00    -0.229 OA
HETATM    6  O6  UNL     1     -40.935   7.411  -0.189  1.00 20.00    -0.257 OA
HETATM    7  O7  UNL     1     -43.018   6.936  -0.896  1.00 20.00    -0.265 OA
HETATM    8  F8  UNL     1     -40.653   5.295  -0.822  1.00 20.00    -0.214 F 
HETATM    9 CL9  UNL     1     -43.302   4.386  -0.331  1.00 20.00    -0.082 Cl
ENDROOT
TORSDOF 0
ENDMDL
MODEL 7
REMARK VINA RESULT:      -4.0     12.706     13.407
REMARK  0 active torsions:
REMARK  status: ('A' for Active; 'I' for Inactive)
ROOT
HETATM    1  C1  UNL     1     -36.242  13.935  -5.117  1.00 20.00     0.411 C 
HETATM    2  C2  UNL     1     -34.029  14.101  -4.823  1.00 20.00     0.368 C 
HETATM    3  C3  UNL     1     -34.411  14.820  -6.089  1.00 20.00     0.199 C 
HETATM    4  C4  UNL     1     -34.124  14.013  -7.352  1.00 20.00     0.070 C 
HETATM    5  O5  UNL     1     -37.410  13.638  -4.920  1.00 20.00    -0.229 OA
HETATM    6  O6  UNL     1     -35.169  13.297  -4.556  1.00 20.00    -0.257 OA
HETATM    7  O7  UNL     1     -35.823  14.952  -5.934  1.00 20.00    -0.265 OA
HETATM    8  F8  UNL     1     -33.909  14.963  -3.782  1.00 20.00    -0.214 F 
HETATM    9 CL9  UNL     1     -33.665  16.425  -6.207  1.00 20.00    -0.082 Cl
ENDROOT
TORSDOF 0
ENDMDL
MODEL 8
REMARK VINA RESULT:      -3.9      2.328      2.765
REMARK  0 active torsions:
REMARK  status: ('A' for Active; 'I' for Inactive)
ROOT
HETATM    1  C1  UNL     1     -33.671   7.098   4.924  1.00 20.00     0.411 C 
HETATM    2  C2  UNL     1     -32.680   7.302   2.927  1.00 20.00     0.368 C 
HETATM    3  C3  UNL     1     -33.662   6.162   2.874  1.00 20.00     0.199 C 
HETATM    4  C4  UNL     1     -33.002   4.791   2.996  1.00 20.00     0.070 C 
HETATM    5  O5  UNL     1     -33.965   7.311   6.091  1.00 20.00    -0.229 OA
HETATM    6  O6  UNL     1     -32.516   7.517   4.321  1.00 20.00    -0.257 OA
HETATM    7  O7  UNL     1     -34.450   6.403   4.038  1.00 20.00    -0.265 OA
HETATM    8  F8  UNL     1     -33.217   8.441   2.420  1.00 20.00    -0.214 F 
HETATM    9 CL9  UNL     1     -34.688   6.220   1.428  1.00 20.00    -0.082 Cl
ENDROOT
TORSDOF 0
ENDMDL
MODEL 9
REMARK VINA RESULT:      -3.9      2.597      3.389
REMARK  0 active torsions:
REMARK  status: ('A' for Active; 'I' for Inactive)
ROOT
HETATM    1  C1  UNL     1     -33.067   5.121   2.744  1.00 20.00     0.411 C 
HETATM    2  C2  UNL     1     -33.471   7.182   3.518  1.00 20.00     0.368 C 
HETATM    3  C3  UNL     1     -34.339   6.201   4.259  1.00 20.00     0.199 C 
HETATM    4  C4  UNL     1     -35.780   6.170   3.756  1.00 20.00     0.070 C 
HETATM    5  O5  UNL     1     -32.580   4.212   2.089  1.00 20.00    -0.229 OA
HETATM    6  O6  UNL     1     -33.048   6.441   2.383  1.00 20.00    -0.257 OA
HETATM    7  O7  UNL     1     -33.711   4.960   3.942  1.00 20.00    -0.265 OA
HETATM    8  F8  UNL     1     -32.352   7.483   4.224  1.00 20.00    -0.214 F 
HETATM    9 CL9  UNL     1     -34.310   6.461   6.013  1.00 20.00    -0.082 Cl
ENDROOT
TORSDOF 0
ENDMDL
