MODEL 1
REMARK VINA RESULT:      -5.4      0.000      0.000
REMARK  0 active torsions:
REMARK  status: ('A' for Active; 'I' for Inactive)
ROOT
HETATM    1  C1  UNL     1     -32.636   8.278   1.921  1.00 20.00    -0.064 A 
HETATM    2  C2  UNL     1     -32.785   9.238   1.036  1.00 20.00    -0.084 C 
HETATM    3  C3  UNL     1     -34.074   6.280   3.889  1.00 20.00     0.002 C 
HETATM    4  C4  UNL     1     -33.761   6.049   2.404  1.00 20.00     0.010 C 
HETATM    5  C5  UNL     1     -33.655   7.731   4.176  1.00 20.00     0.014 C 
HETATM    6  C6  UNL     1     -32.549   6.891   2.144  1.00 20.00     0.028 A 
HETATM    7  C7  UNL     1     -32.455   7.952   3.286  1.00 20.00    -0.013 A 
HETATM    8  C8  UNL     1     -32.802  10.706   1.412  1.00 20.00     0.043 C 
HETATM    9  C9  UNL     1     -32.956   8.970  -0.444  1.00 20.00     0.043 C 
HETATM   10  C10 UNL     1     -31.140   8.199   3.950  1.00 20.00     0.021 C 
ENDROOT
TORSDOF 0
ENDMDL
MODEL 2
REMARK VINA RESULT:      -4.6      1.777      3.493
REMARK  0 active torsions:
REMARK  status: ('A' for Active; 'I' for Inactive)
ROOT
HETATM    1  C1  UNL     1     -33.518   7.064   3.861  1.00 20.00    -0.064 A 
HETATM    2  C2  UNL     1     -32.493   7.600   3.239  1.00 20.00    -0.084 C 
HETATM    3  C3  UNL     1     -34.526   4.728   5.722  1.00 20.00     0.002 C 
HETATM    4  C4  UNL     1     -33.942   6.076   6.167  1.00 20.00     0.010 C 
HETATM    5  C5  UNL     1     -34.396   4.709   4.190  1.00 20.00     0.014 C 
HETATM    6  C6  UNL     1     -34.277   7.013   5.046  1.00 20.00     0.028 A 
HETATM    7  C7  UNL     1     -34.597   6.150   3.785  1.00 20.00    -0.013 A 
HETATM    8  C8  UNL     1     -32.110   7.233   1.820  1.00 20.00     0.043 C 
HETATM    9  C9  UNL     1     -31.594   8.636   3.881  1.00 20.00     0.043 C 
HETATM   10  C10 UNL     1     -35.800   6.474   2.961  1.00 20.00     0.021 C 
ENDROOT
TORSDOF 0
ENDMDL
MODEL 3
REMARK VINA RESULT:      -4.5      9.468     10.532
REMARK  0 active torsions:
REMARK  status: ('A' for Active; 'I' for Inactive)
ROOT
HETATM    1  C1  UNL     1     -34.246  16.176  -3.443  1.00 20.00    -0.064 A 
HETATM    2  C2  UNL     1     -34.019  15.031  -4.048  1.00 20.00    -0.084 C 
HETATM    3  C3  UNL     1     -34.355  17.711  -0.693  1.00 20.00     0.002 C 
HETATM    4  C4  UNL     1     -33.127  17.517  -1.593  1.00 20.00     0.010 C 
HETATM    5  C5  UNL     1     -35.480  16.894  -1.349  1.00 20.00     0.014 C 
HETATM    6  C6  UNL     1     -33.697  17.384  -2.973  1.00 20.00     0.028 A 
HETATM    7  C7  UNL     1     -35.207  17.014  -2.830  1.00 20.00    -0.013 A 
HETATM    8  C8  UNL     1     -35.108  14.012  -4.310  1.00 20.00     0.043 C 
HETATM    9  C9  UNL     1     -32.646  14.622  -4.539  1.00 20.00     0.043 C 
HETATM   10  C10 UNL     1     -36.219  17.731  -3.662  1.00 20.00     0.021 C 
ENDROOT
TORSDOF 0
ENDMDL
MODEL 4
REMARK VINA RESULT:      -4.5      9.713     10.728
REMARK  0 active torsions:
REMARK  status: ('A' for Active; 'I' for Inactive)
ROOT
HETATM    1  C1  UNL     1     -34.360  16.689  -3.165  1.00 20.00    -0.064 A 
HETATM    2  C2  UNL     1     -34.202  17.146  -1.943  1.00 20.00    -0.084 C 
HETATM    3  C3  UNL     1     -33.998  14.238  -5.113  1.00 20.00     0.002 C 
HETATM    4  C4  UNL     1     -35.205  14.530  -4.212  1.00 20.00     0.010 C 
HETATM    5  C5  UNL     1     -32.958  15.317  -4.770  1.00 20.00     0.014 C 
HETATM    6  C6  UNL     1     -35.209  16.022  -4.068  1.00 20.00     0.028 A 
HETATM    7  C7  UNL     1     -33.786  16.539  -4.450  1.00 20.00    -0.013 A 
HETATM    8  C8  UNL     1     -32.943  17.854  -1.488  1.00 20.00     0.043 C 
HETATM    9  C9  UNL     1     -35.264  17.007  -0.872  1.00 20.00     0.043 C 
HETATM   10  C10 UNL     1     -33.654  17.719  -5.356  1.00 20.00     0.021 C 
ENDROOT
TORSDOF 0
ENDMDL
MODEL 5
REMARK VINA RESULT:      -4.4     10.032     11.052
REMARK  0 active torsions:
REMARK  status: ('A' for Active; 'I' for Inactive)
ROOT
HETATM    1  C1  UNL     1     -33.618  18.350  -0.698  1.00 20.00    -0.064 A 
HETATM    2  C2  UNL     1     -32.955  18.547   0.419  1.00 20.00    -0.084 C 
HETATM    3  C3  UNL     1     -34.886  16.229  -2.654  1.00 20.00     0.002 C 
HETATM    4  C4  UNL     1     -35.556  16.877  -1.435  1.00 20.00     0.010 C 
HETATM    5  C5  UNL     1     -33.434  16.734  -2.642  1.00 20.00     0.014 C 
HETATM    6  C6  UNL     1     -34.881  18.208  -1.304  1.00 20.00     0.028 A 
HETATM    7  C7  UNL     1     -33.537  18.138  -2.095  1.00 20.00    -0.013 A 
HETATM    8  C8  UNL     1     -31.443  18.614   0.475  1.00 20.00     0.043 C 
HETATM    9  C9  UNL     1     -33.639  18.726   1.758  1.00 20.00     0.043 C 
HETATM   10  C10 UNL     1     -33.163  19.262  -3.005  1.00 20.00     0.021 C 
ENDROOT
TORSDOF 0
ENDMDL
MODEL 6
REMARK VINA RESULT:      -4.3      9.253     11.113
REMARK  0 active torsions:
REMARK  status: ('A' for Active; 'I' for Inactive)
ROOT
HETATM    1  C1  UNL     1     -34.052  16.387  -3.447  1.00 20.00    -0.064 A 
HETATM    2  C2  UNL     1     -34.088  16.978  -2.274  1.00 20.00    -0.084 C 
HETATM    3  C3  UNL     1     -34.813  16.572  -6.500  1.00 20.00     0.002 C 
HETATM    4  C4  UNL     1     -33.534  17.097  -5.834  1.00 20.00     0.010 C 
HETATM    5  C5  UNL     1     -35.694  16.057  -5.350  1.00 20.00     0.014 C 
HETATM    6  C6  UNL     1     -33.340  16.203  -4.648  1.00 20.00     0.028 A 
HETATM    7  C7  UNL     1     -34.706  15.511  -4.346  1.00 20.00    -0.013 A 
HETATM    8  C8  UNL     1     -35.225  16.784  -1.292  1.00 20.00     0.043 C 
HETATM    9  C9  UNL     1     -32.996  17.910  -1.792  1.00 20.00     0.043 C 
HETATM   10  C10 UNL     1     -34.740  14.042  -4.073  1.00 20.00     0.021 C 
ENDROOT
TORSDOF 0
ENDMDL
MODEL 7
REMARK VINA RESULT:      -4.2      9.296     10.563
REMARK  0 active torsions:
REMARK  status: ('A' for Active; 'I' for Inactive)
ROOT
HETATM    1  C1  UNL     1     -35.201  16.406  -3.465  1.00 20.00    -0.064 A 
HETATM    2  C2  UNL     1     -35.249  17.073  -2.333  1.00 20.00    -0.084 C 
HETATM    3  C3  UNL     1     -35.691  13.644  -4.902  1.00 20.00     0.002 C 
HETATM    4  C4  UNL     1     -36.717  14.764  -4.681  1.00 20.00     0.010 C 
HETATM    5  C5  UNL     1     -34.421  14.099  -4.165  1.00 20.00     0.014 C 
HETATM    6  C6  UNL     1     -35.894  16.015  -4.627  1.00 20.00     0.028 A 
HETATM    7  C7  UNL     1     -34.419  15.600  -4.326  1.00 20.00    -0.013 A 
HETATM    8  C8  UNL     1     -34.075  17.153  -1.379  1.00 20.00     0.043 C 
HETATM    9  C9  UNL     1     -36.481  17.824  -1.875  1.00 20.00     0.043 C 
HETATM   10  C10 UNL     1     -33.310  16.208  -5.122  1.00 20.00     0.021 C 
ENDROOT
TORSDOF 0
ENDMDL
MODEL 8
REMARK VINA RESULT:      -4.1      1.091      3.676
REMARK  0 active torsions:
REMARK  status: ('A' for Active; 'I' for Inactive)
ROOT
HETATM    1  C1  UNL     1     -33.073   7.463   2.717  1.00 20.00    -0.064 A 
HETATM    2  C2  UNL     1     -33.665   6.302   2.885  1.00 20.00    -0.084 C 
HETATM    3  C3  UNL     1     -32.240   9.709   0.669  1.00 20.00     0.002 C 
HETATM    4  C4  UNL     1     -33.571   9.597   1.425  1.00 20.00     0.010 C 
HETATM    5  C5  UNL     1     -31.458   8.434   1.023  1.00 20.00     0.014 C 
HETATM    6  C6  UNL     1     -33.222   8.863   2.684  1.00 20.00     0.028 A 
HETATM    7  C7  UNL     1     -31.859   8.139   2.448  1.00 20.00    -0.013 A 
HETATM    8  C8  UNL     1     -32.925   4.983   2.798  1.00 20.00     0.043 C 
HETATM    9  C9  UNL     1     -35.145   6.171   3.180  1.00 20.00     0.043 C 
HETATM   10  C10 UNL     1     -30.796   8.219   3.495  1.00 20.00     0.021 C 
ENDROOT
TORSDOF 0
ENDMDL
MODEL 9
REMARK VINA RESULT:      -4.0      8.985     10.718
REMARK  0 active torsions:
REMARK  status: ('A' for Active; 'I' for Inactive)
ROOT
HETATM    1  C1  UNL     1     -33.516  16.196  -4.317  1.00 20.00    -0.064 A 
HETATM    2  C2  UNL     1     -33.541  17.222  -3.496  1.00 20.00    -0.084 C 
HETATM    3  C3  UNL     1     -35.207  14.238  -6.117  1.00 20.00     0.002 C 
HETATM    4  C4  UNL     1     -34.626  15.599  -6.526  1.00 20.00     0.010 C 
HETATM    5  C5  UNL     1     -34.901  14.095  -4.617  1.00 20.00     0.014 C 
HETATM    6  C6  UNL     1     -33.419  15.765  -5.653  1.00 20.00     0.028 A 
HETATM    7  C7  UNL     1     -33.570  14.788  -4.445  1.00 20.00    -0.013 A 
HETATM    8  C8  UNL     1     -33.680  17.069  -1.995  1.00 20.00     0.043 C 
HETATM    9  C9  UNL     1     -33.435  18.656  -3.972  1.00 20.00     0.043 C 
HETATM   10  C10 UNL     1     -32.405  13.950  -4.029  1.00 20.00     0.021 C 
ENDROOT
TORSDOF 0
ENDMDL
