MODEL 1
REMARK VINA RESULT:      -4.0      0.000      0.000
REMARK  0 active torsions:
REMARK  status: ('A' for Active; 'I' for Inactive)
ROOT
HETATM    1  C1  UNL     1     -34.096   4.225   3.871  1.00 20.00    -0.028 C 
HETATM    2  C2  UNL     1     -34.835   5.096   4.570  1.00 20.00    -0.014 C 
HETATM    3  C3  UNL     1     -33.134   4.925   2.964  1.00 20.00     0.043 C 
HETATM    4  C4  UNL     1     -32.573   8.483   4.902  1.00 20.00     0.084 C 
HETATM    5  C5  UNL     1     -31.684   7.990   3.777  1.00 20.00     0.084 C 
HETATM    6  C6  UNL     1     -34.461   6.523   4.262  1.00 20.00     0.083 C 
HETATM    7  C7  UNL     1     -33.757   6.326   2.908  1.00 20.00     0.068 C 
HETATM    8  S8  UNL     1     -33.479   7.124   5.680  1.00 20.00    -0.158 SA
HETATM    9  S9  UNL     1     -32.638   7.610   2.285  1.00 20.00    -0.162 SA
ENDROOT
TORSDOF 0
ENDMDL
MODEL 2
REMARK VINA RESULT:      -3.5     12.011     13.030
REMARK  0 active torsions:
REMARK  status: ('A' for Active; 'I' for Inactive)
ROOT
HETATM    1  C1  UNL     1     -33.318  16.272  -4.558  1.00 20.00    -0.028 C 
HETATM    2  C2  UNL     1     -34.095  15.630  -3.677  1.00 20.00    -0.014 C 
HETATM    3  C3  UNL     1     -33.486  15.722  -5.940  1.00 20.00     0.043 C 
HETATM    4  C4  UNL     1     -37.288  14.221  -5.802  1.00 20.00     0.084 C 
HETATM    5  C5  UNL     1     -36.515  14.435  -7.089  1.00 20.00     0.084 C 
HETATM    6  C6  UNL     1     -34.931  14.565  -4.337  1.00 20.00     0.083 C 
HETATM    7  C7  UNL     1     -34.128  14.363  -5.634  1.00 20.00     0.068 C 
HETATM    8  S8  UNL     1     -36.629  15.231  -4.453  1.00 20.00    -0.158 SA
HETATM    9  S9  UNL     1     -34.919  13.579  -7.064  1.00 20.00    -0.162 SA
ENDROOT
TORSDOF 0
ENDMDL
MODEL 3
REMARK VINA RESULT:      -3.5     12.288     13.164
REMARK  0 active torsions:
REMARK  status: ('A' for Active; 'I' for Inactive)
ROOT
HETATM    1  C1  UNL     1     -34.405  17.212  -1.307  1.00 20.00    -0.028 C 
HETATM    2  C2  UNL     1     -35.614  16.825  -1.736  1.00 20.00    -0.014 C 
HETATM    3  C3  UNL     1     -33.363  17.030  -2.366  1.00 20.00     0.043 C 
HETATM    4  C4  UNL     1     -35.578  17.301  -5.794  1.00 20.00     0.084 C 
HETATM    5  C5  UNL     1     -34.064  17.379  -5.763  1.00 20.00     0.084 C 
HETATM    6  C6  UNL     1     -35.577  16.350  -3.165  1.00 20.00     0.083 C 
HETATM    7  C7  UNL     1     -34.075  16.047  -3.305  1.00 20.00     0.068 C 
HETATM    8  S8  UNL     1     -36.298  17.687  -4.179  1.00 20.00    -0.158 SA
HETATM    9  S9  UNL     1     -33.334  15.932  -4.956  1.00 20.00    -0.162 SA
ENDROOT
TORSDOF 0
ENDMDL
MODEL 4
REMARK VINA RESULT:      -3.5     11.937     12.761
REMARK  0 active torsions:
REMARK  status: ('A' for Active; 'I' for Inactive)
ROOT
HETATM    1  C1  UNL     1     -34.258  17.028  -1.658  1.00 20.00    -0.028 C 
HETATM    2  C2  UNL     1     -33.391  17.123  -2.675  1.00 20.00    -0.014 C 
HETATM    3  C3  UNL     1     -35.598  16.552  -2.124  1.00 20.00     0.043 C 
HETATM    4  C4  UNL     1     -34.627  14.413  -5.471  1.00 20.00     0.084 C 
HETATM    5  C5  UNL     1     -35.979  14.337  -4.788  1.00 20.00     0.084 C 
HETATM    6  C6  UNL     1     -34.008  16.696  -3.980  1.00 20.00     0.083 C 
HETATM    7  C7  UNL     1     -35.499  16.836  -3.628  1.00 20.00     0.068 C 
HETATM    8  S8  UNL     1     -33.349  15.033  -4.351  1.00 20.00    -0.158 SA
HETATM    9  S9  UNL     1     -36.741  15.973  -4.628  1.00 20.00    -0.162 SA
ENDROOT
TORSDOF 0
ENDMDL
MODEL 5
REMARK VINA RESULT:      -3.4      1.380      3.675
REMARK  0 active torsions:
REMARK  status: ('A' for Active; 'I' for Inactive)
ROOT
HETATM    1  C1  UNL     1     -31.922   8.018   3.140  1.00 20.00    -0.028 C 
HETATM    2  C2  UNL     1     -32.688   7.374   2.250  1.00 20.00    -0.014 C 
HETATM    3  C3  UNL     1     -32.387   7.774   4.542  1.00 20.00     0.043 C 
HETATM    4  C4  UNL     1     -34.208   4.127   4.210  1.00 20.00     0.084 C 
HETATM    5  C5  UNL     1     -33.839   4.765   5.536  1.00 20.00     0.084 C 
HETATM    6  C6  UNL     1     -33.770   6.568   2.920  1.00 20.00     0.083 C 
HETATM    7  C7  UNL     1     -33.813   7.268   4.290  1.00 20.00     0.068 C 
HETATM    8  S8  UNL     1     -33.243   4.821   2.846  1.00 20.00    -0.158 SA
HETATM    9  S9  UNL     1     -34.558   6.418   5.707  1.00 20.00    -0.162 SA
ENDROOT
TORSDOF 0
ENDMDL
MODEL 6
REMARK VINA RESULT:      -3.3     12.011     13.338
REMARK  0 active torsions:
REMARK  status: ('A' for Active; 'I' for Inactive)
ROOT
HETATM    1  C1  UNL     1     -33.067  14.563  -4.433  1.00 20.00    -0.028 C 
HETATM    2  C2  UNL     1     -33.071  15.640  -5.230  1.00 20.00    -0.014 C 
HETATM    3  C3  UNL     1     -34.458  14.140  -4.078  1.00 20.00     0.043 C 
HETATM    4  C4  UNL     1     -36.611  15.526  -7.267  1.00 20.00     0.084 C 
HETATM    5  C5  UNL     1     -37.151  14.531  -6.257  1.00 20.00     0.084 C 
HETATM    6  C6  UNL     1     -34.470  16.090  -5.559  1.00 20.00     0.083 C 
HETATM    7  C7  UNL     1     -35.243  15.414  -4.413  1.00 20.00     0.068 C 
HETATM    8  S8  UNL     1     -34.802  15.553  -7.273  1.00 20.00    -0.158 SA
HETATM    9  S9  UNL     1     -37.032  15.164  -4.564  1.00 20.00    -0.162 SA
ENDROOT
TORSDOF 0
ENDMDL
MODEL 7
REMARK VINA RESULT:      -3.3     12.077     13.189
REMARK  0 active torsions:
REMARK  status: ('A' for Active; 'I' for Inactive)
ROOT
HETATM    1  C1  UNL     1     -33.661  16.668  -3.327  1.00 20.00    -0.028 C 
HETATM    2  C2  UNL     1     -33.539  16.927  -4.635  1.00 20.00    -0.014 C 
HETATM    3  C3  UNL     1     -34.912  15.900  -3.034  1.00 20.00     0.043 C 
HETATM    4  C4  UNL     1     -35.561  13.949  -6.569  1.00 20.00     0.084 C 
HETATM    5  C5  UNL     1     -36.264  13.596  -5.273  1.00 20.00     0.084 C 
HETATM    6  C6  UNL     1     -34.678  16.346  -5.431  1.00 20.00     0.083 C 
HETATM    7  C7  UNL     1     -35.719  16.165  -4.312  1.00 20.00     0.068 C 
HETATM    8  S8  UNL     1     -34.026  14.859  -6.268  1.00 20.00    -0.158 SA
HETATM    9  S9  UNL     1     -37.110  15.028  -4.557  1.00 20.00    -0.162 SA
ENDROOT
TORSDOF 0
ENDMDL
MODEL 8
REMARK VINA RESULT:      -3.3     12.272     13.258
REMARK  0 active torsions:
REMARK  status: ('A' for Active; 'I' for Inactive)
ROOT
HETATM    1  C1  UNL     1     -34.445  13.662  -7.641  1.00 20.00    -0.028 C 
HETATM    2  C2  UNL     1     -35.329  13.446  -6.658  1.00 20.00    -0.014 C 
HETATM    3  C3  UNL     1     -33.896  15.054  -7.588  1.00 20.00     0.043 C 
HETATM    4  C4  UNL     1     -34.282  15.970  -3.621  1.00 20.00     0.084 C 
HETATM    5  C5  UNL     1     -33.438  16.775  -4.591  1.00 20.00     0.084 C 
HETATM    6  C6  UNL     1     -35.489  14.653  -5.772  1.00 20.00     0.083 C 
HETATM    7  C7  UNL     1     -34.946  15.745  -6.709  1.00 20.00     0.068 C 
HETATM    8  S8  UNL     1     -34.579  14.292  -4.229  1.00 20.00    -0.158 SA
HETATM    9  S9  UNL     1     -34.405  17.331  -6.018  1.00 20.00    -0.162 SA
ENDROOT
TORSDOF 0
ENDMDL
MODEL 9
REMARK VINA RESULT:      -3.3     11.921     12.698
REMARK  0 active torsions:
REMARK  status: ('A' for Active; 'I' for Inactive)
ROOT
HETATM    1  C1  UNL     1     -37.355  14.462  -4.912  1.00 20.00    -0.028 C 
HETATM    2  C2  UNL     1     -36.412  13.608  -5.330  1.00 20.00    -0.014 C 
HETATM    3  C3  UNL     1     -36.759  15.611  -4.161  1.00 20.00     0.043 C 
HETATM    4  C4  UNL     1     -32.999  15.813  -5.757  1.00 20.00     0.084 C 
HETATM    5  C5  UNL     1     -33.614  16.914  -4.915  1.00 20.00     0.084 C 
HETATM    6  C6  UNL     1     -35.029  14.068  -4.950  1.00 20.00     0.083 C 
HETATM    7  C7  UNL     1     -35.377  15.043  -3.812  1.00 20.00     0.068 C 
HETATM    8  S8  UNL     1     -34.264  14.733  -6.470  1.00 20.00    -0.158 SA
HETATM    9  S9  UNL     1     -34.168  16.295  -3.305  1.00 20.00    -0.162 SA
ENDROOT
TORSDOF 0
ENDMDL
