MODEL 1
REMARK VINA RESULT:      -4.7      0.000      0.000
REMARK  2 active torsions:
REMARK  status: ('A' for Active; 'I' for Inactive)
REMARK    1  A    between atoms: C1_1  and  C2_2 
REMARK    2  A    between atoms: C2_2  and  C3_3 
ROOT
HETATM    1  C2  UNL     1     -33.739   5.942   3.140  1.00 20.00     0.205 C 
HETATM    2 CL7  UNL     1     -32.721   4.527   2.652  1.00 20.00    -0.092 Cl
HETATM    3 CL8  UNL     1     -34.743   6.360   1.694  1.00 20.00    -0.092 Cl
ENDROOT
BRANCH   1   4
HETATM    4  C1  UNL     1     -32.791   7.111   3.452  1.00 20.00     0.164 C 
HETATM    5 CL6  UNL     1     -32.370   8.103   2.031  1.00 20.00    -0.127 Cl
ENDBRANCH   1   4
BRANCH   1   6
HETATM    6  C3  UNL     1     -34.680   5.520   4.281  1.00 20.00     0.355 C 
HETATM    7  F4  UNL     1     -35.970   5.814   3.968  1.00 20.00    -0.184 F 
HETATM    8  F5  UNL     1     -34.638   4.168   4.435  1.00 20.00    -0.184 F 
HETATM    9 CL9  UNL     1     -34.297   6.277   5.844  1.00 20.00    -0.045 Cl
ENDBRANCH   1   6
TORSDOF 2
ENDMDL
MODEL 2
REMARK VINA RESULT:      -4.6      1.075      1.294
REMARK  2 active torsions:
REMARK  status: ('A' for Active; 'I' for Inactive)
REMARK    1  A    between atoms: C1_1  and  C2_2 
REMARK    2  A    between atoms: C2_2  and  C3_3 
ROOT
HETATM    1  C2  UNL     1     -33.674   6.051   3.057  1.00 20.00     0.205 C 
HETATM    2 CL7  UNL     1     -32.777   4.521   2.696  1.00 20.00    -0.092 Cl
HETATM    3 CL8  UNL     1     -34.665   6.410   1.587  1.00 20.00    -0.092 Cl
ENDROOT
BRANCH   1   4
HETATM    4  C1  UNL     1     -32.633   7.166   3.248  1.00 20.00     0.164 C 
HETATM    5 CL6  UNL     1     -32.550   8.322   1.894  1.00 20.00    -0.127 Cl
ENDBRANCH   1   4
BRANCH   1   6
HETATM    6  C3  UNL     1     -34.627   5.813   4.241  1.00 20.00     0.355 C 
HETATM    7  F4  UNL     1     -34.456   6.771   5.189  1.00 20.00    -0.184 F 
HETATM    8  F5  UNL     1     -35.917   5.933   3.824  1.00 20.00    -0.184 F 
HETATM    9 CL9  UNL     1     -34.429   4.221   5.011  1.00 20.00    -0.045 Cl
ENDBRANCH   1   6
TORSDOF 2
ENDMDL
MODEL 3
REMARK VINA RESULT:      -4.2      2.215      3.388
REMARK  2 active torsions:
REMARK  status: ('A' for Active; 'I' for Inactive)
REMARK    1  A    between atoms: C1_1  and  C2_2 
REMARK    2  A    between atoms: C2_2  and  C3_3 
ROOT
HETATM    1  C2  UNL     1     -33.981   6.011   3.143  1.00 20.00     0.205 C 
HETATM    2 CL7  UNL     1     -34.783   6.336   1.553  1.00 20.00    -0.092 Cl
HETATM    3 CL8  UNL     1     -32.887   4.596   2.873  1.00 20.00    -0.092 Cl
ENDROOT
BRANCH   1   4
HETATM    4  C1  UNL     1     -35.079   5.615   4.145  1.00 20.00     0.164 C 
HETATM    5 CL6  UNL     1     -34.523   4.517   5.434  1.00 20.00    -0.127 Cl
ENDBRANCH   1   4
BRANCH   1   6
HETATM    6  C3  UNL     1     -33.122   7.225   3.535  1.00 20.00     0.355 C 
HETATM    7  F4  UNL     1     -31.824   7.021   3.187  1.00 20.00    -0.184 F 
HETATM    8  F5  UNL     1     -33.524   8.319   2.833  1.00 20.00    -0.184 F 
HETATM    9 CL9  UNL     1     -33.181   7.615   5.270  1.00 20.00    -0.045 Cl
ENDBRANCH   1   6
TORSDOF 2
ENDMDL
MODEL 4
REMARK VINA RESULT:      -4.2      1.918      3.427
REMARK  2 active torsions:
REMARK  status: ('A' for Active; 'I' for Inactive)
REMARK    1  A    between atoms: C1_1  and  C2_2 
REMARK    2  A    between atoms: C2_2  and  C3_3 
ROOT
HETATM    1  C2  UNL     1     -34.161   5.898   3.949  1.00 20.00     0.205 C 
HETATM    2 CL7  UNL     1     -35.915   6.160   3.587  1.00 20.00    -0.092 Cl
HETATM    3 CL8  UNL     1     -34.043   4.254   4.694  1.00 20.00    -0.092 Cl
ENDROOT
BRANCH   1   4
HETATM    4  C1  UNL     1     -33.737   6.953   4.984  1.00 20.00     0.164 C 
HETATM    5 CL6  UNL     1     -34.488   6.740   6.587  1.00 20.00    -0.127 Cl
ENDBRANCH   1   4
BRANCH   1   6
HETATM    6  C3  UNL     1     -33.367   5.894   2.632  1.00 20.00     0.355 C 
HETATM    7  F4  UNL     1     -32.638   4.753   2.519  1.00 20.00    -0.184 F 
HETATM    8  F5  UNL     1     -34.226   5.887   1.577  1.00 20.00    -0.184 F 
HETATM    9 CL9  UNL     1     -32.267   7.281   2.454  1.00 20.00    -0.045 Cl
ENDBRANCH   1   6
TORSDOF 2
ENDMDL
MODEL 5
REMARK VINA RESULT:      -4.1      1.995      3.525
REMARK  2 active torsions:
REMARK  status: ('A' for Active; 'I' for Inactive)
REMARK    1  A    between atoms: C1_1  and  C2_2 
REMARK    2  A    between atoms: C2_2  and  C3_3 
ROOT
HETATM    1  C2  UNL     1     -34.299   5.928   3.900  1.00 20.00     0.205 C 
HETATM    2 CL7  UNL     1     -33.808   7.203   5.087  1.00 20.00    -0.092 Cl
HETATM    3 CL8  UNL     1     -35.980   6.347   3.381  1.00 20.00    -0.092 Cl
ENDROOT
BRANCH   1   4
HETATM    4  C1  UNL     1     -34.321   4.583   4.645  1.00 20.00     0.164 C 
HETATM    5 CL6  UNL     1     -34.763   4.714   6.367  1.00 20.00    -0.127 Cl
ENDBRANCH   1   4
BRANCH   1   6
HETATM    6  C3  UNL     1     -33.378   5.998   2.670  1.00 20.00     0.355 C 
HETATM    7  F4  UNL     1     -32.612   4.879   2.585  1.00 20.00    -0.184 F 
HETATM    8  F5  UNL     1     -34.127   6.018   1.534  1.00 20.00    -0.184 F 
HETATM    9 CL9  UNL     1     -32.302   7.415   2.661  1.00 20.00    -0.045 Cl
ENDBRANCH   1   6
TORSDOF 2
ENDMDL
MODEL 6
REMARK VINA RESULT:      -4.0      1.857      2.572
REMARK  2 active torsions:
REMARK  status: ('A' for Active; 'I' for Inactive)
REMARK    1  A    between atoms: C1_1  and  C2_2 
REMARK    2  A    between atoms: C2_2  and  C3_3 
ROOT
HETATM    1  C2  UNL     1     -33.290   7.203   3.714  1.00 20.00     0.205 C 
HETATM    2 CL7  UNL     1     -34.449   8.423   3.047  1.00 20.00    -0.092 Cl
HETATM    3 CL8  UNL     1     -33.519   7.222   5.508  1.00 20.00    -0.092 Cl
ENDROOT
BRANCH   1   4
HETATM    4  C1  UNL     1     -31.868   7.683   3.381  1.00 20.00     0.164 C 
HETATM    5 CL6  UNL     1     -31.718   8.453   1.780  1.00 20.00    -0.127 Cl
ENDBRANCH   1   4
BRANCH   1   6
HETATM    6  C3  UNL     1     -33.665   5.806   3.190  1.00 20.00     0.355 C 
HETATM    7  F4  UNL     1     -34.493   5.908   2.117  1.00 20.00    -0.184 F 
HETATM    8  F5  UNL     1     -32.551   5.170   2.736  1.00 20.00    -0.184 F 
HETATM    9 CL9  UNL     1     -34.450   4.771   4.405  1.00 20.00    -0.045 Cl
ENDBRANCH   1   6
TORSDOF 2
ENDMDL
MODEL 7
REMARK VINA RESULT:      -3.9      1.485      2.545
REMARK  2 active torsions:
REMARK  status: ('A' for Active; 'I' for Inactive)
REMARK    1  A    between atoms: C1_1  and  C2_2 
REMARK    2  A    between atoms: C2_2  and  C3_3 
ROOT
HETATM    1  C2  UNL     1     -33.852   6.767   4.229  1.00 20.00     0.205 C 
HETATM    2 CL7  UNL     1     -34.827   8.100   3.488  1.00 20.00    -0.092 Cl
HETATM    3 CL8  UNL     1     -33.221   7.418   5.794  1.00 20.00    -0.092 Cl
ENDROOT
BRANCH   1   4
HETATM    4  C1  UNL     1     -32.670   6.479   3.288  1.00 20.00     0.164 C 
HETATM    5 CL6  UNL     1     -31.947   7.938   2.562  1.00 20.00    -0.127 Cl
ENDBRANCH   1   4
BRANCH   1   6
HETATM    6  C3  UNL     1     -34.773   5.574   4.533  1.00 20.00     0.355 C 
HETATM    7  F4  UNL     1     -35.084   5.538   5.855  1.00 20.00    -0.184 F 
HETATM    8  F5  UNL     1     -35.958   5.729   3.881  1.00 20.00    -0.184 F 
HETATM    9 CL9  UNL     1     -34.081   3.999   4.077  1.00 20.00    -0.045 Cl
ENDBRANCH   1   6
TORSDOF 2
ENDMDL
MODEL 8
REMARK VINA RESULT:      -3.9      2.172      2.957
REMARK  2 active torsions:
REMARK  status: ('A' for Active; 'I' for Inactive)
REMARK    1  A    between atoms: C1_1  and  C2_2 
REMARK    2  A    between atoms: C2_2  and  C3_3 
ROOT
HETATM    1  C2  UNL     1     -34.336   5.705   4.346  1.00 20.00     0.205 C 
HETATM    2 CL7  UNL     1     -34.773   5.294   6.054  1.00 20.00    -0.092 Cl
HETATM    3 CL8  UNL     1     -35.901   5.970   3.478  1.00 20.00    -0.092 Cl
ENDROOT
BRANCH   1   4
HETATM    4  C1  UNL     1     -33.624   4.484   3.741  1.00 20.00     0.164 C 
HETATM    5 CL6  UNL     1     -33.068   4.724   2.065  1.00 20.00    -0.127 Cl
ENDBRANCH   1   4
BRANCH   1   6
HETATM    6  C3  UNL     1     -33.540   7.021   4.329  1.00 20.00     0.355 C 
HETATM    7  F4  UNL     1     -32.346   6.847   3.705  1.00 20.00    -0.184 F 
HETATM    8  F5  UNL     1     -34.207   7.953   3.595  1.00 20.00    -0.184 F 
HETATM    9 CL9  UNL     1     -33.233   7.694   5.947  1.00 20.00    -0.045 Cl
ENDBRANCH   1   6
TORSDOF 2
ENDMDL
MODEL 9
REMARK VINA RESULT:      -3.8      1.726      3.353
REMARK  2 active torsions:
REMARK  status: ('A' for Active; 'I' for Inactive)
REMARK    1  A    between atoms: C1_1  and  C2_2 
REMARK    2  A    between atoms: C2_2  and  C3_3 
ROOT
HETATM    1  C2  UNL     1     -34.033   6.027   3.190  1.00 20.00     0.205 C 
HETATM    2 CL7  UNL     1     -34.805   6.221   1.563  1.00 20.00    -0.092 Cl
HETATM    3 CL8  UNL     1     -32.794   4.722   3.003  1.00 20.00    -0.092 Cl
ENDROOT
BRANCH   1   4
HETATM    4  C1  UNL     1     -35.121   5.553   4.167  1.00 20.00     0.164 C 
HETATM    5 CL6  UNL     1     -34.492   4.675   5.585  1.00 20.00    -0.127 Cl
ENDBRANCH   1   4
BRANCH   1   6
HETATM    6  C3  UNL     1     -33.314   7.332   3.569  1.00 20.00     0.355 C 
HETATM    7  F4  UNL     1     -34.186   8.374   3.565  1.00 20.00    -0.184 F 
HETATM    8  F5  UNL     1     -32.848   7.247   4.845  1.00 20.00    -0.184 F 
HETATM    9 CL9  UNL     1     -31.952   7.738   2.498  1.00 20.00    -0.045 Cl
ENDBRANCH   1   6
TORSDOF 2
ENDMDL
