MODEL 1
REMARK VINA RESULT:      -6.4      0.000      0.000
REMARK  1 active torsions:
REMARK  status: ('A' for Active; 'I' for Inactive)
REMARK    1  A    between atoms: C4_4  and  C9_9 
ROOT
HETATM    1  C1  UNL     1     -34.164   5.028   4.106  1.00 20.00    -0.089 C 
HETATM    2  C2  UNL     1     -33.994   3.698   4.106  1.00 20.00     0.014 C 
HETATM    3  C5  UNL     1     -34.949   5.737   5.173  1.00 20.00     0.033 C 
HETATM    4  C6  UNL     1     -33.537   5.908   3.051  1.00 20.00     0.042 C 
HETATM    5  C7  UNL     1     -34.095   6.791   5.881  1.00 20.00     0.005 C 
HETATM    6  C8  UNL     1     -33.088   7.503   4.968  1.00 20.00     0.009 C 
HETATM    7  C9  UNL     1     -33.460   7.385   3.484  1.00 20.00     0.017 C 
ENDROOT
BRANCH   7   8
HETATM    8  C4  UNL     1     -32.493   8.135   2.620  1.00 20.00    -0.089 C 
HETATM    9  C3  UNL     1     -32.823   8.567   1.393  1.00 20.00     0.014 C 
HETATM   10  C10 UNL     1     -31.132   8.377   3.205  1.00 20.00     0.043 C 
ENDBRANCH   7   8
TORSDOF 1
ENDMDL
MODEL 2
REMARK VINA RESULT:      -6.3      0.069      1.113
REMARK  1 active torsions:
REMARK  status: ('A' for Active; 'I' for Inactive)
REMARK    1  A    between atoms: C4_4  and  C9_9 
ROOT
HETATM    1  C1  UNL     1     -34.172   5.052   4.091  1.00 20.00    -0.089 C 
HETATM    2  C2  UNL     1     -34.024   3.719   4.081  1.00 20.00     0.014 C 
HETATM    3  C5  UNL     1     -34.979   5.762   5.140  1.00 20.00     0.033 C 
HETATM    4  C6  UNL     1     -33.496   5.932   3.067  1.00 20.00     0.042 C 
HETATM    5  C7  UNL     1     -34.131   6.793   5.888  1.00 20.00     0.005 C 
HETATM    6  C8  UNL     1     -33.083   7.498   5.015  1.00 20.00     0.009 C 
HETATM    7  C9  UNL     1     -33.409   7.403   3.519  1.00 20.00     0.017 C 
ENDROOT
BRANCH   7   8
HETATM    8  C4  UNL     1     -32.402   8.146   2.695  1.00 20.00    -0.089 C 
HETATM    9  C3  UNL     1     -31.147   8.352   3.123  1.00 20.00     0.014 C 
HETATM   10  C10 UNL     1     -32.876   8.645   1.362  1.00 20.00     0.043 C 
ENDBRANCH   7   8
TORSDOF 1
ENDMDL
MODEL 3
REMARK VINA RESULT:      -5.4      0.931      3.907
REMARK  1 active torsions:
REMARK  status: ('A' for Active; 'I' for Inactive)
REMARK    1  A    between atoms: C4_4  and  C9_9 
ROOT
HETATM    1  C1  UNL     1     -32.325   8.150   2.213  1.00 20.00    -0.089 C 
HETATM    2  C2  UNL     1     -32.414   9.009   1.187  1.00 20.00     0.014 C 
HETATM    3  C5  UNL     1     -31.337   8.334   3.330  1.00 20.00     0.033 C 
HETATM    4  C6  UNL     1     -33.248   6.961   2.334  1.00 20.00     0.042 C 
HETATM    5  C7  UNL     1     -32.043   8.418   4.685  1.00 20.00     0.005 C 
HETATM    6  C8  UNL     1     -33.286   7.527   4.804  1.00 20.00     0.009 C 
HETATM    7  C9  UNL     1     -33.296   6.396   3.767  1.00 20.00     0.017 C 
ENDROOT
BRANCH   7   8
HETATM    8  C4  UNL     1     -34.491   5.509   3.941  1.00 20.00    -0.089 C 
HETATM    9  C3  UNL     1     -35.735   5.935   3.678  1.00 20.00     0.014 C 
HETATM   10  C10 UNL     1     -34.216   4.116   4.425  1.00 20.00     0.043 C 
ENDBRANCH   7   8
TORSDOF 1
ENDMDL
MODEL 4
REMARK VINA RESULT:      -4.9      1.210      4.152
REMARK  1 active torsions:
REMARK  status: ('A' for Active; 'I' for Inactive)
REMARK    1  A    between atoms: C4_4  and  C9_9 
ROOT
HETATM    1  C1  UNL     1     -32.743   8.673   1.495  1.00 20.00    -0.089 C 
HETATM    2  C2  UNL     1     -33.152   9.646   0.668  1.00 20.00     0.014 C 
HETATM    3  C5  UNL     1     -31.292   8.444   1.809  1.00 20.00     0.033 C 
HETATM    4  C6  UNL     1     -33.725   7.768   2.201  1.00 20.00     0.042 C 
HETATM    5  C7  UNL     1     -31.029   8.542   3.314  1.00 20.00     0.005 C 
HETATM    6  C8  UNL     1     -32.171   8.007   4.189  1.00 20.00     0.009 C 
HETATM    7  C9  UNL     1     -33.102   7.060   3.420  1.00 20.00     0.017 C 
ENDROOT
BRANCH   7   8
HETATM    8  C4  UNL     1     -34.174   6.511   4.311  1.00 20.00    -0.089 C 
HETATM    9  C3  UNL     1     -35.188   5.775   3.832  1.00 20.00     0.014 C 
HETATM   10  C10 UNL     1     -34.048   6.831   5.772  1.00 20.00     0.043 C 
ENDBRANCH   7   8
TORSDOF 1
ENDMDL
MODEL 5
REMARK VINA RESULT:      -4.8      1.184      2.563
REMARK  1 active torsions:
REMARK  status: ('A' for Active; 'I' for Inactive)
REMARK    1  A    between atoms: C4_4  and  C9_9 
ROOT
HETATM    1  C1  UNL     1     -33.334   7.053   4.799  1.00 20.00    -0.089 C 
HETATM    2  C2  UNL     1     -33.775   7.425   6.009  1.00 20.00     0.014 C 
HETATM    3  C5  UNL     1     -33.620   5.697   4.221  1.00 20.00     0.033 C 
HETATM    4  C6  UNL     1     -32.552   7.997   3.916  1.00 20.00     0.042 C 
HETATM    5  C7  UNL     1     -34.353   5.809   2.882  1.00 20.00     0.005 C 
HETATM    6  C8  UNL     1     -33.924   7.010   2.028  1.00 20.00     0.009 C 
HETATM    7  C9  UNL     1     -32.551   7.559   2.439  1.00 20.00     0.017 C 
ENDROOT
BRANCH   7   8
HETATM    8  C4  UNL     1     -32.133   8.694   1.555  1.00 20.00    -0.089 C 
HETATM    9  C3  UNL     1     -31.169   8.558   0.633  1.00 20.00     0.014 C 
HETATM   10  C10 UNL     1     -32.856   9.992   1.760  1.00 20.00     0.043 C 
ENDBRANCH   7   8
TORSDOF 1
ENDMDL
MODEL 6
REMARK VINA RESULT:      -4.5     11.395     12.408
REMARK  1 active torsions:
REMARK  status: ('A' for Active; 'I' for Inactive)
REMARK    1  A    between atoms: C4_4  and  C9_9 
ROOT
HETATM    1  C1  UNL     1     -34.902  14.531  -4.823  1.00 20.00    -0.089 C 
HETATM    2  C2  UNL     1     -35.992  13.870  -5.238  1.00 20.00     0.014 C 
HETATM    3  C5  UNL     1     -33.721  14.776  -5.719  1.00 20.00     0.033 C 
HETATM    4  C6  UNL     1     -34.811  15.115  -3.433  1.00 20.00     0.042 C 
HETATM    5  C7  UNL     1     -33.426  16.272  -5.851  1.00 20.00     0.005 C 
HETATM    6  C8  UNL     1     -33.692  17.081  -4.574  1.00 20.00     0.009 C 
HETATM    7  C9  UNL     1     -33.722  16.199  -3.319  1.00 20.00     0.017 C 
ENDROOT
BRANCH   7   8
HETATM    8  C4  UNL     1     -33.927  17.021  -2.083  1.00 20.00    -0.089 C 
HETATM    9  C3  UNL     1     -32.970  17.824  -1.597  1.00 20.00     0.014 C 
HETATM   10  C10 UNL     1     -35.267  16.894  -1.420  1.00 20.00     0.043 C 
ENDBRANCH   7   8
TORSDOF 1
ENDMDL
MODEL 7
REMARK VINA RESULT:      -4.5      1.416      2.547
REMARK  1 active torsions:
REMARK  status: ('A' for Active; 'I' for Inactive)
REMARK    1  A    between atoms: C4_4  and  C9_9 
ROOT
HETATM    1  C1  UNL     1     -33.265   6.354   2.868  1.00 20.00    -0.089 C 
HETATM    2  C2  UNL     1     -33.192   5.023   2.715  1.00 20.00     0.014 C 
HETATM    3  C5  UNL     1     -33.235   7.009   4.219  1.00 20.00     0.033 C 
HETATM    4  C6  UNL     1     -33.339   7.285   1.681  1.00 20.00     0.042 C 
HETATM    5  C7  UNL     1     -32.078   8.005   4.326  1.00 20.00     0.005 C 
HETATM    6  C8  UNL     1     -31.771   8.755   3.022  1.00 20.00     0.009 C 
HETATM    7  C9  UNL     1     -32.951   8.732   2.042  1.00 20.00     0.017 C 
ENDROOT
BRANCH   7   8
HETATM    8  C4  UNL     1     -32.644   9.517   0.803  1.00 20.00    -0.089 C 
HETATM    9  C3  UNL     1     -32.140  10.759   0.857  1.00 20.00     0.014 C 
HETATM   10  C10 UNL     1     -32.933   8.834  -0.501  1.00 20.00     0.043 C 
ENDBRANCH   7   8
TORSDOF 1
ENDMDL
MODEL 8
REMARK VINA RESULT:      -4.4      0.899      2.139
REMARK  1 active torsions:
REMARK  status: ('A' for Active; 'I' for Inactive)
REMARK    1  A    between atoms: C4_4  and  C9_9 
ROOT
HETATM    1  C1  UNL     1     -33.951   6.707   5.625  1.00 20.00    -0.089 C 
HETATM    2  C2  UNL     1     -34.331   7.196   6.814  1.00 20.00     0.014 C 
HETATM    3  C5  UNL     1     -34.501   5.424   5.072  1.00 20.00     0.033 C 
HETATM    4  C6  UNL     1     -32.971   7.443   4.742  1.00 20.00     0.042 C 
HETATM    5  C7  UNL     1     -35.166   5.647   3.711  1.00 20.00     0.005 C 
HETATM    6  C8  UNL     1     -34.478   6.709   2.842  1.00 20.00     0.009 C 
HETATM    7  C9  UNL     1     -33.030   6.972   3.276  1.00 20.00     0.017 C 
ENDROOT
BRANCH   7   8
HETATM    8  C4  UNL     1     -32.366   7.970   2.377  1.00 20.00    -0.089 C 
HETATM    9  C3  UNL     1     -32.842   8.252   1.156  1.00 20.00     0.014 C 
HETATM   10  C10 UNL     1     -31.137   8.637   2.923  1.00 20.00     0.043 C 
ENDBRANCH   7   8
TORSDOF 1
ENDMDL
MODEL 9
REMARK VINA RESULT:      -4.3      1.032      4.117
REMARK  1 active torsions:
REMARK  status: ('A' for Active; 'I' for Inactive)
REMARK    1  A    between atoms: C4_4  and  C9_9 
ROOT
HETATM    1  C1  UNL     1     -32.551   7.748   2.558  1.00 20.00    -0.089 C 
HETATM    2  C2  UNL     1     -31.443   8.461   2.309  1.00 20.00     0.014 C 
HETATM    3  C5  UNL     1     -33.273   6.986   1.484  1.00 20.00     0.033 C 
HETATM    4  C6  UNL     1     -33.121   7.631   3.951  1.00 20.00     0.042 C 
HETATM    5  C7  UNL     1     -33.373   5.499   1.831  1.00 20.00     0.005 C 
HETATM    6  C8  UNL     1     -33.553   5.213   3.328  1.00 20.00     0.009 C 
HETATM    7  C9  UNL     1     -34.079   6.432   4.097  1.00 20.00     0.017 C 
ENDROOT
BRANCH   7   8
HETATM    8  C4  UNL     1     -34.298   6.109   5.543  1.00 20.00    -0.089 C 
HETATM    9  C3  UNL     1     -34.709   4.897   5.946  1.00 20.00     0.014 C 
HETATM   10  C10 UNL     1     -34.030   7.218   6.517  1.00 20.00     0.043 C 
ENDBRANCH   7   8
TORSDOF 1
ENDMDL
