MODEL 1
REMARK VINA RESULT:      -5.5      0.000      0.000
REMARK  5 active torsions:
REMARK  status: ('A' for Active; 'I' for Inactive)
REMARK    1  A    between atoms: C1_1  and  C5_5 
REMARK    2  A    between atoms: C1_1  and  S10_10 
REMARK    3  A    between atoms: C5_5  and  C8_8 
REMARK    4  A    between atoms: C6_6  and  C7_7 
REMARK    5  A    between atoms: C7_7  and  S10_10 
ROOT
HETATM    1  C1  UNL     1     -32.047   8.000   2.985  1.00 20.00     0.186 C 
HETATM    2  O9  UNL     1     -31.321   8.377   3.896  1.00 20.00    -0.286 OA
ENDROOT
BRANCH   1   3
HETATM    3  C5  UNL     1     -31.858   8.384   1.528  1.00 20.00     0.094 C 
BRANCH   3   4
HETATM    4  C8  UNL     1     -32.915   9.381   1.023  1.00 20.00    -0.015 C 
HETATM    5  C3  UNL     1     -32.535  10.802   1.441  1.00 20.00     0.010 C 
HETATM    6  C4  UNL     1     -33.065   9.311  -0.499  1.00 20.00     0.010 C 
ENDBRANCH   3   4
ENDBRANCH   1   3
BRANCH   1   7
HETATM    7  S10 UNL     1     -33.401   6.893   3.244  1.00 20.00    -0.093 SA
BRANCH   7   8
HETATM    8  C7  UNL     1     -33.691   7.135   5.010  1.00 20.00     0.082 C 
BRANCH   8   9
HETATM    9  C6  UNL     1     -34.445   5.946   5.595  1.00 20.00     0.006 C 
HETATM   10  C2  UNL     1     -34.586   4.829   4.572  1.00 20.00     0.006 C 
ENDBRANCH   8   9
ENDBRANCH   7   8
ENDBRANCH   1   7
TORSDOF 5
ENDMDL
MODEL 2
REMARK VINA RESULT:      -5.2      1.577      5.205
REMARK  5 active torsions:
REMARK  status: ('A' for Active; 'I' for Inactive)
REMARK    1  A    between atoms: C1_1  and  C5_5 
REMARK    2  A    between atoms: C1_1  and  S10_10 
REMARK    3  A    between atoms: C5_5  and  C8_8 
REMARK    4  A    between atoms: C6_6  and  C7_7 
REMARK    5  A    between atoms: C7_7  and  S10_10 
ROOT
HETATM    1  C1  UNL     1     -33.131   6.355   2.974  1.00 20.00     0.186 C 
HETATM    2  O9  UNL     1     -32.605   5.346   2.523  1.00 20.00    -0.286 OA
ENDROOT
BRANCH   1   3
HETATM    3  C5  UNL     1     -34.590   6.448   3.384  1.00 20.00     0.094 C 
BRANCH   3   4
HETATM    4  C8  UNL     1     -34.877   5.801   4.749  1.00 20.00    -0.015 C 
HETATM    5  C3  UNL     1     -34.453   4.332   4.731  1.00 20.00     0.010 C 
HETATM    6  C4  UNL     1     -34.151   6.536   5.879  1.00 20.00     0.010 C 
ENDBRANCH   3   4
ENDBRANCH   1   3
BRANCH   1   7
HETATM    7  S10 UNL     1     -32.229   7.848   3.264  1.00 20.00    -0.093 SA
BRANCH   7   8
HETATM    8  C7  UNL     1     -31.829   8.326   1.568  1.00 20.00     0.082 C 
BRANCH   8   9
HETATM    9  C6  UNL     1     -32.562   9.608   1.187  1.00 20.00     0.006 C 
HETATM   10  C2  UNL     1     -33.067   9.545  -0.246  1.00 20.00     0.006 C 
ENDBRANCH   8   9
ENDBRANCH   7   8
ENDBRANCH   1   7
TORSDOF 5
ENDMDL
MODEL 3
REMARK VINA RESULT:      -5.0      1.473      4.997
REMARK  5 active torsions:
REMARK  status: ('A' for Active; 'I' for Inactive)
REMARK    1  A    between atoms: C1_1  and  C5_5 
REMARK    2  A    between atoms: C1_1  and  S10_10 
REMARK    3  A    between atoms: C5_5  and  C8_8 
REMARK    4  A    between atoms: C6_6  and  C7_7 
REMARK    5  A    between atoms: C7_7  and  S10_10 
ROOT
HETATM    1  C1  UNL     1     -33.255   7.410   4.679  1.00 20.00     0.186 C 
HETATM    2  O9  UNL     1     -33.238   7.464   5.902  1.00 20.00    -0.286 OA
ENDROOT
BRANCH   1   3
HETATM    3  C5  UNL     1     -34.424   6.887   3.864  1.00 20.00     0.094 C 
BRANCH   3   4
HETATM    4  C8  UNL     1     -34.543   5.354   3.891  1.00 20.00    -0.015 C 
HETATM    5  C3  UNL     1     -33.363   4.725   3.150  1.00 20.00     0.010 C 
HETATM    6  C4  UNL     1     -34.595   4.824   5.326  1.00 20.00     0.010 C 
ENDBRANCH   3   4
ENDBRANCH   1   3
BRANCH   1   7
HETATM    7  S10 UNL     1     -31.918   7.998   3.683  1.00 20.00    -0.093 SA
BRANCH   7   8
HETATM    8  C7  UNL     1     -32.743   8.157   2.084  1.00 20.00     0.082 C 
BRANCH   8   9
HETATM    9  C6  UNL     1     -31.894   8.986   1.125  1.00 20.00     0.006 C 
HETATM   10  C2  UNL     1     -32.598  10.280   0.749  1.00 20.00     0.006 C 
ENDBRANCH   8   9
ENDBRANCH   7   8
ENDBRANCH   1   7
TORSDOF 5
ENDMDL
MODEL 4
REMARK VINA RESULT:      -4.9      1.430      1.503
REMARK  5 active torsions:
REMARK  status: ('A' for Active; 'I' for Inactive)
REMARK    1  A    between atoms: C1_1  and  C5_5 
REMARK    2  A    between atoms: C1_1  and  S10_10 
REMARK    3  A    between atoms: C5_5  and  C8_8 
REMARK    4  A    between atoms: C6_6  and  C7_7 
REMARK    5  A    between atoms: C7_7  and  S10_10 
ROOT
HETATM    1  C1  UNL     1     -32.622   7.244   3.247  1.00 20.00     0.186 C 
HETATM    2  O9  UNL     1     -32.647   6.202   2.604  1.00 20.00    -0.286 OA
ENDROOT
BRANCH   1   3
HETATM    3  C5  UNL     1     -31.968   8.527   2.768  1.00 20.00     0.094 C 
BRANCH   3   4
HETATM    4  C8  UNL     1     -32.407   8.939   1.352  1.00 20.00    -0.015 C 
HETATM    5  C3  UNL     1     -32.770  10.424   1.328  1.00 20.00     0.010 C 
HETATM    6  C4  UNL     1     -31.309   8.657   0.323  1.00 20.00     0.010 C 
ENDBRANCH   3   4
ENDBRANCH   1   3
BRANCH   1   7
HETATM    7  S10 UNL     1     -33.408   7.408   4.822  1.00 20.00    -0.093 SA
BRANCH   7   8
HETATM    8  C7  UNL     1     -34.814   6.295   4.607  1.00 20.00     0.082 C 
BRANCH   8   9
HETATM    9  C6  UNL     1     -34.597   5.003   5.387  1.00 20.00     0.006 C 
HETATM   10  C2  UNL     1     -34.195   3.865   4.461  1.00 20.00     0.006 C 
ENDBRANCH   8   9
ENDBRANCH   7   8
ENDBRANCH   1   7
TORSDOF 5
ENDMDL
MODEL 5
REMARK VINA RESULT:      -4.6      0.951      4.946
REMARK  5 active torsions:
REMARK  status: ('A' for Active; 'I' for Inactive)
REMARK    1  A    between atoms: C1_1  and  C5_5 
REMARK    2  A    between atoms: C1_1  and  S10_10 
REMARK    3  A    between atoms: C5_5  and  C8_8 
REMARK    4  A    between atoms: C6_6  and  C7_7 
REMARK    5  A    between atoms: C7_7  and  S10_10 
ROOT
HETATM    1  C1  UNL     1     -32.617   7.724   4.060  1.00 20.00     0.186 C 
HETATM    2  O9  UNL     1     -31.678   8.400   4.460  1.00 20.00    -0.286 OA
ENDROOT
BRANCH   1   3
HETATM    3  C5  UNL     1     -33.737   7.211   4.947  1.00 20.00     0.094 C 
BRANCH   3   4
HETATM    4  C8  UNL     1     -34.251   5.822   4.530  1.00 20.00    -0.015 C 
HETATM    5  C3  UNL     1     -34.480   4.955   5.769  1.00 20.00     0.010 C 
HETATM    6  C4  UNL     1     -35.548   5.927   3.723  1.00 20.00     0.010 C 
ENDBRANCH   3   4
ENDBRANCH   1   3
BRANCH   1   7
HETATM    7  S10 UNL     1     -32.825   7.298   2.357  1.00 20.00    -0.093 SA
BRANCH   7   8
HETATM    8  C7  UNL     1     -31.622   8.406   1.591  1.00 20.00     0.082 C 
BRANCH   8   9
HETATM    9  C6  UNL     1     -32.308   9.328   0.588  1.00 20.00     0.006 C 
HETATM   10  C2  UNL     1     -32.823  10.589   1.267  1.00 20.00     0.006 C 
ENDBRANCH   8   9
ENDBRANCH   7   8
ENDBRANCH   1   7
TORSDOF 5
ENDMDL
MODEL 6
REMARK VINA RESULT:      -4.5      1.767      2.664
REMARK  5 active torsions:
REMARK  status: ('A' for Active; 'I' for Inactive)
REMARK    1  A    between atoms: C1_1  and  C5_5 
REMARK    2  A    between atoms: C1_1  and  S10_10 
REMARK    3  A    between atoms: C5_5  and  C8_8 
REMARK    4  A    between atoms: C6_6  and  C7_7 
REMARK    5  A    between atoms: C7_7  and  S10_10 
ROOT
HETATM    1  C1  UNL     1     -33.603   6.034   2.765  1.00 20.00     0.186 C 
HETATM    2  O9  UNL     1     -32.792   5.142   2.555  1.00 20.00    -0.286 OA
ENDROOT
BRANCH   1   3
HETATM    3  C5  UNL     1     -33.439   7.466   2.287  1.00 20.00     0.094 C 
BRANCH   3   4
HETATM    4  C8  UNL     1     -31.968   7.887   2.131  1.00 20.00    -0.015 C 
HETATM    5  C3  UNL     1     -31.847   8.983   1.071  1.00 20.00     0.010 C 
HETATM    6  C4  UNL     1     -31.386   8.383   3.458  1.00 20.00     0.010 C 
ENDBRANCH   3   4
ENDBRANCH   1   3
BRANCH   1   7
HETATM    7  S10 UNL     1     -35.125   5.754   3.619  1.00 20.00    -0.093 SA
BRANCH   7   8
HETATM    8  C7  UNL     1     -34.512   5.038   5.159  1.00 20.00     0.082 C 
BRANCH   8   9
HETATM    9  C6  UNL     1     -34.571   6.063   6.286  1.00 20.00     0.006 C 
HETATM   10  C2  UNL     1     -33.756   7.301   5.943  1.00 20.00     0.006 C 
ENDBRANCH   8   9
ENDBRANCH   7   8
ENDBRANCH   1   7
TORSDOF 5
ENDMDL
MODEL 7
REMARK VINA RESULT:      -3.9     10.621     11.926
REMARK  5 active torsions:
REMARK  status: ('A' for Active; 'I' for Inactive)
REMARK    1  A    between atoms: C1_1  and  C5_5 
REMARK    2  A    between atoms: C1_1  and  S10_10 
REMARK    3  A    between atoms: C5_5  and  C8_8 
REMARK    4  A    between atoms: C6_6  and  C7_7 
REMARK    5  A    between atoms: C7_7  and  S10_10 
ROOT
HETATM    1  C1  UNL     1     -36.797  14.111  -5.333  1.00 20.00     0.186 C 
HETATM    2  O9  UNL     1     -37.903  13.876  -4.863  1.00 20.00    -0.286 OA
ENDROOT
BRANCH   1   3
HETATM    3  C5  UNL     1     -35.488  13.830  -4.617  1.00 20.00     0.094 C 
BRANCH   3   4
HETATM    4  C8  UNL     1     -34.634  15.090  -4.402  1.00 20.00    -0.015 C 
HETATM    5  C3  UNL     1     -35.058  15.797  -3.115  1.00 20.00     0.010 C 
HETATM    6  C4  UNL     1     -33.142  14.749  -4.338  1.00 20.00     0.010 C 
ENDBRANCH   3   4
ENDBRANCH   1   3
BRANCH   1   7
HETATM    7  S10 UNL     1     -36.575  14.767  -6.960  1.00 20.00    -0.093 SA
BRANCH   7   8
HETATM    8  C7  UNL     1     -35.511  13.499  -7.684  1.00 20.00     0.082 C 
BRANCH   8   9
HETATM    9  C6  UNL     1     -34.107  14.049  -7.914  1.00 20.00     0.006 C 
HETATM   10  C2  UNL     1     -34.108  15.570  -7.916  1.00 20.00     0.006 C 
ENDBRANCH   8   9
ENDBRANCH   7   8
ENDBRANCH   1   7
TORSDOF 5
ENDMDL
MODEL 8
REMARK VINA RESULT:      -3.8     10.165     11.833
REMARK  5 active torsions:
REMARK  status: ('A' for Active; 'I' for Inactive)
REMARK    1  A    between atoms: C1_1  and  C5_5 
REMARK    2  A    between atoms: C1_1  and  S10_10 
REMARK    3  A    between atoms: C5_5  and  C8_8 
REMARK    4  A    between atoms: C6_6  and  C7_7 
REMARK    5  A    between atoms: C7_7  and  S10_10 
ROOT
HETATM    1  C1  UNL     1     -35.727  13.747  -4.794  1.00 20.00     0.186 C 
HETATM    2  O9  UNL     1     -35.841  12.654  -5.335  1.00 20.00    -0.286 OA
ENDROOT
BRANCH   1   3
HETATM    3  C5  UNL     1     -34.459  14.234  -4.114  1.00 20.00     0.094 C 
BRANCH   3   4
HETATM    4  C8  UNL     1     -34.207  15.738  -4.312  1.00 20.00    -0.015 C 
HETATM    5  C3  UNL     1     -33.777  16.375  -2.989  1.00 20.00     0.010 C 
HETATM    6  C4  UNL     1     -33.139  15.990  -5.379  1.00 20.00     0.010 C 
ENDBRANCH   3   4
ENDBRANCH   1   3
BRANCH   1   7
HETATM    7  S10 UNL     1     -37.029  14.942  -4.782  1.00 20.00    -0.093 SA
BRANCH   7   8
HETATM    8  C7  UNL     1     -37.495  14.940  -6.527  1.00 20.00     0.082 C 
BRANCH   8   9
HETATM    9  C6  UNL     1     -36.404  15.590  -7.372  1.00 20.00     0.006 C 
HETATM   10  C2  UNL     1     -36.317  17.084  -7.098  1.00 20.00     0.006 C 
ENDBRANCH   8   9
ENDBRANCH   7   8
ENDBRANCH   1   7
TORSDOF 5
ENDMDL
MODEL 9
REMARK VINA RESULT:      -3.8     10.483     12.215
REMARK  5 active torsions:
REMARK  status: ('A' for Active; 'I' for Inactive)
REMARK    1  A    between atoms: C1_1  and  C5_5 
REMARK    2  A    between atoms: C1_1  and  S10_10 
REMARK    3  A    between atoms: C5_5  and  C8_8 
REMARK    4  A    between atoms: C6_6  and  C7_7 
REMARK    5  A    between atoms: C7_7  and  S10_10 
ROOT
HETATM    1  C1  UNL     1     -35.705  13.716  -5.634  1.00 20.00     0.186 C 
HETATM    2  O9  UNL     1     -35.900  12.603  -5.161  1.00 20.00    -0.286 OA
ENDROOT
BRANCH   1   3
HETATM    3  C5  UNL     1     -35.622  14.990  -4.813  1.00 20.00     0.094 C 
BRANCH   3   4
HETATM    4  C8  UNL     1     -34.476  14.976  -3.788  1.00 20.00    -0.015 C 
HETATM    5  C3  UNL     1     -33.133  14.844  -4.507  1.00 20.00     0.010 C 
HETATM    6  C4  UNL     1     -34.481  16.242  -2.927  1.00 20.00     0.010 C 
ENDBRANCH   3   4
ENDBRANCH   1   3
BRANCH   1   7
HETATM    7  S10 UNL     1     -35.434  13.980  -7.361  1.00 20.00    -0.093 SA
BRANCH   7   8
HETATM    8  C7  UNL     1     -35.618  15.775  -7.452  1.00 20.00     0.082 C 
BRANCH   8   9
HETATM    9  C6  UNL     1     -34.300  16.427  -7.858  1.00 20.00     0.006 C 
HETATM   10  C2  UNL     1     -33.974  17.609  -6.958  1.00 20.00     0.006 C 
ENDBRANCH   8   9
ENDBRANCH   7   8
ENDBRANCH   1   7
TORSDOF 5
ENDMDL
