MODEL 1
REMARK VINA RESULT:      -6.4      0.000      0.000
REMARK  0 active torsions:
REMARK  status: ('A' for Active; 'I' for Inactive)
ROOT
HETATM    1  C1  UNL     1     -33.573   6.550   6.013  1.00 20.00     0.001 C 
HETATM    2  C2  UNL     1     -34.719   5.526   5.887  1.00 20.00     0.005 C 
HETATM    3  C3  UNL     1     -33.815   4.150   3.897  1.00 20.00     0.005 C 
HETATM    4  C4  UNL     1     -33.011   4.790   2.744  1.00 20.00     0.006 C 
HETATM    5  C5  UNL     1     -33.622   7.650   4.938  1.00 20.00     0.010 C 
HETATM    6  C6  UNL     1     -35.179   6.267   3.550  1.00 20.00     0.014 C 
HETATM    7  C7  UNL     1     -33.189   7.419   2.314  1.00 20.00     0.015 A 
HETATM    8  C8  UNL     1     -34.977   5.034   4.439  1.00 20.00    -0.014 C 
HETATM    9  C9  UNL     1     -32.684   6.216   3.067  1.00 20.00    -0.005 A 
HETATM   10  C10 UNL     1     -33.864   7.010   3.597  1.00 20.00    -0.036 A 
ENDROOT
TORSDOF 0
ENDMDL
MODEL 2
REMARK VINA RESULT:      -5.7      0.794      3.366
REMARK  0 active torsions:
REMARK  status: ('A' for Active; 'I' for Inactive)
ROOT
HETATM    1  C1  UNL     1     -32.926   4.615   3.027  1.00 20.00     0.001 C 
HETATM    2  C2  UNL     1     -33.475   5.825   2.246  1.00 20.00     0.005 C 
HETATM    3  C3  UNL     1     -33.372   7.598   4.123  1.00 20.00     0.005 C 
HETATM    4  C4  UNL     1     -33.636   7.252   5.605  1.00 20.00     0.006 C 
HETATM    5  C5  UNL     1     -33.958   3.990   3.983  1.00 20.00     0.010 C 
HETATM    6  C6  UNL     1     -35.372   6.052   3.850  1.00 20.00     0.014 C 
HETATM    7  C7  UNL     1     -34.981   5.028   6.219  1.00 20.00     0.015 A 
HETATM    8  C8  UNL     1     -34.276   6.831   3.112  1.00 20.00    -0.014 C 
HETATM    9  C9  UNL     1     -33.744   5.768   5.781  1.00 20.00    -0.005 A 
HETATM   10  C10 UNL     1     -34.635   5.092   4.754  1.00 20.00    -0.036 A 
ENDROOT
TORSDOF 0
ENDMDL
MODEL 3
REMARK VINA RESULT:      -4.3     12.077     13.200
REMARK  0 active torsions:
REMARK  status: ('A' for Active; 'I' for Inactive)
ROOT
HETATM    1  C1  UNL     1     -33.306  15.076  -4.166  1.00 20.00     0.001 C 
HETATM    2  C2  UNL     1     -34.747  15.272  -3.652  1.00 20.00     0.005 C 
HETATM    3  C3  UNL     1     -35.948  13.539  -5.145  1.00 20.00     0.005 C 
HETATM    4  C4  UNL     1     -35.511  13.254  -6.599  1.00 20.00     0.006 C 
HETATM    5  C5  UNL     1     -33.054  15.742  -5.531  1.00 20.00     0.010 C 
HETATM    6  C6  UNL     1     -35.518  15.917  -5.935  1.00 20.00     0.014 C 
HETATM    7  C7  UNL     1     -34.046  15.059  -7.913  1.00 20.00     0.015 A 
HETATM    8  C8  UNL     1     -35.842  15.035  -4.723  1.00 20.00    -0.014 C 
HETATM    9  C9  UNL     1     -34.223  13.956  -6.902  1.00 20.00    -0.005 A 
HETATM   10  C10 UNL     1     -34.195  15.406  -6.454  1.00 20.00    -0.036 A 
ENDROOT
TORSDOF 0
ENDMDL
MODEL 4
REMARK VINA RESULT:      -4.3     12.041     13.179
REMARK  0 active torsions:
REMARK  status: ('A' for Active; 'I' for Inactive)
ROOT
HETATM    1  C1  UNL     1     -36.172  15.544  -3.955  1.00 20.00     0.001 C 
HETATM    2  C2  UNL     1     -34.921  15.928  -3.140  1.00 20.00     0.005 C 
HETATM    3  C3  UNL     1     -33.451  16.835  -5.061  1.00 20.00     0.005 C 
HETATM    4  C4  UNL     1     -33.485  16.237  -6.484  1.00 20.00     0.006 C 
HETATM    5  C5  UNL     1     -36.003  14.234  -4.745  1.00 20.00     0.010 C 
HETATM    6  C6  UNL     1     -33.516  14.362  -4.480  1.00 20.00     0.014 C 
HETATM    7  C7  UNL     1     -34.431  13.766  -6.852  1.00 20.00     0.015 A 
HETATM    8  C8  UNL     1     -33.587  15.786  -3.918  1.00 20.00    -0.014 C 
HETATM    9  C9  UNL     1     -34.600  15.243  -6.604  1.00 20.00    -0.005 A 
HETATM   10  C10 UNL     1     -34.671  14.260  -5.449  1.00 20.00    -0.036 A 
ENDROOT
TORSDOF 0
ENDMDL
MODEL 5
REMARK VINA RESULT:      -4.3     11.514     13.032
REMARK  0 active torsions:
REMARK  status: ('A' for Active; 'I' for Inactive)
ROOT
HETATM    1  C1  UNL     1     -34.125  15.384  -6.638  1.00 20.00     0.001 C 
HETATM    2  C2  UNL     1     -34.866  14.052  -6.401  1.00 20.00     0.005 C 
HETATM    3  C3  UNL     1     -36.605  14.859  -4.670  1.00 20.00     0.005 C 
HETATM    4  C4  UNL     1     -36.286  15.943  -3.618  1.00 20.00     0.006 C 
HETATM    5  C5  UNL     1     -33.156  15.749  -5.499  1.00 20.00     0.010 C 
HETATM    6  C6  UNL     1     -34.278  14.108  -3.978  1.00 20.00     0.014 C 
HETATM    7  C7  UNL     1     -33.742  16.466  -2.995  1.00 20.00     0.015 A 
HETATM    8  C8  UNL     1     -35.428  13.883  -4.966  1.00 20.00    -0.014 C 
HETATM    9  C9  UNL     1     -34.947  16.558  -3.895  1.00 20.00    -0.005 A 
HETATM   10  C10 UNL     1     -33.855  15.544  -4.181  1.00 20.00    -0.036 A 
ENDROOT
TORSDOF 0
ENDMDL
MODEL 6
REMARK VINA RESULT:      -4.3     11.833     12.768
REMARK  0 active torsions:
REMARK  status: ('A' for Active; 'I' for Inactive)
ROOT
HETATM    1  C1  UNL     1     -35.113  16.664  -1.908  1.00 20.00     0.001 C 
HETATM    2  C2  UNL     1     -36.231  17.256  -2.789  1.00 20.00     0.005 C 
HETATM    3  C3  UNL     1     -36.709  15.197  -4.274  1.00 20.00     0.005 C 
HETATM    4  C4  UNL     1     -35.598  14.218  -4.715  1.00 20.00     0.006 C 
HETATM    5  C5  UNL     1     -33.754  16.585  -2.626  1.00 20.00     0.010 C 
HETATM    6  C6  UNL     1     -34.876  16.863  -4.846  1.00 20.00     0.014 C 
HETATM    7  C7  UNL     1     -33.048  15.008  -4.661  1.00 20.00     0.015 A 
HETATM    8  C8  UNL     1     -36.271  16.691  -4.233  1.00 20.00    -0.014 C 
HETATM    9  C9  UNL     1     -34.317  14.531  -4.004  1.00 20.00    -0.005 A 
HETATM   10  C10 UNL     1     -33.963  16.006  -4.000  1.00 20.00    -0.036 A 
ENDROOT
TORSDOF 0
ENDMDL
MODEL 7
REMARK VINA RESULT:      -4.2     11.584     12.972
REMARK  0 active torsions:
REMARK  status: ('A' for Active; 'I' for Inactive)
ROOT
HETATM    1  C1  UNL     1     -35.368  16.704  -3.525  1.00 20.00     0.001 C 
HETATM    2  C2  UNL     1     -33.918  16.281  -3.216  1.00 20.00     0.005 C 
HETATM    3  C3  UNL     1     -33.138  15.727  -5.615  1.00 20.00     0.005 C 
HETATM    4  C4  UNL     1     -34.081  15.109  -6.671  1.00 20.00     0.006 C 
HETATM    5  C5  UNL     1     -36.303  15.513  -3.796  1.00 20.00     0.010 C 
HETATM    6  C6  UNL     1     -34.334  14.013  -4.168  1.00 20.00     0.014 C 
HETATM    7  C7  UNL     1     -36.297  13.845  -5.881  1.00 20.00     0.015 A 
HETATM    8  C8  UNL     1     -33.356  15.194  -4.168  1.00 20.00    -0.014 C 
HETATM    9  C9  UNL     1     -35.490  15.087  -6.161  1.00 20.00    -0.005 A 
HETATM   10  C10 UNL     1     -35.619  14.563  -4.742  1.00 20.00    -0.036 A 
ENDROOT
TORSDOF 0
ENDMDL
MODEL 8
REMARK VINA RESULT:      -4.1     12.161     13.709
REMARK  0 active torsions:
REMARK  status: ('A' for Active; 'I' for Inactive)
ROOT
HETATM    1  C1  UNL     1     -34.613  13.504  -7.193  1.00 20.00     0.001 C 
HETATM    2  C2  UNL     1     -33.799  14.729  -7.652  1.00 20.00     0.005 C 
HETATM    3  C3  UNL     1     -32.957  15.541  -5.349  1.00 20.00     0.005 C 
HETATM    4  C4  UNL     1     -33.808  15.419  -4.065  1.00 20.00     0.006 C 
HETATM    5  C5  UNL     1     -35.973  13.876  -6.576  1.00 20.00     0.010 C 
HETATM    6  C6  UNL     1     -35.219  16.243  -6.270  1.00 20.00     0.014 C 
HETATM    7  C7  UNL     1     -36.454  15.120  -4.263  1.00 20.00     0.015 A 
HETATM    8  C8  UNL     1     -33.770  15.894  -6.629  1.00 20.00    -0.014 C 
HETATM    9  C9  UNL     1     -35.039  14.608  -4.333  1.00 20.00    -0.005 A 
HETATM   10  C10 UNL     1     -35.771  15.006  -5.601  1.00 20.00    -0.036 A 
ENDROOT
TORSDOF 0
ENDMDL
MODEL 9
REMARK VINA RESULT:      -4.1     11.707     13.591
REMARK  0 active torsions:
REMARK  status: ('A' for Active; 'I' for Inactive)
ROOT
HETATM    1  C1  UNL     1     -33.197  14.703  -4.487  1.00 20.00     0.001 C 
HETATM    2  C2  UNL     1     -34.589  14.081  -4.257  1.00 20.00     0.005 C 
HETATM    3  C3  UNL     1     -35.102  13.332  -6.675  1.00 20.00     0.005 C 
HETATM    4  C4  UNL     1     -34.636  14.136  -7.909  1.00 20.00     0.006 C 
HETATM    5  C5  UNL     1     -33.254  16.092  -5.146  1.00 20.00     0.010 C 
HETATM    6  C6  UNL     1     -35.617  15.686  -5.867  1.00 20.00     0.014 C 
HETATM    7  C7  UNL     1     -33.994  16.714  -7.635  1.00 20.00     0.015 A 
HETATM    8  C8  UNL     1     -35.550  14.207  -5.468  1.00 20.00    -0.014 C 
HETATM    9  C9  UNL     1     -33.714  15.240  -7.491  1.00 20.00    -0.005 A 
HETATM   10  C10 UNL     1     -34.215  16.042  -6.304  1.00 20.00    -0.036 A 
ENDROOT
TORSDOF 0
ENDMDL
