MODEL 1
REMARK VINA RESULT:      -6.2      0.000      0.000
REMARK  2 active torsions:
REMARK  status: ('A' for Active; 'I' for Inactive)
REMARK    1  A    between atoms: C7_7  and  C9_9 
REMARK    2  A    between atoms: C8_8  and  C10_10 
ROOT
HETATM    1  C1  UNL     1     -32.550  10.254   0.701  1.00 20.00     0.012 C 
HETATM    2  C2  UNL     1     -32.273   9.296   1.369  1.00 20.00    -0.112 C 
HETATM    3  C6  UNL     1     -31.944   8.150   2.168  1.00 20.00     0.074 A 
HETATM    4  C9  UNL     1     -32.984   7.639   3.141  1.00 20.00     0.015 A 
HETATM    5  C10 UNL     1     -31.743   8.354   3.654  1.00 20.00     0.015 A 
ENDROOT
BRANCH   4   6
HETATM    6  C7  UNL     1     -32.942   6.287   3.867  1.00 20.00     0.014 C 
HETATM    7  C3  UNL     1     -34.147   6.074   4.764  1.00 20.00    -0.025 C 
HETATM    8  C4  UNL     1     -35.221   5.965   3.964  1.00 20.00    -0.025 C 
HETATM    9  C8  UNL     1     -34.730   6.106   2.536  1.00 20.00     0.014 C 
HETATM   10  C5  UNL     1     -33.392   5.356   2.720  1.00 20.00     0.018 C 
ENDBRANCH   4   6
TORSDOF 2
ENDMDL
MODEL 2
REMARK VINA RESULT:      -5.2      1.512      4.357
REMARK  2 active torsions:
REMARK  status: ('A' for Active; 'I' for Inactive)
REMARK    1  A    between atoms: C7_7  and  C9_9 
REMARK    2  A    between atoms: C8_8  and  C10_10 
ROOT
HETATM    1  C1  UNL     1     -34.007   7.228   5.449  1.00 20.00     0.012 C 
HETATM    2  C2  UNL     1     -33.185   7.449   4.602  1.00 20.00    -0.112 C 
HETATM    3  C6  UNL     1     -32.204   7.715   3.590  1.00 20.00     0.074 A 
HETATM    4  C9  UNL     1     -32.674   8.324   2.287  1.00 20.00     0.015 A 
HETATM    5  C10 UNL     1     -32.229   6.869   2.336  1.00 20.00     0.015 A 
ENDROOT
BRANCH   4   6
HETATM    6  C7  UNL     1     -31.769   8.937   1.208  1.00 20.00     0.014 C 
HETATM    7  C3  UNL     1     -32.353   8.796  -0.185  1.00 20.00    -0.025 C 
HETATM    8  C4  UNL     1     -33.455   9.564  -0.230  1.00 20.00    -0.025 C 
HETATM    9  C8  UNL     1     -33.603  10.213   1.133  1.00 20.00     0.014 C 
HETATM   10  C5  UNL     1     -32.098  10.432   1.404  1.00 20.00     0.018 C 
ENDBRANCH   4   6
TORSDOF 2
ENDMDL
MODEL 3
REMARK VINA RESULT:      -4.9      1.280      4.297
REMARK  2 active torsions:
REMARK  status: ('A' for Active; 'I' for Inactive)
REMARK    1  A    between atoms: C7_7  and  C9_9 
REMARK    2  A    between atoms: C8_8  and  C10_10 
ROOT
HETATM    1  C1  UNL     1     -33.859   7.319   5.861  1.00 20.00     0.012 C 
HETATM    2  C2  UNL     1     -33.348   7.156   4.787  1.00 20.00    -0.112 C 
HETATM    3  C6  UNL     1     -32.737   6.961   3.503  1.00 20.00     0.074 A 
HETATM    4  C9  UNL     1     -33.192   7.841   2.359  1.00 20.00     0.015 A 
HETATM    5  C10 UNL     1     -33.583   6.371   2.396  1.00 20.00     0.015 A 
ENDROOT
BRANCH   4   6
HETATM    6  C7  UNL     1     -32.482   7.987   1.005  1.00 20.00     0.014 C 
HETATM    7  C3  UNL     1     -33.130   9.036   0.122  1.00 20.00    -0.025 C 
HETATM    8  C4  UNL     1     -32.927  10.228   0.710  1.00 20.00    -0.025 C 
HETATM    9  C8  UNL     1     -32.145   9.969   1.984  1.00 20.00     0.014 C 
HETATM   10  C5  UNL     1     -31.260   8.827   1.436  1.00 20.00     0.018 C 
ENDBRANCH   4   6
TORSDOF 2
ENDMDL
MODEL 4
REMARK VINA RESULT:      -4.8      1.324      2.384
REMARK  2 active torsions:
REMARK  status: ('A' for Active; 'I' for Inactive)
REMARK    1  A    between atoms: C7_7  and  C9_9 
REMARK    2  A    between atoms: C8_8  and  C10_10 
ROOT
HETATM    1  C1  UNL     1     -31.351   8.774   2.542  1.00 20.00     0.012 C 
HETATM    2  C2  UNL     1     -32.192   7.920   2.464  1.00 20.00    -0.112 C 
HETATM    3  C6  UNL     1     -33.197   6.900   2.372  1.00 20.00     0.074 A 
HETATM    4  C9  UNL     1     -33.260   5.864   3.473  1.00 20.00     0.015 A 
HETATM    5  C10 UNL     1     -32.748   5.483   2.091  1.00 20.00     0.015 A 
ENDROOT
BRANCH   4   6
HETATM    6  C7  UNL     1     -34.414   4.878   3.708  1.00 20.00     0.014 C 
HETATM    7  C3  UNL     1     -34.277   4.130   5.021  1.00 20.00    -0.025 C 
HETATM    8  C4  UNL     1     -34.431   5.032   6.007  1.00 20.00    -0.025 C 
HETATM    9  C8  UNL     1     -34.668   6.377   5.348  1.00 20.00     0.014 C 
HETATM   10  C5  UNL     1     -35.514   5.862   4.162  1.00 20.00     0.018 C 
ENDBRANCH   4   6
TORSDOF 2
ENDMDL
MODEL 5
REMARK VINA RESULT:      -4.4     10.371     11.256
REMARK  2 active torsions:
REMARK  status: ('A' for Active; 'I' for Inactive)
REMARK    1  A    between atoms: C7_7  and  C9_9 
REMARK    2  A    between atoms: C8_8  and  C10_10 
ROOT
HETATM    1  C1  UNL     1     -35.854  17.543   0.724  1.00 20.00     0.012 C 
HETATM    2  C2  UNL     1     -35.297  17.692  -0.330  1.00 20.00    -0.112 C 
HETATM    3  C6  UNL     1     -34.632  17.868  -1.589  1.00 20.00     0.074 A 
HETATM    4  C9  UNL     1     -34.144  16.633  -2.313  1.00 20.00     0.015 A 
HETATM    5  C10 UNL     1     -33.149  17.578  -1.656  1.00 20.00     0.015 A 
ENDROOT
BRANCH   4   6
HETATM    6  C7  UNL     1     -33.673  16.580  -3.774  1.00 20.00     0.014 C 
HETATM    7  C3  UNL     1     -33.297  15.177  -4.211  1.00 20.00    -0.025 C 
HETATM    8  C4  UNL     1     -34.428  14.450  -4.221  1.00 20.00    -0.025 C 
HETATM    9  C8  UNL     1     -35.554  15.371  -3.791  1.00 20.00     0.014 C 
HETATM   10  C5  UNL     1     -35.037  16.646  -4.495  1.00 20.00     0.018 C 
ENDBRANCH   4   6
TORSDOF 2
ENDMDL
MODEL 6
REMARK VINA RESULT:      -4.3     10.392     11.445
REMARK  2 active torsions:
REMARK  status: ('A' for Active; 'I' for Inactive)
REMARK    1  A    between atoms: C7_7  and  C9_9 
REMARK    2  A    between atoms: C8_8  and  C10_10 
ROOT
HETATM    1  C1  UNL     1     -32.882  18.977  -1.350  1.00 20.00     0.012 C 
HETATM    2  C2  UNL     1     -33.388  17.922  -1.621  1.00 20.00    -0.112 C 
HETATM    3  C6  UNL     1     -33.992  16.661  -1.945  1.00 20.00     0.074 A 
HETATM    4  C9  UNL     1     -34.349  16.396  -3.391  1.00 20.00     0.015 A 
HETATM    5  C10 UNL     1     -35.445  16.658  -2.368  1.00 20.00     0.015 A 
ENDROOT
BRANCH   4   6
HETATM    6  C7  UNL     1     -34.733  15.031  -3.981  1.00 20.00     0.014 C 
HETATM    7  C3  UNL     1     -35.242  15.139  -5.406  1.00 20.00    -0.025 C 
HETATM    8  C4  UNL     1     -34.205  15.528  -6.168  1.00 20.00    -0.025 C 
HETATM    9  C8  UNL     1     -33.008  15.679  -5.249  1.00 20.00     0.014 C 
HETATM   10  C5  UNL     1     -33.329  14.485  -4.321  1.00 20.00     0.018 C 
ENDBRANCH   4   6
TORSDOF 2
ENDMDL
MODEL 7
REMARK VINA RESULT:      -4.2     10.270     11.593
REMARK  2 active torsions:
REMARK  status: ('A' for Active; 'I' for Inactive)
REMARK    1  A    between atoms: C7_7  and  C9_9 
REMARK    2  A    between atoms: C8_8  and  C10_10 
ROOT
HETATM    1  C1  UNL     1     -33.088  14.447  -4.183  1.00 20.00     0.012 C 
HETATM    2  C2  UNL     1     -33.678  15.415  -3.786  1.00 20.00    -0.112 C 
HETATM    3  C6  UNL     1     -34.381  16.572  -3.311  1.00 20.00     0.074 A 
HETATM    4  C9  UNL     1     -34.169  16.992  -1.873  1.00 20.00     0.015 A 
HETATM    5  C10 UNL     1     -35.488  16.365  -2.301  1.00 20.00     0.015 A 
ENDROOT
BRANCH   4   6
HETATM    6  C7  UNL     1     -34.595  18.334  -1.261  1.00 20.00     0.014 C 
HETATM    7  C3  UNL     1     -34.285  18.419   0.221  1.00 20.00    -0.025 C 
HETATM    8  C4  UNL     1     -32.946  18.431   0.345  1.00 20.00    -0.025 C 
HETATM    9  C8  UNL     1     -32.369  18.353  -1.056  1.00 20.00     0.014 C 
HETATM   10  C5  UNL     1     -33.436  19.228  -1.751  1.00 20.00     0.018 C 
ENDBRANCH   4   6
TORSDOF 2
ENDMDL
MODEL 8
REMARK VINA RESULT:      -4.2     10.217     11.553
REMARK  2 active torsions:
REMARK  status: ('A' for Active; 'I' for Inactive)
REMARK    1  A    between atoms: C7_7  and  C9_9 
REMARK    2  A    between atoms: C8_8  and  C10_10 
ROOT
HETATM    1  C1  UNL     1     -36.239  13.579  -5.484  1.00 20.00     0.012 C 
HETATM    2  C2  UNL     1     -35.410  14.034  -4.744  1.00 20.00    -0.112 C 
HETATM    3  C6  UNL     1     -34.420  14.579  -3.859  1.00 20.00     0.074 A 
HETATM    4  C9  UNL     1     -34.401  16.077  -3.651  1.00 20.00     0.015 A 
HETATM    5  C10 UNL     1     -33.304  15.403  -4.462  1.00 20.00     0.015 A 
ENDROOT
BRANCH   4   6
HETATM    6  C7  UNL     1     -33.626  16.818  -2.551  1.00 20.00     0.014 C 
HETATM    7  C3  UNL     1     -33.523  18.308  -2.818  1.00 20.00    -0.025 C 
HETATM    8  C4  UNL     1     -34.765  18.813  -2.719  1.00 20.00    -0.025 C 
HETATM    9  C8  UNL     1     -35.691  17.659  -2.386  1.00 20.00     0.014 C 
HETATM   10  C5  UNL     1     -34.717  16.894  -1.462  1.00 20.00     0.018 C 
ENDBRANCH   4   6
TORSDOF 2
ENDMDL
MODEL 9
REMARK VINA RESULT:      -4.0     10.442     11.870
REMARK  2 active torsions:
REMARK  status: ('A' for Active; 'I' for Inactive)
REMARK    1  A    between atoms: C7_7  and  C9_9 
REMARK    2  A    between atoms: C8_8  and  C10_10 
ROOT
HETATM    1  C1  UNL     1     -34.943  16.624  -1.939  1.00 20.00     0.012 C 
HETATM    2  C2  UNL     1     -34.368  16.334  -2.952  1.00 20.00    -0.112 C 
HETATM    3  C6  UNL     1     -33.682  15.989  -4.164  1.00 20.00     0.074 A 
HETATM    4  C9  UNL     1     -34.350  15.009  -5.104  1.00 20.00     0.015 A 
HETATM    5  C10 UNL     1     -33.134  14.585  -4.295  1.00 20.00     0.015 A 
ENDROOT
BRANCH   4   6
HETATM    6  C7  UNL     1     -33.928  14.731  -6.554  1.00 20.00     0.014 C 
HETATM    7  C3  UNL     1     -34.641  13.529  -7.145  1.00 20.00    -0.025 C 
HETATM    8  C4  UNL     1     -35.940  13.858  -7.256  1.00 20.00    -0.025 C 
HETATM    9  C8  UNL     1     -36.088  15.276  -6.739  1.00 20.00     0.014 C 
HETATM   10  C5  UNL     1     -34.747  15.818  -7.283  1.00 20.00     0.018 C 
ENDBRANCH   4   6
TORSDOF 2
ENDMDL
