MODEL 1
REMARK VINA RESULT:      -5.8      0.000      0.000
REMARK  0 active torsions:
REMARK  status: ('A' for Active; 'I' for Inactive)
ROOT
HETATM    1  C1  UNL     1     -31.560   8.123   2.783  1.00 20.00     0.010 A 
HETATM    2  C2  UNL     1     -32.919   8.382   2.191  1.00 20.00     0.010 A 
HETATM    3  C3  UNL     1     -35.452   5.928   3.750  1.00 20.00     0.010 A 
HETATM    4  C4  UNL     1     -34.735   5.047   4.736  1.00 20.00     0.010 A 
HETATM    5  C5  UNL     1     -32.908   5.853   2.997  1.00 20.00     0.019 C 
HETATM    6  C6  UNL     1     -33.322   7.280   4.572  1.00 20.00     0.019 C 
HETATM    7  C7  UNL     1     -32.734   7.305   3.216  1.00 20.00    -0.038 A 
HETATM    8  C8  UNL     1     -33.982   6.095   3.984  1.00 20.00    -0.038 A 
ENDROOT
TORSDOF 0
ENDMDL
MODEL 2
REMARK VINA RESULT:      -5.7      0.018      3.411
REMARK  0 active torsions:
REMARK  status: ('A' for Active; 'I' for Inactive)
ROOT
HETATM    1  C1  UNL     1     -34.731   5.044   4.718  1.00 20.00     0.010 A 
HETATM    2  C2  UNL     1     -35.449   5.923   3.731  1.00 20.00     0.010 A 
HETATM    3  C3  UNL     1     -32.924   8.386   2.176  1.00 20.00     0.010 A 
HETATM    4  C4  UNL     1     -31.564   8.132   2.768  1.00 20.00     0.010 A 
HETATM    5  C5  UNL     1     -33.324   7.283   4.556  1.00 20.00     0.019 C 
HETATM    6  C6  UNL     1     -32.904   5.857   2.980  1.00 20.00     0.019 C 
HETATM    7  C7  UNL     1     -33.980   6.096   3.966  1.00 20.00    -0.038 A 
HETATM    8  C8  UNL     1     -32.735   7.310   3.200  1.00 20.00    -0.038 A 
ENDROOT
TORSDOF 0
ENDMDL
MODEL 3
REMARK VINA RESULT:      -5.5      0.843      1.535
REMARK  0 active torsions:
REMARK  status: ('A' for Active; 'I' for Inactive)
ROOT
HETATM    1  C1  UNL     1     -31.959   8.221   2.024  1.00 20.00     0.010 A 
HETATM    2  C2  UNL     1     -31.574   8.163   3.477  1.00 20.00     0.010 A 
HETATM    3  C3  UNL     1     -34.106   5.946   5.357  1.00 20.00     0.010 A 
HETATM    4  C4  UNL     1     -35.134   5.442   4.381  1.00 20.00     0.010 A 
HETATM    5  C5  UNL     1     -34.183   7.693   3.362  1.00 20.00     0.019 C 
HETATM    6  C6  UNL     1     -32.955   5.955   2.967  1.00 20.00     0.019 C 
HETATM    7  C7  UNL     1     -32.779   7.423   2.985  1.00 20.00    -0.038 A 
HETATM    8  C8  UNL     1     -34.028   6.330   3.912  1.00 20.00    -0.038 A 
ENDROOT
TORSDOF 0
ENDMDL
MODEL 4
REMARK VINA RESULT:      -5.4      0.835      3.443
REMARK  0 active torsions:
REMARK  status: ('A' for Active; 'I' for Inactive)
ROOT
HETATM    1  C1  UNL     1     -35.102   5.412   4.413  1.00 20.00     0.010 A 
HETATM    2  C2  UNL     1     -34.070   5.921   5.382  1.00 20.00     0.010 A 
HETATM    3  C3  UNL     1     -31.568   8.158   3.485  1.00 20.00     0.010 A 
HETATM    4  C4  UNL     1     -31.965   8.216   2.035  1.00 20.00     0.010 A 
HETATM    5  C5  UNL     1     -32.937   5.942   2.982  1.00 20.00     0.019 C 
HETATM    6  C6  UNL     1     -34.174   7.672   3.390  1.00 20.00     0.019 C 
HETATM    7  C7  UNL     1     -34.005   6.309   3.936  1.00 20.00    -0.038 A 
HETATM    8  C8  UNL     1     -32.772   7.411   3.001  1.00 20.00    -0.038 A 
ENDROOT
TORSDOF 0
ENDMDL
MODEL 5
REMARK VINA RESULT:      -4.7      0.911      1.685
REMARK  0 active torsions:
REMARK  status: ('A' for Active; 'I' for Inactive)
ROOT
HETATM    1  C1  UNL     1     -32.985   8.277   2.650  1.00 20.00     0.010 A 
HETATM    2  C2  UNL     1     -32.116   7.049   2.677  1.00 20.00     0.010 A 
HETATM    3  C3  UNL     1     -33.834   4.347   4.825  1.00 20.00     0.010 A 
HETATM    4  C4  UNL     1     -35.138   4.890   5.343  1.00 20.00     0.010 A 
HETATM    5  C5  UNL     1     -33.590   6.989   4.884  1.00 20.00     0.019 C 
HETATM    6  C6  UNL     1     -34.602   6.234   3.125  1.00 20.00     0.019 C 
HETATM    7  C7  UNL     1     -33.418   7.070   3.418  1.00 20.00    -0.038 A 
HETATM    8  C8  UNL     1     -34.265   5.738   4.477  1.00 20.00    -0.038 A 
ENDROOT
TORSDOF 0
ENDMDL
MODEL 6
REMARK VINA RESULT:      -4.7      0.941      3.480
REMARK  0 active torsions:
REMARK  status: ('A' for Active; 'I' for Inactive)
ROOT
HETATM    1  C1  UNL     1     -35.105   4.952   5.541  1.00 20.00     0.010 A 
HETATM    2  C2  UNL     1     -33.843   4.374   4.959  1.00 20.00     0.010 A 
HETATM    3  C3  UNL     1     -32.192   7.011   2.682  1.00 20.00     0.010 A 
HETATM    4  C4  UNL     1     -33.035   8.257   2.685  1.00 20.00     0.010 A 
HETATM    5  C5  UNL     1     -34.665   6.256   3.278  1.00 20.00     0.019 C 
HETATM    6  C6  UNL     1     -33.541   7.011   4.967  1.00 20.00     0.019 C 
HETATM    7  C7  UNL     1     -34.263   5.770   4.615  1.00 20.00    -0.038 A 
HETATM    8  C8  UNL     1     -33.450   7.070   3.492  1.00 20.00    -0.038 A 
ENDROOT
TORSDOF 0
ENDMDL
MODEL 7
REMARK VINA RESULT:      -4.4      1.275      3.625
REMARK  0 active torsions:
REMARK  status: ('A' for Active; 'I' for Inactive)
ROOT
HETATM    1  C1  UNL     1     -33.468   6.354   4.705  1.00 20.00     0.010 A 
HETATM    2  C2  UNL     1     -34.255   7.604   4.415  1.00 20.00     0.010 A 
HETATM    3  C3  UNL     1     -32.620   9.457   1.457  1.00 20.00     0.010 A 
HETATM    4  C4  UNL     1     -31.418   8.678   0.995  1.00 20.00     0.010 A 
HETATM    5  C5  UNL     1     -31.787   8.037   3.538  1.00 20.00     0.019 C 
HETATM    6  C6  UNL     1     -33.035   6.931   2.156  1.00 20.00     0.019 C 
HETATM    7  C7  UNL     1     -33.047   7.265   3.596  1.00 20.00    -0.038 A 
HETATM    8  C8  UNL     1     -32.241   8.179   2.137  1.00 20.00    -0.038 A 
ENDROOT
TORSDOF 0
ENDMDL
MODEL 8
REMARK VINA RESULT:      -4.4      1.291      1.718
REMARK  0 active torsions:
REMARK  status: ('A' for Active; 'I' for Inactive)
ROOT
HETATM    1  C1  UNL     1     -31.426   8.662   1.021  1.00 20.00     0.010 A 
HETATM    2  C2  UNL     1     -32.646   9.429   1.454  1.00 20.00     0.010 A 
HETATM    3  C3  UNL     1     -34.259   7.623   4.454  1.00 20.00     0.010 A 
HETATM    4  C4  UNL     1     -33.449   6.398   4.782  1.00 20.00     0.010 A 
HETATM    5  C5  UNL     1     -33.013   6.914   2.221  1.00 20.00     0.019 C 
HETATM    6  C6  UNL     1     -31.797   8.083   3.579  1.00 20.00     0.019 C 
HETATM    7  C7  UNL     1     -32.245   8.177   2.173  1.00 20.00    -0.038 A 
HETATM    8  C8  UNL     1     -33.041   7.286   3.652  1.00 20.00    -0.038 A 
ENDROOT
TORSDOF 0
ENDMDL
MODEL 9
REMARK VINA RESULT:      -4.3      1.077      1.967
REMARK  0 active torsions:
REMARK  status: ('A' for Active; 'I' for Inactive)
ROOT
HETATM    1  C1  UNL     1     -32.204   9.592   1.707  1.00 20.00     0.010 A 
HETATM    2  C2  UNL     1     -31.584   8.393   1.042  1.00 20.00     0.010 A 
HETATM    3  C3  UNL     1     -32.971   5.193   2.684  1.00 20.00     0.010 A 
HETATM    4  C4  UNL     1     -33.942   5.580   3.766  1.00 20.00     0.010 A 
HETATM    5  C5  UNL     1     -32.290   7.630   3.484  1.00 20.00     0.019 C 
HETATM    6  C6  UNL     1     -33.907   7.592   2.045  1.00 20.00     0.019 C 
HETATM    7  C7  UNL     1     -32.570   8.214   2.155  1.00 20.00    -0.038 A 
HETATM    8  C8  UNL     1     -33.254   6.636   2.965  1.00 20.00    -0.038 A 
ENDROOT
TORSDOF 0
ENDMDL
