MODEL 1
REMARK VINA RESULT:      -4.5      0.000      0.000
REMARK  0 active torsions:
REMARK  status: ('A' for Active; 'I' for Inactive)
ROOT
HETATM    1  C1  UNL     1     -35.431   5.763   3.962  1.00 20.00     0.080 A 
HETATM    2  C2  UNL     1     -34.558   4.759   4.645  1.00 20.00     0.207 A 
HETATM    3  C3  UNL     1     -33.990   6.094   4.262  1.00 20.00     0.128 A 
HETATM    4  F4  UNL     1     -34.182   3.646   3.914  1.00 20.00    -0.246 F 
HETATM    5 CL5  UNL     1     -32.863   6.170   2.912  1.00 20.00    -0.103 Cl
HETATM    6 BR6  UNL     1     -33.636   7.346   5.666  1.00 20.00    -0.065 Br
ENDROOT
TORSDOF 0
ENDMDL
MODEL 2
REMARK VINA RESULT:      -4.2      2.262      2.415
REMARK  0 active torsions:
REMARK  status: ('A' for Active; 'I' for Inactive)
ROOT
HETATM    1  C1  UNL     1     -33.598   5.201   3.558  1.00 20.00     0.080 A 
HETATM    2  C2  UNL     1     -34.748   6.073   3.162  1.00 20.00     0.207 A 
HETATM    3  C3  UNL     1     -33.577   6.674   3.883  1.00 20.00     0.128 A 
HETATM    4  F4  UNL     1     -35.935   5.906   3.854  1.00 20.00    -0.246 F 
HETATM    5 CL5  UNL     1     -33.781   7.151   5.565  1.00 20.00    -0.103 Cl
HETATM    6 BR6  UNL     1     -32.393   7.792   2.878  1.00 20.00    -0.065 Br
ENDROOT
TORSDOF 0
ENDMDL
MODEL 3
REMARK VINA RESULT:      -3.9      2.627      2.764
REMARK  0 active torsions:
REMARK  status: ('A' for Active; 'I' for Inactive)
ROOT
HETATM    1  C1  UNL     1     -34.548   6.604   2.962  1.00 20.00     0.080 A 
HETATM    2  C2  UNL     1     -33.108   6.210   3.061  1.00 20.00     0.207 A 
HETATM    3  C3  UNL     1     -33.977   6.151   4.283  1.00 20.00     0.128 A 
HETATM    4  F4  UNL     1     -32.168   7.221   2.966  1.00 20.00    -0.246 F 
HETATM    5 CL5  UNL     1     -33.742   7.363   5.538  1.00 20.00    -0.103 Cl
HETATM    6 BR6  UNL     1     -34.486   4.424   4.931  1.00 20.00    -0.065 Br
ENDROOT
TORSDOF 0
ENDMDL
MODEL 4
REMARK VINA RESULT:      -3.7      3.445      3.793
REMARK  0 active torsions:
REMARK  status: ('A' for Active; 'I' for Inactive)
ROOT
HETATM    1  C1  UNL     1     -33.033   8.066   2.445  1.00 20.00     0.080 A 
HETATM    2  C2  UNL     1     -31.784   7.690   3.178  1.00 20.00     0.207 A 
HETATM    3  C3  UNL     1     -33.057   6.944   3.454  1.00 20.00     0.128 A 
HETATM    4  F4  UNL     1     -31.318   8.578   4.131  1.00 20.00    -0.246 F 
HETATM    5 CL5  UNL     1     -33.881   7.229   4.983  1.00 20.00    -0.103 Cl
HETATM    6 BR6  UNL     1     -33.202   5.154   2.794  1.00 20.00    -0.065 Br
ENDROOT
TORSDOF 0
ENDMDL
MODEL 5
REMARK VINA RESULT:      -3.6      2.782      2.898
REMARK  0 active torsions:
REMARK  status: ('A' for Active; 'I' for Inactive)
ROOT
HETATM    1  C1  UNL     1     -35.178   6.502   3.728  1.00 20.00     0.080 A 
HETATM    2  C2  UNL     1     -33.949   6.909   4.478  1.00 20.00     0.207 A 
HETATM    3  C3  UNL     1     -34.120   5.479   4.057  1.00 20.00     0.128 A 
HETATM    4  F4  UNL     1     -34.101   7.228   5.816  1.00 20.00    -0.246 F 
HETATM    5 CL5  UNL     1     -34.489   4.280   5.292  1.00 20.00    -0.103 Cl
HETATM    6 BR6  UNL     1     -33.025   4.834   2.626  1.00 20.00    -0.065 Br
ENDROOT
TORSDOF 0
ENDMDL
MODEL 6
REMARK VINA RESULT:      -3.6      2.114      2.253
REMARK  0 active torsions:
REMARK  status: ('A' for Active; 'I' for Inactive)
ROOT
HETATM    1  C1  UNL     1     -34.088   7.012   5.660  1.00 20.00     0.080 A 
HETATM    2  C2  UNL     1     -33.736   5.570   5.473  1.00 20.00     0.207 A 
HETATM    3  C3  UNL     1     -34.154   6.389   4.287  1.00 20.00     0.128 A 
HETATM    4  F4  UNL     1     -34.622   4.632   5.975  1.00 20.00    -0.246 F 
HETATM    5 CL5  UNL     1     -35.743   6.102   3.587  1.00 20.00    -0.103 Cl
HETATM    6 BR6  UNL     1     -32.804   6.875   3.021  1.00 20.00    -0.065 Br
ENDROOT
TORSDOF 0
ENDMDL
MODEL 7
REMARK VINA RESULT:      -3.6      2.975      3.511
REMARK  0 active torsions:
REMARK  status: ('A' for Active; 'I' for Inactive)
ROOT
HETATM    1  C1  UNL     1     -31.583   7.970   3.326  1.00 20.00     0.080 A 
HETATM    2  C2  UNL     1     -32.842   8.396   2.638  1.00 20.00     0.207 A 
HETATM    3  C3  UNL     1     -32.845   7.157   3.485  1.00 20.00     0.128 A 
HETATM    4  F4  UNL     1     -32.888   8.257   1.262  1.00 20.00    -0.246 F 
HETATM    5 CL5  UNL     1     -32.923   5.592   2.681  1.00 20.00    -0.103 Cl
HETATM    6 BR6  UNL     1     -33.749   7.231   5.169  1.00 20.00    -0.065 Br
ENDROOT
TORSDOF 0
ENDMDL
MODEL 8
REMARK VINA RESULT:      -3.5      1.963      2.335
REMARK  0 active torsions:
REMARK  status: ('A' for Active; 'I' for Inactive)
ROOT
HETATM    1  C1  UNL     1     -32.802   6.126   3.166  1.00 20.00     0.080 A 
HETATM    2  C2  UNL     1     -34.181   6.626   2.867  1.00 20.00     0.207 A 
HETATM    3  C3  UNL     1     -33.894   5.997   4.200  1.00 20.00     0.128 A 
HETATM    4  F4  UNL     1     -34.927   5.912   1.946  1.00 20.00    -0.246 F 
HETATM    5 CL5  UNL     1     -34.536   4.390   4.524  1.00 20.00    -0.103 Cl
HETATM    6 BR6  UNL     1     -33.816   7.145   5.728  1.00 20.00    -0.065 Br
ENDROOT
TORSDOF 0
ENDMDL
MODEL 9
REMARK VINA RESULT:      -3.4      3.238      3.429
REMARK  0 active torsions:
REMARK  status: ('A' for Active; 'I' for Inactive)
ROOT
HETATM    1  C1  UNL     1     -32.894   6.400   2.761  1.00 20.00     0.080 A 
HETATM    2  C2  UNL     1     -33.789   7.390   3.437  1.00 20.00     0.207 A 
HETATM    3  C3  UNL     1     -32.495   7.853   2.835  1.00 20.00     0.128 A 
HETATM    4  F4  UNL     1     -33.887   7.316   4.816  1.00 20.00    -0.246 F 
HETATM    5 CL5  UNL     1     -31.176   8.292   3.915  1.00 20.00    -0.103 Cl
HETATM    6 BR6  UNL     1     -32.581   8.885   1.226  1.00 20.00    -0.065 Br
ENDROOT
TORSDOF 0
ENDMDL
