MODEL 1
REMARK VINA RESULT:      -4.2      0.000      0.000
REMARK  2 active torsions:
REMARK  status: ('A' for Active; 'I' for Inactive)
REMARK    1  A    between atoms: C7_7  and  C9_9 
REMARK    2  A    between atoms: C8_8  and  C10_10 
ROOT
HETATM    1  C1  UNL     1     -35.630  15.096  -4.602  1.00 20.00     0.005 C 
HETATM    2  C2  UNL     1     -34.464  14.148  -4.212  1.00 20.00     0.005 C 
HETATM    3  C3  UNL     1     -34.143  16.771  -5.677  1.00 20.00     0.005 C 
HETATM    4  C4  UNL     1     -33.131  15.594  -5.731  1.00 20.00     0.005 C 
HETATM    5  C7  UNL     1     -35.135  16.569  -4.512  1.00 20.00    -0.010 C 
HETATM    6  C8  UNL     1     -33.113  14.882  -4.348  1.00 20.00    -0.010 C 
ENDROOT
BRANCH   5   7
HETATM    7  C9  UNL     1     -34.432  16.632  -3.148  1.00 20.00    -0.006 C 
HETATM    8  C5  UNL     1     -34.701  16.854  -1.634  1.00 20.00     0.006 C 
HETATM    9  C6  UNL     1     -33.264  17.537  -1.661  1.00 20.00     0.006 C 
HETATM   10  C10 UNL     1     -33.716  18.030  -3.064  1.00 20.00    -0.006 C 
ENDBRANCH   5   7
TORSDOF 2
ENDMDL
MODEL 2
REMARK VINA RESULT:      -4.2      0.937      3.743
REMARK  2 active torsions:
REMARK  status: ('A' for Active; 'I' for Inactive)
REMARK    1  A    between atoms: C7_7  and  C9_9 
REMARK    2  A    between atoms: C8_8  and  C10_10 
ROOT
HETATM    1  C1  UNL     1     -34.742  18.543  -3.479  1.00 20.00     0.005 C 
HETATM    2  C2  UNL     1     -33.351  18.657  -2.796  1.00 20.00     0.005 C 
HETATM    3  C3  UNL     1     -35.568  16.807  -1.905  1.00 20.00     0.005 C 
HETATM    4  C4  UNL     1     -34.421  17.323  -0.994  1.00 20.00     0.005 C 
HETATM    5  C7  UNL     1     -35.228  17.067  -3.388  1.00 20.00    -0.010 C 
HETATM    6  C8  UNL     1     -33.126  17.463  -1.844  1.00 20.00    -0.010 C 
ENDROOT
BRANCH   5   7
HETATM    7  C9  UNL     1     -34.009  16.254  -3.845  1.00 20.00    -0.006 C 
HETATM    8  C5  UNL     1     -33.163  15.903  -5.100  1.00 20.00     0.006 C 
HETATM    9  C6  UNL     1     -32.997  14.497  -4.375  1.00 20.00     0.006 C 
HETATM   10  C10 UNL     1     -34.462  14.750  -3.926  1.00 20.00    -0.006 C 
ENDBRANCH   5   7
TORSDOF 2
ENDMDL
MODEL 3
REMARK VINA RESULT:      -4.1      0.914      2.285
REMARK  2 active torsions:
REMARK  status: ('A' for Active; 'I' for Inactive)
REMARK    1  A    between atoms: C7_7  and  C9_9 
REMARK    2  A    between atoms: C8_8  and  C10_10 
ROOT
HETATM    1  C1  UNL     1     -33.308  15.286  -4.540  1.00 20.00     0.005 C 
HETATM    2  C2  UNL     1     -33.327  16.629  -5.322  1.00 20.00     0.005 C 
HETATM    3  C3  UNL     1     -35.768  15.248  -4.197  1.00 20.00     0.005 C 
HETATM    4  C4  UNL     1     -35.782  16.255  -5.379  1.00 20.00     0.005 C 
HETATM    5  C7  UNL     1     -34.419  15.321  -3.451  1.00 20.00    -0.010 C 
HETATM    6  C8  UNL     1     -34.688  17.333  -5.136  1.00 20.00    -0.010 C 
ENDROOT
BRANCH   5   7
HETATM    7  C9  UNL     1     -34.217  16.682  -2.770  1.00 20.00    -0.006 C 
HETATM    8  C5  UNL     1     -33.284  17.441  -1.786  1.00 20.00     0.006 C 
HETATM    9  C6  UNL     1     -34.630  18.168  -1.350  1.00 20.00     0.006 C 
HETATM   10  C10 UNL     1     -35.262  16.770  -1.597  1.00 20.00    -0.006 C 
ENDBRANCH   5   7
TORSDOF 2
ENDMDL
MODEL 4
REMARK VINA RESULT:      -4.1     11.579     12.889
REMARK  2 active torsions:
REMARK  status: ('A' for Active; 'I' for Inactive)
REMARK    1  A    between atoms: C7_7  and  C9_9 
REMARK    2  A    between atoms: C8_8  and  C10_10 
ROOT
HETATM    1  C1  UNL     1     -35.367   6.041   3.721  1.00 20.00     0.005 C 
HETATM    2  C2  UNL     1     -34.995   5.755   5.202  1.00 20.00     0.005 C 
HETATM    3  C3  UNL     1     -33.716   4.425   2.809  1.00 20.00     0.005 C 
HETATM    4  C4  UNL     1     -33.759   3.826   4.241  1.00 20.00     0.005 C 
HETATM    5  C7  UNL     1     -34.085   5.923   2.847  1.00 20.00    -0.010 C 
HETATM    6  C8  UNL     1     -33.660   4.984   5.275  1.00 20.00    -0.010 C 
ENDROOT
BRANCH   5   7
HETATM    7  C9  UNL     1     -33.044   6.748   3.616  1.00 20.00    -0.006 C 
HETATM    8  C5  UNL     1     -32.893   7.993   4.534  1.00 20.00     0.006 C 
HETATM    9  C6  UNL     1     -31.493   8.147   3.794  1.00 20.00     0.006 C 
HETATM   10  C10 UNL     1     -32.285   7.632   2.560  1.00 20.00    -0.006 C 
ENDBRANCH   5   7
TORSDOF 2
ENDMDL
MODEL 5
REMARK VINA RESULT:      -4.0      2.052      3.361
REMARK  2 active torsions:
REMARK  status: ('A' for Active; 'I' for Inactive)
REMARK    1  A    between atoms: C7_7  and  C9_9 
REMARK    2  A    between atoms: C8_8  and  C10_10 
ROOT
HETATM    1  C1  UNL     1     -34.798  13.223  -7.194  1.00 20.00     0.005 C 
HETATM    2  C2  UNL     1     -34.051  14.386  -7.905  1.00 20.00     0.005 C 
HETATM    3  C3  UNL     1     -36.667  14.664  -6.418  1.00 20.00     0.005 C 
HETATM    4  C4  UNL     1     -36.174  15.622  -7.536  1.00 20.00     0.005 C 
HETATM    5  C7  UNL     1     -35.503  13.779  -5.923  1.00 20.00    -0.010 C 
HETATM    6  C8  UNL     1     -34.626  15.744  -7.450  1.00 20.00    -0.010 C 
ENDROOT
BRANCH   5   7
HETATM    7  C9  UNL     1     -34.409  14.608  -5.235  1.00 20.00    -0.006 C 
HETATM    8  C5  UNL     1     -33.129  14.477  -4.365  1.00 20.00     0.006 C 
HETATM    9  C6  UNL     1     -33.637  15.843  -3.726  1.00 20.00     0.006 C 
HETATM   10  C10 UNL     1     -35.043  15.212  -3.928  1.00 20.00    -0.006 C 
ENDBRANCH   5   7
TORSDOF 2
ENDMDL
MODEL 6
REMARK VINA RESULT:      -4.0      1.143      3.617
REMARK  2 active torsions:
REMARK  status: ('A' for Active; 'I' for Inactive)
REMARK    1  A    between atoms: C7_7  and  C9_9 
REMARK    2  A    between atoms: C8_8  and  C10_10 
ROOT
HETATM    1  C1  UNL     1     -34.260  16.250  -3.153  1.00 20.00     0.005 C 
HETATM    2  C2  UNL     1     -34.419  17.295  -4.291  1.00 20.00     0.005 C 
HETATM    3  C3  UNL     1     -33.273  14.521  -4.640  1.00 20.00     0.005 C 
HETATM    4  C4  UNL     1     -32.980  15.728  -5.574  1.00 20.00     0.005 C 
HETATM    5  C7  UNL     1     -34.489  14.826  -3.740  1.00 20.00    -0.010 C 
HETATM    6  C8  UNL     1     -34.255  16.614  -5.666  1.00 20.00    -0.010 C 
ENDROOT
BRANCH   5   7
HETATM    7  C9  UNL     1     -35.780  14.975  -4.557  1.00 20.00    -0.006 C 
HETATM    8  C5  UNL     1     -37.325  15.059  -4.414  1.00 20.00     0.006 C 
HETATM    9  C6  UNL     1     -37.317  14.292  -5.808  1.00 20.00     0.006 C 
HETATM   10  C10 UNL     1     -36.076  13.575  -5.210  1.00 20.00    -0.006 C 
ENDBRANCH   5   7
TORSDOF 2
ENDMDL
MODEL 7
REMARK VINA RESULT:      -3.9      1.099      3.460
REMARK  2 active torsions:
REMARK  status: ('A' for Active; 'I' for Inactive)
REMARK    1  A    between atoms: C7_7  and  C9_9 
REMARK    2  A    between atoms: C8_8  and  C10_10 
ROOT
HETATM    1  C1  UNL     1     -34.896  16.761  -1.731  1.00 20.00     0.005 C 
HETATM    2  C2  UNL     1     -36.185  17.057  -2.546  1.00 20.00     0.005 C 
HETATM    3  C3  UNL     1     -33.421  18.048  -3.261  1.00 20.00     0.005 C 
HETATM    4  C4  UNL     1     -34.749  18.715  -3.713  1.00 20.00     0.005 C 
HETATM    5  C7  UNL     1     -33.696  16.631  -2.714  1.00 20.00    -0.010 C 
HETATM    6  C8  UNL     1     -35.817  17.609  -3.940  1.00 20.00    -0.010 C 
ENDROOT
BRANCH   5   7
HETATM    7  C9  UNL     1     -34.222  15.690  -3.806  1.00 20.00    -0.006 C 
HETATM    8  C5  UNL     1     -34.517  14.194  -4.106  1.00 20.00     0.006 C 
HETATM    9  C6  UNL     1     -34.082  14.589  -5.585  1.00 20.00     0.006 C 
HETATM   10  C10 UNL     1     -33.064  15.508  -4.854  1.00 20.00    -0.006 C 
ENDBRANCH   5   7
TORSDOF 2
ENDMDL
MODEL 8
REMARK VINA RESULT:      -3.9      1.374      2.693
REMARK  2 active torsions:
REMARK  status: ('A' for Active; 'I' for Inactive)
REMARK    1  A    between atoms: C7_7  and  C9_9 
REMARK    2  A    between atoms: C8_8  and  C10_10 
ROOT
HETATM    1  C1  UNL     1     -33.247  14.328  -4.410  1.00 20.00     0.005 C 
HETATM    2  C2  UNL     1     -32.912  15.609  -5.223  1.00 20.00     0.005 C 
HETATM    3  C3  UNL     1     -35.301  13.825  -5.713  1.00 20.00     0.005 C 
HETATM    4  C4  UNL     1     -34.660  14.763  -6.772  1.00 20.00     0.005 C 
HETATM    5  C7  UNL     1     -34.793  14.189  -4.302  1.00 20.00    -0.010 C 
HETATM    6  C8  UNL     1     -34.134  16.041  -6.061  1.00 20.00    -0.010 C 
ENDROOT
BRANCH   5   7
HETATM    7  C9  UNL     1     -35.254  15.589  -3.873  1.00 20.00    -0.006 C 
HETATM    8  C5  UNL     1     -35.433  16.498  -2.626  1.00 20.00     0.006 C 
HETATM    9  C6  UNL     1     -36.682  17.060  -3.436  1.00 20.00     0.006 C 
HETATM   10  C10 UNL     1     -36.827  15.583  -3.898  1.00 20.00    -0.006 C 
ENDBRANCH   5   7
TORSDOF 2
ENDMDL
MODEL 9
REMARK VINA RESULT:      -3.9      0.736      1.066
REMARK  2 active torsions:
REMARK  status: ('A' for Active; 'I' for Inactive)
REMARK    1  A    between atoms: C7_7  and  C9_9 
REMARK    2  A    between atoms: C8_8  and  C10_10 
ROOT
HETATM    1  C1  UNL     1     -35.757  15.953  -5.317  1.00 20.00     0.005 C 
HETATM    2  C2  UNL     1     -35.726  14.574  -4.602  1.00 20.00     0.005 C 
HETATM    3  C3  UNL     1     -33.292  16.252  -5.228  1.00 20.00     0.005 C 
HETATM    4  C4  UNL     1     -33.279  14.714  -5.010  1.00 20.00     0.005 C 
HETATM    5  C7  UNL     1     -34.626  16.849  -4.733  1.00 20.00    -0.010 C 
HETATM    6  C8  UNL     1     -34.349  14.348  -3.942  1.00 20.00    -0.010 C 
ENDROOT
BRANCH   5   7
HETATM    7  C9  UNL     1     -34.791  16.697  -3.214  1.00 20.00    -0.006 C 
HETATM    8  C5  UNL     1     -35.695  17.124  -2.025  1.00 20.00     0.006 C 
HETATM    9  C6  UNL     1     -34.328  17.102  -1.211  1.00 20.00     0.006 C 
HETATM   10  C10 UNL     1     -33.728  17.640  -2.539  1.00 20.00    -0.006 C 
ENDBRANCH   5   7
TORSDOF 2
ENDMDL
