MODEL 1
REMARK VINA RESULT:      -6.4      0.000      0.000
REMARK  4 active torsions:
REMARK  status: ('A' for Active; 'I' for Inactive)
REMARK    1  A    between atoms: C1_1  and  C6_6 
REMARK    2  A    between atoms: C2_2  and  C7_7 
REMARK    3  A    between atoms: C6_6  and  C8_8 
REMARK    4  A    between atoms: C7_7  and  C9_9 
ROOT
HETATM    1  C1  UNL     1     -32.561   7.938   2.320  1.00 20.00    -0.107 C 
HETATM    2  C2  UNL     1     -33.142   7.002   2.799  1.00 20.00    -0.106 C 
ENDROOT
BRANCH   2   3
HETATM    3  C7  UNL     1     -33.851   5.850   3.375  1.00 20.00     0.097 C 
BRANCH   3   4
HETATM    4  C9  UNL     1     -34.480   6.138   4.750  1.00 20.00    -0.012 C 
HETATM    5  C4  UNL     1     -33.716   7.214   5.525  1.00 20.00     0.010 C 
HETATM    6  C5  UNL     1     -34.634   4.872   5.596  1.00 20.00     0.010 C 
ENDBRANCH   3   4
ENDBRANCH   2   3
BRANCH   1   7
HETATM    7  C6  UNL     1     -31.845   9.072   1.722  1.00 20.00     0.093 C 
BRANCH   7   8
HETATM    8  C8  UNL     1     -32.776   9.988   0.927  1.00 20.00     0.007 C 
HETATM    9  C3  UNL     1     -33.146   9.422  -0.438  1.00 20.00     0.006 C 
ENDBRANCH   7   8
ENDBRANCH   1   7
TORSDOF 4
ENDMDL
MODEL 2
REMARK VINA RESULT:      -6.0      0.859      5.138
REMARK  4 active torsions:
REMARK  status: ('A' for Active; 'I' for Inactive)
REMARK    1  A    between atoms: C1_1  and  C6_6 
REMARK    2  A    between atoms: C2_2  and  C7_7 
REMARK    3  A    between atoms: C6_6  and  C8_8 
REMARK    4  A    between atoms: C7_7  and  C9_9 
ROOT
HETATM    1  C1  UNL     1     -33.085   7.521   3.296  1.00 20.00    -0.107 C 
HETATM    2  C2  UNL     1     -32.401   7.958   2.409  1.00 20.00    -0.106 C 
ENDROOT
BRANCH   2   3
HETATM    3  C7  UNL     1     -31.572   8.485   1.317  1.00 20.00     0.097 C 
BRANCH   3   4
HETATM    4  C9  UNL     1     -32.212   9.670   0.573  1.00 20.00    -0.012 C 
HETATM    5  C4  UNL     1     -32.857  10.676   1.529  1.00 20.00     0.010 C 
HETATM    6  C5  UNL     1     -33.215   9.217  -0.490  1.00 20.00     0.010 C 
ENDBRANCH   3   4
ENDBRANCH   2   3
BRANCH   1   7
HETATM    7  C6  UNL     1     -33.929   6.979   4.368  1.00 20.00     0.093 C 
BRANCH   7   8
HETATM    8  C8  UNL     1     -34.821   5.837   3.880  1.00 20.00     0.007 C 
HETATM    9  C3  UNL     1     -34.484   4.500   4.526  1.00 20.00     0.006 C 
ENDBRANCH   7   8
ENDBRANCH   1   7
TORSDOF 4
ENDMDL
MODEL 3
REMARK VINA RESULT:      -5.9      0.694      5.233
REMARK  4 active torsions:
REMARK  status: ('A' for Active; 'I' for Inactive)
REMARK    1  A    between atoms: C1_1  and  C6_6 
REMARK    2  A    between atoms: C2_2  and  C7_7 
REMARK    3  A    between atoms: C6_6  and  C8_8 
REMARK    4  A    between atoms: C7_7  and  C9_9 
ROOT
HETATM    1  C1  UNL     1     -33.556   6.616   3.249  1.00 20.00    -0.107 C 
HETATM    2  C2  UNL     1     -32.889   7.415   2.647  1.00 20.00    -0.106 C 
ENDROOT
BRANCH   2   3
HETATM    3  C7  UNL     1     -32.078   8.386   1.900  1.00 20.00     0.097 C 
BRANCH   3   4
HETATM    4  C9  UNL     1     -32.913   9.436   1.145  1.00 20.00    -0.012 C 
HETATM    5  C4  UNL     1     -32.884   9.220  -0.370  1.00 20.00     0.010 C 
HETATM    6  C5  UNL     1     -32.500  10.867   1.493  1.00 20.00     0.010 C 
ENDBRANCH   3   4
ENDBRANCH   2   3
BRANCH   1   7
HETATM    7  C6  UNL     1     -34.377   5.636   3.971  1.00 20.00     0.093 C 
BRANCH   7   8
HETATM    8  C8  UNL     1     -34.458   5.940   5.467  1.00 20.00     0.007 C 
HETATM    9  C3  UNL     1     -33.769   7.243   5.849  1.00 20.00     0.006 C 
ENDBRANCH   7   8
ENDBRANCH   1   7
TORSDOF 4
ENDMDL
MODEL 4
REMARK VINA RESULT:      -5.8      0.873      5.148
REMARK  4 active torsions:
REMARK  status: ('A' for Active; 'I' for Inactive)
REMARK    1  A    between atoms: C1_1  and  C6_6 
REMARK    2  A    between atoms: C2_2  and  C7_7 
REMARK    3  A    between atoms: C6_6  and  C8_8 
REMARK    4  A    between atoms: C7_7  and  C9_9 
ROOT
HETATM    1  C1  UNL     1     -33.076   7.556   4.185  1.00 20.00    -0.107 C 
HETATM    2  C2  UNL     1     -32.605   7.884   3.129  1.00 20.00    -0.106 C 
ENDROOT
BRANCH   2   3
HETATM    3  C7  UNL     1     -32.039   8.294   1.837  1.00 20.00     0.097 C 
BRANCH   3   4
HETATM    4  C9  UNL     1     -32.897   9.329   1.088  1.00 20.00    -0.012 C 
HETATM    5  C4  UNL     1     -32.863   9.124  -0.428  1.00 20.00     0.010 C 
HETATM    6  C5  UNL     1     -32.517  10.768   1.444  1.00 20.00     0.010 C 
ENDBRANCH   3   4
ENDBRANCH   2   3
BRANCH   1   7
HETATM    7  C6  UNL     1     -33.661   7.168   5.475  1.00 20.00     0.093 C 
BRANCH   7   8
HETATM    8  C8  UNL     1     -34.411   5.838   5.392  1.00 20.00     0.007 C 
HETATM    9  C3  UNL     1     -35.149   5.652   4.073  1.00 20.00     0.006 C 
ENDBRANCH   7   8
ENDBRANCH   1   7
TORSDOF 4
ENDMDL
MODEL 5
REMARK VINA RESULT:      -5.2      1.007      4.830
REMARK  4 active torsions:
REMARK  status: ('A' for Active; 'I' for Inactive)
REMARK    1  A    between atoms: C1_1  and  C6_6 
REMARK    2  A    between atoms: C2_2  and  C7_7 
REMARK    3  A    between atoms: C6_6  and  C8_8 
REMARK    4  A    between atoms: C7_7  and  C9_9 
ROOT
HETATM    1  C1  UNL     1     -34.152   6.099   3.404  1.00 20.00    -0.107 C 
HETATM    2  C2  UNL     1     -33.481   6.604   2.545  1.00 20.00    -0.106 C 
ENDROOT
BRANCH   2   3
HETATM    3  C7  UNL     1     -32.650   7.215   1.498  1.00 20.00     0.097 C 
BRANCH   3   4
HETATM    4  C9  UNL     1     -31.836   8.426   1.986  1.00 20.00    -0.012 C 
HETATM    5  C4  UNL     1     -31.555   8.370   3.489  1.00 20.00     0.010 C 
HETATM    6  C5  UNL     1     -32.491   9.757   1.611  1.00 20.00     0.010 C 
ENDBRANCH   3   4
ENDBRANCH   2   3
BRANCH   1   7
HETATM    7  C6  UNL     1     -34.959   5.473   4.459  1.00 20.00     0.093 C 
BRANCH   7   8
HETATM    8  C8  UNL     1     -34.430   5.793   5.858  1.00 20.00     0.007 C 
HETATM    9  C3  UNL     1     -33.863   7.201   5.973  1.00 20.00     0.006 C 
ENDBRANCH   7   8
ENDBRANCH   1   7
TORSDOF 4
ENDMDL
MODEL 6
REMARK VINA RESULT:      -4.5      1.331      2.006
REMARK  4 active torsions:
REMARK  status: ('A' for Active; 'I' for Inactive)
REMARK    1  A    between atoms: C1_1  and  C6_6 
REMARK    2  A    between atoms: C2_2  and  C7_7 
REMARK    3  A    between atoms: C6_6  and  C8_8 
REMARK    4  A    between atoms: C7_7  and  C9_9 
ROOT
HETATM    1  C1  UNL     1     -33.403   7.107   2.398  1.00 20.00    -0.107 C 
HETATM    2  C2  UNL     1     -34.220   6.534   3.067  1.00 20.00    -0.106 C 
ENDROOT
BRANCH   2   3
HETATM    3  C7  UNL     1     -35.224   5.844   3.889  1.00 20.00     0.097 C 
BRANCH   3   4
HETATM    4  C9  UNL     1     -34.808   5.678   5.361  1.00 20.00    -0.012 C 
HETATM    5  C4  UNL     1     -34.026   6.885   5.883  1.00 20.00     0.010 C 
HETATM    6  C5  UNL     1     -34.026   4.385   5.603  1.00 20.00     0.010 C 
ENDBRANCH   3   4
ENDBRANCH   2   3
BRANCH   1   7
HETATM    7  C6  UNL     1     -32.411   7.822   1.585  1.00 20.00     0.093 C 
BRANCH   7   8
HETATM    8  C8  UNL     1     -31.592   8.813   2.412  1.00 20.00     0.007 C 
HETATM    9  C3  UNL     1     -31.359   8.347   3.843  1.00 20.00     0.006 C 
ENDBRANCH   7   8
ENDBRANCH   1   7
TORSDOF 4
ENDMDL
MODEL 7
REMARK VINA RESULT:      -4.0     10.439     11.371
REMARK  4 active torsions:
REMARK  status: ('A' for Active; 'I' for Inactive)
REMARK    1  A    between atoms: C1_1  and  C6_6 
REMARK    2  A    between atoms: C2_2  and  C7_7 
REMARK    3  A    between atoms: C6_6  and  C8_8 
REMARK    4  A    between atoms: C7_7  and  C9_9 
ROOT
HETATM    1  C1  UNL     1     -33.230  17.597  -1.562  1.00 20.00    -0.107 C 
HETATM    2  C2  UNL     1     -33.970  16.903  -2.206  1.00 20.00    -0.106 C 
ENDROOT
BRANCH   2   3
HETATM    3  C7  UNL     1     -34.876  16.063  -3.002  1.00 20.00     0.097 C 
BRANCH   3   4
HETATM    4  C9  UNL     1     -34.150  15.004  -3.850  1.00 20.00    -0.012 C 
HETATM    5  C4  UNL     1     -33.178  15.629  -4.853  1.00 20.00     0.010 C 
HETATM    6  C5  UNL     1     -35.122  14.060  -4.561  1.00 20.00     0.010 C 
ENDBRANCH   3   4
ENDBRANCH   2   3
BRANCH   1   7
HETATM    7  C6  UNL     1     -32.328  18.457  -0.786  1.00 20.00     0.093 C 
BRANCH   7   8
HETATM    8  C8  UNL     1     -32.880  18.766   0.606  1.00 20.00     0.007 C 
HETATM    9  C3  UNL     1     -31.804  18.786   1.684  1.00 20.00     0.006 C 
ENDBRANCH   7   8
ENDBRANCH   1   7
TORSDOF 4
ENDMDL
MODEL 8
REMARK VINA RESULT:      -4.0     10.768     11.768
REMARK  4 active torsions:
REMARK  status: ('A' for Active; 'I' for Inactive)
REMARK    1  A    between atoms: C1_1  and  C6_6 
REMARK    2  A    between atoms: C2_2  and  C7_7 
REMARK    3  A    between atoms: C6_6  and  C8_8 
REMARK    4  A    between atoms: C7_7  and  C9_9 
ROOT
HETATM    1  C1  UNL     1     -31.649  18.678   0.617  1.00 20.00    -0.107 C 
HETATM    2  C2  UNL     1     -32.267  18.548  -0.405  1.00 20.00    -0.106 C 
ENDROOT
BRANCH   2   3
HETATM    3  C7  UNL     1     -33.028  18.378  -1.651  1.00 20.00     0.097 C 
BRANCH   3   4
HETATM    4  C9  UNL     1     -33.811  17.055  -1.720  1.00 20.00    -0.012 C 
HETATM    5  C4  UNL     1     -33.943  16.532  -3.152  1.00 20.00     0.010 C 
HETATM    6  C5  UNL     1     -35.186  17.157  -1.056  1.00 20.00     0.010 C 
ENDBRANCH   3   4
ENDBRANCH   2   3
BRANCH   1   7
HETATM    7  C6  UNL     1     -30.900  18.823   1.872  1.00 20.00     0.093 C 
BRANCH   7   8
HETATM    8  C8  UNL     1     -31.795  19.263   3.030  1.00 20.00     0.007 C 
HETATM    9  C3  UNL     1     -33.019  18.375   3.209  1.00 20.00     0.006 C 
ENDBRANCH   7   8
ENDBRANCH   1   7
TORSDOF 4
ENDMDL
MODEL 9
REMARK VINA RESULT:      -4.0     10.275     11.108
REMARK  4 active torsions:
REMARK  status: ('A' for Active; 'I' for Inactive)
REMARK    1  A    between atoms: C1_1  and  C6_6 
REMARK    2  A    between atoms: C2_2  and  C7_7 
REMARK    3  A    between atoms: C6_6  and  C8_8 
REMARK    4  A    between atoms: C7_7  and  C9_9 
ROOT
HETATM    1  C1  UNL     1     -34.506  17.016  -1.746  1.00 20.00    -0.107 C 
HETATM    2  C2  UNL     1     -34.982  16.399  -2.661  1.00 20.00    -0.106 C 
ENDROOT
BRANCH   2   3
HETATM    3  C7  UNL     1     -35.570  15.653  -3.782  1.00 20.00     0.097 C 
BRANCH   3   4
HETATM    4  C9  UNL     1     -34.857  14.322  -4.080  1.00 20.00    -0.012 C 
HETATM    5  C4  UNL     1     -33.394  14.526  -4.482  1.00 20.00     0.010 C 
HETATM    6  C5  UNL     1     -35.594  13.490  -5.132  1.00 20.00     0.010 C 
ENDBRANCH   3   4
ENDBRANCH   2   3
BRANCH   1   7
HETATM    7  C6  UNL     1     -33.932  17.785  -0.634  1.00 20.00     0.093 C 
BRANCH   7   8
HETATM    8  C8  UNL     1     -32.530  18.303  -0.954  1.00 20.00     0.007 C 
HETATM    9  C3  UNL     1     -31.739  18.691   0.289  1.00 20.00     0.006 C 
ENDBRANCH   7   8
ENDBRANCH   1   7
TORSDOF 4
ENDMDL
