MODEL 1
REMARK VINA RESULT:      -6.3      0.000      0.000
REMARK  0 active torsions:
REMARK  status: ('A' for Active; 'I' for Inactive)
ROOT
HETATM    1  C1  UNL     1     -31.767   8.961   1.239  1.00 20.00     0.012 C 
HETATM    2  C2  UNL     1     -32.157   8.196   2.077  1.00 20.00    -0.113 C 
HETATM    3  C3  UNL     1     -33.435   8.005   4.183  1.00 20.00     0.020 C 
HETATM    4  C4  UNL     1     -33.794   7.080   5.347  1.00 20.00     0.041 C 
HETATM    5  C5  UNL     1     -33.497   6.161   2.465  1.00 20.00     0.052 C 
HETATM    6  C6  UNL     1     -32.638   7.258   3.107  1.00 20.00     0.067 C 
HETATM    7  C7  UNL     1     -34.184   5.304   3.481  1.00 20.00     0.158 A 
HETATM    8  C8  UNL     1     -34.371   5.763   4.911  1.00 20.00     0.084 A 
HETATM    9  C9  UNL     1     -34.628   4.749   5.979  1.00 20.00     0.049 C 
HETATM   10  O10 UNL     1     -35.429   5.859   3.950  1.00 20.00    -0.370 OA
ENDROOT
TORSDOF 0
ENDMDL
MODEL 2
REMARK VINA RESULT:      -4.9     11.356     12.098
REMARK  0 active torsions:
REMARK  status: ('A' for Active; 'I' for Inactive)
ROOT
HETATM    1  C1  UNL     1     -35.157  16.854  -1.535  1.00 20.00     0.012 C 
HETATM    2  C2  UNL     1     -35.191  16.348  -2.622  1.00 20.00    -0.113 C 
HETATM    3  C3  UNL     1     -34.039  14.779  -4.143  1.00 20.00     0.020 C 
HETATM    4  C4  UNL     1     -33.968  14.257  -5.579  1.00 20.00     0.041 C 
HETATM    5  C5  UNL     1     -36.553  14.969  -4.149  1.00 20.00     0.052 C 
HETATM    6  C6  UNL     1     -35.232  15.725  -3.957  1.00 20.00     0.067 C 
HETATM    7  C7  UNL     1     -36.564  14.145  -5.398  1.00 20.00     0.158 A 
HETATM    8  C8  UNL     1     -35.284  13.752  -6.101  1.00 20.00     0.084 A 
HETATM    9  C9  UNL     1     -35.331  13.345  -7.538  1.00 20.00     0.049 C 
HETATM   10  O10 UNL     1     -35.967  12.844  -5.229  1.00 20.00    -0.370 OA
ENDROOT
TORSDOF 0
ENDMDL
MODEL 3
REMARK VINA RESULT:      -4.6     11.895     12.733
REMARK  0 active torsions:
REMARK  status: ('A' for Active; 'I' for Inactive)
ROOT
HETATM    1  C1  UNL     1     -33.668  17.414  -1.569  1.00 20.00     0.012 C 
HETATM    2  C2  UNL     1     -33.706  16.699  -2.533  1.00 20.00    -0.113 C 
HETATM    3  C3  UNL     1     -35.140  15.181  -3.851  1.00 20.00     0.020 C 
HETATM    4  C4  UNL     1     -35.159  14.137  -4.969  1.00 20.00     0.041 C 
HETATM    5  C5  UNL     1     -33.404  16.619  -4.980  1.00 20.00     0.052 C 
HETATM    6  C6  UNL     1     -33.754  15.822  -3.716  1.00 20.00     0.067 C 
HETATM    7  C7  UNL     1     -33.640  15.835  -6.233  1.00 20.00     0.158 A 
HETATM    8  C8  UNL     1     -34.539  14.619  -6.251  1.00 20.00     0.084 A 
HETATM    9  C9  UNL     1     -34.399  13.619  -7.353  1.00 20.00     0.049 C 
HETATM   10  O10 UNL     1     -35.003  15.898  -6.698  1.00 20.00    -0.370 OA
ENDROOT
TORSDOF 0
ENDMDL
MODEL 4
REMARK VINA RESULT:      -4.3     11.800     12.133
REMARK  0 active torsions:
REMARK  status: ('A' for Active; 'I' for Inactive)
ROOT
HETATM    1  C1  UNL     1     -33.514  16.048  -4.656  1.00 20.00     0.012 C 
HETATM    2  C2  UNL     1     -33.649  16.360  -3.505  1.00 20.00    -0.113 C 
HETATM    3  C3  UNL     1     -33.112  18.077  -1.814  1.00 20.00     0.020 C 
HETATM    4  C4  UNL     1     -33.124  18.406  -0.320  1.00 20.00     0.041 C 
HETATM    5  C5  UNL     1     -35.305  16.836  -1.740  1.00 20.00     0.052 C 
HETATM    6  C6  UNL     1     -33.815  16.743  -2.092  1.00 20.00     0.067 C 
HETATM    7  C7  UNL     1     -35.536  17.423  -0.382  1.00 20.00     0.158 A 
HETATM    8  C8  UNL     1     -34.472  18.237   0.321  1.00 20.00     0.084 A 
HETATM    9  C9  UNL     1     -34.544  18.412   1.804  1.00 20.00     0.049 C 
HETATM   10  O10 UNL     1     -35.553  18.865  -0.379  1.00 20.00    -0.370 OA
ENDROOT
TORSDOF 0
ENDMDL
MODEL 5
REMARK VINA RESULT:      -4.3     11.803     12.174
REMARK  0 active torsions:
REMARK  status: ('A' for Active; 'I' for Inactive)
ROOT
HETATM    1  C1  UNL     1     -32.912  18.208  -1.329  1.00 20.00     0.012 C 
HETATM    2  C2  UNL     1     -33.517  17.358  -1.922  1.00 20.00    -0.113 C 
HETATM    3  C3  UNL     1     -35.589  16.872  -3.175  1.00 20.00     0.020 C 
HETATM    4  C4  UNL     1     -36.450  15.763  -3.783  1.00 20.00     0.041 C 
HETATM    5  C5  UNL     1     -33.411  15.771  -3.808  1.00 20.00     0.052 C 
HETATM    6  C6  UNL     1     -34.260  16.315  -2.651  1.00 20.00     0.067 C 
HETATM    7  C7  UNL     1     -34.188  14.863  -4.709  1.00 20.00     0.158 A 
HETATM    8  C8  UNL     1     -35.701  14.873  -4.734  1.00 20.00     0.084 A 
HETATM    9  C9  UNL     1     -36.434  13.687  -5.272  1.00 20.00     0.049 C 
HETATM   10  O10 UNL     1     -34.931  15.565  -5.725  1.00 20.00    -0.370 OA
ENDROOT
TORSDOF 0
ENDMDL
MODEL 6
REMARK VINA RESULT:      -4.2     11.907     12.990
REMARK  0 active torsions:
REMARK  status: ('A' for Active; 'I' for Inactive)
ROOT
HETATM    1  C1  UNL     1     -34.232  18.282   0.384  1.00 20.00     0.012 C 
HETATM    2  C2  UNL     1     -33.972  17.810  -0.688  1.00 20.00    -0.113 C 
HETATM    3  C3  UNL     1     -34.769  16.280  -2.457  1.00 20.00     0.020 C 
HETATM    4  C4  UNL     1     -34.378  15.538  -3.736  1.00 20.00     0.041 C 
HETATM    5  C5  UNL     1     -33.444  18.345  -3.038  1.00 20.00     0.052 C 
HETATM    6  C6  UNL     1     -33.653  17.230  -2.005  1.00 20.00     0.067 C 
HETATM    7  C7  UNL     1     -33.326  17.817  -4.434  1.00 20.00     0.158 A 
HETATM    8  C8  UNL     1     -33.819  16.435  -4.803  1.00 20.00     0.084 A 
HETATM    9  C9  UNL     1     -33.292  15.774  -6.036  1.00 20.00     0.049 C 
HETATM   10  O10 UNL     1     -34.600  17.606  -5.074  1.00 20.00    -0.370 OA
ENDROOT
TORSDOF 0
ENDMDL
MODEL 7
REMARK VINA RESULT:      -4.1     11.824     12.559
REMARK  0 active torsions:
REMARK  status: ('A' for Active; 'I' for Inactive)
ROOT
HETATM    1  C1  UNL     1     -35.326  17.679  -0.282  1.00 20.00     0.012 C 
HETATM    2  C2  UNL     1     -35.123  17.014  -1.260  1.00 20.00    -0.113 C 
HETATM    3  C3  UNL     1     -36.093  16.231  -3.392  1.00 20.00     0.020 C 
HETATM    4  C4  UNL     1     -35.924  15.255  -4.558  1.00 20.00     0.041 C 
HETATM    5  C5  UNL     1     -33.625  16.702  -3.194  1.00 20.00     0.052 C 
HETATM    6  C6  UNL     1     -34.875  16.198  -2.461  1.00 20.00     0.067 C 
HETATM    7  C7  UNL     1     -33.443  16.050  -4.529  1.00 20.00     0.158 A 
HETATM    8  C8  UNL     1     -34.587  15.357  -5.236  1.00 20.00     0.084 A 
HETATM    9  C9  UNL     1     -34.290  14.351  -6.301  1.00 20.00     0.049 C 
HETATM   10  O10 UNL     1     -34.189  16.689  -5.583  1.00 20.00    -0.370 OA
ENDROOT
TORSDOF 0
ENDMDL
MODEL 8
REMARK VINA RESULT:      -4.1     11.740     12.757
REMARK  0 active torsions:
REMARK  status: ('A' for Active; 'I' for Inactive)
ROOT
HETATM    1  C1  UNL     1     -33.279  17.691  -2.114  1.00 20.00     0.012 C 
HETATM    2  C2  UNL     1     -33.718  17.162  -3.098  1.00 20.00    -0.113 C 
HETATM    3  C3  UNL     1     -33.115  16.098  -5.244  1.00 20.00     0.020 C 
HETATM    4  C4  UNL     1     -33.658  15.579  -6.577  1.00 20.00     0.041 C 
HETATM    5  C5  UNL     1     -35.101  15.291  -3.917  1.00 20.00     0.052 C 
HETATM    6  C6  UNL     1     -34.255  16.511  -4.306  1.00 20.00     0.067 C 
HETATM    7  C7  UNL     1     -35.498  14.469  -5.104  1.00 20.00     0.158 A 
HETATM    8  C8  UNL     1     -34.766  14.576  -6.424  1.00 20.00     0.084 A 
HETATM    9  C9  UNL     1     -35.441  14.116  -7.676  1.00 20.00     0.049 C 
HETATM   10  O10 UNL     1     -34.493  13.515  -5.501  1.00 20.00    -0.370 OA
ENDROOT
TORSDOF 0
ENDMDL
MODEL 9
REMARK VINA RESULT:      -4.1      1.061      1.872
REMARK  0 active torsions:
REMARK  status: ('A' for Active; 'I' for Inactive)
ROOT
HETATM    1  C1  UNL     1     -31.794   9.146   1.077  1.00 20.00     0.012 C 
HETATM    2  C2  UNL     1     -32.463   8.400   1.737  1.00 20.00    -0.113 C 
HETATM    3  C3  UNL     1     -32.600   6.116   2.668  1.00 20.00     0.020 C 
HETATM    4  C4  UNL     1     -33.514   5.101   3.357  1.00 20.00     0.041 C 
HETATM    5  C5  UNL     1     -33.537   8.084   3.935  1.00 20.00     0.052 C 
HETATM    6  C6  UNL     1     -33.285   7.483   2.547  1.00 20.00     0.067 C 
HETATM    7  C7  UNL     1     -34.184   7.112   4.871  1.00 20.00     0.158 A 
HETATM    8  C8  UNL     1     -34.150   5.621   4.614  1.00 20.00     0.084 A 
HETATM    9  C9  UNL     1     -35.158   4.739   5.278  1.00 20.00     0.049 C 
HETATM   10  O10 UNL     1     -33.244   6.243   5.533  1.00 20.00    -0.370 OA
ENDROOT
TORSDOF 0
ENDMDL
