MODEL 1
REMARK VINA RESULT:      -5.9      0.000      0.000
REMARK  2 active torsions:
REMARK  status: ('A' for Active; 'I' for Inactive)
REMARK    1  A    between atoms: C1_1  and  C2_2 
REMARK    2  A    between atoms: C1_1  and  C3_3 
ROOT
HETATM    1  C1  UNL     1     -33.440   5.858   3.419  1.00 20.00     0.346 C 
HETATM    2  F4  UNL     1     -33.790   5.620   2.119  1.00 20.00    -0.234 F 
ENDROOT
BRANCH   1   3
HETATM    3  C2  UNL     1     -33.153   7.348   3.559  1.00 20.00     0.357 C 
HETATM    4  F5  UNL     1     -32.443   7.596   4.686  1.00 20.00    -0.184 F 
HETATM    5  F6  UNL     1     -34.317   8.035   3.667  1.00 20.00    -0.184 F 
HETATM    6 CL9  UNL     1     -32.243   7.960   2.163  1.00 20.00    -0.045 Cl
ENDBRANCH   1   3
BRANCH   1   7
HETATM    7  C3  UNL     1     -34.584   5.338   4.279  1.00 20.00     0.357 C 
HETATM    8  F7  UNL     1     -34.596   3.980   4.208  1.00 20.00    -0.184 F 
HETATM    9  F8  UNL     1     -35.770   5.761   3.774  1.00 20.00    -0.184 F 
HETATM   10 CL10 UNL     1     -34.460   5.812   5.981  1.00 20.00    -0.045 Cl
ENDBRANCH   1   7
TORSDOF 2
ENDMDL
MODEL 2
REMARK VINA RESULT:      -5.9      1.474      3.588
REMARK  2 active torsions:
REMARK  status: ('A' for Active; 'I' for Inactive)
REMARK    1  A    between atoms: C1_1  and  C2_2 
REMARK    2  A    between atoms: C1_1  and  C3_3 
ROOT
HETATM    1  C1  UNL     1     -33.575   6.551   4.872  1.00 20.00     0.346 C 
HETATM    2  F4  UNL     1     -33.968   7.568   5.698  1.00 20.00    -0.234 F 
ENDROOT
BRANCH   1   3
HETATM    3  C2  UNL     1     -34.681   5.504   4.865  1.00 20.00     0.357 C 
HETATM    4  F5  UNL     1     -35.702   5.890   4.064  1.00 20.00    -0.184 F 
HETATM    5  F6  UNL     1     -35.191   5.360   6.113  1.00 20.00    -0.184 F 
HETATM    6 CL9  UNL     1     -34.074   3.933   4.302  1.00 20.00    -0.045 Cl
ENDBRANCH   1   3
BRANCH   1   7
HETATM    7  C3  UNL     1     -33.276   7.182   3.519  1.00 20.00     0.357 C 
HETATM    8  F7  UNL     1     -34.252   8.086   3.237  1.00 20.00    -0.184 F 
HETATM    9  F8  UNL     1     -33.334   6.238   2.547  1.00 20.00    -0.184 F 
HETATM   10 CL10 UNL     1     -31.709   8.006   3.454  1.00 20.00    -0.045 Cl
ENDBRANCH   1   7
TORSDOF 2
ENDMDL
MODEL 3
REMARK VINA RESULT:      -5.8      1.743      2.332
REMARK  2 active torsions:
REMARK  status: ('A' for Active; 'I' for Inactive)
REMARK    1  A    between atoms: C1_1  and  C2_2 
REMARK    2  A    between atoms: C1_1  and  C3_3 
ROOT
HETATM    1  C1  UNL     1     -33.679   4.869   4.179  1.00 20.00     0.346 C 
HETATM    2  F4  UNL     1     -34.240   3.635   4.002  1.00 20.00    -0.234 F 
ENDROOT
BRANCH   1   3
HETATM    3  C2  UNL     1     -33.373   5.443   2.802  1.00 20.00     0.357 C 
HETATM    4  F5  UNL     1     -34.517   5.745   2.143  1.00 20.00    -0.184 F 
HETATM    5  F6  UNL     1     -32.716   4.524   2.052  1.00 20.00    -0.184 F 
HETATM    6 CL9  UNL     1     -32.379   6.910   2.924  1.00 20.00    -0.045 Cl
ENDBRANCH   1   3
BRANCH   1   7
HETATM    7  C3  UNL     1     -34.665   5.679   5.011  1.00 20.00     0.357 C 
HETATM    8  F7  UNL     1     -35.133   4.892   6.016  1.00 20.00    -0.184 F 
HETATM    9  F8  UNL     1     -35.739   6.015   4.253  1.00 20.00    -0.184 F 
HETATM   10 CL10 UNL     1     -33.958   7.139   5.720  1.00 20.00    -0.045 Cl
ENDBRANCH   1   7
TORSDOF 2
ENDMDL
MODEL 4
REMARK VINA RESULT:      -5.7      1.415      2.328
REMARK  2 active torsions:
REMARK  status: ('A' for Active; 'I' for Inactive)
REMARK    1  A    between atoms: C1_1  and  C2_2 
REMARK    2  A    between atoms: C1_1  and  C3_3 
ROOT
HETATM    1  C1  UNL     1     -33.950   6.835   4.143  1.00 20.00     0.346 C 
HETATM    2  F4  UNL     1     -32.966   7.001   5.078  1.00 20.00    -0.234 F 
ENDROOT
BRANCH   1   3
HETATM    3  C2  UNL     1     -33.277   6.619   2.793  1.00 20.00     0.357 C 
HETATM    4  F5  UNL     1     -34.157   6.118   1.893  1.00 20.00    -0.184 F 
HETATM    5  F6  UNL     1     -32.276   5.712   2.913  1.00 20.00    -0.184 F 
HETATM    6 CL9  UNL     1     -32.612   8.138   2.157  1.00 20.00    -0.045 Cl
ENDBRANCH   1   3
BRANCH   1   7
HETATM    7  C3  UNL     1     -34.815   5.677   4.624  1.00 20.00     0.357 C 
HETATM    8  F7  UNL     1     -36.026   5.758   4.011  1.00 20.00    -0.184 F 
HETATM    9  F8  UNL     1     -35.048   5.799   5.955  1.00 20.00    -0.184 F 
HETATM   10 CL10 UNL     1     -34.117   4.086   4.286  1.00 20.00    -0.045 Cl
ENDBRANCH   1   7
TORSDOF 2
ENDMDL
MODEL 5
REMARK VINA RESULT:      -5.7      1.259      1.997
REMARK  2 active torsions:
REMARK  status: ('A' for Active; 'I' for Inactive)
REMARK    1  A    between atoms: C1_1  and  C2_2 
REMARK    2  A    between atoms: C1_1  and  C3_3 
ROOT
HETATM    1  C1  UNL     1     -33.854   7.092   4.095  1.00 20.00     0.346 C 
HETATM    2  F4  UNL     1     -33.276   7.214   5.329  1.00 20.00    -0.234 F 
ENDROOT
BRANCH   1   3
HETATM    3  C2  UNL     1     -32.747   7.184   3.052  1.00 20.00     0.357 C 
HETATM    4  F5  UNL     1     -33.242   7.604   1.863  1.00 20.00    -0.184 F 
HETATM    5  F6  UNL     1     -32.204   5.959   2.843  1.00 20.00    -0.184 F 
HETATM    6 CL9  UNL     1     -31.470   8.305   3.568  1.00 20.00    -0.045 Cl
ENDBRANCH   1   3
BRANCH   1   7
HETATM    7  C3  UNL     1     -34.623   5.777   4.104  1.00 20.00     0.357 C 
HETATM    8  F7  UNL     1     -34.073   4.947   3.177  1.00 20.00    -0.184 F 
HETATM    9  F8  UNL     1     -35.906   5.991   3.717  1.00 20.00    -0.184 F 
HETATM   10 CL10 UNL     1     -34.605   4.960   5.675  1.00 20.00    -0.045 Cl
ENDBRANCH   1   7
TORSDOF 2
ENDMDL
MODEL 6
REMARK VINA RESULT:      -5.6      0.891      3.542
REMARK  2 active torsions:
REMARK  status: ('A' for Active; 'I' for Inactive)
REMARK    1  A    between atoms: C1_1  and  C2_2 
REMARK    2  A    between atoms: C1_1  and  C3_3 
ROOT
HETATM    1  C1  UNL     1     -33.655   6.382   4.153  1.00 20.00     0.346 C 
HETATM    2  F4  UNL     1     -34.228   7.610   4.337  1.00 20.00    -0.234 F 
ENDROOT
BRANCH   1   3
HETATM    3  C2  UNL     1     -34.698   5.326   4.495  1.00 20.00     0.357 C 
HETATM    4  F5  UNL     1     -34.388   4.141   3.916  1.00 20.00    -0.184 F 
HETATM    5  F6  UNL     1     -35.909   5.697   4.011  1.00 20.00    -0.184 F 
HETATM    6 CL9  UNL     1     -34.821   5.090   6.250  1.00 20.00    -0.045 Cl
ENDBRANCH   1   3
BRANCH   1   7
HETATM    7  C3  UNL     1     -33.150   6.350   2.716  1.00 20.00     0.357 C 
HETATM    8  F7  UNL     1     -34.218   6.207   1.886  1.00 20.00    -0.184 F 
HETATM    9  F8  UNL     1     -32.367   5.258   2.527  1.00 20.00    -0.184 F 
HETATM   10 CL10 UNL     1     -32.261   7.807   2.247  1.00 20.00    -0.045 Cl
ENDBRANCH   1   7
TORSDOF 2
ENDMDL
MODEL 7
REMARK VINA RESULT:      -5.6      1.044      1.260
REMARK  2 active torsions:
REMARK  status: ('A' for Active; 'I' for Inactive)
REMARK    1  A    between atoms: C1_1  and  C2_2 
REMARK    2  A    between atoms: C1_1  and  C3_3 
ROOT
HETATM    1  C1  UNL     1     -33.463   6.135   3.279  1.00 20.00     0.346 C 
HETATM    2  F4  UNL     1     -34.028   5.955   2.046  1.00 20.00    -0.234 F 
ENDROOT
BRANCH   1   3
HETATM    3  C2  UNL     1     -33.023   7.589   3.382  1.00 20.00     0.357 C 
HETATM    4  F5  UNL     1     -32.275   7.786   4.494  1.00 20.00    -0.184 F 
HETATM    5  F6  UNL     1     -34.108   8.395   3.489  1.00 20.00    -0.184 F 
HETATM    6 CL9  UNL     1     -32.075   8.075   1.962  1.00 20.00    -0.045 Cl
ENDBRANCH   1   3
BRANCH   1   7
HETATM    7  C3  UNL     1     -34.507   5.703   4.301  1.00 20.00     0.357 C 
HETATM    8  F7  UNL     1     -35.742   5.908   3.772  1.00 20.00    -0.184 F 
HETATM    9  F8  UNL     1     -34.425   6.489   5.404  1.00 20.00    -0.184 F 
HETATM   10 CL10 UNL     1     -34.370   4.001   4.773  1.00 20.00    -0.045 Cl
ENDBRANCH   1   7
TORSDOF 2
ENDMDL
MODEL 8
REMARK VINA RESULT:      -5.6      0.628      3.363
REMARK  2 active torsions:
REMARK  status: ('A' for Active; 'I' for Inactive)
REMARK    1  A    between atoms: C1_1  and  C2_2 
REMARK    2  A    between atoms: C1_1  and  C3_3 
ROOT
HETATM    1  C1  UNL     1     -33.679   5.991   2.989  1.00 20.00     0.346 C 
HETATM    2  F4  UNL     1     -32.568   5.194   2.984  1.00 20.00    -0.234 F 
ENDROOT
BRANCH   1   3
HETATM    3  C2  UNL     1     -34.627   5.461   4.057  1.00 20.00     0.357 C 
HETATM    4  F5  UNL     1     -34.588   4.107   4.105  1.00 20.00    -0.184 F 
HETATM    5  F6  UNL     1     -35.903   5.808   3.759  1.00 20.00    -0.184 F 
HETATM    6 CL9  UNL     1     -34.210   6.101   5.660  1.00 20.00    -0.045 Cl
ENDBRANCH   1   3
BRANCH   1   7
HETATM    7  C3  UNL     1     -33.191   7.416   3.210  1.00 20.00     0.357 C 
HETATM    8  F7  UNL     1     -32.199   7.394   4.141  1.00 20.00    -0.184 F 
HETATM    9  F8  UNL     1     -34.191   8.171   3.731  1.00 20.00    -0.184 F 
HETATM   10 CL10 UNL     1     -32.569   8.185   1.741  1.00 20.00    -0.045 Cl
ENDBRANCH   1   7
TORSDOF 2
ENDMDL
MODEL 9
REMARK VINA RESULT:      -5.4      1.300      1.599
REMARK  2 active torsions:
REMARK  status: ('A' for Active; 'I' for Inactive)
REMARK    1  A    between atoms: C1_1  and  C2_2 
REMARK    2  A    between atoms: C1_1  and  C3_3 
ROOT
HETATM    1  C1  UNL     1     -33.375   5.734   3.689  1.00 20.00     0.346 C 
HETATM    2  F4  UNL     1     -33.509   5.592   2.335  1.00 20.00    -0.234 F 
ENDROOT
BRANCH   1   3
HETATM    3  C2  UNL     1     -33.233   7.221   3.989  1.00 20.00     0.357 C 
HETATM    4  F5  UNL     1     -34.195   7.932   3.353  1.00 20.00    -0.184 F 
HETATM    5  F6  UNL     1     -32.040   7.674   3.532  1.00 20.00    -0.184 F 
HETATM    6 CL9  UNL     1     -33.346   7.537   5.732  1.00 20.00    -0.045 Cl
ENDBRANCH   1   3
BRANCH   1   7
HETATM    7  C3  UNL     1     -34.588   5.062   4.318  1.00 20.00     0.357 C 
HETATM    8  F7  UNL     1     -34.607   3.757   3.935  1.00 20.00    -0.184 F 
HETATM    9  F8  UNL     1     -35.726   5.621   3.837  1.00 20.00    -0.184 F 
HETATM   10 CL10 UNL     1     -34.594   5.130   6.088  1.00 20.00    -0.045 Cl
ENDBRANCH   1   7
TORSDOF 2
ENDMDL
