MODEL 1
REMARK VINA RESULT:      -5.5      0.000      0.000
REMARK  2 active torsions:
REMARK  status: ('A' for Active; 'I' for Inactive)
REMARK    1  A    between atoms: C4_4  and  C8_8 
REMARK    2  A    between atoms: C9_9  and  O11_11 
ROOT
HETATM    1  C1  UNL     1     -33.780   6.090   2.770  1.00 20.00    -0.079 C 
HETATM    2  C2  UNL     1     -34.339   6.010   1.551  1.00 20.00     0.015 C 
HETATM    3  C5  UNL     1     -33.390   4.859   3.548  1.00 20.00     0.065 C 
HETATM    4  C6  UNL     1     -33.443   7.241   5.001  1.00 20.00     0.016 C 
HETATM    5  C7  UNL     1     -34.412   6.175   5.510  1.00 20.00     0.033 C 
HETATM    6  C8  UNL     1     -33.566   7.416   3.473  1.00 20.00     0.041 C 
HETATM    7  C9  UNL     1     -34.116   4.798   4.899  1.00 20.00     0.122 C 
ENDROOT
BRANCH   6   8
HETATM    8  C4  UNL     1     -32.372   8.145   2.932  1.00 20.00    -0.085 C 
HETATM    9  C3  UNL     1     -31.199   8.164   3.581  1.00 20.00     0.014 C 
HETATM   10  C10 UNL     1     -32.567   8.851   1.624  1.00 20.00     0.043 C 
ENDBRANCH   6   8
BRANCH   7  11
HETATM   11  O11 UNL     1     -35.353   4.102   4.760  1.00 20.00    -0.395 OA
HETATM   12  H27 UNL     1     -35.173   3.325   4.207  1.00 20.00     0.210 HD
ENDBRANCH   7  11
TORSDOF 2
ENDMDL
MODEL 2
REMARK VINA RESULT:      -5.3      1.006      2.378
REMARK  2 active torsions:
REMARK  status: ('A' for Active; 'I' for Inactive)
REMARK    1  A    between atoms: C4_4  and  C8_8 
REMARK    2  A    between atoms: C9_9  and  O11_11 
ROOT
HETATM    1  C1  UNL     1     -33.696   6.987   4.560  1.00 20.00    -0.079 C 
HETATM    2  C2  UNL     1     -33.414   7.652   5.692  1.00 20.00     0.015 C 
HETATM    3  C5  UNL     1     -35.060   6.400   4.300  1.00 20.00     0.065 C 
HETATM    4  C6  UNL     1     -33.025   5.526   2.602  1.00 20.00     0.016 C 
HETATM    5  C7  UNL     1     -33.677   4.415   3.422  1.00 20.00     0.033 C 
HETATM    6  C8  UNL     1     -32.645   6.724   3.497  1.00 20.00     0.041 C 
HETATM    7  C9  UNL     1     -34.983   4.883   4.079  1.00 20.00     0.122 C 
ENDROOT
BRANCH   6   8
HETATM    8  C4  UNL     1     -32.385   7.940   2.661  1.00 20.00    -0.085 C 
HETATM    9  C3  UNL     1     -33.180   8.280   1.636  1.00 20.00     0.014 C 
HETATM   10  C10 UNL     1     -31.183   8.756   3.036  1.00 20.00     0.043 C 
ENDBRANCH   6   8
BRANCH   7  11
HETATM   11  O11 UNL     1     -35.121   4.199   5.324  1.00 20.00    -0.395 OA
HETATM   12  H27 UNL     1     -35.995   3.779   5.314  1.00 20.00     0.210 HD
ENDBRANCH   7  11
TORSDOF 2
ENDMDL
MODEL 3
REMARK VINA RESULT:      -5.3      1.016      2.183
REMARK  2 active torsions:
REMARK  status: ('A' for Active; 'I' for Inactive)
REMARK    1  A    between atoms: C4_4  and  C8_8 
REMARK    2  A    between atoms: C9_9  and  O11_11 
ROOT
HETATM    1  C1  UNL     1     -33.654   7.016   4.566  1.00 20.00    -0.079 C 
HETATM    2  C2  UNL     1     -33.385   7.646   5.721  1.00 20.00     0.015 C 
HETATM    3  C5  UNL     1     -35.025   6.468   4.260  1.00 20.00     0.065 C 
HETATM    4  C6  UNL     1     -32.970   5.588   2.589  1.00 20.00     0.016 C 
HETATM    5  C7  UNL     1     -33.667   4.472   3.365  1.00 20.00     0.033 C 
HETATM    6  C8  UNL     1     -32.585   6.754   3.522  1.00 20.00     0.041 C 
HETATM    7  C9  UNL     1     -34.977   4.955   4.003  1.00 20.00     0.122 C 
ENDROOT
BRANCH   6   8
HETATM    8  C4  UNL     1     -32.278   7.984   2.722  1.00 20.00    -0.085 C 
HETATM    9  C3  UNL     1     -31.236   8.777   3.013  1.00 20.00     0.014 C 
HETATM   10  C10 UNL     1     -33.202   8.277   1.578  1.00 20.00     0.043 C 
ENDBRANCH   6   8
BRANCH   7  11
HETATM   11  O11 UNL     1     -35.161   4.244   5.226  1.00 20.00    -0.395 OA
HETATM   12  H27 UNL     1     -34.640   4.711   5.899  1.00 20.00     0.210 HD
ENDBRANCH   7  11
TORSDOF 2
ENDMDL
MODEL 4
REMARK VINA RESULT:      -4.7      2.221      4.288
REMARK  2 active torsions:
REMARK  status: ('A' for Active; 'I' for Inactive)
REMARK    1  A    between atoms: C4_4  and  C8_8 
REMARK    2  A    between atoms: C9_9  and  O11_11 
ROOT
HETATM    1  C1  UNL     1     -33.249   7.326   4.576  1.00 20.00    -0.079 C 
HETATM    2  C2  UNL     1     -33.528   8.029   5.686  1.00 20.00     0.015 C 
HETATM    3  C5  UNL     1     -31.939   7.482   3.844  1.00 20.00     0.065 C 
HETATM    4  C6  UNL     1     -33.948   6.132   2.454  1.00 20.00     0.016 C 
HETATM    5  C7  UNL     1     -33.466   7.411   1.772  1.00 20.00     0.033 C 
HETATM    6  C8  UNL     1     -34.254   6.382   3.945  1.00 20.00     0.041 C 
HETATM    7  C9  UNL     1     -32.161   7.929   2.392  1.00 20.00     0.122 C 
ENDROOT
BRANCH   6   8
HETATM    8  C4  UNL     1     -34.336   5.082   4.687  1.00 20.00    -0.085 C 
HETATM    9  C3  UNL     1     -34.734   5.019   5.966  1.00 20.00     0.014 C 
HETATM   10  C10 UNL     1     -33.946   3.855   3.917  1.00 20.00     0.043 C 
ENDBRANCH   6   8
BRANCH   7  11
HETATM   11  O11 UNL     1     -32.170   9.353   2.314  1.00 20.00    -0.395 OA
HETATM   12  H27 UNL     1     -33.099   9.621   2.238  1.00 20.00     0.210 HD
ENDBRANCH   7  11
TORSDOF 2
ENDMDL
MODEL 5
REMARK VINA RESULT:      -4.5     11.309     12.950
REMARK  2 active torsions:
REMARK  status: ('A' for Active; 'I' for Inactive)
REMARK    1  A    between atoms: C4_4  and  C8_8 
REMARK    2  A    between atoms: C9_9  and  O11_11 
ROOT
HETATM    1  C1  UNL     1     -33.440  14.785  -4.658  1.00 20.00    -0.079 C 
HETATM    2  C2  UNL     1     -32.544  13.971  -4.075  1.00 20.00     0.015 C 
HETATM    3  C5  UNL     1     -34.427  14.280  -5.680  1.00 20.00     0.065 C 
HETATM    4  C6  UNL     1     -34.168  17.054  -5.517  1.00 20.00     0.016 C 
HETATM    5  C7  UNL     1     -33.804  16.470  -6.880  1.00 20.00     0.033 C 
HETATM    6  C8  UNL     1     -33.475  16.276  -4.379  1.00 20.00     0.041 C 
HETATM    7  C9  UNL     1     -34.269  15.014  -7.019  1.00 20.00     0.122 C 
ENDROOT
BRANCH   6   8
HETATM    8  C4  UNL     1     -34.128  16.579  -3.064  1.00 20.00    -0.085 C 
HETATM    9  C3  UNL     1     -35.397  16.232  -2.806  1.00 20.00     0.014 C 
HETATM   10  C10 UNL     1     -33.280  17.294  -2.055  1.00 20.00     0.043 C 
ENDBRANCH   6   8
BRANCH   7  11
HETATM   11  O11 UNL     1     -33.332  14.328  -7.846  1.00 20.00    -0.395 OA
HETATM   12  H27 UNL     1     -33.644  13.412  -7.919  1.00 20.00     0.210 HD
ENDBRANCH   7  11
TORSDOF 2
ENDMDL
MODEL 6
REMARK VINA RESULT:      -4.5     11.816     12.539
REMARK  2 active torsions:
REMARK  status: ('A' for Active; 'I' for Inactive)
REMARK    1  A    between atoms: C4_4  and  C8_8 
REMARK    2  A    between atoms: C9_9  and  O11_11 
ROOT
HETATM    1  C1  UNL     1     -35.299  17.357  -1.620  1.00 20.00    -0.079 C 
HETATM    2  C2  UNL     1     -35.782  17.387  -0.367  1.00 20.00     0.015 C 
HETATM    3  C5  UNL     1     -36.182  17.598  -2.819  1.00 20.00     0.065 C 
HETATM    4  C6  UNL     1     -33.670  16.511  -3.366  1.00 20.00     0.016 C 
HETATM    5  C7  UNL     1     -34.841  15.627  -3.790  1.00 20.00     0.033 C 
HETATM    6  C8  UNL     1     -33.852  17.013  -1.919  1.00 20.00     0.041 C 
HETATM    7  C9  UNL     1     -36.170  16.395  -3.772  1.00 20.00     0.122 C 
ENDROOT
BRANCH   6   8
HETATM    8  C4  UNL     1     -32.939  18.171  -1.647  1.00 20.00    -0.085 C 
HETATM    9  C3  UNL     1     -32.173  18.228  -0.549  1.00 20.00     0.014 C 
HETATM   10  C10 UNL     1     -32.933  19.263  -2.676  1.00 20.00     0.043 C 
ENDBRANCH   6   8
BRANCH   7  11
HETATM   11  O11 UNL     1     -37.204  15.478  -3.417  1.00 20.00    -0.395 OA
HETATM   12  H27 UNL     1     -36.768  14.710  -3.014  1.00 20.00     0.210 HD
ENDBRANCH   7  11
TORSDOF 2
ENDMDL
MODEL 7
REMARK VINA RESULT:      -4.4     11.540     12.488
REMARK  2 active torsions:
REMARK  status: ('A' for Active; 'I' for Inactive)
REMARK    1  A    between atoms: C4_4  and  C8_8 
REMARK    2  A    between atoms: C9_9  and  O11_11 
ROOT
HETATM    1  C1  UNL     1     -36.370  16.177  -4.194  1.00 20.00    -0.079 C 
HETATM    2  C2  UNL     1     -37.140  16.967  -3.429  1.00 20.00     0.015 C 
HETATM    3  C5  UNL     1     -36.727  15.861  -5.625  1.00 20.00     0.065 C 
HETATM    4  C6  UNL     1     -34.742  14.259  -4.494  1.00 20.00     0.016 C 
HETATM    5  C7  UNL     1     -35.984  13.493  -4.944  1.00 20.00     0.033 C 
HETATM    6  C8  UNL     1     -35.128  15.494  -3.653  1.00 20.00     0.041 C 
HETATM    7  C9  UNL     1     -36.888  14.350  -5.840  1.00 20.00     0.122 C 
ENDROOT
BRANCH   6   8
HETATM    8  C4  UNL     1     -33.971  16.443  -3.556  1.00 20.00    -0.085 C 
HETATM    9  C3  UNL     1     -33.563  16.945  -2.381  1.00 20.00     0.014 C 
HETATM   10  C10 UNL     1     -33.297  16.798  -4.848  1.00 20.00     0.043 C 
ENDBRANCH   6   8
BRANCH   7  11
HETATM   11  O11 UNL     1     -38.240  13.962  -5.603  1.00 20.00    -0.395 OA
HETATM   12  H27 UNL     1     -38.619  13.734  -6.467  1.00 20.00     0.210 HD
ENDBRANCH   7  11
TORSDOF 2
ENDMDL
MODEL 8
REMARK VINA RESULT:      -4.4     11.087     12.237
REMARK  2 active torsions:
REMARK  status: ('A' for Active; 'I' for Inactive)
REMARK    1  A    between atoms: C4_4  and  C8_8 
REMARK    2  A    between atoms: C9_9  and  O11_11 
ROOT
HETATM    1  C1  UNL     1     -34.243  15.421  -4.493  1.00 20.00    -0.079 C 
HETATM    2  C2  UNL     1     -33.118  15.839  -5.095  1.00 20.00     0.015 C 
HETATM    3  C5  UNL     1     -34.468  13.971  -4.145  1.00 20.00     0.065 C 
HETATM    4  C6  UNL     1     -36.725  15.607  -4.020  1.00 20.00     0.016 C 
HETATM    5  C7  UNL     1     -36.834  14.466  -5.028  1.00 20.00     0.033 C 
HETATM    6  C8  UNL     1     -35.390  16.364  -4.183  1.00 20.00     0.041 C 
HETATM    7  C9  UNL     1     -35.728  13.421  -4.829  1.00 20.00     0.122 C 
ENDROOT
BRANCH   6   8
HETATM    8  C4  UNL     1     -35.110  17.199  -2.970  1.00 20.00    -0.085 C 
HETATM    9  C3  UNL     1     -35.094  16.674  -1.736  1.00 20.00     0.014 C 
HETATM   10  C10 UNL     1     -34.848  18.655  -3.217  1.00 20.00     0.043 C 
ENDBRANCH   6   8
BRANCH   7  11
HETATM   11  O11 UNL     1     -35.396  12.879  -6.106  1.00 20.00    -0.395 OA
HETATM   12  H27 UNL     1     -35.853  12.026  -6.173  1.00 20.00     0.210 HD
ENDBRANCH   7  11
TORSDOF 2
ENDMDL
MODEL 9
REMARK VINA RESULT:      -4.4     11.739     12.507
REMARK  2 active torsions:
REMARK  status: ('A' for Active; 'I' for Inactive)
REMARK    1  A    between atoms: C4_4  and  C8_8 
REMARK    2  A    between atoms: C9_9  and  O11_11 
ROOT
HETATM    1  C1  UNL     1     -35.802  15.371  -4.561  1.00 20.00    -0.079 C 
HETATM    2  C2  UNL     1     -37.028  14.827  -4.509  1.00 20.00     0.015 C 
HETATM    3  C5  UNL     1     -35.098  15.624  -5.870  1.00 20.00     0.065 C 
HETATM    4  C6  UNL     1     -33.499  15.785  -3.589  1.00 20.00     0.016 C 
HETATM    5  C7  UNL     1     -33.068  14.707  -4.581  1.00 20.00     0.033 C 
HETATM    6  C8  UNL     1     -35.014  15.705  -3.308  1.00 20.00     0.041 C 
HETATM    7  C9  UNL     1     -33.760  14.874  -5.940  1.00 20.00     0.122 C 
ENDROOT
BRANCH   6   8
HETATM    8  C4  UNL     1     -35.497  16.973  -2.671  1.00 20.00    -0.085 C 
HETATM    9  C3  UNL     1     -35.922  18.016  -3.399  1.00 20.00     0.014 C 
HETATM   10  C10 UNL     1     -35.476  17.009  -1.171  1.00 20.00     0.043 C 
ENDBRANCH   6   8
BRANCH   7  11
HETATM   11  O11 UNL     1     -33.955  13.576  -6.500  1.00 20.00    -0.395 OA
HETATM   12  H27 UNL     1     -34.393  13.043  -5.817  1.00 20.00     0.210 HD
ENDBRANCH   7  11
TORSDOF 2
ENDMDL
