MODEL 1
REMARK VINA RESULT:      -5.5      0.000      0.000
REMARK  0 active torsions:
REMARK  status: ('A' for Active; 'I' for Inactive)
ROOT
HETATM    1  C1  UNL     1     -35.050   6.329   3.586  1.00 20.00     0.036 A 
HETATM    2  C2  UNL     1     -34.230   5.981   4.807  1.00 20.00    -0.025 A 
HETATM    3  C3  UNL     1     -33.577   6.035   3.418  1.00 20.00     0.041 A 
HETATM    4  C4  UNL     1     -34.462   4.639   5.460  1.00 20.00     0.016 C 
HETATM    5  C5  UNL     1     -33.966   7.082   5.809  1.00 20.00     0.016 C 
HETATM    6  C6  UNL     1     -33.170   4.780   2.700  1.00 20.00     0.033 C 
HETATM    7 CL7  UNL     1     -32.525   7.423   3.029  1.00 20.00    -0.119 Cl
ENDROOT
TORSDOF 0
ENDMDL
MODEL 2
REMARK VINA RESULT:      -5.4      1.740      3.182
REMARK  0 active torsions:
REMARK  status: ('A' for Active; 'I' for Inactive)
ROOT
HETATM    1  C1  UNL     1     -34.970   6.459   3.540  1.00 20.00     0.036 A 
HETATM    2  C2  UNL     1     -33.497   6.159   3.379  1.00 20.00    -0.025 A 
HETATM    3  C3  UNL     1     -34.156   6.114   4.765  1.00 20.00     0.041 A 
HETATM    4  C4  UNL     1     -32.571   7.303   3.040  1.00 20.00     0.016 C 
HETATM    5  C5  UNL     1     -33.118   4.872   2.681  1.00 20.00     0.016 C 
HETATM    6  C6  UNL     1     -33.898   7.188   5.785  1.00 20.00     0.033 C 
HETATM    7 CL7  UNL     1     -34.465   4.520   5.507  1.00 20.00    -0.119 Cl
ENDROOT
TORSDOF 0
ENDMDL
MODEL 3
REMARK VINA RESULT:      -5.3      1.436      2.123
REMARK  0 active torsions:
REMARK  status: ('A' for Active; 'I' for Inactive)
ROOT
HETATM    1  C1  UNL     1     -34.956   6.389   3.446  1.00 20.00     0.036 A 
HETATM    2  C2  UNL     1     -33.708   6.758   4.217  1.00 20.00    -0.025 A 
HETATM    3  C3  UNL     1     -33.987   5.297   3.836  1.00 20.00     0.041 A 
HETATM    4  C4  UNL     1     -33.864   7.186   5.657  1.00 20.00     0.016 C 
HETATM    5  C5  UNL     1     -32.640   7.539   3.486  1.00 20.00     0.016 C 
HETATM    6  C6  UNL     1     -34.413   4.291   4.868  1.00 20.00     0.033 C 
HETATM    7 CL7  UNL     1     -33.032   4.567   2.516  1.00 20.00    -0.119 Cl
ENDROOT
TORSDOF 0
ENDMDL
MODEL 4
REMARK VINA RESULT:      -5.3      1.506      2.412
REMARK  0 active torsions:
REMARK  status: ('A' for Active; 'I' for Inactive)
ROOT
HETATM    1  C1  UNL     1     -34.936   6.373   3.377  1.00 20.00     0.036 A 
HETATM    2  C2  UNL     1     -33.950   5.281   3.727  1.00 20.00    -0.025 A 
HETATM    3  C3  UNL     1     -33.690   6.734   4.153  1.00 20.00     0.041 A 
HETATM    4  C4  UNL     1     -33.126   4.683   2.612  1.00 20.00     0.016 C 
HETATM    5  C5  UNL     1     -34.376   4.258   4.755  1.00 20.00     0.016 C 
HETATM    6  C6  UNL     1     -32.637   7.567   3.479  1.00 20.00     0.033 C 
HETATM    7 CL7  UNL     1     -33.917   7.169   5.870  1.00 20.00    -0.119 Cl
ENDROOT
TORSDOF 0
ENDMDL
MODEL 5
REMARK VINA RESULT:      -3.5      1.978      3.063
REMARK  0 active torsions:
REMARK  status: ('A' for Active; 'I' for Inactive)
ROOT
HETATM    1  C1  UNL     1     -32.739   5.806   3.171  1.00 20.00     0.036 A 
HETATM    2  C2  UNL     1     -32.809   7.314   3.086  1.00 20.00    -0.025 A 
HETATM    3  C3  UNL     1     -33.880   6.525   3.852  1.00 20.00     0.041 A 
HETATM    4  C4  UNL     1     -33.162   7.936   1.755  1.00 20.00     0.016 C 
HETATM    5  C5  UNL     1     -31.767   8.106   3.843  1.00 20.00     0.016 C 
HETATM    6  C6  UNL     1     -35.268   6.359   3.301  1.00 20.00     0.033 C 
HETATM    7 CL7  UNL     1     -33.849   6.564   5.637  1.00 20.00    -0.119 Cl
ENDROOT
TORSDOF 0
ENDMDL
MODEL 6
REMARK VINA RESULT:      -3.4      1.485      2.392
REMARK  0 active torsions:
REMARK  status: ('A' for Active; 'I' for Inactive)
ROOT
HETATM    1  C1  UNL     1     -32.751   5.827   3.116  1.00 20.00     0.036 A 
HETATM    2  C2  UNL     1     -33.896   6.535   3.805  1.00 20.00    -0.025 A 
HETATM    3  C3  UNL     1     -32.802   7.337   3.084  1.00 20.00     0.041 A 
HETATM    4  C4  UNL     1     -33.930   6.528   5.315  1.00 20.00     0.016 C 
HETATM    5  C5  UNL     1     -35.270   6.408   3.187  1.00 20.00     0.016 C 
HETATM    6  C6  UNL     1     -31.768   8.108   3.854  1.00 20.00     0.033 C 
HETATM    7 CL7  UNL     1     -33.196   8.090   1.515  1.00 20.00    -0.119 Cl
ENDROOT
TORSDOF 0
ENDMDL
MODEL 7
REMARK VINA RESULT:      -3.3      3.880      4.851
REMARK  0 active torsions:
REMARK  status: ('A' for Active; 'I' for Inactive)
ROOT
HETATM    1  C1  UNL     1     -31.171   8.644   0.887  1.00 20.00     0.036 A 
HETATM    2  C2  UNL     1     -32.447   9.449   0.979  1.00 20.00    -0.025 A 
HETATM    3  C3  UNL     1     -32.166   8.316   1.976  1.00 20.00     0.041 A 
HETATM    4  C4  UNL     1     -33.494   9.246  -0.090  1.00 20.00     0.016 C 
HETATM    5  C5  UNL     1     -32.335  10.890   1.422  1.00 20.00     0.016 C 
HETATM    6  C6  UNL     1     -32.910   7.012   1.904  1.00 20.00     0.033 C 
HETATM    7 CL7  UNL     1     -31.697   8.749   3.643  1.00 20.00    -0.119 Cl
ENDROOT
TORSDOF 0
ENDMDL
MODEL 8
REMARK VINA RESULT:      -3.2      3.844      4.796
REMARK  0 active torsions:
REMARK  status: ('A' for Active; 'I' for Inactive)
ROOT
HETATM    1  C1  UNL     1     -31.135   8.615   0.954  1.00 20.00     0.036 A 
HETATM    2  C2  UNL     1     -32.150   8.282   2.024  1.00 20.00    -0.025 A 
HETATM    3  C3  UNL     1     -32.419   9.410   1.017  1.00 20.00     0.041 A 
HETATM    4  C4  UNL     1     -31.818   8.635   3.454  1.00 20.00     0.016 C 
HETATM    5  C5  UNL     1     -32.889   6.968   1.901  1.00 20.00     0.016 C 
HETATM    6  C6  UNL     1     -32.353  10.853   1.429  1.00 20.00     0.033 C 
HETATM    7 CL7  UNL     1     -33.603   9.119  -0.287  1.00 20.00    -0.119 Cl
ENDROOT
TORSDOF 0
ENDMDL
MODEL 9
REMARK VINA RESULT:      -3.2     12.208     12.971
REMARK  0 active torsions:
REMARK  status: ('A' for Active; 'I' for Inactive)
ROOT
HETATM    1  C1  UNL     1     -33.155  14.430  -4.398  1.00 20.00     0.036 A 
HETATM    2  C2  UNL     1     -34.005  15.680  -4.352  1.00 20.00    -0.025 A 
HETATM    3  C3  UNL     1     -34.354  14.533  -5.312  1.00 20.00     0.041 A 
HETATM    4  C4  UNL     1     -33.422  16.956  -4.911  1.00 20.00     0.016 C 
HETATM    5  C5  UNL     1     -34.843  15.911  -3.115  1.00 20.00     0.016 C 
HETATM    6  C6  UNL     1     -34.124  14.659  -6.792  1.00 20.00     0.033 C 
HETATM    7 CL7  UNL     1     -35.750  13.493  -4.919  1.00 20.00    -0.119 Cl
ENDROOT
TORSDOF 0
ENDMDL
