MODEL 1
REMARK VINA RESULT:      -3.8      0.000      0.000
REMARK  0 active torsions:
REMARK  status: ('A' for Active; 'I' for Inactive)
ROOT
HETATM    1  C1  UNL     1     -34.976   6.200   3.383  1.00 20.00     0.177 A 
HETATM    2  C2  UNL     1     -33.841   6.562   4.273  1.00 20.00     0.218 A 
HETATM    3  O3  UNL     1     -34.451   3.914   4.513  1.00 20.00    -0.226 OA
HETATM    4  O4  UNL     1     -33.057   4.691   2.467  1.00 20.00    -0.226 OA
HETATM    5  S5  UNL     1     -33.715   4.880   3.737  1.00 20.00     0.165 S 
HETATM    6 CL6  UNL     1     -34.137   6.872   5.964  1.00 20.00    -0.107 Cl
ENDROOT
TORSDOF 0
ENDMDL
MODEL 2
REMARK VINA RESULT:      -3.7      1.782      2.062
REMARK  0 active torsions:
REMARK  status: ('A' for Active; 'I' for Inactive)
ROOT
HETATM    1  C1  UNL     1     -35.125   6.160   3.376  1.00 20.00     0.177 A 
HETATM    2  C2  UNL     1     -33.648   6.053   3.254  1.00 20.00     0.218 A 
HETATM    3  O3  UNL     1     -34.404   6.064   5.875  1.00 20.00    -0.226 OA
HETATM    4  O4  UNL     1     -34.647   3.866   4.518  1.00 20.00    -0.226 OA
HETATM    5  S5  UNL     1     -34.226   5.231   4.712  1.00 20.00     0.165 S 
HETATM    6 CL6  UNL     1     -32.661   7.479   3.442  1.00 20.00    -0.107 Cl
ENDROOT
TORSDOF 0
ENDMDL
MODEL 3
REMARK VINA RESULT:      -3.7      1.549      1.841
REMARK  0 active torsions:
REMARK  status: ('A' for Active; 'I' for Inactive)
ROOT
HETATM    1  C1  UNL     1     -35.184   6.135   3.370  1.00 20.00     0.177 A 
HETATM    2  C2  UNL     1     -34.397   6.156   4.630  1.00 20.00     0.218 A 
HETATM    3  O3  UNL     1     -33.069   4.781   2.683  1.00 20.00    -0.226 OA
HETATM    4  O4  UNL     1     -33.010   7.375   2.638  1.00 20.00    -0.226 OA
HETATM    5  S5  UNL     1     -33.332   6.094   3.218  1.00 20.00     0.165 S 
HETATM    6 CL6  UNL     1     -34.440   4.775   5.696  1.00 20.00    -0.107 Cl
ENDROOT
TORSDOF 0
ENDMDL
MODEL 4
REMARK VINA RESULT:      -3.6      3.185      3.232
REMARK  0 active torsions:
REMARK  status: ('A' for Active; 'I' for Inactive)
ROOT
HETATM    1  C1  UNL     1     -32.913   6.274   2.938  1.00 20.00     0.177 A 
HETATM    2  C2  UNL     1     -33.761   7.229   3.698  1.00 20.00     0.218 A 
HETATM    3  O3  UNL     1     -31.186   8.120   3.560  1.00 20.00    -0.226 OA
HETATM    4  O4  UNL     1     -32.726   8.439   1.497  1.00 20.00    -0.226 OA
HETATM    5  S5  UNL     1     -32.447   8.072   2.864  1.00 20.00     0.165 S 
HETATM    6 CL6  UNL     1     -33.748   7.195   5.442  1.00 20.00    -0.107 Cl
ENDROOT
TORSDOF 0
ENDMDL
MODEL 5
REMARK VINA RESULT:      -3.6      2.804      3.161
REMARK  0 active torsions:
REMARK  status: ('A' for Active; 'I' for Inactive)
ROOT
HETATM    1  C1  UNL     1     -35.248   5.885   3.865  1.00 20.00     0.177 A 
HETATM    2  C2  UNL     1     -33.976   5.128   3.995  1.00 20.00     0.218 A 
HETATM    3  O3  UNL     1     -33.484   7.770   3.526  1.00 20.00    -0.226 OA
HETATM    4  O4  UNL     1     -34.136   7.031   5.926  1.00 20.00    -0.226 OA
HETATM    5  S5  UNL     1     -33.779   6.798   4.548  1.00 20.00     0.165 S 
HETATM    6 CL6  UNL     1     -33.122   4.625   2.559  1.00 20.00    -0.107 Cl
ENDROOT
TORSDOF 0
ENDMDL
MODEL 6
REMARK VINA RESULT:      -3.5      1.993      2.362
REMARK  0 active torsions:
REMARK  status: ('A' for Active; 'I' for Inactive)
ROOT
HETATM    1  C1  UNL     1     -33.816   6.753   5.137  1.00 20.00     0.177 A 
HETATM    2  C2  UNL     1     -33.615   7.479   3.856  1.00 20.00     0.218 A 
HETATM    3  O3  UNL     1     -33.507   4.781   3.466  1.00 20.00    -0.226 OA
HETATM    4  O4  UNL     1     -35.829   5.912   3.710  1.00 20.00    -0.226 OA
HETATM    5  S5  UNL     1     -34.393   5.912   3.582  1.00 20.00     0.165 S 
HETATM    6 CL6  UNL     1     -31.999   7.720   3.245  1.00 20.00    -0.107 Cl
ENDROOT
TORSDOF 0
ENDMDL
MODEL 7
REMARK VINA RESULT:      -3.4      2.695      2.829
REMARK  0 active torsions:
REMARK  status: ('A' for Active; 'I' for Inactive)
ROOT
HETATM    1  C1  UNL     1     -32.858   5.578   2.851  1.00 20.00     0.177 A 
HETATM    2  C2  UNL     1     -34.260   6.056   2.977  1.00 20.00     0.218 A 
HETATM    3  O3  UNL     1     -32.581   7.567   4.507  1.00 20.00    -0.226 OA
HETATM    4  O4  UNL     1     -32.687   8.021   1.954  1.00 20.00    -0.226 OA
HETATM    5  S5  UNL     1     -33.114   7.390   3.180  1.00 20.00     0.165 S 
HETATM    6 CL6  UNL     1     -35.216   5.569   4.353  1.00 20.00    -0.107 Cl
ENDROOT
TORSDOF 0
ENDMDL
MODEL 8
REMARK VINA RESULT:      -3.3     12.784     13.083
REMARK  0 active torsions:
REMARK  status: ('A' for Active; 'I' for Inactive)
ROOT
HETATM    1  C1  UNL     1     -34.749  14.108  -4.270  1.00 20.00     0.177 A 
HETATM    2  C2  UNL     1     -34.962  15.067  -5.386  1.00 20.00     0.218 A 
HETATM    3  O3  UNL     1     -35.300  12.498  -6.240  1.00 20.00    -0.226 OA
HETATM    4  O4  UNL     1     -37.228  13.639  -4.931  1.00 20.00    -0.226 OA
HETATM    5  S5  UNL     1     -35.950  13.614  -5.601  1.00 20.00     0.165 S 
HETATM    6 CL6  UNL     1     -33.673  15.367  -6.523  1.00 20.00    -0.107 Cl
ENDROOT
TORSDOF 0
ENDMDL
MODEL 9
REMARK VINA RESULT:      -3.2      3.619      3.903
REMARK  0 active torsions:
REMARK  status: ('A' for Active; 'I' for Inactive)
ROOT
HETATM    1  C1  UNL     1     -31.531   8.138   3.557  1.00 20.00     0.177 A 
HETATM    2  C2  UNL     1     -32.263   8.638   2.364  1.00 20.00     0.218 A 
HETATM    3  O3  UNL     1     -32.528   5.932   2.599  1.00 20.00    -0.226 OA
HETATM    4  O4  UNL     1     -33.990   7.462   4.100  1.00 20.00    -0.226 OA
HETATM    5  S5  UNL     1     -33.051   7.202   3.037  1.00 20.00     0.165 S 
HETATM    6 CL6  UNL     1     -31.526   8.516   0.787  1.00 20.00    -0.107 Cl
ENDROOT
TORSDOF 0
ENDMDL
