MODEL 1
REMARK VINA RESULT:      -4.6      0.000      0.000
REMARK  2 active torsions:
REMARK  status: ('A' for Active; 'I' for Inactive)
REMARK    1  A    between atoms: C7_7  and  C9_9 
REMARK    2  A    between atoms: C8_8  and  C10_10 
ROOT
HETATM    1  C1  UNL     1     -35.828  15.622  -4.415  1.00 20.00     0.005 C 
HETATM    2  C2  UNL     1     -35.061  14.296  -4.481  1.00 20.00     0.005 C 
HETATM    3  C3  UNL     1     -33.752  16.855  -5.049  1.00 20.00     0.005 C 
HETATM    4  C4  UNL     1     -32.981  15.521  -5.112  1.00 20.00     0.005 C 
HETATM    5  C7  UNL     1     -34.888  16.769  -4.007  1.00 20.00    -0.010 C 
HETATM    6  C8  UNL     1     -33.584  14.507  -4.117  1.00 20.00    -0.010 C 
ENDROOT
BRANCH   5   7
HETATM    7  C9  UNL     1     -34.223  16.471  -2.650  1.00 20.00    -0.006 A 
HETATM    8  C5  UNL     1     -33.232  17.454  -1.993  1.00 20.00     0.006 A 
HETATM    9  C6  UNL     1     -34.228  17.702  -0.850  1.00 20.00     0.006 A 
HETATM   10  C10 UNL     1     -35.225  16.716  -1.498  1.00 20.00    -0.006 A 
ENDBRANCH   5   7
TORSDOF 2
ENDMDL
MODEL 2
REMARK VINA RESULT:      -4.5     11.597     12.610
REMARK  2 active torsions:
REMARK  status: ('A' for Active; 'I' for Inactive)
REMARK    1  A    between atoms: C7_7  and  C9_9 
REMARK    2  A    between atoms: C8_8  and  C10_10 
ROOT
HETATM    1  C1  UNL     1     -34.231   6.742   5.866  1.00 20.00     0.005 C 
HETATM    2  C2  UNL     1     -33.864   5.258   5.996  1.00 20.00     0.005 C 
HETATM    3  C3  UNL     1     -35.407   6.264   3.717  1.00 20.00     0.005 C 
HETATM    4  C4  UNL     1     -35.036   4.773   3.847  1.00 20.00     0.005 C 
HETATM    5  C7  UNL     1     -34.330   7.144   4.385  1.00 20.00    -0.010 C 
HETATM    6  C8  UNL     1     -33.703   4.617   4.609  1.00 20.00    -0.010 C 
ENDROOT
BRANCH   5   7
HETATM    7  C9  UNL     1     -33.005   6.857   3.653  1.00 20.00    -0.006 A 
HETATM    8  C5  UNL     1     -32.838   7.107   2.140  1.00 20.00     0.006 A 
HETATM    9  C6  UNL     1     -31.820   8.220   2.431  1.00 20.00     0.006 A 
HETATM   10  C10 UNL     1     -31.977   7.974   3.947  1.00 20.00    -0.006 A 
ENDBRANCH   5   7
TORSDOF 2
ENDMDL
MODEL 3
REMARK VINA RESULT:      -4.5      0.887      2.374
REMARK  2 active torsions:
REMARK  status: ('A' for Active; 'I' for Inactive)
REMARK    1  A    between atoms: C7_7  and  C9_9 
REMARK    2  A    between atoms: C8_8  and  C10_10 
ROOT
HETATM    1  C1  UNL     1     -33.010  15.060  -4.722  1.00 20.00     0.005 C 
HETATM    2  C2  UNL     1     -33.338  15.955  -5.924  1.00 20.00     0.005 C 
HETATM    3  C3  UNL     1     -35.421  14.447  -4.517  1.00 20.00     0.005 C 
HETATM    4  C4  UNL     1     -35.751  15.350  -5.724  1.00 20.00     0.005 C 
HETATM    5  C7  UNL     1     -34.201  15.002  -3.751  1.00 20.00    -0.010 C 
HETATM    6  C8  UNL     1     -34.758  16.528  -5.798  1.00 20.00    -0.010 C 
ENDROOT
BRANCH   5   7
HETATM    7  C9  UNL     1     -34.583  16.416  -3.274  1.00 20.00    -0.006 A 
HETATM    8  C5  UNL     1     -35.657  16.649  -2.191  1.00 20.00     0.006 A 
HETATM    9  C6  UNL     1     -34.583  17.193  -1.236  1.00 20.00     0.006 A 
HETATM   10  C10 UNL     1     -33.502  16.967  -2.315  1.00 20.00    -0.006 A 
ENDBRANCH   5   7
TORSDOF 2
ENDMDL
MODEL 4
REMARK VINA RESULT:      -4.2      9.443     10.582
REMARK  2 active torsions:
REMARK  status: ('A' for Active; 'I' for Inactive)
REMARK    1  A    between atoms: C7_7  and  C9_9 
REMARK    2  A    between atoms: C8_8  and  C10_10 
ROOT
HETATM    1  C1  UNL     1     -32.537   6.229   2.368  1.00 20.00     0.005 C 
HETATM    2  C2  UNL     1     -33.828   6.186   3.195  1.00 20.00     0.005 C 
HETATM    3  C3  UNL     1     -31.613   7.971   3.900  1.00 20.00     0.005 C 
HETATM    4  C4  UNL     1     -32.913   7.929   4.729  1.00 20.00     0.005 C 
HETATM    5  C7  UNL     1     -31.908   7.632   2.423  1.00 20.00    -0.010 C 
HETATM    6  C8  UNL     1     -34.110   7.557   3.829  1.00 20.00    -0.010 C 
ENDROOT
BRANCH   5   7
HETATM    7  C9  UNL     1     -32.902   8.693   1.915  1.00 20.00    -0.006 A 
HETATM    8  C5  UNL     1     -32.549  10.196   1.890  1.00 20.00     0.006 A 
HETATM    9  C6  UNL     1     -32.595  10.186   0.354  1.00 20.00     0.006 A 
HETATM   10  C10 UNL     1     -32.952   8.684   0.369  1.00 20.00    -0.006 A 
ENDBRANCH   5   7
TORSDOF 2
ENDMDL
MODEL 5
REMARK VINA RESULT:      -4.0      1.026      3.818
REMARK  2 active torsions:
REMARK  status: ('A' for Active; 'I' for Inactive)
REMARK    1  A    between atoms: C7_7  and  C9_9 
REMARK    2  A    between atoms: C8_8  and  C10_10 
ROOT
HETATM    1  C1  UNL     1     -34.353  18.430  -3.777  1.00 20.00     0.005 C 
HETATM    2  C2  UNL     1     -33.387  18.554  -2.592  1.00 20.00     0.005 C 
HETATM    3  C3  UNL     1     -35.824  16.934  -2.424  1.00 20.00     0.005 C 
HETATM    4  C4  UNL     1     -34.850  17.057  -1.234  1.00 20.00     0.005 C 
HETATM    5  C7  UNL     1     -35.057  17.063  -3.758  1.00 20.00    -0.010 C 
HETATM    6  C8  UNL     1     -33.409  17.275  -1.741  1.00 20.00    -0.010 C 
ENDROOT
BRANCH   5   7
HETATM    7  C9  UNL     1     -34.026  15.919  -3.789  1.00 20.00    -0.006 A 
HETATM    8  C5  UNL     1     -34.444  14.450  -4.011  1.00 20.00     0.006 A 
HETATM    9  C6  UNL     1     -33.706  14.439  -5.359  1.00 20.00     0.006 A 
HETATM   10  C10 UNL     1     -33.280  15.908  -5.143  1.00 20.00    -0.006 A 
ENDBRANCH   5   7
TORSDOF 2
ENDMDL
MODEL 6
REMARK VINA RESULT:      -3.9      1.307      3.572
REMARK  2 active torsions:
REMARK  status: ('A' for Active; 'I' for Inactive)
REMARK    1  A    between atoms: C7_7  and  C9_9 
REMARK    2  A    between atoms: C8_8  and  C10_10 
ROOT
HETATM    1  C1  UNL     1     -34.305  16.208  -2.963  1.00 20.00     0.005 C 
HETATM    2  C2  UNL     1     -33.796  17.302  -3.909  1.00 20.00     0.005 C 
HETATM    3  C3  UNL     1     -33.398  14.458  -4.495  1.00 20.00     0.005 C 
HETATM    4  C4  UNL     1     -32.887  15.559  -5.447  1.00 20.00     0.005 C 
HETATM    5  C7  UNL     1     -34.663  14.937  -3.752  1.00 20.00    -0.010 C 
HETATM    6  C8  UNL     1     -33.796  16.803  -5.363  1.00 20.00    -0.010 C 
ENDROOT
BRANCH   5   7
HETATM    7  C9  UNL     1     -35.720  15.244  -4.829  1.00 20.00    -0.006 A 
HETATM    8  C5  UNL     1     -36.381  14.128  -5.666  1.00 20.00     0.006 A 
HETATM    9  C6  UNL     1     -37.736  14.430  -5.008  1.00 20.00     0.006 A 
HETATM   10  C10 UNL     1     -37.084  15.551  -4.169  1.00 20.00    -0.006 A 
ENDBRANCH   5   7
TORSDOF 2
ENDMDL
MODEL 7
REMARK VINA RESULT:      -3.8     11.659     12.456
REMARK  2 active torsions:
REMARK  status: ('A' for Active; 'I' for Inactive)
REMARK    1  A    between atoms: C7_7  and  C9_9 
REMARK    2  A    between atoms: C8_8  and  C10_10 
ROOT
HETATM    1  C1  UNL     1     -35.239   5.601   4.318  1.00 20.00     0.005 C 
HETATM    2  C2  UNL     1     -34.497   4.271   4.498  1.00 20.00     0.005 C 
HETATM    3  C3  UNL     1     -34.076   5.956   2.138  1.00 20.00     0.005 C 
HETATM    4  C4  UNL     1     -33.328   4.620   2.321  1.00 20.00     0.005 C 
HETATM    5  C7  UNL     1     -34.383   6.591   3.511  1.00 20.00    -0.010 C 
HETATM    6  C8  UNL     1     -33.119   4.325   3.821  1.00 20.00    -0.010 C 
ENDROOT
BRANCH   5   7
HETATM    7  C9  UNL     1     -33.027   6.827   4.203  1.00 20.00    -0.006 A 
HETATM    8  C5  UNL     1     -32.023   7.881   3.691  1.00 20.00     0.006 A 
HETATM    9  C6  UNL     1     -32.219   8.699   4.977  1.00 20.00     0.006 A 
HETATM   10  C10 UNL     1     -33.223   7.648   5.499  1.00 20.00    -0.006 A 
ENDBRANCH   5   7
TORSDOF 2
ENDMDL
MODEL 8
REMARK VINA RESULT:      -3.8      1.259      3.593
REMARK  2 active torsions:
REMARK  status: ('A' for Active; 'I' for Inactive)
REMARK    1  A    between atoms: C7_7  and  C9_9 
REMARK    2  A    between atoms: C8_8  and  C10_10 
ROOT
HETATM    1  C1  UNL     1     -35.875  17.513  -1.831  1.00 20.00     0.005 C 
HETATM    2  C2  UNL     1     -35.785  18.773  -2.701  1.00 20.00     0.005 C 
HETATM    3  C3  UNL     1     -33.385  17.443  -1.671  1.00 20.00     0.005 C 
HETATM    4  C4  UNL     1     -33.295  18.709  -2.549  1.00 20.00     0.005 C 
HETATM    5  C7  UNL     1     -34.639  16.623  -2.041  1.00 20.00    -0.010 C 
HETATM    6  C8  UNL     1     -34.488  18.769  -3.525  1.00 20.00    -0.010 C 
ENDROOT
BRANCH   5   7
HETATM    7  C9  UNL     1     -34.493  16.236  -3.525  1.00 20.00    -0.006 A 
HETATM    8  C5  UNL     1     -33.469  15.183  -3.998  1.00 20.00     0.006 A 
HETATM    9  C6  UNL     1     -34.615  14.249  -4.416  1.00 20.00     0.006 A 
HETATM   10  C10 UNL     1     -35.647  15.299  -3.950  1.00 20.00    -0.006 A 
ENDBRANCH   5   7
TORSDOF 2
ENDMDL
MODEL 9
REMARK VINA RESULT:      -3.8      1.404      3.727
REMARK  2 active torsions:
REMARK  status: ('A' for Active; 'I' for Inactive)
REMARK    1  A    between atoms: C7_7  and  C9_9 
REMARK    2  A    between atoms: C8_8  and  C10_10 
ROOT
HETATM    1  C1  UNL     1     -33.154  14.636  -4.510  1.00 20.00     0.005 C 
HETATM    2  C2  UNL     1     -34.533  14.085  -4.128  1.00 20.00     0.005 C 
HETATM    3  C3  UNL     1     -33.679  16.773  -3.332  1.00 20.00     0.005 C 
HETATM    4  C4  UNL     1     -35.067  16.219  -2.950  1.00 20.00     0.005 C 
HETATM    5  C7  UNL     1     -33.209  16.164  -4.670  1.00 20.00    -0.010 C 
HETATM    6  C8  UNL     1     -35.559  15.223  -4.021  1.00 20.00    -0.010 C 
ENDROOT
BRANCH   5   7
HETATM    7  C9  UNL     1     -34.254  16.563  -5.729  1.00 20.00    -0.006 A 
HETATM    8  C5  UNL     1     -34.371  18.008  -6.257  1.00 20.00     0.006 A 
HETATM    9  C6  UNL     1     -33.918  17.542  -7.649  1.00 20.00     0.006 A 
HETATM   10  C10 UNL     1     -33.802  16.092  -7.131  1.00 20.00    -0.006 A 
ENDBRANCH   5   7
TORSDOF 2
ENDMDL
