MODEL 1
REMARK VINA RESULT:      -5.8      0.000      0.000
REMARK  3 active torsions:
REMARK  status: ('A' for Active; 'I' for Inactive)
REMARK    1  A    between atoms: C1_1  and  C3_3 
REMARK    2  A    between atoms: C2_2  and  C4_4 
REMARK    3  A    between atoms: C5_5  and  C6_6 
ROOT
HETATM    1  C3  UNL     1     -32.723   7.650   3.638  1.00 20.00     0.010 C 
HETATM    2  C5  UNL     1     -33.648   6.712   3.908  1.00 20.00    -0.017 C 
HETATM    3  C7  UNL     1     -34.336   5.799   2.943  1.00 20.00     0.052 C 
ENDROOT
BRANCH   1   4
HETATM    4  C1  UNL     1     -32.226   8.003   2.324  1.00 20.00     0.004 C 
HETATM    5  C2  UNL     1     -32.606   9.119   1.688  1.00 20.00     0.041 C 
BRANCH   5   6
HETATM    6  C4  UNL     1     -32.056   9.403   0.348  1.00 20.00     0.258 C 
HETATM    7  O9  UNL     1     -32.708   9.217  -0.673  1.00 20.00    -0.302 OA
ENDBRANCH   5   6
ENDBRANCH   1   4
BRANCH   2   8
HETATM    8  C6  UNL     1     -33.991   6.545   5.355  1.00 20.00     0.151 C 
HETATM    9  C8  UNL     1     -34.620   5.241   5.773  1.00 20.00     0.096 C 
HETATM   10  O10 UNL     1     -33.752   7.433   6.173  1.00 20.00    -0.293 OA
ENDBRANCH   2   8
TORSDOF 3
ENDMDL
MODEL 2
REMARK VINA RESULT:      -5.7      1.712      5.215
REMARK  3 active torsions:
REMARK  status: ('A' for Active; 'I' for Inactive)
REMARK    1  A    between atoms: C1_1  and  C3_3 
REMARK    2  A    between atoms: C2_2  and  C4_4 
REMARK    3  A    between atoms: C5_5  and  C6_6 
ROOT
HETATM    1  C3  UNL     1     -33.097   7.086   2.122  1.00 20.00     0.010 C 
HETATM    2  C5  UNL     1     -32.247   8.100   2.367  1.00 20.00    -0.017 C 
HETATM    3  C7  UNL     1     -31.447   8.346   3.607  1.00 20.00     0.052 C 
ENDROOT
BRANCH   1   4
HETATM    4  C1  UNL     1     -33.450   6.029   3.047  1.00 20.00     0.004 C 
HETATM    5  C2  UNL     1     -34.546   6.082   3.814  1.00 20.00     0.041 C 
BRANCH   5   6
HETATM    6  C4  UNL     1     -34.832   4.964   4.735  1.00 20.00     0.258 C 
HETATM    7  O9  UNL     1     -34.475   3.817   4.493  1.00 20.00    -0.302 OA
ENDBRANCH   5   6
ENDBRANCH   1   4
BRANCH   2   8
HETATM    8  C6  UNL     1     -32.058   9.066   1.240  1.00 20.00     0.151 C 
HETATM    9  C8  UNL     1     -32.872  10.333   1.269  1.00 20.00     0.096 C 
HETATM   10  O10 UNL     1     -31.255   8.841   0.335  1.00 20.00    -0.293 OA
ENDBRANCH   2   8
TORSDOF 3
ENDMDL
MODEL 3
REMARK VINA RESULT:      -5.6      1.028      1.174
REMARK  3 active torsions:
REMARK  status: ('A' for Active; 'I' for Inactive)
REMARK    1  A    between atoms: C1_1  and  C3_3 
REMARK    2  A    between atoms: C2_2  and  C4_4 
REMARK    3  A    between atoms: C5_5  and  C6_6 
ROOT
HETATM    1  C3  UNL     1     -33.144   7.476   3.387  1.00 20.00     0.010 C 
HETATM    2  C5  UNL     1     -33.591   6.250   3.714  1.00 20.00    -0.017 C 
HETATM    3  C7  UNL     1     -33.575   5.014   2.871  1.00 20.00     0.052 C 
ENDROOT
BRANCH   1   4
HETATM    4  C1  UNL     1     -32.585   7.866   2.109  1.00 20.00     0.004 C 
HETATM    5  C2  UNL     1     -32.610   9.130   1.669  1.00 20.00     0.041 C 
BRANCH   5   6
HETATM    6  C4  UNL     1     -32.023   9.443   0.351  1.00 20.00     0.258 C 
HETATM    7  O9  UNL     1     -32.624   9.230  -0.694  1.00 20.00    -0.302 OA
ENDBRANCH   5   6
ENDBRANCH   1   4
BRANCH   2   8
HETATM    8  C6  UNL     1     -34.128   6.111   5.104  1.00 20.00     0.151 C 
HETATM    9  C8  UNL     1     -33.876   7.247   6.061  1.00 20.00     0.096 C 
HETATM   10  O10 UNL     1     -34.764   5.115   5.444  1.00 20.00    -0.293 OA
ENDBRANCH   2   8
TORSDOF 3
ENDMDL
MODEL 4
REMARK VINA RESULT:      -5.3      1.428      1.836
REMARK  3 active torsions:
REMARK  status: ('A' for Active; 'I' for Inactive)
REMARK    1  A    between atoms: C1_1  and  C3_3 
REMARK    2  A    between atoms: C2_2  and  C4_4 
REMARK    3  A    between atoms: C5_5  and  C6_6 
ROOT
HETATM    1  C3  UNL     1     -33.239   6.651   3.461  1.00 20.00     0.010 C 
HETATM    2  C5  UNL     1     -33.674   6.540   4.728  1.00 20.00    -0.017 C 
HETATM    3  C7  UNL     1     -33.600   7.566   5.816  1.00 20.00     0.052 C 
ENDROOT
BRANCH   1   4
HETATM    4  C1  UNL     1     -32.555   7.794   2.892  1.00 20.00     0.004 C 
HETATM    5  C2  UNL     1     -32.866   8.291   1.687  1.00 20.00     0.041 C 
BRANCH   5   6
HETATM    6  C4  UNL     1     -32.117   9.456   1.177  1.00 20.00     0.258 C 
HETATM    7  O9  UNL     1     -32.638  10.558   1.053  1.00 20.00    -0.302 OA
ENDBRANCH   5   6
ENDBRANCH   1   4
BRANCH   2   8
HETATM    8  C6  UNL     1     -34.348   5.247   5.066  1.00 20.00     0.151 C 
HETATM    9  C8  UNL     1     -34.240   4.127   4.065  1.00 20.00     0.096 C 
HETATM   10  O10 UNL     1     -34.952   5.102   6.128  1.00 20.00    -0.293 OA
ENDBRANCH   2   8
TORSDOF 3
ENDMDL
MODEL 5
REMARK VINA RESULT:      -5.2      1.754      1.983
REMARK  3 active torsions:
REMARK  status: ('A' for Active; 'I' for Inactive)
REMARK    1  A    between atoms: C1_1  and  C3_3 
REMARK    2  A    between atoms: C2_2  and  C4_4 
REMARK    3  A    between atoms: C5_5  and  C6_6 
ROOT
HETATM    1  C3  UNL     1     -33.085   6.891   2.871  1.00 20.00     0.010 C 
HETATM    2  C5  UNL     1     -33.528   6.598   4.107  1.00 20.00    -0.017 C 
HETATM    3  C7  UNL     1     -33.612   7.510   5.291  1.00 20.00     0.052 C 
ENDROOT
BRANCH   1   4
HETATM    4  C1  UNL     1     -32.547   8.165   2.439  1.00 20.00     0.004 C 
HETATM    5  C2  UNL     1     -32.815   8.686   1.236  1.00 20.00     0.041 C 
BRANCH   5   6
HETATM    6  C4  UNL     1     -32.222   9.988   0.870  1.00 20.00     0.258 C 
HETATM    7  O9  UNL     1     -32.590  11.036   1.387  1.00 20.00    -0.302 OA
ENDBRANCH   5   6
ENDBRANCH   1   4
BRANCH   2   8
HETATM    8  C6  UNL     1     -34.033   5.201   4.295  1.00 20.00     0.151 C 
HETATM    9  C8  UNL     1     -34.748   4.890   5.584  1.00 20.00     0.096 C 
HETATM   10  O10 UNL     1     -33.883   4.348   3.422  1.00 20.00    -0.293 OA
ENDBRANCH   2   8
TORSDOF 3
ENDMDL
MODEL 6
REMARK VINA RESULT:      -4.7     10.566     11.174
REMARK  3 active torsions:
REMARK  status: ('A' for Active; 'I' for Inactive)
REMARK    1  A    between atoms: C1_1  and  C3_3 
REMARK    2  A    between atoms: C2_2  and  C4_4 
REMARK    3  A    between atoms: C5_5  and  C6_6 
ROOT
HETATM    1  C3  UNL     1     -34.859  15.849  -3.249  1.00 20.00     0.010 C 
HETATM    2  C5  UNL     1     -34.508  14.846  -4.075  1.00 20.00    -0.017 C 
HETATM    3  C7  UNL     1     -33.127  14.407  -4.449  1.00 20.00     0.052 C 
ENDROOT
BRANCH   1   4
HETATM    4  C1  UNL     1     -33.951  16.753  -2.574  1.00 20.00     0.004 C 
HETATM    5  C2  UNL     1     -34.203  17.248  -1.356  1.00 20.00     0.041 C 
BRANCH   5   6
HETATM    6  C4  UNL     1     -33.228  18.169  -0.739  1.00 20.00     0.258 C 
HETATM    7  O9  UNL     1     -32.101  18.319  -1.195  1.00 20.00    -0.302 OA
ENDBRANCH   5   6
ENDBRANCH   1   4
BRANCH   2   8
HETATM    8  C6  UNL     1     -35.644  14.059  -4.649  1.00 20.00     0.151 C 
HETATM    9  C8  UNL     1     -36.991  14.732  -4.714  1.00 20.00     0.096 C 
HETATM   10  O10 UNL     1     -35.479  12.914  -5.067  1.00 20.00    -0.293 OA
ENDBRANCH   2   8
TORSDOF 3
ENDMDL
MODEL 7
REMARK VINA RESULT:      -4.6     10.603     11.144
REMARK  3 active torsions:
REMARK  status: ('A' for Active; 'I' for Inactive)
REMARK    1  A    between atoms: C1_1  and  C3_3 
REMARK    2  A    between atoms: C2_2  and  C4_4 
REMARK    3  A    between atoms: C5_5  and  C6_6 
ROOT
HETATM    1  C3  UNL     1     -34.064  16.705  -2.596  1.00 20.00     0.010 C 
HETATM    2  C5  UNL     1     -34.300  17.319  -1.423  1.00 20.00    -0.017 C 
HETATM    3  C7  UNL     1     -35.546  17.266  -0.596  1.00 20.00     0.052 C 
ENDROOT
BRANCH   1   4
HETATM    4  C1  UNL     1     -35.004  15.886  -3.334  1.00 20.00     0.004 C 
HETATM    5  C2  UNL     1     -34.628  14.794  -4.011  1.00 20.00     0.041 C 
BRANCH   5   6
HETATM    6  C4  UNL     1     -35.648  14.017  -4.741  1.00 20.00     0.258 C 
HETATM    7  O9  UNL     1     -35.455  12.858  -5.090  1.00 20.00    -0.302 OA
ENDBRANCH   5   6
ENDBRANCH   1   4
BRANCH   2   8
HETATM    8  C6  UNL     1     -33.158  18.112  -0.871  1.00 20.00     0.151 C 
HETATM    9  C8  UNL     1     -33.234  18.522   0.577  1.00 20.00     0.096 C 
HETATM   10  O10 UNL     1     -32.188  18.403  -1.569  1.00 20.00    -0.293 OA
ENDBRANCH   2   8
TORSDOF 3
ENDMDL
MODEL 8
REMARK VINA RESULT:      -4.2      1.217      5.431
REMARK  3 active torsions:
REMARK  status: ('A' for Active; 'I' for Inactive)
REMARK    1  A    between atoms: C1_1  and  C3_3 
REMARK    2  A    between atoms: C2_2  and  C4_4 
REMARK    3  A    between atoms: C5_5  and  C6_6 
ROOT
HETATM    1  C3  UNL     1     -32.265   7.915   2.429  1.00 20.00     0.010 C 
HETATM    2  C5  UNL     1     -32.446   9.041   1.716  1.00 20.00    -0.017 C 
HETATM    3  C7  UNL     1     -32.969  10.357   2.199  1.00 20.00     0.052 C 
ENDROOT
BRANCH   1   4
HETATM    4  C1  UNL     1     -32.588   7.732   3.829  1.00 20.00     0.004 C 
HETATM    5  C2  UNL     1     -33.701   7.108   4.235  1.00 20.00     0.041 C 
BRANCH   5   6
HETATM    6  C4  UNL     1     -33.958   6.969   5.682  1.00 20.00     0.258 C 
HETATM    7  O9  UNL     1     -34.510   5.980   6.150  1.00 20.00    -0.302 OA
ENDBRANCH   5   6
ENDBRANCH   1   4
BRANCH   2   8
HETATM    8  C6  UNL     1     -32.034   8.965   0.279  1.00 20.00     0.151 C 
HETATM    9  C8  UNL     1     -33.038   9.404  -0.755  1.00 20.00     0.096 C 
HETATM   10  O10 UNL     1     -30.911   8.577  -0.041  1.00 20.00    -0.293 OA
ENDBRANCH   2   8
TORSDOF 3
ENDMDL
MODEL 9
REMARK VINA RESULT:      -4.0     10.667     10.993
REMARK  3 active torsions:
REMARK  status: ('A' for Active; 'I' for Inactive)
REMARK    1  A    between atoms: C1_1  and  C3_3 
REMARK    2  A    between atoms: C2_2  and  C4_4 
REMARK    3  A    between atoms: C5_5  and  C6_6 
ROOT
HETATM    1  C3  UNL     1     -34.537  16.967  -1.621  1.00 20.00     0.010 C 
HETATM    2  C5  UNL     1     -33.854  17.760  -0.776  1.00 20.00    -0.017 C 
HETATM    3  C7  UNL     1     -32.477  18.318  -0.953  1.00 20.00     0.052 C 
ENDROOT
BRANCH   1   4
HETATM    4  C1  UNL     1     -34.049  16.446  -2.882  1.00 20.00     0.004 C 
HETATM    5  C2  UNL     1     -34.655  15.441  -3.526  1.00 20.00     0.041 C 
BRANCH   5   6
HETATM    6  C4  UNL     1     -34.090  14.965  -4.804  1.00 20.00     0.258 C 
HETATM    7  O9  UNL     1     -33.676  13.820  -4.944  1.00 20.00    -0.302 OA
ENDBRANCH   5   6
ENDBRANCH   1   4
BRANCH   2   8
HETATM    8  C6  UNL     1     -34.587  18.157   0.467  1.00 20.00     0.151 C 
HETATM    9  C8  UNL     1     -36.030  17.738   0.585  1.00 20.00     0.096 C 
HETATM   10  O10 UNL     1     -34.027  18.785   1.364  1.00 20.00    -0.293 OA
ENDBRANCH   2   8
TORSDOF 3
ENDMDL
