MODEL 1
REMARK VINA RESULT:      -5.3      0.000      0.000
REMARK  0 active torsions:
REMARK  status: ('A' for Active; 'I' for Inactive)
ROOT
HETATM    1  C1  UNL     1     -34.589   5.080   4.793  1.00 20.00     0.083 C 
HETATM    2  C2  UNL     1     -32.081   6.930   2.996  1.00 20.00    -0.003 A 
HETATM    3  C3  UNL     1     -31.764   8.292   3.085  1.00 20.00    -0.011 A 
HETATM    4  C4  UNL     1     -32.163   7.723   4.261  1.00 20.00    -0.006 A 
HETATM    5  C5  UNL     1     -33.242   7.147   2.313  1.00 20.00    -0.016 C 
HETATM    6  C6  UNL     1     -35.080   5.791   3.573  1.00 20.00     0.052 C 
HETATM    7  C7  UNL     1     -32.564   8.491   1.772  1.00 20.00     0.023 C 
HETATM    8  C8  UNL     1     -33.951   7.038   5.956  1.00 20.00     0.153 C 
HETATM    9  C9  UNL     1     -33.693   7.724   4.637  1.00 20.00     0.022 C 
HETATM   10  C10 UNL     1     -34.502   7.195   3.406  1.00 20.00     0.007 C 
HETATM   11  N11 UNL     1     -34.092   5.604   5.850  1.00 20.00    -0.305 NA
ENDROOT
TORSDOF 0
ENDMDL
MODEL 2
REMARK VINA RESULT:      -5.1     11.316     12.486
REMARK  0 active torsions:
REMARK  status: ('A' for Active; 'I' for Inactive)
ROOT
HETATM    1  C1  UNL     1     -34.657  13.258  -7.261  1.00 20.00     0.083 C 
HETATM    2  C2  UNL     1     -33.099  15.199  -4.664  1.00 20.00    -0.003 A 
HETATM    3  C3  UNL     1     -33.702  15.898  -3.609  1.00 20.00    -0.011 A 
HETATM    4  C4  UNL     1     -34.342  14.746  -3.968  1.00 20.00    -0.006 A 
HETATM    5  C5  UNL     1     -33.480  16.108  -5.609  1.00 20.00    -0.016 C 
HETATM    6  C6  UNL     1     -34.587  14.727  -7.525  1.00 20.00     0.052 C 
HETATM    7  C7  UNL     1     -33.480  17.192  -4.433  1.00 20.00     0.023 C 
HETATM    8  C8  UNL     1     -36.046  13.437  -5.355  1.00 20.00     0.153 C 
HETATM    9  C9  UNL     1     -35.464  14.800  -5.073  1.00 20.00     0.022 C 
HETATM   10  C10 UNL     1     -34.904  15.588  -6.304  1.00 20.00     0.007 C 
HETATM   11  N11 UNL     1     -35.291  12.668  -6.318  1.00 20.00    -0.305 NA
ENDROOT
TORSDOF 0
ENDMDL
MODEL 3
REMARK VINA RESULT:      -4.9      1.719      3.520
REMARK  0 active torsions:
REMARK  status: ('A' for Active; 'I' for Inactive)
ROOT
HETATM    1  C1  UNL     1     -32.839   8.448   1.633  1.00 20.00     0.083 C 
HETATM    2  C2  UNL     1     -34.601   7.267   4.537  1.00 20.00    -0.003 A 
HETATM    3  C3  UNL     1     -34.087   6.638   5.680  1.00 20.00    -0.011 A 
HETATM    4  C4  UNL     1     -33.263   7.577   5.128  1.00 20.00    -0.006 A 
HETATM    5  C5  UNL     1     -34.443   6.167   3.745  1.00 20.00    -0.016 C 
HETATM    6  C6  UNL     1     -33.194   6.996   1.611  1.00 20.00     0.052 C 
HETATM    7  C7  UNL     1     -34.586   5.299   5.081  1.00 20.00     0.023 C 
HETATM    8  C8  UNL     1     -31.416   8.304   3.517  1.00 20.00     0.153 C 
HETATM    9  C9  UNL     1     -32.226   7.138   4.025  1.00 20.00     0.022 C 
HETATM   10  C10 UNL     1     -32.982   6.291   2.948  1.00 20.00     0.007 C 
HETATM   11  N11 UNL     1     -32.061   9.045   2.456  1.00 20.00    -0.305 NA
ENDROOT
TORSDOF 0
ENDMDL
MODEL 4
REMARK VINA RESULT:      -4.5     11.454     12.481
REMARK  0 active torsions:
REMARK  status: ('A' for Active; 'I' for Inactive)
ROOT
HETATM    1  C1  UNL     1     -33.376  17.564  -1.781  1.00 20.00     0.083 C 
HETATM    2  C2  UNL     1     -33.241  15.011  -4.310  1.00 20.00    -0.003 A 
HETATM    3  C3  UNL     1     -33.712  15.058  -5.630  1.00 20.00    -0.011 A 
HETATM    4  C4  UNL     1     -33.230  16.244  -5.155  1.00 20.00    -0.006 A 
HETATM    5  C5  UNL     1     -34.490  14.910  -3.769  1.00 20.00    -0.016 C 
HETATM    6  C6  UNL     1     -34.611  16.730  -1.904  1.00 20.00     0.052 C 
HETATM    7  C7  UNL     1     -34.934  14.234  -5.149  1.00 20.00     0.023 C 
HETATM    8  C8  UNL     1     -33.505  18.485  -3.955  1.00 20.00     0.153 C 
HETATM    9  C9  UNL     1     -34.212  17.239  -4.428  1.00 20.00     0.022 C 
HETATM   10  C10 UNL     1     -35.013  16.438  -3.348  1.00 20.00     0.007 C 
HETATM   11  N11 UNL     1     -32.873  18.342  -2.663  1.00 20.00    -0.305 NA
ENDROOT
TORSDOF 0
ENDMDL
MODEL 5
REMARK VINA RESULT:      -4.4     11.494     12.586
REMARK  0 active torsions:
REMARK  status: ('A' for Active; 'I' for Inactive)
ROOT
HETATM    1  C1  UNL     1     -35.403  14.469  -5.968  1.00 20.00     0.083 C 
HETATM    2  C2  UNL     1     -34.950  17.225  -3.702  1.00 20.00    -0.003 A 
HETATM    3  C3  UNL     1     -33.754  17.803  -3.252  1.00 20.00    -0.011 A 
HETATM    4  C4  UNL     1     -33.715  17.341  -4.537  1.00 20.00    -0.006 A 
HETATM    5  C5  UNL     1     -34.808  16.106  -2.934  1.00 20.00    -0.016 C 
HETATM    6  C6  UNL     1     -35.164  14.084  -4.543  1.00 20.00     0.052 C 
HETATM    7  C7  UNL     1     -33.952  17.013  -1.933  1.00 20.00     0.023 C 
HETATM    8  C8  UNL     1     -33.304  15.513  -6.276  1.00 20.00     0.153 C 
HETATM    9  C9  UNL     1     -33.271  15.854  -4.807  1.00 20.00     0.022 C 
HETATM   10  C10 UNL     1     -34.085  14.917  -3.854  1.00 20.00     0.007 C 
HETATM   11  N11 UNL     1     -34.604  15.093  -6.748  1.00 20.00    -0.305 NA
ENDROOT
TORSDOF 0
ENDMDL
MODEL 6
REMARK VINA RESULT:      -4.4     11.227     12.183
REMARK  0 active torsions:
REMARK  status: ('A' for Active; 'I' for Inactive)
ROOT
HETATM    1  C1  UNL     1     -33.363  14.306  -4.509  1.00 20.00     0.083 C 
HETATM    2  C2  UNL     1     -33.995  16.856  -2.053  1.00 20.00    -0.003 A 
HETATM    3  C3  UNL     1     -35.120  17.682  -1.915  1.00 20.00    -0.011 A 
HETATM    4  C4  UNL     1     -35.390  16.425  -2.376  1.00 20.00    -0.006 A 
HETATM    5  C5  UNL     1     -33.521  17.524  -3.145  1.00 20.00    -0.016 C 
HETATM    6  C6  UNL     1     -33.021  15.696  -4.938  1.00 20.00     0.052 C 
HETATM    7  C7  UNL     1     -34.285  18.809  -2.577  1.00 20.00     0.023 C 
HETATM    8  C8  UNL     1     -35.679  14.711  -4.251  1.00 20.00     0.153 C 
HETATM    9  C9  UNL     1     -35.378  16.154  -3.927  1.00 20.00     0.022 C 
HETATM   10  C10 UNL     1     -34.053  16.741  -4.519  1.00 20.00     0.007 C 
HETATM   11  N11 UNL     1     -34.519  13.850  -4.204  1.00 20.00    -0.305 NA
ENDROOT
TORSDOF 0
ENDMDL
MODEL 7
REMARK VINA RESULT:      -4.4     11.659     12.571
REMARK  0 active torsions:
REMARK  status: ('A' for Active; 'I' for Inactive)
ROOT
HETATM    1  C1  UNL     1     -35.132  16.648  -5.785  1.00 20.00     0.083 C 
HETATM    2  C2  UNL     1     -34.668  17.973  -2.474  1.00 20.00    -0.003 A 
HETATM    3  C3  UNL     1     -33.998  17.398  -1.385  1.00 20.00    -0.011 A 
HETATM    4  C4  UNL     1     -33.453  17.112  -2.604  1.00 20.00    -0.006 A 
HETATM    5  C5  UNL     1     -35.742  17.136  -2.375  1.00 20.00    -0.016 C 
HETATM    6  C6  UNL     1     -36.127  16.181  -4.772  1.00 20.00     0.052 C 
HETATM    7  C7  UNL     1     -35.390  17.017  -0.820  1.00 20.00     0.023 C 
HETATM    8  C8  UNL     1     -33.253  15.688  -4.718  1.00 20.00     0.153 C 
HETATM    9  C9  UNL     1     -33.947  15.837  -3.387  1.00 20.00     0.022 C 
HETATM   10  C10 UNL     1     -35.511  15.851  -3.414  1.00 20.00     0.007 C 
HETATM   11  N11 UNL     1     -33.869  16.444  -5.785  1.00 20.00    -0.305 NA
ENDROOT
TORSDOF 0
ENDMDL
MODEL 8
REMARK VINA RESULT:      -4.4     11.285     12.291
REMARK  0 active torsions:
REMARK  status: ('A' for Active; 'I' for Inactive)
ROOT
HETATM    1  C1  UNL     1     -37.759  14.178  -5.301  1.00 20.00     0.083 C 
HETATM    2  C2  UNL     1     -34.368  14.470  -4.139  1.00 20.00    -0.003 A 
HETATM    3  C3  UNL     1     -33.649  15.628  -3.811  1.00 20.00    -0.011 A 
HETATM    4  C4  UNL     1     -34.983  15.683  -3.519  1.00 20.00    -0.006 A 
HETATM    5  C5  UNL     1     -34.304  14.697  -5.484  1.00 20.00    -0.016 C 
HETATM    6  C6  UNL     1     -36.748  14.460  -6.365  1.00 20.00     0.052 C 
HETATM    7  C7  UNL     1     -32.954  15.502  -5.191  1.00 20.00     0.023 C 
HETATM    8  C8  UNL     1     -37.414  16.197  -4.118  1.00 20.00     0.153 C 
HETATM    9  C9  UNL     1     -35.987  16.225  -4.605  1.00 20.00     0.022 C 
HETATM   10  C10 UNL     1     -35.695  15.488  -5.955  1.00 20.00     0.007 C 
HETATM   11  N11 UNL     1     -38.070  14.923  -4.308  1.00 20.00    -0.305 NA
ENDROOT
TORSDOF 0
ENDMDL
MODEL 9
REMARK VINA RESULT:      -4.3     11.668     12.618
REMARK  0 active torsions:
REMARK  status: ('A' for Active; 'I' for Inactive)
ROOT
HETATM    1  C1  UNL     1     -36.688  14.153  -6.540  1.00 20.00     0.083 C 
HETATM    2  C2  UNL     1     -34.652  16.625  -4.903  1.00 20.00    -0.003 A 
HETATM    3  C3  UNL     1     -33.294  16.558  -4.562  1.00 20.00    -0.011 A 
HETATM    4  C4  UNL     1     -33.623  15.910  -5.718  1.00 20.00    -0.006 A 
HETATM    5  C5  UNL     1     -35.041  15.771  -3.912  1.00 20.00    -0.016 C 
HETATM    6  C6  UNL     1     -36.549  13.980  -5.062  1.00 20.00     0.052 C 
HETATM    7  C7  UNL     1     -33.747  16.260  -3.110  1.00 20.00     0.023 C 
HETATM    8  C8  UNL     1     -34.392  13.849  -7.021  1.00 20.00     0.153 C 
HETATM    9  C9  UNL     1     -34.046  14.393  -5.658  1.00 20.00     0.022 C 
HETATM   10  C10 UNL     1     -35.134  14.230  -4.544  1.00 20.00     0.007 C 
HETATM   11  N11 UNL     1     -35.759  14.098  -7.419  1.00 20.00    -0.305 NA
ENDROOT
TORSDOF 0
ENDMDL
