MODEL 1
REMARK VINA RESULT:      -4.3      0.000      0.000
REMARK  0 active torsions:
REMARK  status: ('A' for Active; 'I' for Inactive)
ROOT
HETATM    1  C1  UNL     1     -35.151   6.169   3.349  1.00 20.00     0.062 A 
HETATM    2  C2  UNL     1     -34.356   6.095   4.619  1.00 20.00     0.119 A 
HETATM    3  C3  UNL     1     -33.645   6.077   3.292  1.00 20.00     0.112 A 
HETATM    4 CL4  UNL     1     -34.488   4.677   5.625  1.00 20.00    -0.122 Cl
HETATM    5 CL5  UNL     1     -32.945   4.587   2.667  1.00 20.00    -0.105 Cl
HETATM    6 BR6  UNL     1     -32.679   7.657   2.790  1.00 20.00    -0.066 Br
ENDROOT
TORSDOF 0
ENDMDL
MODEL 2
REMARK VINA RESULT:      -4.1      2.061      2.464
REMARK  0 active torsions:
REMARK  status: ('A' for Active; 'I' for Inactive)
ROOT
HETATM    1  C1  UNL     1     -35.037   6.026   3.489  1.00 20.00     0.062 A 
HETATM    2  C2  UNL     1     -33.809   5.203   3.740  1.00 20.00     0.119 A 
HETATM    3  C3  UNL     1     -33.779   6.684   4.002  1.00 20.00     0.112 A 
HETATM    4 CL4  UNL     1     -32.979   4.478   2.389  1.00 20.00    -0.122 Cl
HETATM    5 CL5  UNL     1     -32.929   7.774   2.910  1.00 20.00    -0.105 Cl
HETATM    6 BR6  UNL     1     -33.761   7.253   5.835  1.00 20.00    -0.066 Br
ENDROOT
TORSDOF 0
ENDMDL
MODEL 3
REMARK VINA RESULT:      -4.0      2.553      3.282
REMARK  0 active torsions:
REMARK  status: ('A' for Active; 'I' for Inactive)
ROOT
HETATM    1  C1  UNL     1     -34.420   7.089   3.194  1.00 20.00     0.062 A 
HETATM    2  C2  UNL     1     -32.977   6.690   3.281  1.00 20.00     0.119 A 
HETATM    3  C3  UNL     1     -33.910   6.362   4.415  1.00 20.00     0.112 A 
HETATM    4 CL4  UNL     1     -31.757   7.930   3.408  1.00 20.00    -0.122 Cl
HETATM    5 CL5  UNL     1     -33.841   7.263   5.927  1.00 20.00    -0.105 Cl
HETATM    6 BR6  UNL     1     -34.422   4.525   4.630  1.00 20.00    -0.066 Br
ENDROOT
TORSDOF 0
ENDMDL
MODEL 4
REMARK VINA RESULT:      -3.7      1.833      2.141
REMARK  0 active torsions:
REMARK  status: ('A' for Active; 'I' for Inactive)
ROOT
HETATM    1  C1  UNL     1     -35.163   6.418   3.733  1.00 20.00     0.062 A 
HETATM    2  C2  UNL     1     -33.873   6.836   4.373  1.00 20.00     0.119 A 
HETATM    3  C3  UNL     1     -34.081   5.396   3.988  1.00 20.00     0.112 A 
HETATM    4 CL4  UNL     1     -33.880   7.365   6.035  1.00 20.00    -0.122 Cl
HETATM    5 CL5  UNL     1     -34.394   4.171   5.214  1.00 20.00    -0.105 Cl
HETATM    6 BR6  UNL     1     -33.105   4.742   2.470  1.00 20.00    -0.066 Br
ENDROOT
TORSDOF 0
ENDMDL
MODEL 5
REMARK VINA RESULT:      -3.7      1.859      2.271
REMARK  0 active torsions:
REMARK  status: ('A' for Active; 'I' for Inactive)
ROOT
HETATM    1  C1  UNL     1     -32.850   5.607   2.979  1.00 20.00     0.062 A 
HETATM    2  C2  UNL     1     -34.204   6.230   2.814  1.00 20.00     0.119 A 
HETATM    3  C3  UNL     1     -33.052   7.070   3.295  1.00 20.00     0.112 A 
HETATM    4 CL4  UNL     1     -35.502   5.738   3.869  1.00 20.00    -0.122 Cl
HETATM    5 CL5  UNL     1     -32.938   7.560   4.983  1.00 20.00    -0.105 Cl
HETATM    6 BR6  UNL     1     -32.322   8.350   2.065  1.00 20.00    -0.066 Br
ENDROOT
TORSDOF 0
ENDMDL
MODEL 6
REMARK VINA RESULT:      -3.4      2.775      3.671
REMARK  0 active torsions:
REMARK  status: ('A' for Active; 'I' for Inactive)
ROOT
HETATM    1  C1  UNL     1     -31.457   8.019   3.427  1.00 20.00     0.062 A 
HETATM    2  C2  UNL     1     -32.659   8.590   2.736  1.00 20.00     0.119 A 
HETATM    3  C3  UNL     1     -32.773   7.280   3.469  1.00 20.00     0.112 A 
HETATM    4 CL4  UNL     1     -32.674   8.686   0.995  1.00 20.00    -0.122 Cl
HETATM    5 CL5  UNL     1     -32.880   5.760   2.586  1.00 20.00    -0.105 Cl
HETATM    6 BR6  UNL     1     -33.738   7.283   5.128  1.00 20.00    -0.066 Br
ENDROOT
TORSDOF 0
ENDMDL
MODEL 7
REMARK VINA RESULT:      -3.3      2.633      3.185
REMARK  0 active torsions:
REMARK  status: ('A' for Active; 'I' for Inactive)
ROOT
HETATM    1  C1  UNL     1     -33.302   5.105   2.854  1.00 20.00     0.062 A 
HETATM    2  C2  UNL     1     -32.967   6.435   3.460  1.00 20.00     0.119 A 
HETATM    3  C3  UNL     1     -34.263   5.758   3.817  1.00 20.00     0.112 A 
HETATM    4 CL4  UNL     1     -32.906   7.846   2.436  1.00 20.00    -0.122 Cl
HETATM    5 CL5  UNL     1     -35.793   6.341   3.169  1.00 20.00    -0.105 Cl
HETATM    6 BR6  UNL     1     -34.404   5.002   5.576  1.00 20.00    -0.066 Br
ENDROOT
TORSDOF 0
ENDMDL
MODEL 8
REMARK VINA RESULT:      -3.0      2.085      2.809
REMARK  0 active torsions:
REMARK  status: ('A' for Active; 'I' for Inactive)
ROOT
HETATM    1  C1  UNL     1     -34.314   4.263   4.705  1.00 20.00     0.062 A 
HETATM    2  C2  UNL     1     -33.278   4.907   3.832  1.00 20.00     0.119 A 
HETATM    3  C3  UNL     1     -34.399   5.738   4.395  1.00 20.00     0.112 A 
HETATM    4 CL4  UNL     1     -33.198   4.472   2.145  1.00 20.00    -0.122 Cl
HETATM    5 CL5  UNL     1     -35.724   6.277   3.367  1.00 20.00    -0.105 Cl
HETATM    6 BR6  UNL     1     -33.961   6.966   5.804  1.00 20.00    -0.066 Br
ENDROOT
TORSDOF 0
ENDMDL
MODEL 9
REMARK VINA RESULT:      -2.9      9.197      9.672
REMARK  0 active torsions:
REMARK  status: ('A' for Active; 'I' for Inactive)
ROOT
HETATM    1  C1  UNL     1     -42.492   6.831   0.827  1.00 20.00     0.062 A 
HETATM    2  C2  UNL     1     -42.646   7.318  -0.583  1.00 20.00     0.119 A 
HETATM    3  C3  UNL     1     -42.178   5.911  -0.328  1.00 20.00     0.112 A 
HETATM    4 CL4  UNL     1     -41.577   8.563  -1.176  1.00 20.00    -0.122 Cl
HETATM    5 CL5  UNL     1     -40.492   5.465  -0.576  1.00 20.00    -0.105 Cl
HETATM    6 BR6  UNL     1     -43.417   4.492  -0.692  1.00 20.00    -0.066 Br
ENDROOT
TORSDOF 0
ENDMDL
