MODEL 1
REMARK VINA RESULT:      -4.7      0.000      0.000
REMARK  2 active torsions:
REMARK  status: ('A' for Active; 'I' for Inactive)
REMARK    1  A    between atoms: C1_1  and  C2_2 
REMARK    2  A    between atoms: C1_1  and  C3_3 
ROOT
HETATM    1  C2  UNL     1     -32.338   7.237   2.577  1.00 20.00     0.043 A 
HETATM    2  C4  UNL     1     -32.737   7.070   3.957  1.00 20.00     0.013 A 
HETATM    3  C5  UNL     1     -33.340   6.213   2.849  1.00 20.00    -0.023 A 
HETATM    4  C8  UNL     1     -33.524   8.080   4.720  1.00 20.00     0.012 C 
HETATM    5  C9  UNL     1     -32.882   4.777   2.759  1.00 20.00     0.017 C 
HETATM    6  C10 UNL     1     -34.780   6.407   2.438  1.00 20.00     0.017 C 
ENDROOT
BRANCH   1   7
HETATM    7  C1  UNL     1     -32.535   8.305   1.870  1.00 20.00    -0.159 C 
BRANCH   7   8
HETATM    8  C3  UNL     1     -32.733   9.379   1.158  1.00 20.00     0.022 C 
HETATM    9  C6  UNL     1     -33.031   9.325  -0.314  1.00 20.00     0.029 C 
HETATM   10  C7  UNL     1     -32.684  10.758   1.753  1.00 20.00     0.029 C 
ENDBRANCH   7   8
ENDBRANCH   1   7
TORSDOF 2
ENDMDL
MODEL 2
REMARK VINA RESULT:      -4.7      0.005      1.136
REMARK  2 active torsions:
REMARK  status: ('A' for Active; 'I' for Inactive)
REMARK    1  A    between atoms: C1_1  and  C2_2 
REMARK    2  A    between atoms: C1_1  and  C3_3 
ROOT
HETATM    1  C2  UNL     1     -32.341   7.238   2.578  1.00 20.00     0.043 A 
HETATM    2  C4  UNL     1     -32.742   7.070   3.958  1.00 20.00     0.013 A 
HETATM    3  C5  UNL     1     -33.342   6.212   2.849  1.00 20.00    -0.023 A 
HETATM    4  C8  UNL     1     -33.533   8.078   4.719  1.00 20.00     0.012 C 
HETATM    5  C9  UNL     1     -32.881   4.776   2.761  1.00 20.00     0.017 C 
HETATM    6  C10 UNL     1     -34.781   6.403   2.436  1.00 20.00     0.017 C 
ENDROOT
BRANCH   1   7
HETATM    7  C1  UNL     1     -32.539   8.305   1.871  1.00 20.00    -0.159 C 
BRANCH   7   8
HETATM    8  C3  UNL     1     -32.739   9.379   1.158  1.00 20.00     0.022 C 
HETATM    9  C6  UNL     1     -32.687  10.758   1.751  1.00 20.00     0.029 C 
HETATM   10  C7  UNL     1     -33.032   9.322  -0.314  1.00 20.00     0.029 C 
ENDBRANCH   7   8
ENDBRANCH   1   7
TORSDOF 2
ENDMDL
MODEL 3
REMARK VINA RESULT:      -4.3      9.625     10.739
REMARK  2 active torsions:
REMARK  status: ('A' for Active; 'I' for Inactive)
REMARK    1  A    between atoms: C1_1  and  C2_2 
REMARK    2  A    between atoms: C1_1  and  C3_3 
ROOT
HETATM    1  C2  UNL     1     -35.512  15.815  -3.722  1.00 20.00     0.043 A 
HETATM    2  C4  UNL     1     -35.200  16.140  -5.096  1.00 20.00     0.013 A 
HETATM    3  C5  UNL     1     -34.810  14.795  -4.493  1.00 20.00    -0.023 A 
HETATM    4  C8  UNL     1     -34.199  17.170  -5.496  1.00 20.00     0.012 C 
HETATM    5  C9  UNL     1     -35.617  13.590  -4.914  1.00 20.00     0.017 C 
HETATM    6  C10 UNL     1     -33.359  14.477  -4.221  1.00 20.00     0.017 C 
ENDROOT
BRANCH   1   7
HETATM    7  C1  UNL     1     -35.034  16.427  -2.685  1.00 20.00    -0.159 C 
BRANCH   7   8
HETATM    8  C3  UNL     1     -34.552  17.044  -1.642  1.00 20.00     0.022 C 
HETATM    9  C6  UNL     1     -33.155  17.596  -1.608  1.00 20.00     0.029 C 
HETATM   10  C7  UNL     1     -35.359  17.258  -0.392  1.00 20.00     0.029 C 
ENDBRANCH   7   8
ENDBRANCH   1   7
TORSDOF 2
ENDMDL
MODEL 4
REMARK VINA RESULT:      -4.1     10.237     11.117
REMARK  2 active torsions:
REMARK  status: ('A' for Active; 'I' for Inactive)
REMARK    1  A    between atoms: C1_1  and  C2_2 
REMARK    2  A    between atoms: C1_1  and  C3_3 
ROOT
HETATM    1  C2  UNL     1     -33.850  15.798  -3.659  1.00 20.00     0.043 A 
HETATM    2  C4  UNL     1     -35.023  15.260  -4.311  1.00 20.00     0.013 A 
HETATM    3  C5  UNL     1     -34.111  16.256  -5.018  1.00 20.00    -0.023 A 
HETATM    4  C8  UNL     1     -36.420  15.587  -3.905  1.00 20.00     0.012 C 
HETATM    5  C9  UNL     1     -33.206  15.716  -6.100  1.00 20.00     0.017 C 
HETATM    6  C10 UNL     1     -34.587  17.664  -5.286  1.00 20.00     0.017 C 
ENDROOT
BRANCH   1   7
HETATM    7  C1  UNL     1     -33.865  16.549  -2.603  1.00 20.00    -0.159 C 
BRANCH   7   8
HETATM    8  C3  UNL     1     -33.880  17.306  -1.541  1.00 20.00     0.022 C 
HETATM    9  C6  UNL     1     -35.064  17.373  -0.618  1.00 20.00     0.029 C 
HETATM   10  C7  UNL     1     -32.712  18.169  -1.153  1.00 20.00     0.029 C 
ENDBRANCH   7   8
ENDBRANCH   1   7
TORSDOF 2
ENDMDL
MODEL 5
REMARK VINA RESULT:      -4.0      9.729     11.059
REMARK  2 active torsions:
REMARK  status: ('A' for Active; 'I' for Inactive)
REMARK    1  A    between atoms: C1_1  and  C2_2 
REMARK    2  A    between atoms: C1_1  and  C3_3 
ROOT
HETATM    1  C2  UNL     1     -35.041  16.741  -1.642  1.00 20.00     0.043 A 
HETATM    2  C4  UNL     1     -34.216  17.619  -0.842  1.00 20.00     0.013 A 
HETATM    3  C5  UNL     1     -35.494  18.120  -1.506  1.00 20.00    -0.023 A 
HETATM    4  C8  UNL     1     -32.858  18.078  -1.250  1.00 20.00     0.012 C 
HETATM    5  C9  UNL     1     -36.690  18.355  -0.613  1.00 20.00     0.017 C 
HETATM    6  C10 UNL     1     -35.420  19.081  -2.668  1.00 20.00     0.017 C 
ENDROOT
BRANCH   1   7
HETATM    7  C1  UNL     1     -34.674  16.182  -2.752  1.00 20.00    -0.159 C 
BRANCH   7   8
HETATM    8  C3  UNL     1     -34.306  15.620  -3.870  1.00 20.00     0.022 C 
HETATM    9  C6  UNL     1     -34.808  14.269  -4.294  1.00 20.00     0.029 C 
HETATM   10  C7  UNL     1     -33.352  16.281  -4.825  1.00 20.00     0.029 C 
ENDBRANCH   7   8
ENDBRANCH   1   7
TORSDOF 2
ENDMDL
MODEL 6
REMARK VINA RESULT:      -4.0      9.654     11.062
REMARK  2 active torsions:
REMARK  status: ('A' for Active; 'I' for Inactive)
REMARK    1  A    between atoms: C1_1  and  C2_2 
REMARK    2  A    between atoms: C1_1  and  C3_3 
ROOT
HETATM    1  C2  UNL     1     -35.026  16.732  -1.615  1.00 20.00     0.043 A 
HETATM    2  C4  UNL     1     -34.228  17.632  -0.812  1.00 20.00     0.013 A 
HETATM    3  C5  UNL     1     -35.518  18.098  -1.478  1.00 20.00    -0.023 A 
HETATM    4  C8  UNL     1     -32.882  18.129  -1.216  1.00 20.00     0.012 C 
HETATM    5  C9  UNL     1     -36.721  18.298  -0.587  1.00 20.00     0.017 C 
HETATM    6  C10 UNL     1     -35.468  19.062  -2.639  1.00 20.00     0.017 C 
ENDROOT
BRANCH   1   7
HETATM    7  C1  UNL     1     -34.641  16.185  -2.724  1.00 20.00    -0.159 C 
BRANCH   7   8
HETATM    8  C3  UNL     1     -34.254  15.636  -3.842  1.00 20.00     0.022 C 
HETATM    9  C6  UNL     1     -33.368  16.349  -4.824  1.00 20.00     0.029 C 
HETATM   10  C7  UNL     1     -34.660  14.243  -4.235  1.00 20.00     0.029 C 
ENDBRANCH   7   8
ENDBRANCH   1   7
TORSDOF 2
ENDMDL
MODEL 7
REMARK VINA RESULT:      -4.0      1.292      4.006
REMARK  2 active torsions:
REMARK  status: ('A' for Active; 'I' for Inactive)
REMARK    1  A    between atoms: C1_1  and  C2_2 
REMARK    2  A    between atoms: C1_1  and  C3_3 
ROOT
HETATM    1  C2  UNL     1     -33.155   8.398   2.804  1.00 20.00     0.043 A 
HETATM    2  C4  UNL     1     -31.880   8.992   3.139  1.00 20.00     0.013 A 
HETATM    3  C5  UNL     1     -32.362   8.916   1.695  1.00 20.00    -0.023 A 
HETATM    4  C8  UNL     1     -30.712   8.217   3.646  1.00 20.00     0.012 C 
HETATM    5  C9  UNL     1     -32.845  10.198   1.059  1.00 20.00     0.017 C 
HETATM    6  C10 UNL     1     -31.689   7.982   0.718  1.00 20.00     0.017 C 
ENDROOT
BRANCH   1   7
HETATM    7  C1  UNL     1     -33.465   7.153   2.982  1.00 20.00    -0.159 C 
BRANCH   7   8
HETATM    8  C3  UNL     1     -33.776   5.898   3.160  1.00 20.00     0.022 C 
HETATM    9  C6  UNL     1     -33.025   4.781   2.492  1.00 20.00     0.029 C 
HETATM   10  C7  UNL     1     -34.907   5.470   4.052  1.00 20.00     0.029 C 
ENDBRANCH   7   8
ENDBRANCH   1   7
TORSDOF 2
ENDMDL
MODEL 8
REMARK VINA RESULT:      -4.0      9.823     11.104
REMARK  2 active torsions:
REMARK  status: ('A' for Active; 'I' for Inactive)
REMARK    1  A    between atoms: C1_1  and  C2_2 
REMARK    2  A    between atoms: C1_1  and  C3_3 
ROOT
HETATM    1  C2  UNL     1     -33.434  17.533  -2.336  1.00 20.00     0.043 A 
HETATM    2  C4  UNL     1     -34.125  18.803  -2.365  1.00 20.00     0.013 A 
HETATM    3  C5  UNL     1     -34.125  17.931  -1.115  1.00 20.00    -0.023 A 
HETATM    4  C8  UNL     1     -35.350  19.061  -3.174  1.00 20.00     0.012 C 
HETATM    5  C9  UNL     1     -33.258  18.377   0.039  1.00 20.00     0.017 C 
HETATM    6  C10 UNL     1     -35.390  17.234  -0.676  1.00 20.00     0.017 C 
ENDROOT
BRANCH   1   7
HETATM    7  C1  UNL     1     -33.737  16.505  -3.063  1.00 20.00    -0.159 C 
BRANCH   7   8
HETATM    8  C3  UNL     1     -34.043  15.469  -3.795  1.00 20.00     0.022 C 
HETATM    9  C6  UNL     1     -35.466  15.092  -4.100  1.00 20.00     0.029 C 
HETATM   10  C7  UNL     1     -32.998  14.573  -4.396  1.00 20.00     0.029 C 
ENDBRANCH   7   8
ENDBRANCH   1   7
TORSDOF 2
ENDMDL
MODEL 9
REMARK VINA RESULT:      -3.8      9.911     10.982
REMARK  2 active torsions:
REMARK  status: ('A' for Active; 'I' for Inactive)
REMARK    1  A    between atoms: C1_1  and  C2_2 
REMARK    2  A    between atoms: C1_1  and  C3_3 
ROOT
HETATM    1  C2  UNL     1     -34.323  15.876  -3.045  1.00 20.00     0.043 A 
HETATM    2  C4  UNL     1     -33.765  17.210  -3.076  1.00 20.00     0.013 A 
HETATM    3  C5  UNL     1     -35.156  16.948  -2.512  1.00 20.00    -0.023 A 
HETATM    4  C8  UNL     1     -33.531  17.981  -4.330  1.00 20.00     0.012 C 
HETATM    5  C9  UNL     1     -35.314  16.999  -1.010  1.00 20.00     0.017 C 
HETATM    6  C10 UNL     1     -36.380  17.425  -3.257  1.00 20.00     0.017 C 
ENDROOT
BRANCH   1   7
HETATM    7  C1  UNL     1     -34.604  15.163  -4.089  1.00 20.00    -0.159 C 
BRANCH   7   8
HETATM    8  C3  UNL     1     -34.887  14.445  -5.141  1.00 20.00     0.022 C 
HETATM    9  C6  UNL     1     -36.005  13.441  -5.151  1.00 20.00     0.029 C 
HETATM   10  C7  UNL     1     -34.120  14.567  -6.427  1.00 20.00     0.029 C 
ENDBRANCH   7   8
ENDBRANCH   1   7
TORSDOF 2
ENDMDL
