MODEL 1
REMARK VINA RESULT:      -5.6      0.000      0.000
REMARK  2 active torsions:
REMARK  status: ('A' for Active; 'I' for Inactive)
REMARK    1  A    between atoms: C6_6  and  C8_8 
REMARK    2  A    between atoms: C7_7  and  C9_9 
ROOT
HETATM    1  C1  UNL     1     -34.279   6.124   5.862  1.00 20.00     0.005 C 
HETATM    2  C2  UNL     1     -34.211   4.655   5.378  1.00 20.00     0.005 C 
HETATM    3  C5  UNL     1     -35.322   5.856   3.715  1.00 20.00     0.010 C 
HETATM    4  C6  UNL     1     -34.593   6.908   4.577  1.00 20.00    -0.010 C 
HETATM    5  C7  UNL     1     -34.189   4.833   3.838  1.00 20.00    -0.010 C 
ENDROOT
BRANCH   4   6
HETATM    6  C8  UNL     1     -33.380   7.084   3.667  1.00 20.00    -0.006 C 
HETATM    7  C3  UNL     1     -32.709   7.746   2.436  1.00 20.00     0.006 C 
HETATM    8  C4  UNL     1     -31.457   7.844   3.417  1.00 20.00     0.006 C 
HETATM    9  C9  UNL     1     -32.546   8.146   4.490  1.00 20.00    -0.006 C 
ENDBRANCH   4   6
TORSDOF 2
ENDMDL
MODEL 2
REMARK VINA RESULT:      -4.8      1.657      3.106
REMARK  2 active torsions:
REMARK  status: ('A' for Active; 'I' for Inactive)
REMARK    1  A    between atoms: C6_6  and  C8_8 
REMARK    2  A    between atoms: C7_7  and  C9_9 
ROOT
HETATM    1  C1  UNL     1     -32.779   5.960   2.575  1.00 20.00     0.005 C 
HETATM    2  C2  UNL     1     -34.095   6.101   3.378  1.00 20.00     0.005 C 
HETATM    3  C5  UNL     1     -32.632   7.719   4.203  1.00 20.00     0.010 C 
HETATM    4  C6  UNL     1     -32.058   7.293   2.836  1.00 20.00    -0.010 C 
HETATM    5  C7  UNL     1     -34.086   7.609   3.733  1.00 20.00    -0.010 C 
ENDROOT
BRANCH   4   6
HETATM    6  C8  UNL     1     -32.629   8.454   2.026  1.00 20.00    -0.006 C 
HETATM    7  C3  UNL     1     -32.756   9.978   1.769  1.00 20.00     0.006 C 
HETATM    8  C4  UNL     1     -32.627   9.533   0.244  1.00 20.00     0.006 C 
HETATM    9  C9  UNL     1     -31.611   8.499   0.817  1.00 20.00    -0.006 C 
ENDBRANCH   4   6
TORSDOF 2
ENDMDL
MODEL 3
REMARK VINA RESULT:      -4.8      1.849      4.448
REMARK  2 active torsions:
REMARK  status: ('A' for Active; 'I' for Inactive)
REMARK    1  A    between atoms: C6_6  and  C8_8 
REMARK    2  A    between atoms: C7_7  and  C9_9 
ROOT
HETATM    1  C1  UNL     1     -32.256  10.123   2.267  1.00 20.00     0.005 C 
HETATM    2  C2  UNL     1     -32.917  10.263   0.875  1.00 20.00     0.005 C 
HETATM    3  C5  UNL     1     -31.427   8.475   0.730  1.00 20.00     0.010 C 
HETATM    4  C6  UNL     1     -31.659   8.706   2.237  1.00 20.00    -0.010 C 
HETATM    5  C7  UNL     1     -32.877   8.801   0.360  1.00 20.00    -0.010 C 
ENDROOT
BRANCH   4   6
HETATM    6  C8  UNL     1     -32.703   7.610   2.434  1.00 20.00    -0.006 C 
HETATM    7  C3  UNL     1     -33.062   6.108   2.582  1.00 20.00     0.006 C 
HETATM    8  C4  UNL     1     -34.043   6.657   3.713  1.00 20.00     0.006 C 
HETATM    9  C9  UNL     1     -32.868   7.638   4.006  1.00 20.00    -0.006 C 
ENDBRANCH   4   6
TORSDOF 2
ENDMDL
MODEL 4
REMARK VINA RESULT:      -4.1      1.428      2.449
REMARK  2 active torsions:
REMARK  status: ('A' for Active; 'I' for Inactive)
REMARK    1  A    between atoms: C6_6  and  C8_8 
REMARK    2  A    between atoms: C7_7  and  C9_9 
ROOT
HETATM    1  C1  UNL     1     -34.120   4.171   3.938  1.00 20.00     0.005 C 
HETATM    2  C2  UNL     1     -32.998   4.249   2.875  1.00 20.00     0.005 C 
HETATM    3  C5  UNL     1     -34.494   5.974   2.397  1.00 20.00     0.010 C 
HETATM    4  C6  UNL     1     -34.792   5.551   3.850  1.00 20.00    -0.010 C 
HETATM    5  C7  UNL     1     -32.984   5.764   2.545  1.00 20.00    -0.010 C 
ENDROOT
BRANCH   4   6
HETATM    6  C8  UNL     1     -33.988   6.655   4.532  1.00 20.00    -0.006 C 
HETATM    7  C3  UNL     1     -33.831   8.141   4.949  1.00 20.00     0.006 C 
HETATM    8  C4  UNL     1     -33.302   7.499   6.309  1.00 20.00     0.006 C 
HETATM    9  C9  UNL     1     -34.418   6.445   6.039  1.00 20.00    -0.006 C 
ENDBRANCH   4   6
TORSDOF 2
ENDMDL
MODEL 5
REMARK VINA RESULT:      -4.1      1.065      3.571
REMARK  2 active torsions:
REMARK  status: ('A' for Active; 'I' for Inactive)
REMARK    1  A    between atoms: C6_6  and  C8_8 
REMARK    2  A    between atoms: C7_7  and  C9_9 
ROOT
HETATM    1  C1  UNL     1     -32.545   7.179   2.590  1.00 20.00     0.005 C 
HETATM    2  C2  UNL     1     -31.858   7.897   3.776  1.00 20.00     0.005 C 
HETATM    3  C5  UNL     1     -34.156   8.080   4.126  1.00 20.00     0.010 C 
HETATM    4  C6  UNL     1     -33.977   6.944   3.098  1.00 20.00    -0.010 C 
HETATM    5  C7  UNL     1     -32.896   7.697   4.909  1.00 20.00    -0.010 C 
ENDROOT
BRANCH   4   6
HETATM    6  C8  UNL     1     -34.083   5.783   4.084  1.00 20.00    -0.006 C 
HETATM    7  C3  UNL     1     -34.944   4.746   4.850  1.00 20.00     0.006 C 
HETATM    8  C4  UNL     1     -33.742   3.767   4.480  1.00 20.00     0.006 C 
HETATM    9  C9  UNL     1     -33.741   4.562   3.140  1.00 20.00    -0.006 C 
ENDBRANCH   4   6
TORSDOF 2
ENDMDL
MODEL 6
REMARK VINA RESULT:      -4.0     11.466     12.741
REMARK  2 active torsions:
REMARK  status: ('A' for Active; 'I' for Inactive)
REMARK    1  A    between atoms: C6_6  and  C8_8 
REMARK    2  A    between atoms: C7_7  and  C9_9 
ROOT
HETATM    1  C1  UNL     1     -34.756  15.589  -3.423  1.00 20.00     0.005 C 
HETATM    2  C2  UNL     1     -33.706  16.560  -4.015  1.00 20.00     0.005 C 
HETATM    3  C5  UNL     1     -32.928  14.401  -4.429  1.00 20.00     0.010 C 
HETATM    4  C6  UNL     1     -34.429  14.251  -4.106  1.00 20.00    -0.010 C 
HETATM    5  C7  UNL     1     -33.125  15.720  -5.182  1.00 20.00    -0.010 C 
ENDROOT
BRANCH   4   6
HETATM    6  C8  UNL     1     -34.923  14.175  -5.548  1.00 20.00    -0.006 C 
HETATM    7  C3  UNL     1     -35.191  13.352  -6.835  1.00 20.00     0.006 C 
HETATM    8  C4  UNL     1     -36.535  14.207  -6.867  1.00 20.00     0.006 C 
HETATM    9  C9  UNL     1     -36.479  14.022  -5.320  1.00 20.00    -0.006 C 
ENDBRANCH   4   6
TORSDOF 2
ENDMDL
MODEL 7
REMARK VINA RESULT:      -4.0      1.063      2.317
REMARK  2 active torsions:
REMARK  status: ('A' for Active; 'I' for Inactive)
REMARK    1  A    between atoms: C6_6  and  C8_8 
REMARK    2  A    between atoms: C7_7  and  C9_9 
ROOT
HETATM    1  C1  UNL     1     -34.583   5.907   2.358  1.00 20.00     0.005 C 
HETATM    2  C2  UNL     1     -35.427   6.146   3.633  1.00 20.00     0.005 C 
HETATM    3  C5  UNL     1     -33.319   5.452   4.348  1.00 20.00     0.010 C 
HETATM    4  C6  UNL     1     -33.138   5.901   2.883  1.00 20.00    -0.010 C 
HETATM    5  C7  UNL     1     -34.338   6.552   4.659  1.00 20.00    -0.010 C 
ENDROOT
BRANCH   4   6
HETATM    6  C8  UNL     1     -32.601   7.298   3.183  1.00 20.00    -0.006 C 
HETATM    7  C3  UNL     1     -31.415   8.237   3.524  1.00 20.00     0.006 C 
HETATM    8  C4  UNL     1     -32.129   9.198   2.472  1.00 20.00     0.006 C 
HETATM    9  C9  UNL     1     -32.419   7.865   1.719  1.00 20.00    -0.006 C 
ENDBRANCH   4   6
TORSDOF 2
ENDMDL
MODEL 8
REMARK VINA RESULT:      -3.9     11.421     12.411
REMARK  2 active torsions:
REMARK  status: ('A' for Active; 'I' for Inactive)
REMARK    1  A    between atoms: C6_6  and  C8_8 
REMARK    2  A    between atoms: C7_7  and  C9_9 
ROOT
HETATM    1  C1  UNL     1     -35.687  15.399  -4.751  1.00 20.00     0.005 C 
HETATM    2  C2  UNL     1     -35.038  14.005  -4.573  1.00 20.00     0.005 C 
HETATM    3  C5  UNL     1     -33.294  15.515  -4.921  1.00 20.00     0.010 C 
HETATM    4  C6  UNL     1     -34.516  16.369  -4.523  1.00 20.00    -0.010 C 
HETATM    5  C7  UNL     1     -33.661  14.376  -3.964  1.00 20.00    -0.010 C 
ENDROOT
BRANCH   4   6
HETATM    6  C8  UNL     1     -34.152  16.538  -3.050  1.00 20.00    -0.006 C 
HETATM    7  C3  UNL     1     -33.445  17.336  -1.924  1.00 20.00     0.006 C 
HETATM    8  C4  UNL     1     -34.780  17.002  -1.119  1.00 20.00     0.006 C 
HETATM    9  C9  UNL     1     -35.461  17.235  -2.501  1.00 20.00    -0.006 C 
ENDBRANCH   4   6
TORSDOF 2
ENDMDL
MODEL 9
REMARK VINA RESULT:      -3.8     11.278     12.471
REMARK  2 active torsions:
REMARK  status: ('A' for Active; 'I' for Inactive)
REMARK    1  A    between atoms: C6_6  and  C8_8 
REMARK    2  A    between atoms: C7_7  and  C9_9 
ROOT
HETATM    1  C1  UNL     1     -33.290  17.409  -1.891  1.00 20.00     0.005 C 
HETATM    2  C2  UNL     1     -34.374  17.433  -0.786  1.00 20.00     0.005 C 
HETATM    3  C5  UNL     1     -35.436  18.021  -2.777  1.00 20.00     0.010 C 
HETATM    4  C6  UNL     1     -34.108  17.354  -3.192  1.00 20.00    -0.010 C 
HETATM    5  C7  UNL     1     -35.650  17.076  -1.591  1.00 20.00    -0.010 C 
ENDROOT
BRANCH   4   6
HETATM    6  C8  UNL     1     -34.680  15.969  -3.485  1.00 20.00    -0.006 C 
HETATM    7  C3  UNL     1     -35.516  15.024  -4.386  1.00 20.00     0.006 C 
HETATM    8  C4  UNL     1     -34.329  14.005  -4.082  1.00 20.00     0.006 C 
HETATM    9  C9  UNL     1     -33.442  15.282  -4.187  1.00 20.00    -0.006 C 
ENDBRANCH   4   6
TORSDOF 2
ENDMDL
