MODEL 1
REMARK VINA RESULT:      -5.7      0.000      0.000
REMARK  2 active torsions:
REMARK  status: ('A' for Active; 'I' for Inactive)
REMARK    1  A    between atoms: C1_1  and  C2_2 
REMARK    2  A    between atoms: C1_1  and  C3_3 
ROOT
HETATM    1  C1  UNL     1     -33.564   6.556   5.110  1.00 20.00     0.348 C 
HETATM    2  F4  UNL     1     -34.056   7.587   5.864  1.00 20.00    -0.234 F 
ENDROOT
BRANCH   1   3
HETATM    3  C2  UNL     1     -34.628   5.478   5.107  1.00 20.00     0.423 C 
HETATM    4  F5  UNL     1     -35.618   5.742   4.230  1.00 20.00    -0.168 F 
HETATM    5  F6  UNL     1     -34.109   4.271   4.800  1.00 20.00    -0.168 F 
HETATM    6  F7  UNL     1     -35.195   5.380   6.332  1.00 20.00    -0.168 F 
ENDBRANCH   1   3
BRANCH   1   7
HETATM    7  C3  UNL     1     -33.207   7.117   3.732  1.00 20.00     0.294 C 
HETATM    8  F8  UNL     1     -34.228   7.904   3.298  1.00 20.00    -0.204 F 
HETATM    9 CL9  UNL     1     -33.001   5.782   2.563  1.00 20.00    -0.062 Cl
HETATM   10 CL10 UNL     1     -31.713   8.085   3.763  1.00 20.00    -0.062 Cl
ENDBRANCH   1   7
TORSDOF 2
ENDMDL
MODEL 2
REMARK VINA RESULT:      -5.7      2.178      3.763
REMARK  2 active torsions:
REMARK  status: ('A' for Active; 'I' for Inactive)
REMARK    1  A    between atoms: C1_1  and  C2_2 
REMARK    2  A    between atoms: C1_1  and  C3_3 
ROOT
HETATM    1  C1  UNL     1     -33.195   6.054   3.335  1.00 20.00     0.348 C 
HETATM    2  F4  UNL     1     -33.639   5.580   2.131  1.00 20.00    -0.234 F 
ENDROOT
BRANCH   1   3
HETATM    3  C2  UNL     1     -32.753   7.484   3.098  1.00 20.00     0.423 C 
HETATM    4  F5  UNL     1     -33.794   8.339   3.059  1.00 20.00    -0.168 F 
HETATM    5  F6  UNL     1     -31.902   7.904   4.057  1.00 20.00    -0.168 F 
HETATM    6  F7  UNL     1     -32.111   7.582   1.910  1.00 20.00    -0.168 F 
ENDBRANCH   1   3
BRANCH   1   7
HETATM    7  C3  UNL     1     -34.327   5.887   4.349  1.00 20.00     0.294 C 
HETATM    8  F8  UNL     1     -35.501   6.246   3.762  1.00 20.00    -0.204 F 
HETATM    9 CL9  UNL     1     -34.058   6.961   5.750  1.00 20.00    -0.062 Cl
HETATM   10 CL10 UNL     1     -34.471   4.211   4.932  1.00 20.00    -0.062 Cl
ENDBRANCH   1   7
TORSDOF 2
ENDMDL
MODEL 3
REMARK VINA RESULT:      -5.7      0.030      1.191
REMARK  2 active torsions:
REMARK  status: ('A' for Active; 'I' for Inactive)
REMARK    1  A    between atoms: C1_1  and  C2_2 
REMARK    2  A    between atoms: C1_1  and  C3_3 
ROOT
HETATM    1  C1  UNL     1     -33.571   6.570   5.111  1.00 20.00     0.348 C 
HETATM    2  F4  UNL     1     -34.069   7.604   5.857  1.00 20.00    -0.234 F 
ENDROOT
BRANCH   1   3
HETATM    3  C2  UNL     1     -34.623   5.481   5.128  1.00 20.00     0.423 C 
HETATM    4  F5  UNL     1     -34.117   4.278   4.788  1.00 20.00    -0.168 F 
HETATM    5  F6  UNL     1     -35.197   5.365   6.344  1.00 20.00    -0.168 F 
HETATM    6  F7  UNL     1     -35.603   5.767   4.239  1.00 20.00    -0.168 F 
ENDBRANCH   1   3
BRANCH   1   7
HETATM    7  C3  UNL     1     -33.228   7.118   3.725  1.00 20.00     0.294 C 
HETATM    8  F8  UNL     1     -34.245   7.918   3.304  1.00 20.00    -0.204 F 
HETATM    9 CL9  UNL     1     -33.061   5.775   2.560  1.00 20.00    -0.062 Cl
HETATM   10 CL10 UNL     1     -31.720   8.065   3.726  1.00 20.00    -0.062 Cl
ENDBRANCH   1   7
TORSDOF 2
ENDMDL
MODEL 4
REMARK VINA RESULT:      -5.5      1.945      3.375
REMARK  2 active torsions:
REMARK  status: ('A' for Active; 'I' for Inactive)
REMARK    1  A    between atoms: C1_1  and  C2_2 
REMARK    2  A    between atoms: C1_1  and  C3_3 
ROOT
HETATM    1  C1  UNL     1     -33.755   7.173   4.297  1.00 20.00     0.348 C 
HETATM    2  F4  UNL     1     -33.209   7.156   5.551  1.00 20.00    -0.234 F 
ENDROOT
BRANCH   1   3
HETATM    3  C2  UNL     1     -32.629   7.509   3.341  1.00 20.00     0.423 C 
HETATM    4  F5  UNL     1     -31.995   6.406   2.893  1.00 20.00    -0.168 F 
HETATM    5  F6  UNL     1     -33.077   8.197   2.270  1.00 20.00    -0.168 F 
HETATM    6  F7  UNL     1     -31.703   8.276   3.963  1.00 20.00    -0.168 F 
ENDBRANCH   1   3
BRANCH   1   7
HETATM    7  C3  UNL     1     -34.422   5.817   4.061  1.00 20.00     0.294 C 
HETATM    8  F8  UNL     1     -35.658   6.020   3.529  1.00 20.00    -0.204 F 
HETATM    9 CL9  UNL     1     -34.621   4.955   5.612  1.00 20.00    -0.062 Cl
HETATM   10 CL10 UNL     1     -33.486   4.787   2.950  1.00 20.00    -0.062 Cl
ENDBRANCH   1   7
TORSDOF 2
ENDMDL
MODEL 5
REMARK VINA RESULT:      -5.4      1.930      3.325
REMARK  2 active torsions:
REMARK  status: ('A' for Active; 'I' for Inactive)
REMARK    1  A    between atoms: C1_1  and  C2_2 
REMARK    2  A    between atoms: C1_1  and  C3_3 
ROOT
HETATM    1  C1  UNL     1     -33.776   7.164   4.310  1.00 20.00     0.348 C 
HETATM    2  F4  UNL     1     -33.246   7.132   5.572  1.00 20.00    -0.234 F 
ENDROOT
BRANCH   1   3
HETATM    3  C2  UNL     1     -32.641   7.529   3.376  1.00 20.00     0.423 C 
HETATM    4  F5  UNL     1     -33.071   8.197   2.287  1.00 20.00    -0.168 F 
HETATM    5  F6  UNL     1     -31.715   8.291   3.995  1.00 20.00    -0.168 F 
HETATM    6  F7  UNL     1     -32.020   6.408   2.938  1.00 20.00    -0.168 F 
ENDBRANCH   1   3
BRANCH   1   7
HETATM    7  C3  UNL     1     -34.424   5.805   4.042  1.00 20.00     0.294 C 
HETATM    8  F8  UNL     1     -35.663   6.004   3.516  1.00 20.00    -0.204 F 
HETATM    9 CL9  UNL     1     -34.609   4.903   5.572  1.00 20.00    -0.062 Cl
HETATM   10 CL10 UNL     1     -33.475   4.815   2.907  1.00 20.00    -0.062 Cl
ENDBRANCH   1   7
TORSDOF 2
ENDMDL
MODEL 6
REMARK VINA RESULT:      -5.3      1.350      2.188
REMARK  2 active torsions:
REMARK  status: ('A' for Active; 'I' for Inactive)
REMARK    1  A    between atoms: C1_1  and  C2_2 
REMARK    2  A    between atoms: C1_1  and  C3_3 
ROOT
HETATM    1  C1  UNL     1     -33.672   6.284   4.331  1.00 20.00     0.348 C 
HETATM    2  F4  UNL     1     -34.184   7.526   4.591  1.00 20.00    -0.234 F 
ENDROOT
BRANCH   1   3
HETATM    3  C2  UNL     1     -34.771   5.291   4.650  1.00 20.00     0.423 C 
HETATM    4  F5  UNL     1     -34.500   4.060   4.169  1.00 20.00    -0.168 F 
HETATM    5  F6  UNL     1     -34.972   5.184   5.980  1.00 20.00    -0.168 F 
HETATM    6  F7  UNL     1     -35.937   5.691   4.090  1.00 20.00    -0.168 F 
ENDBRANCH   1   3
BRANCH   1   7
HETATM    7  C3  UNL     1     -33.190   6.273   2.880  1.00 20.00     0.294 C 
HETATM    8  F8  UNL     1     -32.418   5.171   2.680  1.00 20.00    -0.204 F 
HETATM    9 CL9  UNL     1     -32.190   7.717   2.557  1.00 20.00    -0.062 Cl
HETATM   10 CL10 UNL     1     -34.540   6.241   1.719  1.00 20.00    -0.062 Cl
ENDBRANCH   1   7
TORSDOF 2
ENDMDL
MODEL 7
REMARK VINA RESULT:      -5.2      2.110      3.647
REMARK  2 active torsions:
REMARK  status: ('A' for Active; 'I' for Inactive)
REMARK    1  A    between atoms: C1_1  and  C2_2 
REMARK    2  A    between atoms: C1_1  and  C3_3 
ROOT
HETATM    1  C1  UNL     1     -33.075   5.910   3.443  1.00 20.00     0.348 C 
HETATM    2  F4  UNL     1     -33.448   5.374   2.241  1.00 20.00    -0.234 F 
ENDROOT
BRANCH   1   3
HETATM    3  C2  UNL     1     -32.741   7.364   3.182  1.00 20.00     0.423 C 
HETATM    4  F5  UNL     1     -33.841   8.144   3.163  1.00 20.00    -0.168 F 
HETATM    5  F6  UNL     1     -31.898   7.854   4.115  1.00 20.00    -0.168 F 
HETATM    6  F7  UNL     1     -32.139   7.494   1.977  1.00 20.00    -0.168 F 
ENDBRANCH   1   3
BRANCH   1   7
HETATM    7  C3  UNL     1     -34.219   5.676   4.432  1.00 20.00     0.294 C 
HETATM    8  F8  UNL     1     -34.205   4.372   4.821  1.00 20.00    -0.204 F 
HETATM    9 CL9  UNL     1     -35.787   6.002   3.641  1.00 20.00    -0.062 Cl
HETATM   10 CL10 UNL     1     -34.083   6.705   5.878  1.00 20.00    -0.062 Cl
ENDBRANCH   1   7
TORSDOF 2
ENDMDL
MODEL 8
REMARK VINA RESULT:      -5.2      2.407      3.545
REMARK  2 active torsions:
REMARK  status: ('A' for Active; 'I' for Inactive)
REMARK    1  A    between atoms: C1_1  and  C2_2 
REMARK    2  A    between atoms: C1_1  and  C3_3 
ROOT
HETATM    1  C1  UNL     1     -33.627   4.792   3.992  1.00 20.00     0.348 C 
HETATM    2  F4  UNL     1     -34.270   3.599   3.803  1.00 20.00    -0.234 F 
ENDROOT
BRANCH   1   3
HETATM    3  C2  UNL     1     -33.244   5.298   2.617  1.00 20.00     0.423 C 
HETATM    4  F5  UNL     1     -34.284   5.871   1.978  1.00 20.00    -0.168 F 
HETATM    5  F6  UNL     1     -32.244   6.202   2.683  1.00 20.00    -0.168 F 
HETATM    6  F7  UNL     1     -32.818   4.272   1.845  1.00 20.00    -0.168 F 
ENDBRANCH   1   3
BRANCH   1   7
HETATM    7  C3  UNL     1     -34.565   5.706   4.781  1.00 20.00     0.294 C 
HETATM    8  F8  UNL     1     -35.729   5.847   4.089  1.00 20.00    -0.204 F 
HETATM    9 CL9  UNL     1     -33.831   7.324   4.964  1.00 20.00    -0.062 Cl
HETATM   10 CL10 UNL     1     -34.938   5.061   6.398  1.00 20.00    -0.062 Cl
ENDBRANCH   1   7
TORSDOF 2
ENDMDL
MODEL 9
REMARK VINA RESULT:      -5.2      1.386      2.254
REMARK  2 active torsions:
REMARK  status: ('A' for Active; 'I' for Inactive)
REMARK    1  A    between atoms: C1_1  and  C2_2 
REMARK    2  A    between atoms: C1_1  and  C3_3 
ROOT
HETATM    1  C1  UNL     1     -33.664   5.914   3.316  1.00 20.00     0.348 C 
HETATM    2  F4  UNL     1     -32.475   5.257   3.151  1.00 20.00    -0.234 F 
ENDROOT
BRANCH   1   3
HETATM    3  C2  UNL     1     -34.499   5.065   4.253  1.00 20.00     0.423 C 
HETATM    4  F5  UNL     1     -34.083   5.159   5.532  1.00 20.00    -0.168 F 
HETATM    5  F6  UNL     1     -35.802   5.415   4.210  1.00 20.00    -0.168 F 
HETATM    6  F7  UNL     1     -34.414   3.761   3.900  1.00 20.00    -0.168 F 
ENDBRANCH   1   3
BRANCH   1   7
HETATM    7  C3  UNL     1     -33.352   7.322   3.823  1.00 20.00     0.294 C 
HETATM    8  F8  UNL     1     -34.291   8.182   3.344  1.00 20.00    -0.204 F 
HETATM    9 CL9  UNL     1     -31.757   7.851   3.219  1.00 20.00    -0.062 Cl
HETATM   10 CL10 UNL     1     -33.349   7.415   5.602  1.00 20.00    -0.062 Cl
ENDBRANCH   1   7
TORSDOF 2
ENDMDL
