MODEL 1
REMARK VINA RESULT:      -5.6      0.000      0.000
REMARK  4 active torsions:
REMARK  status: ('A' for Active; 'I' for Inactive)
REMARK    1  A    between atoms: C1_1  and  C7_7 
REMARK    2  A    between atoms: C1_1  and  C8_8 
REMARK    3  A    between atoms: C5_5  and  C6_6 
REMARK    4  A    between atoms: C6_6  and  C8_8 
ROOT
HETATM    1  C1  UNL     1     -33.380   6.337   3.369  1.00 20.00     0.148 C 
HETATM    2  O9  UNL     1     -32.882   5.378   2.775  1.00 20.00    -0.296 OA
ENDROOT
BRANCH   1   3
HETATM    3  C7  UNL     1     -34.400   6.148   4.490  1.00 20.00     0.049 C 
HETATM    4  C3  UNL     1     -33.987   6.915   5.743  1.00 20.00     0.017 C 
HETATM    5  C4  UNL     1     -34.568   4.664   4.795  1.00 20.00     0.017 C 
ENDBRANCH   1   3
BRANCH   1   6
HETATM    6  C8  UNL     1     -33.013   7.769   3.009  1.00 20.00     0.152 C 
HETATM    7 CL10 UNL     1     -31.412   8.081   3.738  1.00 20.00    -0.117 Cl
BRANCH   6   8
HETATM    8  C6  UNL     1     -32.954   7.983   1.497  1.00 20.00     0.027 C 
BRANCH   8   9
HETATM    9  C5  UNL     1     -31.920   9.042   1.106  1.00 20.00    -0.003 C 
HETATM   10  C2  UNL     1     -32.576  10.389   0.844  1.00 20.00     0.005 C 
ENDBRANCH   8   9
ENDBRANCH   6   8
ENDBRANCH   1   6
TORSDOF 4
ENDMDL
MODEL 2
REMARK VINA RESULT:      -5.4      1.701      1.815
REMARK  4 active torsions:
REMARK  status: ('A' for Active; 'I' for Inactive)
REMARK    1  A    between atoms: C1_1  and  C7_7 
REMARK    2  A    between atoms: C1_1  and  C8_8 
REMARK    3  A    between atoms: C5_5  and  C6_6 
REMARK    4  A    between atoms: C6_6  and  C8_8 
ROOT
HETATM    1  C1  UNL     1     -34.549   6.228   3.804  1.00 20.00     0.148 C 
HETATM    2  O9  UNL     1     -35.570   6.139   3.120  1.00 20.00    -0.296 OA
ENDROOT
BRANCH   1   3
HETATM    3  C7  UNL     1     -34.603   6.286   5.330  1.00 20.00     0.049 C 
HETATM    4  C3  UNL     1     -33.553   7.246   5.881  1.00 20.00     0.017 C 
HETATM    5  C4  UNL     1     -34.416   4.889   5.909  1.00 20.00     0.017 C 
ENDBRANCH   1   3
BRANCH   1   6
HETATM    6  C8  UNL     1     -33.170   6.297   3.164  1.00 20.00     0.152 C 
HETATM    7 CL10 UNL     1     -32.831   4.670   2.510  1.00 20.00    -0.117 Cl
BRANCH   6   8
HETATM    8  C6  UNL     1     -33.109   7.338   2.046  1.00 20.00     0.027 C 
BRANCH   8   9
HETATM    9  C5  UNL     1     -32.083   8.436   2.337  1.00 20.00    -0.003 C 
HETATM   10  C2  UNL     1     -32.219   9.596   1.364  1.00 20.00     0.005 C 
ENDBRANCH   8   9
ENDBRANCH   6   8
ENDBRANCH   1   6
TORSDOF 4
ENDMDL
MODEL 3
REMARK VINA RESULT:      -5.3      1.658      4.791
REMARK  4 active torsions:
REMARK  status: ('A' for Active; 'I' for Inactive)
REMARK    1  A    between atoms: C1_1  and  C7_7 
REMARK    2  A    between atoms: C1_1  and  C8_8 
REMARK    3  A    between atoms: C5_5  and  C6_6 
REMARK    4  A    between atoms: C6_6  and  C8_8 
ROOT
HETATM    1  C1  UNL     1     -32.337   8.076   2.718  1.00 20.00     0.148 C 
HETATM    2  O9  UNL     1     -31.380   8.287   3.465  1.00 20.00    -0.296 OA
ENDROOT
BRANCH   1   3
HETATM    3  C7  UNL     1     -32.503   8.815   1.391  1.00 20.00     0.049 C 
HETATM    4  C3  UNL     1     -31.282   8.617   0.496  1.00 20.00     0.017 C 
HETATM    5  C4  UNL     1     -32.749  10.296   1.650  1.00 20.00     0.017 C 
ENDBRANCH   1   3
BRANCH   1   6
HETATM    6  C8  UNL     1     -33.420   7.069   3.082  1.00 20.00     0.152 C 
HETATM    7 CL10 UNL     1     -32.849   5.479   2.505  1.00 20.00    -0.117 Cl
BRANCH   6   8
HETATM    8  C6  UNL     1     -33.675   7.023   4.588  1.00 20.00     0.027 C 
BRANCH   8   9
HETATM    9  C5  UNL     1     -34.869   6.133   4.941  1.00 20.00    -0.003 C 
HETATM   10  C2  UNL     1     -34.423   4.848   5.622  1.00 20.00     0.005 C 
ENDBRANCH   8   9
ENDBRANCH   6   8
ENDBRANCH   1   6
TORSDOF 4
ENDMDL
MODEL 4
REMARK VINA RESULT:      -5.0      1.872      4.519
REMARK  4 active torsions:
REMARK  status: ('A' for Active; 'I' for Inactive)
REMARK    1  A    between atoms: C1_1  and  C7_7 
REMARK    2  A    between atoms: C1_1  and  C8_8 
REMARK    3  A    between atoms: C5_5  and  C6_6 
REMARK    4  A    between atoms: C6_6  and  C8_8 
ROOT
HETATM    1  C1  UNL     1     -33.325   7.306   3.382  1.00 20.00     0.148 C 
HETATM    2  O9  UNL     1     -33.678   7.840   4.435  1.00 20.00    -0.296 OA
ENDROOT
BRANCH   1   3
HETATM    3  C7  UNL     1     -32.111   7.799   2.595  1.00 20.00     0.049 C 
HETATM    4  C3  UNL     1     -31.071   8.421   3.523  1.00 20.00     0.017 C 
HETATM    5  C4  UNL     1     -32.553   8.798   1.532  1.00 20.00     0.017 C 
ENDBRANCH   1   3
BRANCH   1   6
HETATM    6  C8  UNL     1     -34.088   6.126   2.798  1.00 20.00     0.152 C 
HETATM    7 CL10 UNL     1     -32.891   4.825   2.539  1.00 20.00    -0.117 Cl
BRANCH   6   8
HETATM    8  C6  UNL     1     -35.198   5.643   3.731  1.00 20.00     0.027 C 
BRANCH   8   9
HETATM    9  C5  UNL     1     -34.721   4.522   4.658  1.00 20.00    -0.003 C 
HETATM   10  C2  UNL     1     -34.556   5.016   6.087  1.00 20.00     0.005 C 
ENDBRANCH   8   9
ENDBRANCH   6   8
ENDBRANCH   1   6
TORSDOF 4
ENDMDL
MODEL 5
REMARK VINA RESULT:      -4.9      1.684      4.622
REMARK  4 active torsions:
REMARK  status: ('A' for Active; 'I' for Inactive)
REMARK    1  A    between atoms: C1_1  and  C7_7 
REMARK    2  A    between atoms: C1_1  and  C8_8 
REMARK    3  A    between atoms: C5_5  and  C6_6 
REMARK    4  A    between atoms: C6_6  and  C8_8 
ROOT
HETATM    1  C1  UNL     1     -31.899   8.496   1.331  1.00 20.00     0.148 C 
HETATM    2  O9  UNL     1     -30.856   8.458   0.675  1.00 20.00    -0.296 OA
ENDROOT
BRANCH   1   3
HETATM    3  C7  UNL     1     -33.029   9.467   0.993  1.00 20.00     0.049 C 
HETATM    4  C3  UNL     1     -33.295   9.499  -0.509  1.00 20.00     0.017 C 
HETATM    5  C4  UNL     1     -32.690  10.859   1.513  1.00 20.00     0.017 C 
ENDBRANCH   1   3
BRANCH   1   6
HETATM    6  C8  UNL     1     -32.115   7.581   2.528  1.00 20.00     0.152 C 
HETATM    7 CL10 UNL     1     -31.387   8.405   3.936  1.00 20.00    -0.117 Cl
BRANCH   6   8
HETATM    8  C6  UNL     1     -33.598   7.314   2.784  1.00 20.00     0.027 C 
BRANCH   8   9
HETATM    9  C5  UNL     1     -33.874   5.836   3.075  1.00 20.00    -0.003 C 
HETATM   10  C2  UNL     1     -34.866   5.671   4.216  1.00 20.00     0.005 C 
ENDBRANCH   8   9
ENDBRANCH   6   8
ENDBRANCH   1   6
TORSDOF 4
ENDMDL
MODEL 6
REMARK VINA RESULT:      -4.9      1.678      2.201
REMARK  4 active torsions:
REMARK  status: ('A' for Active; 'I' for Inactive)
REMARK    1  A    between atoms: C1_1  and  C7_7 
REMARK    2  A    between atoms: C1_1  and  C8_8 
REMARK    3  A    between atoms: C5_5  and  C6_6 
REMARK    4  A    between atoms: C6_6  and  C8_8 
ROOT
HETATM    1  C1  UNL     1     -34.279   6.249   3.560  1.00 20.00     0.148 C 
HETATM    2  O9  UNL     1     -35.414   6.235   3.080  1.00 20.00    -0.296 OA
ENDROOT
BRANCH   1   3
HETATM    3  C7  UNL     1     -33.453   4.973   3.714  1.00 20.00     0.049 C 
HETATM    4  C3  UNL     1     -33.042   4.417   2.353  1.00 20.00     0.017 C 
HETATM    5  C4  UNL     1     -34.241   3.937   4.506  1.00 20.00     0.017 C 
ENDBRANCH   1   3
BRANCH   1   6
HETATM    6  C8  UNL     1     -33.637   7.543   4.040  1.00 20.00     0.152 C 
HETATM    7 CL10 UNL     1     -33.497   7.412   5.816  1.00 20.00    -0.117 Cl
BRANCH   6   8
HETATM    8  C6  UNL     1     -32.259   7.764   3.418  1.00 20.00     0.027 C 
BRANCH   8   9
HETATM    9  C5  UNL     1     -32.345   8.026   1.912  1.00 20.00    -0.003 C 
HETATM   10  C2  UNL     1     -32.323   9.515   1.604  1.00 20.00     0.005 C 
ENDBRANCH   8   9
ENDBRANCH   6   8
ENDBRANCH   1   6
TORSDOF 4
ENDMDL
MODEL 7
REMARK VINA RESULT:      -4.8      1.785      4.496
REMARK  4 active torsions:
REMARK  status: ('A' for Active; 'I' for Inactive)
REMARK    1  A    between atoms: C1_1  and  C7_7 
REMARK    2  A    between atoms: C1_1  and  C8_8 
REMARK    3  A    between atoms: C5_5  and  C6_6 
REMARK    4  A    between atoms: C6_6  and  C8_8 
ROOT
HETATM    1  C1  UNL     1     -32.024   8.090   3.078  1.00 20.00     0.148 C 
HETATM    2  O9  UNL     1     -31.054   8.623   3.620  1.00 20.00    -0.296 OA
ENDROOT
BRANCH   1   3
HETATM    3  C7  UNL     1     -32.513   8.520   1.696  1.00 20.00     0.049 C 
HETATM    4  C3  UNL     1     -31.411   8.362   0.651  1.00 20.00     0.017 C 
HETATM    5  C4  UNL     1     -33.009   9.960   1.746  1.00 20.00     0.017 C 
ENDBRANCH   1   3
BRANCH   1   6
HETATM    6  C8  UNL     1     -32.802   6.976   3.764  1.00 20.00     0.152 C 
HETATM    7 CL10 UNL     1     -33.309   7.614   5.353  1.00 20.00    -0.117 Cl
BRANCH   6   8
HETATM    8  C6  UNL     1     -34.025   6.548   2.954  1.00 20.00     0.027 C 
BRANCH   8   9
HETATM    9  C5  UNL     1     -35.056   5.814   3.815  1.00 20.00    -0.003 C 
HETATM   10  C2  UNL     1     -34.487   4.526   4.387  1.00 20.00     0.005 C 
ENDBRANCH   8   9
ENDBRANCH   6   8
ENDBRANCH   1   6
TORSDOF 4
ENDMDL
MODEL 8
REMARK VINA RESULT:      -4.8      1.332      1.603
REMARK  4 active torsions:
REMARK  status: ('A' for Active; 'I' for Inactive)
REMARK    1  A    between atoms: C1_1  and  C7_7 
REMARK    2  A    between atoms: C1_1  and  C8_8 
REMARK    3  A    between atoms: C5_5  and  C6_6 
REMARK    4  A    between atoms: C6_6  and  C8_8 
ROOT
HETATM    1  C1  UNL     1     -33.375   7.190   4.052  1.00 20.00     0.148 C 
HETATM    2  O9  UNL     1     -33.374   7.208   5.285  1.00 20.00    -0.296 OA
ENDROOT
BRANCH   1   3
HETATM    3  C7  UNL     1     -34.081   6.089   3.262  1.00 20.00     0.049 C 
HETATM    4  C3  UNL     1     -35.278   5.541   4.034  1.00 20.00     0.017 C 
HETATM    5  C4  UNL     1     -33.095   4.976   2.930  1.00 20.00     0.017 C 
ENDBRANCH   1   3
BRANCH   1   6
HETATM    6  C8  UNL     1     -32.660   8.263   3.244  1.00 20.00     0.152 C 
HETATM    7 CL10 UNL     1     -30.939   8.191   3.715  1.00 20.00    -0.117 Cl
BRANCH   6   8
HETATM    8  C6  UNL     1     -32.805   8.039   1.739  1.00 20.00     0.027 C 
BRANCH   8   9
HETATM    9  C5  UNL     1     -31.937   9.004   0.928  1.00 20.00    -0.003 C 
HETATM   10  C2  UNL     1     -32.584  10.376   0.819  1.00 20.00     0.005 C 
ENDBRANCH   8   9
ENDBRANCH   6   8
ENDBRANCH   1   6
TORSDOF 4
ENDMDL
MODEL 9
REMARK VINA RESULT:      -4.7      1.756      4.455
REMARK  4 active torsions:
REMARK  status: ('A' for Active; 'I' for Inactive)
REMARK    1  A    between atoms: C1_1  and  C7_7 
REMARK    2  A    between atoms: C1_1  and  C8_8 
REMARK    3  A    between atoms: C5_5  and  C6_6 
REMARK    4  A    between atoms: C6_6  and  C8_8 
ROOT
HETATM    1  C1  UNL     1     -32.905   6.687   2.936  1.00 20.00     0.148 C 
HETATM    2  O9  UNL     1     -32.781   5.500   2.628  1.00 20.00    -0.296 OA
ENDROOT
BRANCH   1   3
HETATM    3  C7  UNL     1     -31.916   7.750   2.462  1.00 20.00     0.049 C 
HETATM    4  C3  UNL     1     -31.259   8.456   3.645  1.00 20.00     0.017 C 
HETATM    5  C4  UNL     1     -32.625   8.753   1.559  1.00 20.00     0.017 C 
ENDBRANCH   1   3
BRANCH   1   6
HETATM    6  C8  UNL     1     -34.050   7.161   3.820  1.00 20.00     0.152 C 
HETATM    7 CL10 UNL     1     -35.498   6.248   3.308  1.00 20.00    -0.117 Cl
BRANCH   6   8
HETATM    8  C6  UNL     1     -33.770   6.915   5.302  1.00 20.00     0.027 C 
BRANCH   8   9
HETATM    9  C5  UNL     1     -34.738   5.896   5.908  1.00 20.00    -0.003 C 
HETATM   10  C2  UNL     1     -34.342   4.472   5.552  1.00 20.00     0.005 C 
ENDBRANCH   8   9
ENDBRANCH   6   8
ENDBRANCH   1   6
TORSDOF 4
ENDMDL
