MODEL 1
REMARK VINA RESULT:      -3.1      0.000      0.000
REMARK  0 active torsions:
REMARK  status: ('A' for Active; 'I' for Inactive)
ROOT
HETATM    1  C1  UNL     1     -33.526   7.179   4.227  1.00 20.00     0.128 C 
HETATM    2  C2  UNL     1     -33.822   7.172   5.689  1.00 20.00     0.234 C 
HETATM    3  N3  UNL     1     -33.914   6.180   3.512  1.00 20.00    -0.203 NA
HETATM    4  O4  UNL     1     -34.362   5.887   5.944  1.00 20.00    -0.295 OA
HETATM    5  S5  UNL     1     -34.699   5.094   4.517  1.00 20.00     0.137 SA
ENDROOT
TORSDOF 0
ENDMDL
MODEL 2
REMARK VINA RESULT:      -3.1      1.806      1.827
REMARK  0 active torsions:
REMARK  status: ('A' for Active; 'I' for Inactive)
ROOT
HETATM    1  C1  UNL     1     -34.319   5.939   3.587  1.00 20.00     0.128 C 
HETATM    2  C2  UNL     1     -34.651   4.913   4.617  1.00 20.00     0.234 C 
HETATM    3  N3  UNL     1     -33.885   7.089   3.974  1.00 20.00    -0.203 NA
HETATM    4  O4  UNL     1     -34.534   5.592   5.856  1.00 20.00    -0.295 OA
HETATM    5  S5  UNL     1     -33.815   7.081   5.648  1.00 20.00     0.137 SA
ENDROOT
TORSDOF 0
ENDMDL
MODEL 3
REMARK VINA RESULT:      -3.1      1.672      1.816
REMARK  0 active torsions:
REMARK  status: ('A' for Active; 'I' for Inactive)
ROOT
HETATM    1  C1  UNL     1     -34.580   5.462   5.627  1.00 20.00     0.128 C 
HETATM    2  C2  UNL     1     -33.993   6.831   5.709  1.00 20.00     0.234 C 
HETATM    3  N3  UNL     1     -34.671   4.894   4.474  1.00 20.00    -0.203 NA
HETATM    4  O4  UNL     1     -33.821   7.232   4.360  1.00 20.00    -0.295 OA
HETATM    5  S5  UNL     1     -34.051   5.946   3.326  1.00 20.00     0.137 SA
ENDROOT
TORSDOF 0
ENDMDL
MODEL 4
REMARK VINA RESULT:      -3.1      2.309      2.462
REMARK  0 active torsions:
REMARK  status: ('A' for Active; 'I' for Inactive)
ROOT
HETATM    1  C1  UNL     1     -34.786   5.199   4.687  1.00 20.00     0.128 C 
HETATM    2  C2  UNL     1     -34.453   6.056   3.512  1.00 20.00     0.234 C 
HETATM    3  N3  UNL     1     -34.505   5.630   5.868  1.00 20.00    -0.203 NA
HETATM    4  O4  UNL     1     -33.714   7.138   4.052  1.00 20.00    -0.295 OA
HETATM    5  S5  UNL     1     -33.799   7.141   5.716  1.00 20.00     0.137 SA
ENDROOT
TORSDOF 0
ENDMDL
MODEL 5
REMARK VINA RESULT:      -3.0      1.584      1.843
REMARK  0 active torsions:
REMARK  status: ('A' for Active; 'I' for Inactive)
ROOT
HETATM    1  C1  UNL     1     -33.770   7.123   5.415  1.00 20.00     0.128 C 
HETATM    2  C2  UNL     1     -33.477   7.189   3.954  1.00 20.00     0.234 C 
HETATM    3  N3  UNL     1     -34.376   6.085   5.879  1.00 20.00    -0.203 NA
HETATM    4  O4  UNL     1     -34.140   6.064   3.401  1.00 20.00    -0.295 OA
HETATM    5  S5  UNL     1     -34.672   5.041   4.603  1.00 20.00     0.137 SA
ENDROOT
TORSDOF 0
ENDMDL
MODEL 6
REMARK VINA RESULT:      -3.0      2.204      2.331
REMARK  0 active torsions:
REMARK  status: ('A' for Active; 'I' for Inactive)
ROOT
HETATM    1  C1  UNL     1     -34.388   6.052   5.728  1.00 20.00     0.128 C 
HETATM    2  C2  UNL     1     -34.666   5.025   4.683  1.00 20.00     0.234 C 
HETATM    3  N3  UNL     1     -33.797   7.144   5.383  1.00 20.00    -0.203 NA
HETATM    4  O4  UNL     1     -34.011   5.505   3.521  1.00 20.00    -0.295 OA
HETATM    5  S5  UNL     1     -33.502   7.077   3.736  1.00 20.00     0.137 SA
ENDROOT
TORSDOF 0
ENDMDL
MODEL 7
REMARK VINA RESULT:      -2.9      1.593      1.889
REMARK  0 active torsions:
REMARK  status: ('A' for Active; 'I' for Inactive)
ROOT
HETATM    1  C1  UNL     1     -33.583   7.114   4.099  1.00 20.00     0.128 C 
HETATM    2  C2  UNL     1     -33.765   5.961   3.171  1.00 20.00     0.234 C 
HETATM    3  N3  UNL     1     -33.939   6.981   5.330  1.00 20.00    -0.203 NA
HETATM    4  O4  UNL     1     -34.485   5.000   3.923  1.00 20.00    -0.295 OA
HETATM    5  S5  UNL     1     -34.543   5.431   5.532  1.00 20.00     0.137 SA
ENDROOT
TORSDOF 0
ENDMDL
MODEL 8
REMARK VINA RESULT:      -2.8      1.188      1.394
REMARK  0 active torsions:
REMARK  status: ('A' for Active; 'I' for Inactive)
ROOT
HETATM    1  C1  UNL     1     -33.620   5.902   3.182  1.00 20.00     0.128 C 
HETATM    2  C2  UNL     1     -33.532   7.169   3.963  1.00 20.00     0.234 C 
HETATM    3  N3  UNL     1     -34.171   4.874   3.728  1.00 20.00    -0.203 NA
HETATM    4  O4  UNL     1     -33.982   6.826   5.262  1.00 20.00    -0.295 OA
HETATM    5  S5  UNL     1     -34.667   5.307   5.269  1.00 20.00     0.137 SA
ENDROOT
TORSDOF 0
ENDMDL
MODEL 9
REMARK VINA RESULT:      -2.5     13.003     13.155
REMARK  0 active torsions:
REMARK  status: ('A' for Active; 'I' for Inactive)
ROOT
HETATM    1  C1  UNL     1     -35.498  13.015  -6.590  1.00 20.00     0.128 C 
HETATM    2  C2  UNL     1     -34.440  13.986  -6.990  1.00 20.00     0.234 C 
HETATM    3  N3  UNL     1     -35.856  12.961  -5.353  1.00 20.00    -0.203 NA
HETATM    4  O4  UNL     1     -33.965  14.528  -5.769  1.00 20.00    -0.295 OA
HETATM    5  S5  UNL     1     -34.957  14.091  -4.503  1.00 20.00     0.137 SA
ENDROOT
TORSDOF 0
ENDMDL
