MODEL 1
REMARK VINA RESULT:      -6.0      0.000      0.000
REMARK  4 active torsions:
REMARK  status: ('A' for Active; 'I' for Inactive)
REMARK    1  A    between atoms: C2_2  and  C9_9 
REMARK    2  A    between atoms: C7_7  and  C8_8 
REMARK    3  A    between atoms: C8_8  and  C9_9 
REMARK    4  A    between atoms: C9_9  and  O11_11 
ROOT
HETATM    1  C3  UNL     1     -33.439   7.123   4.794  1.00 20.00     0.031 C 
HETATM    2  C4  UNL     1     -33.857   4.998   3.525  1.00 20.00     0.031 C 
HETATM    3  C5  UNL     1     -34.346   6.567   5.884  1.00 20.00     0.168 C 
HETATM    4  C6  UNL     1     -34.741   4.561   4.688  1.00 20.00     0.168 C 
HETATM    5  C7  UNL     1     -33.805   6.528   3.430  1.00 20.00    -0.008 C 
HETATM    6  O10 UNL     1     -34.291   5.141   5.912  1.00 20.00    -0.391 OA
ENDROOT
BRANCH   5   7
HETATM    7  C8  UNL     1     -32.825   6.978   2.351  1.00 20.00     0.040 C 
BRANCH   7   8
HETATM    8  C9  UNL     1     -32.315   8.408   2.555  1.00 20.00     0.140 C 
BRANCH   8   9
HETATM    9  C2  UNL     1     -32.104   9.144   1.264  1.00 20.00    -0.006 C 
HETATM   10  C1  UNL     1     -32.720  10.290   0.950  1.00 20.00     0.009 C 
ENDBRANCH   8   9
BRANCH   8  11
HETATM   11  O11 UNL     1     -31.051   8.345   3.218  1.00 20.00    -0.392 OA
HETATM   12  H27 UNL     1     -31.027   7.494   3.682  1.00 20.00     0.210 HD
ENDBRANCH   8  11
ENDBRANCH   7   8
ENDBRANCH   5   7
TORSDOF 4
ENDMDL
MODEL 2
REMARK VINA RESULT:      -5.9      0.394      1.522
REMARK  4 active torsions:
REMARK  status: ('A' for Active; 'I' for Inactive)
REMARK    1  A    between atoms: C2_2  and  C9_9 
REMARK    2  A    between atoms: C7_7  and  C8_8 
REMARK    3  A    between atoms: C8_8  and  C9_9 
REMARK    4  A    between atoms: C9_9  and  O11_11 
ROOT
HETATM    1  C3  UNL     1     -34.064   5.110   3.357  1.00 20.00     0.031 C 
HETATM    2  C4  UNL     1     -33.818   7.257   4.632  1.00 20.00     0.031 C 
HETATM    3  C5  UNL     1     -34.389   4.440   4.686  1.00 20.00     0.168 C 
HETATM    4  C6  UNL     1     -34.157   6.466   5.890  1.00 20.00     0.168 C 
HETATM    5  C7  UNL     1     -33.184   6.346   3.574  1.00 20.00    -0.008 C 
HETATM    6  O10 UNL     1     -35.008   5.363   5.581  1.00 20.00    -0.391 OA
ENDROOT
BRANCH   5   7
HETATM    7  C8  UNL     1     -32.957   7.098   2.266  1.00 20.00     0.040 C 
BRANCH   7   8
HETATM    8  C9  UNL     1     -32.326   8.479   2.463  1.00 20.00     0.140 C 
BRANCH   8   9
HETATM    9  C2  UNL     1     -31.995   9.161   1.167  1.00 20.00    -0.006 C 
HETATM   10  C1  UNL     1     -32.610  10.264   0.727  1.00 20.00     0.009 C 
ENDBRANCH   8   9
BRANCH   8  11
HETATM   11  O11 UNL     1     -31.102   8.317   3.181  1.00 20.00    -0.392 OA
HETATM   12  H27 UNL     1     -30.834   7.393   3.060  1.00 20.00     0.210 HD
ENDBRANCH   8  11
ENDBRANCH   7   8
ENDBRANCH   5   7
TORSDOF 4
ENDMDL
MODEL 3
REMARK VINA RESULT:      -5.6      1.111      1.144
REMARK  4 active torsions:
REMARK  status: ('A' for Active; 'I' for Inactive)
REMARK    1  A    between atoms: C2_2  and  C9_9 
REMARK    2  A    between atoms: C7_7  and  C8_8 
REMARK    3  A    between atoms: C8_8  and  C9_9 
REMARK    4  A    between atoms: C9_9  and  O11_11 
ROOT
HETATM    1  C3  UNL     1     -32.833   7.535   4.656  1.00 20.00     0.031 C 
HETATM    2  C4  UNL     1     -34.087   5.812   3.330  1.00 20.00     0.031 C 
HETATM    3  C5  UNL     1     -33.838   7.300   5.777  1.00 20.00     0.168 C 
HETATM    4  C6  UNL     1     -35.021   5.674   4.527  1.00 20.00     0.168 C 
HETATM    5  C7  UNL     1     -33.457   7.210   3.294  1.00 20.00    -0.008 C 
HETATM    6  O10 UNL     1     -34.332   5.963   5.743  1.00 20.00    -0.391 OA
ENDROOT
BRANCH   5   7
HETATM    7  C8  UNL     1     -32.425   7.318   2.175  1.00 20.00     0.040 C 
BRANCH   7   8
HETATM    8  C9  UNL     1     -32.064   8.765   1.822  1.00 20.00     0.140 C 
BRANCH   8   9
HETATM    9  C2  UNL     1     -33.170   9.485   1.108  1.00 20.00    -0.006 C 
HETATM   10  C1  UNL     1     -33.207   9.668  -0.217  1.00 20.00     0.009 C 
ENDBRANCH   8   9
BRANCH   8  11
HETATM   11  O11 UNL     1     -30.935   8.746   0.947  1.00 20.00    -0.392 OA
HETATM   12  H27 UNL     1     -30.597   9.654   0.917  1.00 20.00     0.210 HD
ENDBRANCH   8  11
ENDBRANCH   7   8
ENDBRANCH   5   7
TORSDOF 4
ENDMDL
MODEL 4
REMARK VINA RESULT:      -4.5      1.475      4.674
REMARK  4 active torsions:
REMARK  status: ('A' for Active; 'I' for Inactive)
REMARK    1  A    between atoms: C2_2  and  C9_9 
REMARK    2  A    between atoms: C7_7  and  C8_8 
REMARK    3  A    between atoms: C8_8  and  C9_9 
REMARK    4  A    between atoms: C9_9  and  O11_11 
ROOT
HETATM    1  C3  UNL     1     -32.524   7.663   4.067  1.00 20.00     0.031 C 
HETATM    2  C4  UNL     1     -33.244   7.917   1.676  1.00 20.00     0.031 C 
HETATM    3  C5  UNL     1     -31.290   8.481   3.708  1.00 20.00     0.168 C 
HETATM    4  C6  UNL     1     -31.970   8.722   1.452  1.00 20.00     0.168 C 
HETATM    5  C7  UNL     1     -33.063   6.928   2.834  1.00 20.00    -0.008 C 
HETATM    6  O10 UNL     1     -31.578   9.393   2.649  1.00 20.00    -0.391 OA
ENDROOT
BRANCH   5   7
HETATM    7  C8  UNL     1     -34.370   6.207   3.150  1.00 20.00     0.040 C 
BRANCH   7   8
HETATM    8  C9  UNL     1     -34.198   4.696   3.340  1.00 20.00     0.140 C 
BRANCH   8   9
HETATM    9  C2  UNL     1     -34.252   4.278   4.781  1.00 20.00    -0.006 C 
HETATM   10  C1  UNL     1     -34.628   5.086   5.778  1.00 20.00     0.009 C 
ENDBRANCH   8   9
BRANCH   8  11
HETATM   11  O11 UNL     1     -32.913   4.323   2.839  1.00 20.00    -0.392 OA
HETATM   12  H27 UNL     1     -32.715   3.452   3.215  1.00 20.00     0.210 HD
ENDBRANCH   8  11
ENDBRANCH   7   8
ENDBRANCH   5   7
TORSDOF 4
ENDMDL
MODEL 5
REMARK VINA RESULT:      -4.4      1.258      4.808
REMARK  4 active torsions:
REMARK  status: ('A' for Active; 'I' for Inactive)
REMARK    1  A    between atoms: C2_2  and  C9_9 
REMARK    2  A    between atoms: C7_7  and  C8_8 
REMARK    3  A    between atoms: C8_8  and  C9_9 
REMARK    4  A    between atoms: C9_9  and  O11_11 
ROOT
HETATM    1  C3  UNL     1     -33.499   7.454   1.405  1.00 20.00     0.031 C 
HETATM    2  C4  UNL     1     -31.854   7.468   3.300  1.00 20.00     0.031 C 
HETATM    3  C5  UNL     1     -32.969   8.833   1.029  1.00 20.00     0.168 C 
HETATM    4  C6  UNL     1     -31.416   8.846   2.817  1.00 20.00     0.168 C 
HETATM    5  C7  UNL     1     -33.309   7.192   2.903  1.00 20.00    -0.008 C 
HETATM    6  O10 UNL     1     -31.601   8.970   1.407  1.00 20.00    -0.391 OA
ENDROOT
BRANCH   5   7
HETATM    7  C8  UNL     1     -33.718   5.769   3.269  1.00 20.00     0.040 C 
BRANCH   7   8
HETATM    8  C9  UNL     1     -34.776   5.708   4.376  1.00 20.00     0.140 C 
BRANCH   8   9
HETATM    9  C2  UNL     1     -34.227   6.056   5.729  1.00 20.00    -0.006 C 
HETATM   10  C1  UNL     1     -33.918   7.300   6.111  1.00 20.00     0.009 C 
ENDBRANCH   8   9
BRANCH   8  11
HETATM   11  O11 UNL     1     -35.272   4.371   4.451  1.00 20.00    -0.392 OA
HETATM   12  H27 UNL     1     -34.512   3.808   4.664  1.00 20.00     0.210 HD
ENDBRANCH   8  11
ENDBRANCH   7   8
ENDBRANCH   5   7
TORSDOF 4
ENDMDL
MODEL 6
REMARK VINA RESULT:      -4.4     11.220     12.164
REMARK  4 active torsions:
REMARK  status: ('A' for Active; 'I' for Inactive)
REMARK    1  A    between atoms: C2_2  and  C9_9 
REMARK    2  A    between atoms: C7_7  and  C8_8 
REMARK    3  A    between atoms: C8_8  and  C9_9 
REMARK    4  A    between atoms: C9_9  and  O11_11 
ROOT
HETATM    1  C3  UNL     1     -34.950  14.102  -4.436  1.00 20.00     0.031 C 
HETATM    2  C4  UNL     1     -33.863  14.597  -6.643  1.00 20.00     0.031 C 
HETATM    3  C5  UNL     1     -35.968  13.269  -5.204  1.00 20.00     0.168 C 
HETATM    4  C6  UNL     1     -34.942  13.735  -7.288  1.00 20.00     0.168 C 
HETATM    5  C7  UNL     1     -34.368  15.204  -5.329  1.00 20.00    -0.008 C 
HETATM    6  O10 UNL     1     -35.386  12.721  -6.386  1.00 20.00    -0.391 OA
ENDROOT
BRANCH   5   7
HETATM    7  C8  UNL     1     -33.257  15.965  -4.612  1.00 20.00     0.040 C 
BRANCH   7   8
HETATM    8  C9  UNL     1     -33.765  17.164  -3.807  1.00 20.00     0.140 C 
BRANCH   8   9
HETATM    9  C2  UNL     1     -33.864  16.882  -2.336  1.00 20.00    -0.006 C 
HETATM   10  C1  UNL     1     -35.018  16.843  -1.660  1.00 20.00     0.009 C 
ENDBRANCH   8   9
BRANCH   8  11
HETATM   11  O11 UNL     1     -35.079  17.490  -4.265  1.00 20.00    -0.392 OA
HETATM   12  H27 UNL     1     -35.656  17.457  -3.487  1.00 20.00     0.210 HD
ENDBRANCH   8  11
ENDBRANCH   7   8
ENDBRANCH   5   7
TORSDOF 4
ENDMDL
MODEL 7
REMARK VINA RESULT:      -4.3     11.096     11.972
REMARK  4 active torsions:
REMARK  status: ('A' for Active; 'I' for Inactive)
REMARK    1  A    between atoms: C2_2  and  C9_9 
REMARK    2  A    between atoms: C7_7  and  C8_8 
REMARK    3  A    between atoms: C8_8  and  C9_9 
REMARK    4  A    between atoms: C9_9  and  O11_11 
ROOT
HETATM    1  C3  UNL     1     -35.287  17.068  -1.186  1.00 20.00     0.031 C 
HETATM    2  C4  UNL     1     -33.249  17.898  -2.393  1.00 20.00     0.031 C 
HETATM    3  C5  UNL     1     -34.797  17.847   0.029  1.00 20.00     0.168 C 
HETATM    4  C6  UNL     1     -32.874  18.631  -1.110  1.00 20.00     0.168 C 
HETATM    5  C7  UNL     1     -34.109  16.668  -2.082  1.00 20.00    -0.008 C 
HETATM    6  O10 UNL     1     -34.043  18.989  -0.372  1.00 20.00    -0.391 OA
ENDROOT
BRANCH   5   7
HETATM    7  C8  UNL     1     -34.596  15.999  -3.365  1.00 20.00     0.040 C 
BRANCH   7   8
HETATM    8  C9  UNL     1     -33.547  15.087  -4.008  1.00 20.00     0.140 C 
BRANCH   8   9
HETATM    9  C2  UNL     1     -33.107  15.564  -5.361  1.00 20.00    -0.006 C 
HETATM   10  C1  UNL     1     -33.668  16.592  -6.008  1.00 20.00     0.009 C 
ENDBRANCH   8   9
BRANCH   8  11
HETATM   11  O11 UNL     1     -34.123  13.792  -4.182  1.00 20.00    -0.392 OA
HETATM   12  H27 UNL     1     -34.292  13.692  -5.131  1.00 20.00     0.210 HD
ENDBRANCH   8  11
ENDBRANCH   7   8
ENDBRANCH   5   7
TORSDOF 4
ENDMDL
MODEL 8
REMARK VINA RESULT:      -4.3     11.023     12.491
REMARK  4 active torsions:
REMARK  status: ('A' for Active; 'I' for Inactive)
REMARK    1  A    between atoms: C2_2  and  C9_9 
REMARK    2  A    between atoms: C7_7  and  C8_8 
REMARK    3  A    between atoms: C8_8  and  C9_9 
REMARK    4  A    between atoms: C9_9  and  O11_11 
ROOT
HETATM    1  C3  UNL     1     -33.439  16.573  -4.792  1.00 20.00     0.031 C 
HETATM    2  C4  UNL     1     -34.659  16.338  -2.612  1.00 20.00     0.031 C 
HETATM    3  C5  UNL     1     -33.406  18.074  -4.530  1.00 20.00     0.168 C 
HETATM    4  C6  UNL     1     -34.557  17.852  -2.472  1.00 20.00     0.168 C 
HETATM    5  C7  UNL     1     -34.639  15.928  -4.089  1.00 20.00    -0.008 C 
HETATM    6  O10 UNL     1     -33.389  18.343  -3.129  1.00 20.00    -0.391 OA
ENDROOT
BRANCH   5   7
HETATM    7  C8  UNL     1     -34.613  14.409  -4.238  1.00 20.00     0.040 C 
BRANCH   7   8
HETATM    8  C9  UNL     1     -35.514  13.896  -5.365  1.00 20.00     0.140 C 
BRANCH   8   9
HETATM    9  C2  UNL     1     -36.732  14.748  -5.574  1.00 20.00    -0.006 C 
HETATM   10  C1  UNL     1     -37.954  14.421  -5.140  1.00 20.00     0.009 C 
ENDBRANCH   8   9
BRANCH   8  11
HETATM   11  O11 UNL     1     -35.968  12.587  -5.018  1.00 20.00    -0.392 OA
HETATM   12  H27 UNL     1     -36.051  12.573  -4.052  1.00 20.00     0.210 HD
ENDBRANCH   8  11
ENDBRANCH   7   8
ENDBRANCH   5   7
TORSDOF 4
ENDMDL
MODEL 9
REMARK VINA RESULT:      -4.3     11.149     12.661
REMARK  4 active torsions:
REMARK  status: ('A' for Active; 'I' for Inactive)
REMARK    1  A    between atoms: C2_2  and  C9_9 
REMARK    2  A    between atoms: C7_7  and  C8_8 
REMARK    3  A    between atoms: C8_8  and  C9_9 
REMARK    4  A    between atoms: C9_9  and  O11_11 
ROOT
HETATM    1  C3  UNL     1     -33.486  17.498  -4.536  1.00 20.00     0.031 C 
HETATM    2  C4  UNL     1     -33.586  17.028  -2.073  1.00 20.00     0.031 C 
HETATM    3  C5  UNL     1     -33.310  18.968  -4.176  1.00 20.00     0.168 C 
HETATM    4  C6  UNL     1     -33.404  18.525  -1.852  1.00 20.00     0.168 C 
HETATM    5  C7  UNL     1     -34.247  16.758  -3.430  1.00 20.00    -0.008 C 
HETATM    6  O10 UNL     1     -32.653  19.106  -2.918  1.00 20.00    -0.391 OA
ENDROOT
BRANCH   5   7
HETATM    7  C8  UNL     1     -34.319  15.261  -3.719  1.00 20.00     0.040 C 
BRANCH   7   8
HETATM    8  C9  UNL     1     -33.425  14.825  -4.883  1.00 20.00     0.140 C 
BRANCH   8   9
HETATM    9  C2  UNL     1     -34.202  14.276  -6.044  1.00 20.00    -0.006 C 
HETATM   10  C1  UNL     1     -34.094  14.732  -7.296  1.00 20.00     0.009 C 
ENDBRANCH   8   9
BRANCH   8  11
HETATM   11  O11 UNL     1     -32.561  13.785  -4.421  1.00 20.00    -0.392 OA
HETATM   12  H27 UNL     1     -32.805  13.616  -3.499  1.00 20.00     0.210 HD
ENDBRANCH   8  11
ENDBRANCH   7   8
ENDBRANCH   5   7
TORSDOF 4
ENDMDL
