MODEL 1
REMARK VINA RESULT:      -4.0      0.000      0.000
REMARK  0 active torsions:
REMARK  status: ('A' for Active; 'I' for Inactive)
ROOT
HETATM    1  C1  UNL     1     -34.679   6.216   6.048  1.00 20.00     0.027 C 
HETATM    2  C2  UNL     1     -34.261   4.836   5.529  1.00 20.00     0.012 C 
HETATM    3  C3  UNL     1     -33.621   7.318   5.935  1.00 20.00     0.167 C 
HETATM    4  C4  UNL     1     -33.708   7.556   3.564  1.00 20.00     0.177 C 
HETATM    5  C5  UNL     1     -34.514   4.595   4.033  1.00 20.00     0.074 C 
HETATM    6  C6  UNL     1     -33.278   6.605   2.459  1.00 20.00     0.100 C 
HETATM    7  O7  UNL     1     -32.903   7.324   4.712  1.00 20.00    -0.390 OA
HETATM    8  S8  UNL     1     -33.050   4.868   2.980  1.00 20.00    -0.167 SA
ENDROOT
TORSDOF 0
ENDMDL
MODEL 2
REMARK VINA RESULT:      -3.6      1.747      2.561
REMARK  0 active torsions:
REMARK  status: ('A' for Active; 'I' for Inactive)
ROOT
HETATM    1  C1  UNL     1     -34.305   5.778   5.788  1.00 20.00     0.027 C 
HETATM    2  C2  UNL     1     -33.999   7.275   5.668  1.00 20.00     0.012 C 
HETATM    3  C3  UNL     1     -35.106   5.169   4.634  1.00 20.00     0.167 C 
HETATM    4  C4  UNL     1     -33.371   5.260   3.001  1.00 20.00     0.177 C 
HETATM    5  C5  UNL     1     -32.710   7.620   4.906  1.00 20.00     0.074 C 
HETATM    6  C6  UNL     1     -32.715   6.451   2.322  1.00 20.00     0.100 C 
HETATM    7  O7  UNL     1     -34.707   5.602   3.343  1.00 20.00    -0.390 OA
HETATM    8  S8  UNL     1     -32.977   8.057   3.156  1.00 20.00    -0.167 SA
ENDROOT
TORSDOF 0
ENDMDL
MODEL 3
REMARK VINA RESULT:      -3.4     12.288     13.715
REMARK  0 active torsions:
REMARK  status: ('A' for Active; 'I' for Inactive)
ROOT
HETATM    1  C1  UNL     1     -35.039  14.157  -7.918  1.00 20.00     0.027 C 
HETATM    2  C2  UNL     1     -33.689  14.768  -7.529  1.00 20.00     0.012 C 
HETATM    3  C3  UNL     1     -35.435  12.885  -7.162  1.00 20.00     0.167 C 
HETATM    4  C4  UNL     1     -35.871  13.924  -5.061  1.00 20.00     0.177 C 
HETATM    5  C5  UNL     1     -33.733  15.763  -6.359  1.00 20.00     0.074 C 
HETATM    6  C6  UNL     1     -34.925  14.584  -4.071  1.00 20.00     0.100 C 
HETATM    7  O7  UNL     1     -35.164  12.916  -5.770  1.00 20.00    -0.390 OA
HETATM    8  S8  UNL     1     -33.287  15.034  -4.748  1.00 20.00    -0.167 SA
ENDROOT
TORSDOF 0
ENDMDL
MODEL 4
REMARK VINA RESULT:      -3.4     12.565     13.655
REMARK  0 active torsions:
REMARK  status: ('A' for Active; 'I' for Inactive)
ROOT
HETATM    1  C1  UNL     1     -34.746  14.003  -4.204  1.00 20.00     0.027 C 
HETATM    2  C2  UNL     1     -34.326  15.470  -4.338  1.00 20.00     0.012 C 
HETATM    3  C3  UNL     1     -35.845  13.537  -5.163  1.00 20.00     0.167 C 
HETATM    4  C4  UNL     1     -34.525  13.566  -7.148  1.00 20.00     0.177 C 
HETATM    5  C5  UNL     1     -33.215  15.742  -5.364  1.00 20.00     0.074 C 
HETATM    6  C6  UNL     1     -33.924  14.731  -7.918  1.00 20.00     0.100 C 
HETATM    7  O7  UNL     1     -35.707  14.006  -6.495  1.00 20.00    -0.390 OA
HETATM    8  S8  UNL     1     -33.826  16.302  -6.988  1.00 20.00    -0.167 SA
ENDROOT
TORSDOF 0
ENDMDL
MODEL 5
REMARK VINA RESULT:      -3.3      1.853      3.597
REMARK  0 active torsions:
REMARK  status: ('A' for Active; 'I' for Inactive)
ROOT
HETATM    1  C1  UNL     1     -33.392   5.999   2.155  1.00 20.00     0.027 C 
HETATM    2  C2  UNL     1     -32.840   7.146   3.007  1.00 20.00     0.012 C 
HETATM    3  C3  UNL     1     -33.213   4.593   2.737  1.00 20.00     0.167 C 
HETATM    4  C4  UNL     1     -34.807   4.806   4.497  1.00 20.00     0.177 C 
HETATM    5  C5  UNL     1     -33.813   7.713   4.052  1.00 20.00     0.074 C 
HETATM    6  C6  UNL     1     -34.782   5.660   5.754  1.00 20.00     0.100 C 
HETATM    7  O7  UNL     1     -33.471   4.491   4.128  1.00 20.00    -0.390 OA
HETATM    8  S8  UNL     1     -33.578   7.036   5.729  1.00 20.00    -0.167 SA
ENDROOT
TORSDOF 0
ENDMDL
MODEL 6
REMARK VINA RESULT:      -3.3      1.340      2.799
REMARK  0 active torsions:
REMARK  status: ('A' for Active; 'I' for Inactive)
ROOT
HETATM    1  C1  UNL     1     -32.424   6.416   2.594  1.00 20.00     0.027 C 
HETATM    2  C2  UNL     1     -33.364   5.207   2.557  1.00 20.00     0.012 C 
HETATM    3  C3  UNL     1     -33.071   7.749   2.979  1.00 20.00     0.167 C 
HETATM    4  C4  UNL     1     -33.430   7.242   5.280  1.00 20.00     0.177 C 
HETATM    5  C5  UNL     1     -33.533   4.467   3.893  1.00 20.00     0.074 C 
HETATM    6  C6  UNL     1     -34.371   6.246   5.938  1.00 20.00     0.100 C 
HETATM    7  O7  UNL     1     -33.997   7.671   4.050  1.00 20.00    -0.390 OA
HETATM    8  S8  UNL     1     -35.024   4.950   4.825  1.00 20.00    -0.167 SA
ENDROOT
TORSDOF 0
ENDMDL
MODEL 7
REMARK VINA RESULT:      -3.3     12.418     12.989
REMARK  0 active torsions:
REMARK  status: ('A' for Active; 'I' for Inactive)
ROOT
HETATM    1  C1  UNL     1     -33.648  15.821  -3.938  1.00 20.00     0.027 C 
HETATM    2  C2  UNL     1     -35.092  15.735  -3.430  1.00 20.00     0.012 C 
HETATM    3  C3  UNL     1     -33.028  14.500  -4.402  1.00 20.00     0.167 C 
HETATM    4  C4  UNL     1     -34.314  14.264  -6.396  1.00 20.00     0.177 C 
HETATM    5  C5  UNL     1     -36.175  15.880  -4.509  1.00 20.00     0.074 C 
HETATM    6  C6  UNL     1     -35.796  13.987  -6.588  1.00 20.00     0.100 C 
HETATM    7  O7  UNL     1     -33.891  13.679  -5.172  1.00 20.00    -0.390 OA
HETATM    8  S8  UNL     1     -36.836  14.292  -5.115  1.00 20.00    -0.167 SA
ENDROOT
TORSDOF 0
ENDMDL
MODEL 8
REMARK VINA RESULT:      -3.3     12.476     13.464
REMARK  0 active torsions:
REMARK  status: ('A' for Active; 'I' for Inactive)
ROOT
HETATM    1  C1  UNL     1     -34.739  15.282  -3.939  1.00 20.00     0.027 C 
HETATM    2  C2  UNL     1     -35.123  13.921  -4.529  1.00 20.00     0.012 C 
HETATM    3  C3  UNL     1     -33.333  15.783  -4.281  1.00 20.00     0.167 C 
HETATM    4  C4  UNL     1     -33.750  16.262  -6.578  1.00 20.00     0.177 C 
HETATM    5  C5  UNL     1     -35.740  13.968  -5.935  1.00 20.00     0.074 C 
HETATM    6  C6  UNL     1     -34.034  15.332  -7.746  1.00 20.00     0.100 C 
HETATM    7  O7  UNL     1     -32.944  15.578  -5.629  1.00 20.00    -0.390 OA
HETATM    8  S8  UNL     1     -34.551  13.641  -7.279  1.00 20.00    -0.167 SA
ENDROOT
TORSDOF 0
ENDMDL
MODEL 9
REMARK VINA RESULT:      -3.2     12.458     14.056
REMARK  0 active torsions:
REMARK  status: ('A' for Active; 'I' for Inactive)
ROOT
HETATM    1  C1  UNL     1     -34.106  15.627  -7.720  1.00 20.00     0.027 C 
HETATM    2  C2  UNL     1     -33.622  16.142  -6.360  1.00 20.00     0.012 C 
HETATM    3  C3  UNL     1     -34.038  14.110  -7.918  1.00 20.00     0.167 C 
HETATM    4  C4  UNL     1     -35.819  13.547  -6.436  1.00 20.00     0.177 C 
HETATM    5  C5  UNL     1     -34.693  16.190  -5.259  1.00 20.00     0.074 C 
HETATM    6  C6  UNL     1     -35.915  13.652  -4.922  1.00 20.00     0.100 C 
HETATM    7  O7  UNL     1     -34.460  13.347  -6.798  1.00 20.00    -0.390 OA
HETATM    8  S8  UNL     1     -34.675  14.747  -4.144  1.00 20.00    -0.167 SA
ENDROOT
TORSDOF 0
ENDMDL
