MODEL 1
REMARK VINA RESULT:      -4.2      0.000      0.000
REMARK  0 active torsions:
REMARK  status: ('A' for Active; 'I' for Inactive)
ROOT
HETATM    1  C1  UNL     1     -34.028  15.016  -7.404  1.00 20.00     0.005 C 
HETATM    2  C2  UNL     1     -33.044  15.689  -5.214  1.00 20.00     0.005 C 
HETATM    3  C3  UNL     1     -34.485  13.603  -6.988  1.00 20.00     0.005 C 
HETATM    4  C4  UNL     1     -33.346  14.382  -4.454  1.00 20.00     0.005 C 
HETATM    5  C5  UNL     1     -36.429  14.845  -6.163  1.00 20.00     0.010 C 
HETATM    6  C6  UNL     1     -35.521  15.465  -4.142  1.00 20.00     0.010 C 
HETATM    7  C7  UNL     1     -34.154  16.024  -6.238  1.00 20.00    -0.010 C 
HETATM    8  C8  UNL     1     -35.485  13.679  -5.821  1.00 20.00    -0.010 C 
HETATM    9  C9  UNL     1     -34.860  14.107  -4.429  1.00 20.00    -0.010 C 
HETATM   10  C10 UNL     1     -35.599  15.992  -5.579  1.00 20.00    -0.010 C 
ENDROOT
TORSDOF 0
ENDMDL
MODEL 2
REMARK VINA RESULT:      -4.2     11.979     13.482
REMARK  0 active torsions:
REMARK  status: ('A' for Active; 'I' for Inactive)
ROOT
HETATM    1  C1  UNL     1     -34.499   5.861   5.874  1.00 20.00     0.005 C 
HETATM    2  C2  UNL     1     -34.106   4.070   4.183  1.00 20.00     0.005 C 
HETATM    3  C3  UNL     1     -33.273   6.728   5.530  1.00 20.00     0.005 C 
HETATM    4  C4  UNL     1     -32.818   4.656   3.574  1.00 20.00     0.005 C 
HETATM    5  C5  UNL     1     -34.795   7.601   3.820  1.00 20.00     0.010 C 
HETATM    6  C6  UNL     1     -34.432   5.950   2.261  1.00 20.00     0.010 C 
HETATM    7  C7  UNL     1     -35.091   5.182   4.617  1.00 20.00    -0.010 C 
HETATM    8  C8  UNL     1     -33.332   7.193   4.064  1.00 20.00    -0.010 C 
HETATM    9  C9  UNL     1     -33.082   6.056   2.989  1.00 20.00    -0.010 C 
HETATM   10  C10 UNL     1     -35.359   6.225   3.449  1.00 20.00    -0.010 C 
ENDROOT
TORSDOF 0
ENDMDL
MODEL 3
REMARK VINA RESULT:      -4.1      0.829      2.717
REMARK  0 active torsions:
REMARK  status: ('A' for Active; 'I' for Inactive)
ROOT
HETATM    1  C1  UNL     1     -34.428  14.123  -6.683  1.00 20.00     0.005 C 
HETATM    2  C2  UNL     1     -36.379  15.145  -5.513  1.00 20.00     0.005 C 
HETATM    3  C3  UNL     1     -33.553  15.391  -6.749  1.00 20.00     0.005 C 
HETATM    4  C4  UNL     1     -35.811  16.573  -5.396  1.00 20.00     0.005 C 
HETATM    5  C5  UNL     1     -32.944  14.677  -4.486  1.00 20.00     0.010 C 
HETATM    6  C6  UNL     1     -34.743  15.620  -3.407  1.00 20.00     0.010 C 
HETATM    7  C7  UNL     1     -35.268  14.076  -5.385  1.00 20.00    -0.010 C 
HETATM    8  C8  UNL     1     -33.259  15.922  -5.335  1.00 20.00    -0.010 C 
HETATM    9  C9  UNL     1     -34.499  16.570  -4.591  1.00 20.00    -0.010 C 
HETATM   10  C10 UNL     1     -34.375  14.299  -4.091  1.00 20.00    -0.010 C 
ENDROOT
TORSDOF 0
ENDMDL
MODEL 4
REMARK VINA RESULT:      -4.1      1.566      3.013
REMARK  0 active torsions:
REMARK  status: ('A' for Active; 'I' for Inactive)
ROOT
HETATM    1  C1  UNL     1     -33.040  15.635  -5.435  1.00 20.00     0.005 C 
HETATM    2  C2  UNL     1     -34.606  14.210  -4.117  1.00 20.00     0.005 C 
HETATM    3  C3  UNL     1     -34.089  16.626  -5.979  1.00 20.00     0.005 C 
HETATM    4  C4  UNL     1     -35.899  14.976  -4.455  1.00 20.00     0.005 C 
HETATM    5  C5  UNL     1     -33.704  17.697  -3.810  1.00 20.00     0.010 C 
HETATM    6  C6  UNL     1     -35.148  16.383  -2.595  1.00 20.00     0.010 C 
HETATM    7  C7  UNL     1     -33.390  15.161  -4.006  1.00 20.00    -0.010 C 
HETATM    8  C8  UNL     1     -34.807  17.345  -4.823  1.00 20.00    -0.010 C 
HETATM    9  C9  UNL     1     -35.801  16.439  -3.985  1.00 20.00    -0.010 C 
HETATM   10  C10 UNL     1     -33.678  16.379  -3.029  1.00 20.00    -0.010 C 
ENDROOT
TORSDOF 0
ENDMDL
MODEL 5
REMARK VINA RESULT:      -4.1      1.365      3.320
REMARK  0 active torsions:
REMARK  status: ('A' for Active; 'I' for Inactive)
ROOT
HETATM    1  C1  UNL     1     -36.187  16.463  -3.522  1.00 20.00     0.005 C 
HETATM    2  C2  UNL     1     -35.664  14.478  -4.937  1.00 20.00     0.005 C 
HETATM    3  C3  UNL     1     -35.017  16.310  -2.530  1.00 20.00     0.005 C 
HETATM    4  C4  UNL     1     -34.413  14.013  -4.168  1.00 20.00     0.005 C 
HETATM    5  C5  UNL     1     -33.813  17.515  -4.291  1.00 20.00     0.010 C 
HETATM    6  C6  UNL     1     -33.331  15.684  -5.596  1.00 20.00     0.010 C 
HETATM    7  C7  UNL     1     -35.789  16.020  -4.949  1.00 20.00    -0.010 C 
HETATM    8  C8  UNL     1     -33.668  16.374  -3.269  1.00 20.00    -0.010 C 
HETATM    9  C9  UNL     1     -33.336  15.113  -4.169  1.00 20.00    -0.010 C 
HETATM   10  C10 UNL     1     -34.449  16.719  -5.436  1.00 20.00    -0.010 C 
ENDROOT
TORSDOF 0
ENDMDL
MODEL 6
REMARK VINA RESULT:      -4.1      1.497      3.308
REMARK  0 active torsions:
REMARK  status: ('A' for Active; 'I' for Inactive)
ROOT
HETATM    1  C1  UNL     1     -35.084  16.358  -2.524  1.00 20.00     0.005 C 
HETATM    2  C2  UNL     1     -33.596  17.777  -3.935  1.00 20.00     0.005 C 
HETATM    3  C3  UNL     1     -36.150  16.063  -3.598  1.00 20.00     0.005 C 
HETATM    4  C4  UNL     1     -34.428  17.705  -5.230  1.00 20.00     0.005 C 
HETATM    5  C5  UNL     1     -34.559  14.303  -4.207  1.00 20.00     0.010 C 
HETATM    6  C6  UNL     1     -33.186  15.612  -5.509  1.00 20.00     0.010 C 
HETATM    7  C7  UNL     1     -33.667  16.454  -3.136  1.00 20.00    -0.010 C 
HETATM    8  C8  UNL     1     -35.519  15.346  -4.805  1.00 20.00    -0.010 C 
HETATM    9  C9  UNL     1     -34.573  16.247  -5.701  1.00 20.00    -0.010 C 
HETATM   10  C10 UNL     1     -33.324  15.195  -4.041  1.00 20.00    -0.010 C 
ENDROOT
TORSDOF 0
ENDMDL
MODEL 7
REMARK VINA RESULT:      -4.1      0.767      2.894
REMARK  0 active torsions:
REMARK  status: ('A' for Active; 'I' for Inactive)
ROOT
HETATM    1  C1  UNL     1     -34.528  14.265  -4.088  1.00 20.00     0.005 C 
HETATM    2  C2  UNL     1     -35.581  13.520  -6.222  1.00 20.00     0.005 C 
HETATM    3  C3  UNL     1     -33.127  14.564  -4.655  1.00 20.00     0.005 C 
HETATM    4  C4  UNL     1     -34.345  13.701  -7.124  1.00 20.00     0.005 C 
HETATM    5  C5  UNL     1     -34.184  16.700  -5.221  1.00 20.00     0.010 C 
HETATM    6  C6  UNL     1     -35.155  16.013  -7.189  1.00 20.00     0.010 C 
HETATM    7  C7  UNL     1     -35.641  14.594  -5.110  1.00 20.00    -0.010 C 
HETATM    8  C8  UNL     1     -33.204  15.640  -5.753  1.00 20.00    -0.010 C 
HETATM    9  C9  UNL     1     -33.873  15.167  -7.109  1.00 20.00    -0.010 C 
HETATM   10  C10 UNL     1     -35.494  16.062  -5.696  1.00 20.00    -0.010 C 
ENDROOT
TORSDOF 0
ENDMDL
MODEL 8
REMARK VINA RESULT:      -4.0      0.815      2.652
REMARK  0 active torsions:
REMARK  status: ('A' for Active; 'I' for Inactive)
ROOT
HETATM    1  C1  UNL     1     -34.991  16.784  -6.091  1.00 20.00     0.005 C 
HETATM    2  C2  UNL     1     -34.483  14.424  -6.718  1.00 20.00     0.005 C 
HETATM    3  C3  UNL     1     -35.859  16.475  -4.854  1.00 20.00     0.005 C 
HETATM    4  C4  UNL     1     -35.270  13.745  -5.581  1.00 20.00     0.005 C 
HETATM    5  C5  UNL     1     -33.666  16.350  -3.769  1.00 20.00     0.010 C 
HETATM    6  C6  UNL     1     -33.197  14.174  -4.348  1.00 20.00     0.010 C 
HETATM    7  C7  UNL     1     -33.847  15.757  -6.257  1.00 20.00    -0.010 C 
HETATM    8  C8  UNL     1     -35.052  15.683  -3.809  1.00 20.00    -0.010 C 
HETATM    9  C9  UNL     1     -34.728  14.184  -4.208  1.00 20.00    -0.010 C 
HETATM   10  C10 UNL     1     -33.007  15.582  -4.920  1.00 20.00    -0.010 C 
ENDROOT
TORSDOF 0
ENDMDL
MODEL 9
REMARK VINA RESULT:      -4.0     11.614     12.894
REMARK  0 active torsions:
REMARK  status: ('A' for Active; 'I' for Inactive)
ROOT
HETATM    1  C1  UNL     1     -40.943   7.639  -0.261  1.00 20.00     0.005 C 
HETATM    2  C2  UNL     1     -40.880   5.181  -0.677  1.00 20.00     0.005 C 
HETATM    3  C3  UNL     1     -42.220   7.942  -1.070  1.00 20.00     0.005 C 
HETATM    4  C4  UNL     1     -42.146   5.099  -1.551  1.00 20.00     0.005 C 
HETATM    5  C5  UNL     1     -43.297   7.263   1.023  1.00 20.00     0.010 C 
HETATM    6  C6  UNL     1     -43.240   4.997   0.638  1.00 20.00     0.010 C 
HETATM    7  C7  UNL     1     -41.017   6.256   0.427  1.00 20.00    -0.010 C 
HETATM    8  C8  UNL     1     -43.417   7.156  -0.507  1.00 20.00    -0.010 C 
HETATM    9  C9  UNL     1     -43.377   5.594  -0.771  1.00 20.00    -0.010 C 
HETATM   10  C10 UNL     1     -42.355   6.080   1.264  1.00 20.00    -0.010 C 
ENDROOT
TORSDOF 0
ENDMDL
