MODEL 1
REMARK VINA RESULT:      -4.8      0.000      0.000
REMARK  1 active torsions:
REMARK  status: ('A' for Active; 'I' for Inactive)
REMARK    1  A    between atoms: C4_4  and  O11_11 
ROOT
HETATM    1  C1  UNL     1     -34.053   5.304   5.655  1.00 20.00    -0.021 C 
HETATM    2  C2  UNL     1     -34.242   4.258   4.833  1.00 20.00    -0.025 C 
HETATM    3  C3  UNL     1     -33.259   6.687   3.793  1.00 20.00    -0.043 C 
HETATM    4  C4  UNL     1     -32.345   7.655   3.693  1.00 20.00     0.045 C 
HETATM    5  C5  UNL     1     -33.451   5.521   2.829  1.00 20.00     0.046 C 
HETATM    6  C6  UNL     1     -35.473   6.023   3.981  1.00 20.00     0.022 C 
HETATM    7  C7  UNL     1     -34.335   6.556   4.857  1.00 20.00     0.040 C 
HETATM    8  C8  UNL     1     -34.664   4.817   3.487  1.00 20.00     0.013 C 
HETATM    9  C9  UNL     1     -32.210   8.774   4.677  1.00 20.00     0.076 C 
ENDROOT
BRANCH   4  10
HETATM   10  O11 UNL     1     -31.453   7.664   2.637  1.00 20.00    -0.360 OA
HETATM   11  C10 UNL     1     -31.808   8.589   1.640  1.00 20.00     0.209 C 
ENDBRANCH   4  10
TORSDOF 1
ENDMDL
MODEL 2
REMARK VINA RESULT:      -4.6     11.724     12.729
REMARK  1 active torsions:
REMARK  status: ('A' for Active; 'I' for Inactive)
REMARK    1  A    between atoms: C4_4  and  O11_11 
ROOT
HETATM    1  C1  UNL     1     -35.085  17.343  -4.609  1.00 20.00    -0.021 C 
HETATM    2  C2  UNL     1     -33.772  17.245  -4.339  1.00 20.00    -0.025 C 
HETATM    3  C3  UNL     1     -35.342  14.908  -4.479  1.00 20.00    -0.043 C 
HETATM    4  C4  UNL     1     -36.116  14.031  -5.124  1.00 20.00     0.045 C 
HETATM    5  C5  UNL     1     -33.855  14.754  -4.181  1.00 20.00     0.046 C 
HETATM    6  C6  UNL     1     -34.900  16.204  -2.607  1.00 20.00     0.022 C 
HETATM    7  C7  UNL     1     -35.779  16.226  -3.863  1.00 20.00     0.040 C 
HETATM    8  C8  UNL     1     -33.593  16.067  -3.401  1.00 20.00     0.013 C 
HETATM    9  C9  UNL     1     -37.574  14.245  -5.385  1.00 20.00     0.076 C 
ENDROOT
BRANCH   4  10
HETATM   10  O11 UNL     1     -35.582  12.846  -5.595  1.00 20.00    -0.360 OA
HETATM   11  C10 UNL     1     -35.268  12.903  -6.964  1.00 20.00     0.209 C 
ENDBRANCH   4  10
TORSDOF 1
ENDMDL
MODEL 3
REMARK VINA RESULT:      -4.5     11.498     12.333
REMARK  1 active torsions:
REMARK  status: ('A' for Active; 'I' for Inactive)
REMARK    1  A    between atoms: C4_4  and  O11_11 
ROOT
HETATM    1  C1  UNL     1     -34.063  16.974  -1.601  1.00 20.00    -0.021 C 
HETATM    2  C2  UNL     1     -35.343  17.255  -1.304  1.00 20.00    -0.025 C 
HETATM    3  C3  UNL     1     -34.755  15.659  -3.552  1.00 20.00    -0.043 C 
HETATM    4  C4  UNL     1     -34.270  14.562  -4.137  1.00 20.00     0.045 C 
HETATM    5  C5  UNL     1     -36.219  15.948  -3.242  1.00 20.00     0.046 C 
HETATM    6  C6  UNL     1     -34.979  17.967  -3.476  1.00 20.00     0.022 C 
HETATM    7  C7  UNL     1     -33.965  16.878  -3.106  1.00 20.00     0.040 C 
HETATM    8  C8  UNL     1     -36.096  17.360  -2.616  1.00 20.00     0.013 C 
HETATM    9  C9  UNL     1     -32.816  14.341  -4.412  1.00 20.00     0.076 C 
ENDROOT
BRANCH   4  10
HETATM   10  O11 UNL     1     -35.123  13.547  -4.528  1.00 20.00    -0.360 OA
HETATM   11  C10 UNL     1     -35.443  13.610  -5.895  1.00 20.00     0.209 C 
ENDBRANCH   4  10
TORSDOF 1
ENDMDL
MODEL 4
REMARK VINA RESULT:      -4.4     11.510     12.420
REMARK  1 active torsions:
REMARK  status: ('A' for Active; 'I' for Inactive)
REMARK    1  A    between atoms: C4_4  and  O11_11 
ROOT
HETATM    1  C1  UNL     1     -33.370  16.185  -5.469  1.00 20.00    -0.021 C 
HETATM    2  C2  UNL     1     -34.369  15.506  -6.058  1.00 20.00    -0.025 C 
HETATM    3  C3  UNL     1     -34.453  15.974  -3.279  1.00 20.00    -0.043 C 
HETATM    4  C4  UNL     1     -34.520  16.768  -2.208  1.00 20.00     0.045 C 
HETATM    5  C5  UNL     1     -35.610  15.209  -3.912  1.00 20.00     0.046 C 
HETATM    6  C6  UNL     1     -33.528  14.154  -4.379  1.00 20.00     0.022 C 
HETATM    7  C7  UNL     1     -33.208  15.621  -4.076  1.00 20.00     0.040 C 
HETATM    8  C8  UNL     1     -34.865  14.479  -5.058  1.00 20.00     0.013 C 
HETATM    9  C9  UNL     1     -33.342  17.492  -1.637  1.00 20.00     0.076 C 
ENDROOT
BRANCH   4  10
HETATM   10  O11 UNL     1     -35.724  16.961  -1.558  1.00 20.00    -0.360 OA
HETATM   11  C10 UNL     1     -35.559  17.446  -0.249  1.00 20.00     0.209 C 
ENDBRANCH   4  10
TORSDOF 1
ENDMDL
MODEL 5
REMARK VINA RESULT:      -4.3     11.743     12.647
REMARK  1 active torsions:
REMARK  status: ('A' for Active; 'I' for Inactive)
REMARK    1  A    between atoms: C4_4  and  O11_11 
ROOT
HETATM    1  C1  UNL     1     -35.930  18.546  -2.225  1.00 20.00    -0.021 C 
HETATM    2  C2  UNL     1     -34.922  19.172  -1.594  1.00 20.00    -0.025 C 
HETATM    3  C3  UNL     1     -34.538  16.558  -2.577  1.00 20.00    -0.043 C 
HETATM    4  C4  UNL     1     -34.459  15.656  -3.558  1.00 20.00     0.045 C 
HETATM    5  C5  UNL     1     -33.368  17.238  -1.876  1.00 20.00     0.046 C 
HETATM    6  C6  UNL     1     -35.291  17.181  -0.474  1.00 20.00     0.022 C 
HETATM    7  C7  UNL     1     -35.805  17.072  -1.914  1.00 20.00     0.040 C 
HETATM    8  C8  UNL     1     -34.131  18.113  -0.850  1.00 20.00     0.013 C 
HETATM    9  C9  UNL     1     -35.651  15.025  -4.205  1.00 20.00     0.076 C 
ENDROOT
BRANCH   4  10
HETATM   10  O11 UNL     1     -33.225  15.251  -4.033  1.00 20.00    -0.360 OA
HETATM   11  C10 UNL     1     -33.013  15.629  -5.370  1.00 20.00     0.209 C 
ENDBRANCH   4  10
TORSDOF 1
ENDMDL
MODEL 6
REMARK VINA RESULT:      -4.1      1.702      4.637
REMARK  1 active torsions:
REMARK  status: ('A' for Active; 'I' for Inactive)
REMARK    1  A    between atoms: C4_4  and  O11_11 
ROOT
HETATM    1  C1  UNL     1     -32.573  10.350   1.822  1.00 20.00    -0.021 C 
HETATM    2  C2  UNL     1     -32.913  10.212   0.529  1.00 20.00    -0.025 C 
HETATM    3  C3  UNL     1     -32.929   7.957   2.221  1.00 20.00    -0.043 C 
HETATM    4  C4  UNL     1     -33.376   7.258   3.267  1.00 20.00     0.045 C 
HETATM    5  C5  UNL     1     -33.330   7.762   0.764  1.00 20.00     0.046 C 
HETATM    6  C6  UNL     1     -31.169   8.745   0.932  1.00 20.00     0.022 C 
HETATM    7  C7  UNL     1     -31.892   9.068   2.244  1.00 20.00     0.040 C 
HETATM    8  C8  UNL     1     -32.446   8.838   0.087  1.00 20.00     0.013 C 
HETATM    9  C9  UNL     1     -32.939   7.503   4.677  1.00 20.00     0.076 C 
ENDROOT
BRANCH   4  10
HETATM   10  O11 UNL     1     -34.293   6.241   3.084  1.00 20.00    -0.360 OA
HETATM   11  C10 UNL     1     -34.803   5.750   4.298  1.00 20.00     0.209 C 
ENDBRANCH   4  10
TORSDOF 1
ENDMDL
MODEL 7
REMARK VINA RESULT:      -4.1     11.453     12.574
REMARK  1 active torsions:
REMARK  status: ('A' for Active; 'I' for Inactive)
REMARK    1  A    between atoms: C4_4  and  O11_11 
ROOT
HETATM    1  C1  UNL     1     -34.620  14.210  -4.102  1.00 20.00    -0.021 C 
HETATM    2  C2  UNL     1     -33.924  14.318  -5.246  1.00 20.00    -0.025 C 
HETATM    3  C3  UNL     1     -34.161  16.554  -3.546  1.00 20.00    -0.043 C 
HETATM    4  C4  UNL     1     -33.956  17.201  -2.396  1.00 20.00     0.045 C 
HETATM    5  C5  UNL     1     -33.355  16.713  -4.830  1.00 20.00     0.046 C 
HETATM    6  C6  UNL     1     -35.563  15.951  -5.292  1.00 20.00     0.022 C 
HETATM    7  C7  UNL     1     -35.264  15.553  -3.843  1.00 20.00     0.040 C 
HETATM    8  C8  UNL     1     -34.117  15.733  -5.757  1.00 20.00     0.013 C 
HETATM    9  C9  UNL     1     -34.787  16.996  -1.169  1.00 20.00     0.076 C 
ENDROOT
BRANCH   4  10
HETATM   10  O11 UNL     1     -32.930  18.121  -2.289  1.00 20.00    -0.360 OA
HETATM   11  C10 UNL     1     -32.595  18.401  -0.953  1.00 20.00     0.209 C 
ENDBRANCH   4  10
TORSDOF 1
ENDMDL
MODEL 8
REMARK VINA RESULT:      -4.1     11.861     12.759
REMARK  1 active torsions:
REMARK  status: ('A' for Active; 'I' for Inactive)
REMARK    1  A    between atoms: C4_4  and  O11_11 
ROOT
HETATM    1  C1  UNL     1     -34.182  18.681  -3.062  1.00 20.00    -0.021 C 
HETATM    2  C2  UNL     1     -35.323  18.008  -3.291  1.00 20.00    -0.025 C 
HETATM    3  C3  UNL     1     -34.085  17.828  -0.764  1.00 20.00    -0.043 C 
HETATM    4  C4  UNL     1     -33.655  18.346   0.388  1.00 20.00     0.045 C 
HETATM    5  C5  UNL     1     -35.382  17.059  -0.982  1.00 20.00     0.046 C 
HETATM    6  C6  UNL     1     -33.747  16.458  -2.605  1.00 20.00     0.022 C 
HETATM    7  C7  UNL     1     -33.361  17.853  -2.100  1.00 20.00     0.040 C 
HETATM    8  C8  UNL     1     -35.254  16.722  -2.489  1.00 20.00     0.013 C 
HETATM    9  C9  UNL     1     -32.366  19.093   0.534  1.00 20.00     0.076 C 
ENDROOT
BRANCH   4  10
HETATM   10  O11 UNL     1     -34.409  18.206   1.539  1.00 20.00    -0.360 OA
HETATM   11  C10 UNL     1     -33.651  18.404   2.706  1.00 20.00     0.209 C 
ENDBRANCH   4  10
TORSDOF 1
ENDMDL
MODEL 9
REMARK VINA RESULT:      -4.1     11.656     13.045
REMARK  1 active torsions:
REMARK  status: ('A' for Active; 'I' for Inactive)
REMARK    1  A    between atoms: C4_4  and  O11_11 
ROOT
HETATM    1  C1  UNL     1     -33.794  16.766  -5.424  1.00 20.00    -0.021 C 
HETATM    2  C2  UNL     1     -33.030  15.660  -5.432  1.00 20.00    -0.025 C 
HETATM    3  C3  UNL     1     -35.615  15.558  -4.312  1.00 20.00    -0.043 C 
HETATM    4  C4  UNL     1     -36.946  15.637  -4.383  1.00 20.00     0.045 C 
HETATM    5  C5  UNL     1     -34.784  14.281  -4.311  1.00 20.00     0.046 C 
HETATM    6  C6  UNL     1     -33.625  16.059  -3.231  1.00 20.00     0.022 C 
HETATM    7  C7  UNL     1     -34.640  16.715  -4.173  1.00 20.00     0.040 C 
HETATM    8  C8  UNL     1     -33.361  14.878  -4.175  1.00 20.00     0.013 C 
HETATM    9  C9  UNL     1     -37.702  16.928  -4.380  1.00 20.00     0.076 C 
ENDROOT
BRANCH   4  10
HETATM   10  O11 UNL     1     -37.708  14.487  -4.464  1.00 20.00    -0.360 OA
HETATM   11  C10 UNL     1     -38.882  14.670  -5.217  1.00 20.00     0.209 C 
ENDBRANCH   4  10
TORSDOF 1
ENDMDL
