MODEL 1
REMARK VINA RESULT:      -4.6      0.000      0.000
REMARK  0 active torsions:
REMARK  status: ('A' for Active; 'I' for Inactive)
ROOT
HETATM    1  C1  UNL     1     -32.676   7.371   3.994  1.00 20.00     0.043 C 
HETATM    2  C2  UNL     1     -34.764   5.054   4.705  1.00 20.00     0.019 C 
HETATM    3  C3  UNL     1     -34.245   5.597   5.814  1.00 20.00     0.114 C 
HETATM    4  C4  UNL     1     -33.041   6.671   2.909  1.00 20.00     0.136 C 
HETATM    5  C5  UNL     1     -33.438   7.671   5.238  1.00 20.00     0.118 C 
HETATM    6  C6  UNL     1     -35.212   5.875   3.539  1.00 20.00     0.203 C 
HETATM    7  N7  UNL     1     -34.110   6.934   6.061  1.00 20.00    -0.273 NA
HETATM    8  O8  UNL     1     -34.166   5.973   2.580  1.00 20.00    -0.359 OA
ENDROOT
TORSDOF 0
ENDMDL
MODEL 2
REMARK VINA RESULT:      -4.5      1.597      2.282
REMARK  0 active torsions:
REMARK  status: ('A' for Active; 'I' for Inactive)
ROOT
HETATM    1  C1  UNL     1     -33.931   6.599   5.657  1.00 20.00     0.043 C 
HETATM    2  C2  UNL     1     -33.316   5.024   2.942  1.00 20.00     0.019 C 
HETATM    3  C3  UNL     1     -33.724   4.189   3.906  1.00 20.00     0.114 C 
HETATM    4  C4  UNL     1     -33.318   7.377   4.752  1.00 20.00     0.136 C 
HETATM    5  C5  UNL     1     -34.857   5.449   5.459  1.00 20.00     0.118 C 
HETATM    6  C6  UNL     1     -33.971   6.344   2.689  1.00 20.00     0.203 C 
HETATM    7  N7  UNL     1     -34.796   4.383   4.730  1.00 20.00    -0.273 NA
HETATM    8  O8  UNL     1     -33.279   7.373   3.389  1.00 20.00    -0.359 OA
ENDROOT
TORSDOF 0
ENDMDL
MODEL 3
REMARK VINA RESULT:      -4.5      1.465      2.534
REMARK  0 active torsions:
REMARK  status: ('A' for Active; 'I' for Inactive)
ROOT
HETATM    1  C1  UNL     1     -34.456   6.131   5.828  1.00 20.00     0.043 C 
HETATM    2  C2  UNL     1     -33.790   5.998   2.702  1.00 20.00     0.019 C 
HETATM    3  C3  UNL     1     -33.634   7.240   3.180  1.00 20.00     0.114 C 
HETATM    4  C4  UNL     1     -34.813   4.956   5.287  1.00 20.00     0.136 C 
HETATM    5  C5  UNL     1     -33.354   7.061   5.454  1.00 20.00     0.118 C 
HETATM    6  C6  UNL     1     -33.304   4.788   3.432  1.00 20.00     0.203 C 
HETATM    7  N7  UNL     1     -32.979   7.577   4.330  1.00 20.00    -0.273 NA
HETATM    8  O8  UNL     1     -34.353   4.239   4.221  1.00 20.00    -0.359 OA
ENDROOT
TORSDOF 0
ENDMDL
MODEL 4
REMARK VINA RESULT:      -4.3      1.860      2.581
REMARK  0 active torsions:
REMARK  status: ('A' for Active; 'I' for Inactive)
ROOT
HETATM    1  C1  UNL     1     -33.062   7.731   4.843  1.00 20.00     0.043 C 
HETATM    2  C2  UNL     1     -35.267   5.564   4.021  1.00 20.00     0.019 C 
HETATM    3  C3  UNL     1     -34.730   6.145   2.940  1.00 20.00     0.114 C 
HETATM    4  C4  UNL     1     -33.762   7.299   5.903  1.00 20.00     0.136 C 
HETATM    5  C5  UNL     1     -32.706   7.027   3.580  1.00 20.00     0.118 C 
HETATM    6  C6  UNL     1     -34.445   5.115   5.186  1.00 20.00     0.203 C 
HETATM    7  N7  UNL     1     -33.397   6.349   2.722  1.00 20.00    -0.273 NA
HETATM    8  O8  UNL     1     -34.412   6.132   6.182  1.00 20.00    -0.359 OA
ENDROOT
TORSDOF 0
ENDMDL
MODEL 5
REMARK VINA RESULT:      -4.3      1.422      1.914
REMARK  0 active torsions:
REMARK  status: ('A' for Active; 'I' for Inactive)
ROOT
HETATM    1  C1  UNL     1     -32.944   5.739   2.860  1.00 20.00     0.043 C 
HETATM    2  C2  UNL     1     -34.315   5.795   5.749  1.00 20.00     0.019 C 
HETATM    3  C3  UNL     1     -33.730   6.966   5.466  1.00 20.00     0.114 C 
HETATM    4  C4  UNL     1     -33.342   4.520   3.252  1.00 20.00     0.136 C 
HETATM    5  C5  UNL     1     -33.510   7.079   3.181  1.00 20.00     0.118 C 
HETATM    6  C6  UNL     1     -35.137   5.044   4.752  1.00 20.00     0.203 C 
HETATM    7  N7  UNL     1     -33.844   7.653   4.291  1.00 20.00    -0.273 NA
HETATM    8  O8  UNL     1     -34.331   4.080   4.082  1.00 20.00    -0.359 OA
ENDROOT
TORSDOF 0
ENDMDL
MODEL 6
REMARK VINA RESULT:      -4.2      1.829      2.458
REMARK  0 active torsions:
REMARK  status: ('A' for Active; 'I' for Inactive)
ROOT
HETATM    1  C1  UNL     1     -33.416   6.276   2.738  1.00 20.00     0.043 C 
HETATM    2  C2  UNL     1     -34.797   5.787   5.582  1.00 20.00     0.019 C 
HETATM    3  C3  UNL     1     -34.943   4.723   4.782  1.00 20.00     0.114 C 
HETATM    4  C4  UNL     1     -33.473   7.399   3.470  1.00 20.00     0.136 C 
HETATM    5  C5  UNL     1     -33.306   4.855   3.173  1.00 20.00     0.118 C 
HETATM    6  C6  UNL     1     -33.506   6.532   5.704  1.00 20.00     0.203 C 
HETATM    7  N7  UNL     1     -33.956   4.144   4.035  1.00 20.00    -0.273 NA
HETATM    8  O8  UNL     1     -33.496   7.641   4.812  1.00 20.00    -0.359 OA
ENDROOT
TORSDOF 0
ENDMDL
MODEL 7
REMARK VINA RESULT:      -4.0      1.796      2.960
REMARK  0 active torsions:
REMARK  status: ('A' for Active; 'I' for Inactive)
ROOT
HETATM    1  C1  UNL     1     -34.294   6.297   5.629  1.00 20.00     0.043 C 
HETATM    2  C2  UNL     1     -32.583   6.440   2.930  1.00 20.00     0.019 C 
HETATM    3  C3  UNL     1     -33.388   5.370   2.939  1.00 20.00     0.114 C 
HETATM    4  C4  UNL     1     -33.331   7.230   5.692  1.00 20.00     0.136 C 
HETATM    5  C5  UNL     1     -35.061   5.792   4.457  1.00 20.00     0.118 C 
HETATM    6  C6  UNL     1     -33.036   7.792   3.380  1.00 20.00     0.203 C 
HETATM    7  N7  UNL     1     -34.708   5.365   3.288  1.00 20.00    -0.273 NA
HETATM    8  O8  UNL     1     -32.701   7.988   4.750  1.00 20.00    -0.359 OA
ENDROOT
TORSDOF 0
ENDMDL
MODEL 8
REMARK VINA RESULT:      -3.9     12.200     13.119
REMARK  0 active torsions:
REMARK  status: ('A' for Active; 'I' for Inactive)
ROOT
HETATM    1  C1  UNL     1     -34.144  14.799  -7.361  1.00 20.00     0.043 C 
HETATM    2  C2  UNL     1     -34.806  14.354  -4.263  1.00 20.00     0.019 C 
HETATM    3  C3  UNL     1     -35.639  13.654  -5.043  1.00 20.00     0.114 C 
HETATM    4  C4  UNL     1     -33.470  15.652  -6.575  1.00 20.00     0.136 C 
HETATM    5  C5  UNL     1     -34.614  13.412  -7.086  1.00 20.00     0.118 C 
HETATM    6  C6  UNL     1     -33.334  14.427  -4.518  1.00 20.00     0.203 C 
HETATM    7  N7  UNL     1     -35.277  12.882  -6.110  1.00 20.00    -0.273 NA
HETATM    8  O8  UNL     1     -33.029  15.586  -5.286  1.00 20.00    -0.359 OA
ENDROOT
TORSDOF 0
ENDMDL
MODEL 9
REMARK VINA RESULT:      -3.8     12.172     13.140
REMARK  0 active torsions:
REMARK  status: ('A' for Active; 'I' for Inactive)
ROOT
HETATM    1  C1  UNL     1     -34.294  14.003  -7.533  1.00 20.00     0.043 C 
HETATM    2  C2  UNL     1     -34.092  14.170  -4.345  1.00 20.00     0.019 C 
HETATM    3  C3  UNL     1     -33.248  15.029  -4.931  1.00 20.00     0.114 C 
HETATM    4  C4  UNL     1     -34.965  13.008  -6.933  1.00 20.00     0.136 C 
HETATM    5  C5  UNL     1     -34.022  15.391  -7.065  1.00 20.00     0.118 C 
HETATM    6  C6  UNL     1     -35.500  13.982  -4.809  1.00 20.00     0.203 C 
HETATM    7  N7  UNL     1     -33.554  15.873  -5.961  1.00 20.00    -0.273 NA
HETATM    8  O8  UNL     1     -35.573  12.889  -5.718  1.00 20.00    -0.359 OA
ENDROOT
TORSDOF 0
ENDMDL
