MODEL 1
REMARK VINA RESULT:      -5.0      0.000      0.000
REMARK  1 active torsions:
REMARK  status: ('A' for Active; 'I' for Inactive)
REMARK    1  A    between atoms: C1_1  and  C5_5 
ROOT
HETATM    1  C3  UNL     1     -32.989   7.867   4.964  1.00 20.00     0.207 C 
HETATM    2  C4  UNL     1     -34.036   5.916   5.741  1.00 20.00     0.208 C 
HETATM    3  C5  UNL     1     -33.241   7.480   3.505  1.00 20.00     0.267 C 
HETATM    4  C6  UNL     1     -34.339   5.433   4.311  1.00 20.00     0.172 C 
HETATM    5  C8  UNL     1     -34.172   3.907   4.246  1.00 20.00     0.051 C 
HETATM    6  C9  UNL     1     -35.782   5.789   3.909  1.00 20.00     0.051 C 
HETATM    7  N10 UNL     1     -33.367   6.023   3.373  1.00 20.00     0.104 N 
HETATM    8  O11 UNL     1     -34.018   7.343   5.804  1.00 20.00    -0.386 OA
HETATM    9  H28 UNL     1     -33.629   5.785   2.416  1.00 20.00     0.318 HD
ENDROOT
BRANCH   3  10
HETATM   10  C1  UNL     1     -32.135   7.986   2.633  1.00 20.00     0.006 C 
HETATM   11  C2  UNL     1     -32.329   8.533   1.425  1.00 20.00    -0.033 C 
HETATM   12  C7  UNL     1     -31.225   9.040   0.556  1.00 20.00     0.036 C 
ENDBRANCH   3  10
TORSDOF 1
ENDMDL
MODEL 2
REMARK VINA RESULT:      -4.5     11.229     12.389
REMARK  1 active torsions:
REMARK  status: ('A' for Active; 'I' for Inactive)
REMARK    1  A    between atoms: C1_1  and  C5_5 
ROOT
HETATM    1  C3  UNL     1     -34.658  13.907  -4.285  1.00 20.00     0.207 C 
HETATM    2  C4  UNL     1     -35.964  13.593  -6.209  1.00 20.00     0.208 C 
HETATM    3  C5  UNL     1     -35.425  15.178  -3.913  1.00 20.00     0.267 C 
HETATM    4  C6  UNL     1     -36.797  14.856  -5.928  1.00 20.00     0.172 C 
HETATM    5  C8  UNL     1     -37.116  15.559  -7.256  1.00 20.00     0.051 C 
HETATM    6  C9  UNL     1     -38.121  14.493  -5.231  1.00 20.00     0.051 C 
HETATM    7  N10 UNL     1     -36.010  15.796  -5.110  1.00 20.00     0.104 N 
HETATM    8  O11 UNL     1     -35.507  13.002  -4.992  1.00 20.00    -0.386 OA
HETATM    9  H28 UNL     1     -36.596  16.586  -4.838  1.00 20.00     0.318 HD
ENDROOT
BRANCH   3  10
HETATM   10  C1  UNL     1     -34.522  16.147  -3.217  1.00 20.00     0.006 C 
HETATM   11  C2  UNL     1     -34.743  16.620  -1.983  1.00 20.00    -0.033 C 
HETATM   12  C7  UNL     1     -33.840  17.586  -1.289  1.00 20.00     0.036 C 
ENDBRANCH   3  10
TORSDOF 1
ENDMDL
MODEL 3
REMARK VINA RESULT:      -4.4     11.547     12.402
REMARK  1 active torsions:
REMARK  status: ('A' for Active; 'I' for Inactive)
REMARK    1  A    between atoms: C1_1  and  C5_5 
ROOT
HETATM    1  C3  UNL     1     -33.691  17.895  -3.737  1.00 20.00     0.207 C 
HETATM    2  C4  UNL     1     -34.284  16.359  -5.409  1.00 20.00     0.208 C 
HETATM    3  C5  UNL     1     -33.704  16.805  -2.663  1.00 20.00     0.267 C 
HETATM    4  C6  UNL     1     -34.326  15.190  -4.410  1.00 20.00     0.172 C 
HETATM    5  C8  UNL     1     -35.482  14.248  -4.780  1.00 20.00     0.051 C 
HETATM    6  C9  UNL     1     -33.009  14.393  -4.446  1.00 20.00     0.051 C 
HETATM    7  N10 UNL     1     -34.596  15.706  -3.055  1.00 20.00     0.104 N 
HETATM    8  O11 UNL     1     -33.331  17.342  -5.004  1.00 20.00    -0.386 OA
HETATM    9  H28 UNL     1     -34.522  14.945  -2.379  1.00 20.00     0.318 HD
ENDROOT
BRANCH   3  10
HETATM   10  C1  UNL     1     -34.131  17.374  -1.347  1.00 20.00     0.006 C 
HETATM   11  C2  UNL     1     -35.304  17.101  -0.760  1.00 20.00    -0.033 C 
HETATM   12  C7  UNL     1     -35.729  17.668   0.554  1.00 20.00     0.036 C 
ENDBRANCH   3  10
TORSDOF 1
ENDMDL
MODEL 4
REMARK VINA RESULT:      -4.4     11.588     12.429
REMARK  1 active torsions:
REMARK  status: ('A' for Active; 'I' for Inactive)
REMARK    1  A    between atoms: C1_1  and  C5_5 
ROOT
HETATM    1  C3  UNL     1     -33.411  14.711  -4.303  1.00 20.00     0.207 C 
HETATM    2  C4  UNL     1     -34.626  14.413  -6.288  1.00 20.00     0.208 C 
HETATM    3  C5  UNL     1     -34.582  15.438  -3.638  1.00 20.00     0.267 C 
HETATM    4  C6  UNL     1     -35.861  15.130  -5.715  1.00 20.00     0.172 C 
HETATM    5  C8  UNL     1     -36.521  15.966  -6.822  1.00 20.00     0.051 C 
HETATM    6  C9  UNL     1     -36.887  14.110  -5.187  1.00 20.00     0.051 C 
HETATM    7  N10 UNL     1     -35.444  16.060  -4.651  1.00 20.00     0.104 N 
HETATM    8  O11 UNL     1     -33.890  13.759  -5.253  1.00 20.00    -0.386 OA
HETATM    9  H28 UNL     1     -36.270  16.458  -4.202  1.00 20.00     0.318 HD
ENDROOT
BRANCH   3  10
HETATM   10  C1  UNL     1     -34.078  16.470  -2.679  1.00 20.00     0.006 C 
HETATM   11  C2  UNL     1     -34.737  16.850  -1.576  1.00 20.00    -0.033 C 
HETATM   12  C7  UNL     1     -34.233  17.879  -0.619  1.00 20.00     0.036 C 
ENDBRANCH   3  10
TORSDOF 1
ENDMDL
MODEL 5
REMARK VINA RESULT:      -4.3     11.281     12.799
REMARK  1 active torsions:
REMARK  status: ('A' for Active; 'I' for Inactive)
REMARK    1  A    between atoms: C1_1  and  C5_5 
ROOT
HETATM    1  C3  UNL     1     -34.649  14.005  -4.171  1.00 20.00     0.207 C 
HETATM    2  C4  UNL     1     -34.608  13.821  -6.510  1.00 20.00     0.208 C 
HETATM    3  C5  UNL     1     -34.999  15.493  -4.246  1.00 20.00     0.267 C 
HETATM    4  C6  UNL     1     -34.958  15.308  -6.697  1.00 20.00     0.172 C 
HETATM    5  C8  UNL     1     -34.185  15.863  -7.904  1.00 20.00     0.051 C 
HETATM    6  C9  UNL     1     -36.466  15.486  -6.953  1.00 20.00     0.051 C 
HETATM    7  N10 UNL     1     -34.529  16.071  -5.511  1.00 20.00     0.104 N 
HETATM    8  O11 UNL     1     -35.176  13.312  -5.303  1.00 20.00    -0.386 OA
HETATM    9  H28 UNL     1     -34.852  17.036  -5.590  1.00 20.00     0.318 HD
ENDROOT
BRANCH   3  10
HETATM   10  C1  UNL     1     -34.404  16.228  -3.087  1.00 20.00     0.006 C 
HETATM   11  C2  UNL     1     -35.110  16.655  -2.031  1.00 20.00    -0.033 C 
HETATM   12  C7  UNL     1     -34.515  17.387  -0.873  1.00 20.00     0.036 C 
ENDBRANCH   3  10
TORSDOF 1
ENDMDL
MODEL 6
REMARK VINA RESULT:      -4.2     11.553     12.486
REMARK  1 active torsions:
REMARK  status: ('A' for Active; 'I' for Inactive)
REMARK    1  A    between atoms: C1_1  and  C5_5 
ROOT
HETATM    1  C3  UNL     1     -33.527  17.047  -4.638  1.00 20.00     0.207 C 
HETATM    2  C4  UNL     1     -35.309  16.045  -5.790  1.00 20.00     0.208 C 
HETATM    3  C5  UNL     1     -33.871  16.294  -3.350  1.00 20.00     0.267 C 
HETATM    4  C6  UNL     1     -35.740  15.240  -4.551  1.00 20.00     0.172 C 
HETATM    5  C8  UNL     1     -37.274  15.167  -4.503  1.00 20.00     0.051 C 
HETATM    6  C9  UNL     1     -35.179  13.807  -4.609  1.00 20.00     0.051 C 
HETATM    7  N10 UNL     1     -35.294  15.934  -3.329  1.00 20.00     0.104 N 
HETATM    8  O11 UNL     1     -33.899  16.277  -5.781  1.00 20.00    -0.386 OA
HETATM    9  H28 UNL     1     -35.490  15.351  -2.515  1.00 20.00     0.318 HD
ENDROOT
BRANCH   3  10
HETATM   10  C1  UNL     1     -33.527  17.122  -2.153  1.00 20.00     0.006 C 
HETATM   11  C2  UNL     1     -34.367  17.346  -1.134  1.00 20.00    -0.033 C 
HETATM   12  C7  UNL     1     -34.023  18.172   0.062  1.00 20.00     0.036 C 
ENDBRANCH   3  10
TORSDOF 1
ENDMDL
MODEL 7
REMARK VINA RESULT:      -4.1     11.961     13.037
REMARK  1 active torsions:
REMARK  status: ('A' for Active; 'I' for Inactive)
REMARK    1  A    between atoms: C1_1  and  C5_5 
ROOT
HETATM    1  C3  UNL     1     -33.294  16.190  -4.712  1.00 20.00     0.207 C 
HETATM    2  C4  UNL     1     -33.859  15.901  -6.971  1.00 20.00     0.208 C 
HETATM    3  C5  UNL     1     -34.545  15.437  -4.252  1.00 20.00     0.267 C 
HETATM    4  C6  UNL     1     -35.144  15.132  -6.617  1.00 20.00     0.172 C 
HETATM    5  C8  UNL     1     -36.254  15.517  -7.607  1.00 20.00     0.051 C 
HETATM    6  C9  UNL     1     -34.911  13.612  -6.704  1.00 20.00     0.051 C 
HETATM    7  N10 UNL     1     -35.599  15.521  -5.271  1.00 20.00     0.104 N 
HETATM    8  O11 UNL     1     -32.853  15.698  -5.977  1.00 20.00    -0.386 OA
HETATM    9  H28 UNL     1     -36.390  14.938  -4.996  1.00 20.00     0.318 HD
ENDROOT
BRANCH   3  10
HETATM   10  C1  UNL     1     -35.036  15.988  -2.951  1.00 20.00     0.006 C 
HETATM   11  C2  UNL     1     -34.307  16.780  -2.152  1.00 20.00    -0.033 C 
HETATM   12  C7  UNL     1     -34.798  17.331  -0.854  1.00 20.00     0.036 C 
ENDBRANCH   3  10
TORSDOF 1
ENDMDL
MODEL 8
REMARK VINA RESULT:      -4.1     11.281     12.266
REMARK  1 active torsions:
REMARK  status: ('A' for Active; 'I' for Inactive)
REMARK    1  A    between atoms: C1_1  and  C5_5 
ROOT
HETATM    1  C3  UNL     1     -36.548  15.557  -4.087  1.00 20.00     0.207 C 
HETATM    2  C4  UNL     1     -34.945  14.202  -5.137  1.00 20.00     0.208 C 
HETATM    3  C5  UNL     1     -35.466  16.469  -3.504  1.00 20.00     0.267 C 
HETATM    4  C6  UNL     1     -33.781  15.053  -4.601  1.00 20.00     0.172 C 
HETATM    5  C8  UNL     1     -32.605  14.133  -4.239  1.00 20.00     0.051 C 
HETATM    6  C9  UNL     1     -33.309  16.064  -5.663  1.00 20.00     0.051 C 
HETATM    7  N10 UNL     1     -34.198  15.741  -3.365  1.00 20.00     0.104 N 
HETATM    8  O11 UNL     1     -36.115  15.000  -5.328  1.00 20.00    -0.386 OA
HETATM    9  H28 UNL     1     -33.463  16.384  -3.067  1.00 20.00     0.318 HD
ENDROOT
BRANCH   3  10
HETATM   10  C1  UNL     1     -35.900  17.012  -2.179  1.00 20.00     0.006 C 
HETATM   11  C2  UNL     1     -35.126  17.019  -1.085  1.00 20.00    -0.033 C 
HETATM   12  C7  UNL     1     -35.559  17.563   0.237  1.00 20.00     0.036 C 
ENDBRANCH   3  10
TORSDOF 1
ENDMDL
MODEL 9
REMARK VINA RESULT:      -4.0     11.580     12.324
REMARK  1 active torsions:
REMARK  status: ('A' for Active; 'I' for Inactive)
REMARK    1  A    between atoms: C1_1  and  C5_5 
ROOT
HETATM    1  C3  UNL     1     -35.767  16.955  -2.215  1.00 20.00     0.207 C 
HETATM    2  C4  UNL     1     -35.552  15.400  -3.959  1.00 20.00     0.208 C 
HETATM    3  C5  UNL     1     -34.302  17.381  -2.349  1.00 20.00     0.267 C 
HETATM    4  C6  UNL     1     -34.070  15.752  -4.176  1.00 20.00     0.172 C 
HETATM    5  C8  UNL     1     -33.289  14.474  -4.517  1.00 20.00     0.051 C 
HETATM    6  C9  UNL     1     -33.911  16.752  -5.337  1.00 20.00     0.051 C 
HETATM    7  N10 UNL     1     -33.502  16.295  -2.929  1.00 20.00     0.104 N 
HETATM    8  O11 UNL     1     -36.279  16.531  -3.478  1.00 20.00    -0.386 OA
HETATM    9  H28 UNL     1     -32.551  16.624  -3.102  1.00 20.00     0.318 HD
ENDROOT
BRANCH   3  10
HETATM   10  C1  UNL     1     -33.751  17.777  -1.016  1.00 20.00     0.006 C 
HETATM   11  C2  UNL     1     -32.589  18.423  -0.851  1.00 20.00    -0.033 C 
HETATM   12  C7  UNL     1     -32.039  18.820   0.480  1.00 20.00     0.036 C 
ENDBRANCH   3  10
TORSDOF 1
ENDMDL
