MODEL 1
REMARK VINA RESULT:      -4.1      0.000      0.000
REMARK  0 active torsions:
REMARK  status: ('A' for Active; 'I' for Inactive)
ROOT
HETATM    1  C1  UNL     1     -33.383  18.170  -2.997  1.00 20.00     0.141 C 
HETATM    2  C2  UNL     1     -33.126  17.609  -1.619  1.00 20.00     0.079 C 
HETATM    3  C3  UNL     1     -34.433  17.444  -0.858  1.00 20.00     0.008 C 
HETATM    4  C4  UNL     1     -35.601  16.941  -1.713  1.00 20.00     0.017 C 
HETATM    5  C5  UNL     1     -34.582  15.393  -5.803  1.00 20.00     0.085 C 
HETATM    6  C6  UNL     1     -36.045  15.777  -5.669  1.00 20.00     0.084 C 
HETATM    7  C7  UNL     1     -34.386  17.425  -3.869  1.00 20.00     0.130 C 
HETATM    8  C8  UNL     1     -35.149  16.367  -3.062  1.00 20.00     0.068 C 
HETATM    9  O9  UNL     1     -32.771  19.157  -3.405  1.00 20.00    -0.297 OA
HETATM   10  S10 UNL     1     -33.439  16.700  -5.256  1.00 20.00    -0.155 SA
HETATM   11  S11 UNL     1     -36.642  15.770  -3.949  1.00 20.00    -0.162 SA
ENDROOT
TORSDOF 0
ENDMDL
MODEL 2
REMARK VINA RESULT:      -4.1      2.859      4.616
REMARK  0 active torsions:
REMARK  status: ('A' for Active; 'I' for Inactive)
ROOT
HETATM    1  C1  UNL     1     -36.166  13.782  -5.251  1.00 20.00     0.141 C 
HETATM    2  C2  UNL     1     -37.083  14.353  -6.305  1.00 20.00     0.079 C 
HETATM    3  C3  UNL     1     -38.267  15.056  -5.657  1.00 20.00     0.008 C 
HETATM    4  C4  UNL     1     -37.913  15.855  -4.398  1.00 20.00     0.017 C 
HETATM    5  C5  UNL     1     -33.545  16.496  -3.582  1.00 20.00     0.085 C 
HETATM    6  C6  UNL     1     -34.405  16.681  -2.345  1.00 20.00     0.084 C 
HETATM    7  C7  UNL     1     -35.659  14.743  -4.182  1.00 20.00     0.130 C 
HETATM    8  C8  UNL     1     -36.404  16.083  -4.241  1.00 20.00     0.068 C 
HETATM    9  O9  UNL     1     -35.811  12.604  -5.289  1.00 20.00    -0.297 OA
HETATM   10  S10 UNL     1     -33.860  14.930  -4.454  1.00 20.00    -0.155 SA
HETATM   11  S11 UNL     1     -36.140  17.083  -2.723  1.00 20.00    -0.162 SA
ENDROOT
TORSDOF 0
ENDMDL
MODEL 3
REMARK VINA RESULT:      -4.1      3.587      4.441
REMARK  0 active torsions:
REMARK  status: ('A' for Active; 'I' for Inactive)
ROOT
HETATM    1  C1  UNL     1     -35.526  13.851  -4.999  1.00 20.00     0.141 C 
HETATM    2  C2  UNL     1     -34.344  14.153  -4.110  1.00 20.00     0.079 C 
HETATM    3  C3  UNL     1     -33.372  15.088  -4.815  1.00 20.00     0.008 C 
HETATM    4  C4  UNL     1     -34.045  16.190  -5.642  1.00 20.00     0.017 C 
HETATM    5  C5  UNL     1     -38.457  16.754  -5.031  1.00 20.00     0.085 C 
HETATM    6  C6  UNL     1     -37.968  17.342  -6.343  1.00 20.00     0.084 C 
HETATM    7  C7  UNL     1     -36.290  15.043  -5.562  1.00 20.00     0.130 C 
HETATM    8  C8  UNL     1     -35.535  16.355  -5.315  1.00 20.00     0.068 C 
HETATM    9  O9  UNL     1     -35.877  12.691  -5.215  1.00 20.00    -0.297 OA
HETATM   10  S10 UNL     1     -37.942  15.027  -4.776  1.00 20.00    -0.155 SA
HETATM   11  S11 UNL     1     -36.189  17.729  -6.343  1.00 20.00    -0.162 SA
ENDROOT
TORSDOF 0
ENDMDL
MODEL 4
REMARK VINA RESULT:      -3.8      2.321      3.326
REMARK  0 active torsions:
REMARK  status: ('A' for Active; 'I' for Inactive)
ROOT
HETATM    1  C1  UNL     1     -34.735  16.225  -2.833  1.00 20.00     0.141 C 
HETATM    2  C2  UNL     1     -33.606  15.883  -3.775  1.00 20.00     0.079 C 
HETATM    3  C3  UNL     1     -33.749  14.455  -4.283  1.00 20.00     0.008 C 
HETATM    4  C4  UNL     1     -35.192  14.037  -4.589  1.00 20.00     0.017 C 
HETATM    5  C5  UNL     1     -38.261  17.312  -4.678  1.00 20.00     0.085 C 
HETATM    6  C6  UNL     1     -38.877  15.938  -4.481  1.00 20.00     0.084 C 
HETATM    7  C7  UNL     1     -36.153  16.011  -3.348  1.00 20.00     0.130 C 
HETATM    8  C8  UNL     1     -36.154  15.229  -4.668  1.00 20.00     0.068 C 
HETATM    9  O9  UNL     1     -34.510  16.699  -1.719  1.00 20.00    -0.297 OA
HETATM   10  S10 UNL     1     -36.906  17.670  -3.517  1.00 20.00    -0.155 SA
HETATM   11  S11 UNL     1     -37.822  14.580  -5.081  1.00 20.00    -0.162 SA
ENDROOT
TORSDOF 0
ENDMDL
MODEL 5
REMARK VINA RESULT:      -3.7      2.648      3.481
REMARK  0 active torsions:
REMARK  status: ('A' for Active; 'I' for Inactive)
ROOT
HETATM    1  C1  UNL     1     -33.766  14.841  -4.435  1.00 20.00     0.141 C 
HETATM    2  C2  UNL     1     -33.670  15.968  -3.435  1.00 20.00     0.079 C 
HETATM    3  C3  UNL     1     -33.455  17.295  -4.147  1.00 20.00     0.008 C 
HETATM    4  C4  UNL     1     -34.258  17.453  -5.443  1.00 20.00     0.017 C 
HETATM    5  C5  UNL     1     -37.469  14.408  -6.204  1.00 20.00     0.085 C 
HETATM    6  C6  UNL     1     -37.034  15.129  -7.467  1.00 20.00     0.084 C 
HETATM    7  C7  UNL     1     -34.798  14.991  -5.547  1.00 20.00     0.130 C 
HETATM    8  C8  UNL     1     -35.376  16.412  -5.582  1.00 20.00     0.068 C 
HETATM    9  O9  UNL     1     -33.073  13.830  -4.322  1.00 20.00    -0.297 OA
HETATM   10  S10 UNL     1     -36.080  13.721  -5.250  1.00 20.00    -0.155 SA
HETATM   11  S11 UNL     1     -36.271  16.752  -7.149  1.00 20.00    -0.162 SA
ENDROOT
TORSDOF 0
ENDMDL
MODEL 6
REMARK VINA RESULT:      -3.7      4.285      5.212
REMARK  0 active torsions:
REMARK  status: ('A' for Active; 'I' for Inactive)
ROOT
HETATM    1  C1  UNL     1     -35.725  13.772  -5.588  1.00 20.00     0.141 C 
HETATM    2  C2  UNL     1     -34.420  14.497  -5.365  1.00 20.00     0.079 C 
HETATM    3  C3  UNL     1     -33.930  15.124  -6.661  1.00 20.00     0.008 C 
HETATM    4  C4  UNL     1     -35.040  15.737  -7.523  1.00 20.00     0.017 C 
HETATM    5  C5  UNL     1     -39.069  16.189  -5.595  1.00 20.00     0.085 C 
HETATM    6  C6  UNL     1     -39.139  16.218  -7.112  1.00 20.00     0.084 C 
HETATM    7  C7  UNL     1     -36.858  14.570  -6.223  1.00 20.00     0.130 C 
HETATM    8  C8  UNL     1     -36.358  15.917  -6.759  1.00 20.00     0.068 C 
HETATM    9  O9  UNL     1     -35.873  12.604  -5.227  1.00 20.00    -0.297 OA
HETATM   10  S10 UNL     1     -38.148  14.762  -4.941  1.00 20.00    -0.155 SA
HETATM   11  S11 UNL     1     -37.569  16.696  -7.900  1.00 20.00    -0.162 SA
ENDROOT
TORSDOF 0
ENDMDL
MODEL 7
REMARK VINA RESULT:      -3.7      1.871      2.221
REMARK  0 active torsions:
REMARK  status: ('A' for Active; 'I' for Inactive)
ROOT
HETATM    1  C1  UNL     1     -34.496  16.470  -2.810  1.00 20.00     0.141 C 
HETATM    2  C2  UNL     1     -35.346  16.786  -1.603  1.00 20.00     0.079 C 
HETATM    3  C3  UNL     1     -36.493  17.710  -1.986  1.00 20.00     0.008 C 
HETATM    4  C4  UNL     1     -37.130  17.396  -3.344  1.00 20.00     0.017 C 
HETATM    5  C5  UNL     1     -35.985  13.494  -5.248  1.00 20.00     0.085 C 
HETATM    6  C6  UNL     1     -36.551  14.489  -6.246  1.00 20.00     0.084 C 
HETATM    7  C7  UNL     1     -35.213  15.908  -4.032  1.00 20.00     0.130 C 
HETATM    8  C8  UNL     1     -36.735  16.014  -3.882  1.00 20.00     0.068 C 
HETATM    9  O9  UNL     1     -33.274  16.619  -2.782  1.00 20.00    -0.297 OA
HETATM   10  S10 UNL     1     -34.646  14.179  -4.223  1.00 20.00    -0.155 SA
HETATM   11  S11 UNL     1     -37.603  15.763  -5.481  1.00 20.00    -0.162 SA
ENDROOT
TORSDOF 0
ENDMDL
MODEL 8
REMARK VINA RESULT:      -3.7      2.634      3.598
REMARK  0 active torsions:
REMARK  status: ('A' for Active; 'I' for Inactive)
ROOT
HETATM    1  C1  UNL     1     -36.942  15.593  -4.107  1.00 20.00     0.141 C 
HETATM    2  C2  UNL     1     -36.751  16.707  -3.106  1.00 20.00     0.079 C 
HETATM    3  C3  UNL     1     -35.429  16.542  -2.371  1.00 20.00     0.008 C 
HETATM    4  C4  UNL     1     -34.272  16.064  -3.256  1.00 20.00     0.017 C 
HETATM    5  C5  UNL     1     -34.970  16.130  -7.691  1.00 20.00     0.085 C 
HETATM    6  C6  UNL     1     -33.832  15.207  -7.290  1.00 20.00     0.084 C 
HETATM    7  C7  UNL     1     -35.825  15.377  -5.120  1.00 20.00     0.130 C 
HETATM    8  C8  UNL     1     -34.576  16.189  -4.754  1.00 20.00     0.068 C 
HETATM    9  O9  UNL     1     -37.978  14.928  -4.126  1.00 20.00    -0.297 OA
HETATM   10  S10 UNL     1     -36.503  15.835  -6.756  1.00 20.00    -0.155 SA
HETATM   11  S11 UNL     1     -33.094  15.625  -5.679  1.00 20.00    -0.162 SA
ENDROOT
TORSDOF 0
ENDMDL
MODEL 9
REMARK VINA RESULT:      -3.7      3.110      5.047
REMARK  0 active torsions:
REMARK  status: ('A' for Active; 'I' for Inactive)
ROOT
HETATM    1  C1  UNL     1     -36.992  14.316  -5.213  1.00 20.00     0.141 C 
HETATM    2  C2  UNL     1     -35.918  13.262  -5.334  1.00 20.00     0.079 C 
HETATM    3  C3  UNL     1     -35.189  13.393  -6.663  1.00 20.00     0.008 C 
HETATM    4  C4  UNL     1     -34.933  14.839  -7.102  1.00 20.00     0.017 C 
HETATM    5  C5  UNL     1     -35.647  18.031  -4.025  1.00 20.00     0.085 C 
HETATM    6  C6  UNL     1     -35.656  18.572  -5.444  1.00 20.00     0.084 C 
HETATM    7  C7  UNL     1     -36.563  15.765  -5.414  1.00 20.00     0.130 C 
HETATM    8  C8  UNL     1     -35.135  15.851  -5.966  1.00 20.00     0.068 C 
HETATM    9  O9  UNL     1     -38.148  14.013  -4.918  1.00 20.00    -0.297 OA
HETATM   10  S10 UNL     1     -36.739  16.594  -3.793  1.00 20.00    -0.155 SA
HETATM   11  S11 UNL     1     -34.753  17.522  -6.625  1.00 20.00    -0.162 SA
ENDROOT
TORSDOF 0
ENDMDL
