MODEL 1
REMARK VINA RESULT:      -4.9      0.000      0.000
REMARK  0 active torsions:
REMARK  status: ('A' for Active; 'I' for Inactive)
ROOT
HETATM    1  C1  UNL     1     -35.155  14.392  -5.466  1.00 20.00    -0.081 C 
HETATM    2  C2  UNL     1     -36.116  13.455  -5.387  1.00 20.00     0.015 C 
HETATM    3  C3  UNL     1     -34.080  14.252  -6.524  1.00 20.00     0.034 C 
HETATM    4  C4  UNL     1     -34.024  15.487  -7.419  1.00 20.00     0.004 C 
HETATM    5  C5  UNL     1     -33.878  16.766  -6.603  1.00 20.00     0.001 C 
HETATM    6  C6  UNL     1     -34.901  16.855  -1.807  1.00 20.00     0.000 C 
HETATM    7  C7  UNL     1     -33.654  16.681  -2.664  1.00 20.00     0.001 C 
HETATM    8  C8  UNL     1     -36.157  16.999  -2.657  1.00 20.00     0.001 C 
HETATM    9  C9  UNL     1     -34.971  16.880  -5.537  1.00 20.00     0.014 C 
HETATM   10  C10 UNL     1     -33.803  15.537  -3.669  1.00 20.00     0.014 C 
HETATM   11  C11 UNL     1     -36.296  15.842  -3.647  1.00 20.00     0.014 C 
HETATM   12  C12 UNL     1     -35.061  15.653  -4.580  1.00 20.00    -0.018 C 
ENDROOT
TORSDOF 0
ENDMDL
MODEL 2
REMARK VINA RESULT:      -4.9     11.073     12.391
REMARK  0 active torsions:
REMARK  status: ('A' for Active; 'I' for Inactive)
ROOT
HETATM    1  C1  UNL     1     -33.645   5.626   3.356  1.00 20.00    -0.081 C 
HETATM    2  C2  UNL     1     -33.151   4.568   2.689  1.00 20.00     0.015 C 
HETATM    3  C3  UNL     1     -34.804   5.414   4.309  1.00 20.00     0.034 C 
HETATM    4  C4  UNL     1     -34.457   5.903   5.713  1.00 20.00     0.004 C 
HETATM    5  C5  UNL     1     -33.966   7.345   5.700  1.00 20.00     0.001 C 
HETATM    6  C6  UNL     1     -32.422   9.471   1.559  1.00 20.00     0.000 C 
HETATM    7  C7  UNL     1     -33.725   9.409   2.345  1.00 20.00     0.001 C 
HETATM    8  C8  UNL     1     -31.330   8.626   2.202  1.00 20.00     0.001 C 
HETATM    9  C9  UNL     1     -32.801   7.534   4.725  1.00 20.00     0.014 C 
HETATM   10  C10 UNL     1     -34.180   7.969   2.588  1.00 20.00     0.014 C 
HETATM   11  C11 UNL     1     -31.799   7.187   2.427  1.00 20.00     0.014 C 
HETATM   12  C12 UNL     1     -33.106   7.070   3.268  1.00 20.00    -0.018 C 
ENDROOT
TORSDOF 0
ENDMDL
MODEL 3
REMARK VINA RESULT:      -4.8      1.368      1.793
REMARK  0 active torsions:
REMARK  status: ('A' for Active; 'I' for Inactive)
ROOT
HETATM    1  C1  UNL     1     -34.154  15.420  -4.263  1.00 20.00    -0.081 C 
HETATM    2  C2  UNL     1     -34.722  14.203  -4.186  1.00 20.00     0.015 C 
HETATM    3  C3  UNL     1     -33.167  15.698  -5.378  1.00 20.00     0.034 C 
HETATM    4  C4  UNL     1     -33.600  16.902  -6.209  1.00 20.00     0.004 C 
HETATM    5  C5  UNL     1     -33.857  18.125  -5.336  1.00 20.00     0.001 C 
HETATM    6  C6  UNL     1     -34.539  17.699  -0.498  1.00 20.00     0.000 C 
HETATM    7  C7  UNL     1     -33.366  17.999  -1.423  1.00 20.00     0.001 C 
HETATM    8  C8  UNL     1     -35.818  17.421  -1.277  1.00 20.00     0.001 C 
HETATM    9  C9  UNL     1     -34.851  17.816  -4.214  1.00 20.00     0.014 C 
HETATM   10  C10 UNL     1     -33.173  16.908  -2.477  1.00 20.00     0.014 C 
HETATM   11  C11 UNL     1     -35.609  16.320  -2.318  1.00 20.00     0.014 C 
HETATM   12  C12 UNL     1     -34.447  16.606  -3.318  1.00 20.00    -0.018 C 
ENDROOT
TORSDOF 0
ENDMDL
MODEL 4
REMARK VINA RESULT:      -4.8      1.054      4.050
REMARK  0 active torsions:
REMARK  status: ('A' for Active; 'I' for Inactive)
ROOT
HETATM    1  C1  UNL     1     -36.623  15.540  -4.469  1.00 20.00    -0.081 C 
HETATM    2  C2  UNL     1     -37.871  15.046  -4.551  1.00 20.00     0.015 C 
HETATM    3  C3  UNL     1     -36.349  16.683  -3.513  1.00 20.00     0.034 C 
HETATM    4  C4  UNL     1     -35.243  16.321  -2.525  1.00 20.00     0.004 C 
HETATM    5  C5  UNL     1     -33.985  15.843  -3.240  1.00 20.00     0.001 C 
HETATM    6  C6  UNL     1     -34.121  14.375  -7.918  1.00 20.00     0.000 C 
HETATM    7  C7  UNL     1     -33.797  15.667  -7.178  1.00 20.00     0.001 C 
HETATM    8  C8  UNL     1     -34.550  13.267  -6.964  1.00 20.00     0.001 C 
HETATM    9  C9  UNL     1     -34.290  14.694  -4.205  1.00 20.00     0.014 C 
HETATM   10  C10 UNL     1     -34.942  16.106  -6.264  1.00 20.00     0.014 C 
HETATM   11  C11 UNL     1     -35.702  13.720  -6.066  1.00 20.00     0.014 C 
HETATM   12  C12 UNL     1     -35.399  15.015  -5.252  1.00 20.00    -0.018 C 
ENDROOT
TORSDOF 0
ENDMDL
MODEL 5
REMARK VINA RESULT:      -4.8      1.340      4.392
REMARK  0 active torsions:
REMARK  status: ('A' for Active; 'I' for Inactive)
ROOT
HETATM    1  C1  UNL     1     -33.538  17.976  -3.309  1.00 20.00    -0.081 C 
HETATM    2  C2  UNL     1     -33.137  18.968  -4.123  1.00 20.00     0.015 C 
HETATM    3  C3  UNL     1     -33.063  17.974  -1.870  1.00 20.00     0.034 C 
HETATM    4  C4  UNL     1     -34.242  17.952  -0.902  1.00 20.00     0.004 C 
HETATM    5  C5  UNL     1     -35.198  16.804  -1.204  1.00 20.00     0.001 C 
HETATM    6  C6  UNL     1     -35.117  14.502  -5.534  1.00 20.00     0.000 C 
HETATM    7  C7  UNL     1     -34.509  14.277  -4.156  1.00 20.00     0.001 C 
HETATM    8  C8  UNL     1     -35.925  15.792  -5.594  1.00 20.00     0.001 C 
HETATM    9  C9  UNL     1     -35.656  16.824  -2.665  1.00 20.00     0.014 C 
HETATM   10  C10 UNL     1     -33.699  15.486  -3.682  1.00 20.00     0.014 C 
HETATM   11  C11 UNL     1     -35.097  16.991  -5.127  1.00 20.00     0.014 C 
HETATM   12  C12 UNL     1     -34.491  16.826  -3.700  1.00 20.00    -0.018 C 
ENDROOT
TORSDOF 0
ENDMDL
MODEL 6
REMARK VINA RESULT:      -4.7      1.292      2.974
REMARK  0 active torsions:
REMARK  status: ('A' for Active; 'I' for Inactive)
ROOT
HETATM    1  C1  UNL     1     -34.848  17.148  -5.058  1.00 20.00    -0.081 C 
HETATM    2  C2  UNL     1     -34.515  18.216  -5.803  1.00 20.00     0.015 C 
HETATM    3  C3  UNL     1     -35.702  16.061  -5.679  1.00 20.00     0.034 C 
HETATM    4  C4  UNL     1     -35.011  14.703  -5.596  1.00 20.00     0.004 C 
HETATM    5  C5  UNL     1     -34.589  14.373  -4.169  1.00 20.00     0.001 C 
HETATM    6  C6  UNL     1     -34.279  17.862  -0.737  1.00 20.00     0.000 C 
HETATM    7  C7  UNL     1     -35.322  16.846  -1.182  1.00 20.00     0.001 C 
HETATM    8  C8  UNL     1     -33.027  17.808  -1.603  1.00 20.00     0.001 C 
HETATM    9  C9  UNL     1     -33.735  15.489  -3.563  1.00 20.00     0.014 C 
HETATM   10  C10 UNL     1     -35.648  16.973  -2.672  1.00 20.00     0.014 C 
HETATM   11  C11 UNL     1     -33.371  17.948  -3.087  1.00 20.00     0.014 C 
HETATM   12  C12 UNL     1     -34.401  16.897  -3.601  1.00 20.00    -0.018 C 
ENDROOT
TORSDOF 0
ENDMDL
MODEL 7
REMARK VINA RESULT:      -4.6      1.144      4.353
REMARK  0 active torsions:
REMARK  status: ('A' for Active; 'I' for Inactive)
ROOT
HETATM    1  C1  UNL     1     -34.217  16.998  -2.302  1.00 20.00    -0.081 C 
HETATM    2  C2  UNL     1     -33.025  17.453  -1.877  1.00 20.00     0.015 C 
HETATM    3  C3  UNL     1     -35.379  16.973  -1.329  1.00 20.00     0.034 C 
HETATM    4  C4  UNL     1     -36.565  17.767  -1.868  1.00 20.00     0.004 C 
HETATM    5  C5  UNL     1     -36.962  17.306  -3.266  1.00 20.00     0.001 C 
HETATM    6  C6  UNL     1     -33.898  14.664  -6.038  1.00 20.00     0.000 C 
HETATM    7  C7  UNL     1     -35.050  14.372  -5.085  1.00 20.00     0.001 C 
HETATM    8  C8  UNL     1     -33.594  16.154  -6.121  1.00 20.00     0.001 C 
HETATM    9  C9  UNL     1     -35.770  17.333  -4.226  1.00 20.00     0.014 C 
HETATM   10  C10 UNL     1     -34.824  14.991  -3.705  1.00 20.00     0.014 C 
HETATM   11  C11 UNL     1     -33.359  16.753  -4.733  1.00 20.00     0.014 C 
HETATM   12  C12 UNL     1     -34.534  16.520  -3.735  1.00 20.00    -0.018 C 
ENDROOT
TORSDOF 0
ENDMDL
MODEL 8
REMARK VINA RESULT:      -4.6      0.957      2.650
REMARK  0 active torsions:
REMARK  status: ('A' for Active; 'I' for Inactive)
ROOT
HETATM    1  C1  UNL     1     -34.694  15.904  -6.277  1.00 20.00    -0.081 C 
HETATM    2  C2  UNL     1     -33.798  16.597  -7.001  1.00 20.00     0.015 C 
HETATM    3  C3  UNL     1     -35.729  15.066  -7.000  1.00 20.00     0.034 C 
HETATM    4  C4  UNL     1     -35.670  13.610  -6.549  1.00 20.00     0.004 C 
HETATM    5  C5  UNL     1     -35.771  13.486  -5.033  1.00 20.00     0.001 C 
HETATM    6  C6  UNL     1     -34.956  17.335  -2.106  1.00 20.00     0.000 C 
HETATM    7  C7  UNL     1     -36.173  16.665  -2.730  1.00 20.00     0.001 C 
HETATM    8  C8  UNL     1     -33.657  16.661  -2.530  1.00 20.00     0.001 C 
HETATM    9  C9  UNL     1     -34.721  14.347  -4.327  1.00 20.00     0.014 C 
HETATM   10  C10 UNL     1     -36.051  16.557  -4.252  1.00 20.00     0.014 C 
HETATM   11  C11 UNL     1     -33.547  16.572  -4.053  1.00 20.00     0.014 C 
HETATM   12  C12 UNL     1     -34.750  15.851  -4.734  1.00 20.00    -0.018 C 
ENDROOT
TORSDOF 0
ENDMDL
MODEL 9
REMARK VINA RESULT:      -4.5      1.657      4.017
REMARK  0 active torsions:
REMARK  status: ('A' for Active; 'I' for Inactive)
ROOT
HETATM    1  C1  UNL     1     -34.219  18.029  -4.184  1.00 20.00    -0.081 C 
HETATM    2  C2  UNL     1     -34.621  18.840  -5.178  1.00 20.00     0.015 C 
HETATM    3  C3  UNL     1     -33.129  18.506  -3.245  1.00 20.00     0.034 C 
HETATM    4  C4  UNL     1     -33.600  18.470  -1.794  1.00 20.00     0.004 C 
HETATM    5  C5  UNL     1     -34.141  17.097  -1.412  1.00 20.00     0.001 C 
HETATM    6  C6  UNL     1     -35.441  13.834  -4.835  1.00 20.00     0.000 C 
HETATM    7  C7  UNL     1     -34.200  14.117  -3.998  1.00 20.00     0.001 C 
HETATM    8  C8  UNL     1     -36.547  14.848  -4.570  1.00 20.00     0.001 C 
HETATM    9  C9  UNL     1     -35.234  16.635  -2.380  1.00 20.00     0.014 C 
HETATM   10  C10 UNL     1     -33.712  15.557  -4.163  1.00 20.00     0.014 C 
HETATM   11  C11 UNL     1     -36.044  16.281  -4.751  1.00 20.00     0.014 C 
HETATM   12  C12 UNL     1     -34.802  16.632  -3.878  1.00 20.00    -0.018 C 
ENDROOT
TORSDOF 0
ENDMDL
