MODEL 1
REMARK VINA RESULT:      -4.9      0.000      0.000
REMARK  2 active torsions:
REMARK  status: ('A' for Active; 'I' for Inactive)
REMARK    1  A    between atoms: C2_2  and  C5_5 
REMARK    2  A    between atoms: C5_5  and  C6_6 
ROOT
HETATM    1  C5  UNL     1     -32.036   7.767   3.347  1.00 20.00     0.042 C 
ENDROOT
BRANCH   1   2
HETATM    2  C2  UNL     1     -31.904   8.401   1.990  1.00 20.00    -0.030 C 
HETATM    3  C1  UNL     1     -32.741   9.338   1.519  1.00 20.00    -0.035 C 
HETATM    4  C3  UNL     1     -32.613   9.963   0.169  1.00 20.00     0.036 C 
ENDBRANCH   1   2
BRANCH   1   5
HETATM    5  C6  UNL     1     -33.449   7.247   3.625  1.00 20.00     0.057 C 
HETATM    6  C4  UNL     1     -33.660   5.856   3.047  1.00 20.00     0.022 C 
HETATM    7 BR7  UNL     1     -33.754   7.148   5.563  1.00 20.00    -0.091 Br
ENDBRANCH   1   5
TORSDOF 2
ENDMDL
MODEL 2
REMARK VINA RESULT:      -4.9      1.124      1.646
REMARK  2 active torsions:
REMARK  status: ('A' for Active; 'I' for Inactive)
REMARK    1  A    between atoms: C2_2  and  C5_5 
REMARK    2  A    between atoms: C5_5  and  C6_6 
ROOT
HETATM    1  C5  UNL     1     -33.344   6.099   3.019  1.00 20.00     0.042 C 
ENDROOT
BRANCH   1   2
HETATM    2  C2  UNL     1     -32.904   7.528   2.862  1.00 20.00    -0.030 C 
HETATM    3  C1  UNL     1     -32.573   8.083   1.686  1.00 20.00    -0.035 C 
HETATM    4  C3  UNL     1     -32.131   9.500   1.532  1.00 20.00     0.036 C 
ENDBRANCH   1   2
BRANCH   1   5
HETATM    5  C6  UNL     1     -34.392   5.917   4.120  1.00 20.00     0.057 C 
HETATM    6  C4  UNL     1     -34.487   4.467   4.571  1.00 20.00     0.022 C 
HETATM    7 BR7  UNL     1     -33.912   7.006   5.683  1.00 20.00    -0.091 Br
ENDBRANCH   1   5
TORSDOF 2
ENDMDL
MODEL 3
REMARK VINA RESULT:      -4.4      2.466      4.331
REMARK  2 active torsions:
REMARK  status: ('A' for Active; 'I' for Inactive)
REMARK    1  A    between atoms: C2_2  and  C5_5 
REMARK    2  A    between atoms: C5_5  and  C6_6 
ROOT
HETATM    1  C5  UNL     1     -33.215   6.786   2.232  1.00 20.00     0.042 C 
ENDROOT
BRANCH   1   2
HETATM    2  C2  UNL     1     -33.428   5.910   3.436  1.00 20.00    -0.030 C 
HETATM    3  C1  UNL     1     -34.487   6.009   4.253  1.00 20.00    -0.035 C 
HETATM    4  C3  UNL     1     -34.695   5.144   5.451  1.00 20.00     0.036 C 
ENDBRANCH   1   2
BRANCH   1   5
HETATM    5  C6  UNL     1     -32.739   8.194   2.598  1.00 20.00     0.057 C 
HETATM    6  C4  UNL     1     -31.505   8.158   3.487  1.00 20.00     0.022 C 
HETATM    7 BR7  UNL     1     -32.279   9.188   0.967  1.00 20.00    -0.091 Br
ENDBRANCH   1   5
TORSDOF 2
ENDMDL
MODEL 4
REMARK VINA RESULT:      -4.4      1.573      2.040
REMARK  2 active torsions:
REMARK  status: ('A' for Active; 'I' for Inactive)
REMARK    1  A    between atoms: C2_2  and  C5_5 
REMARK    2  A    between atoms: C5_5  and  C6_6 
ROOT
HETATM    1  C5  UNL     1     -33.910   7.161   3.448  1.00 20.00     0.042 C 
ENDROOT
BRANCH   1   2
HETATM    2  C2  UNL     1     -32.712   7.434   2.581  1.00 20.00    -0.030 C 
HETATM    3  C1  UNL     1     -32.588   8.517   1.799  1.00 20.00    -0.035 C 
HETATM    4  C3  UNL     1     -31.401   8.784   0.935  1.00 20.00     0.036 C 
ENDBRANCH   1   2
BRANCH   1   5
HETATM    5  C6  UNL     1     -33.548   6.451   4.755  1.00 20.00     0.057 C 
HETATM    6  C4  UNL     1     -33.750   7.356   5.962  1.00 20.00     0.022 C 
HETATM    7 BR7  UNL     1     -34.687   4.867   4.992  1.00 20.00    -0.091 Br
ENDBRANCH   1   5
TORSDOF 2
ENDMDL
MODEL 5
REMARK VINA RESULT:      -4.2      2.578      4.275
REMARK  2 active torsions:
REMARK  status: ('A' for Active; 'I' for Inactive)
REMARK    1  A    between atoms: C2_2  and  C5_5 
REMARK    2  A    between atoms: C5_5  and  C6_6 
ROOT
HETATM    1  C5  UNL     1     -31.888   8.446   2.004  1.00 20.00     0.042 C 
ENDROOT
BRANCH   1   2
HETATM    2  C2  UNL     1     -32.532   7.546   3.023  1.00 20.00    -0.030 C 
HETATM    3  C1  UNL     1     -33.429   6.596   2.718  1.00 20.00    -0.035 C 
HETATM    4  C3  UNL     1     -34.073   5.707   3.730  1.00 20.00     0.036 C 
ENDBRANCH   1   2
BRANCH   1   5
HETATM    5  C6  UNL     1     -32.880   9.415   1.356  1.00 20.00     0.057 C 
HETATM    6  C4  UNL     1     -32.483  10.865   1.588  1.00 20.00     0.022 C 
HETATM    7 BR7  UNL     1     -32.941   9.109  -0.584  1.00 20.00    -0.091 Br
ENDBRANCH   1   5
TORSDOF 2
ENDMDL
MODEL 6
REMARK VINA RESULT:      -4.2      2.382      4.146
REMARK  2 active torsions:
REMARK  status: ('A' for Active; 'I' for Inactive)
REMARK    1  A    between atoms: C2_2  and  C5_5 
REMARK    2  A    between atoms: C5_5  and  C6_6 
ROOT
HETATM    1  C5  UNL     1     -32.712   7.680   2.243  1.00 20.00     0.042 C 
ENDROOT
BRANCH   1   2
HETATM    2  C2  UNL     1     -32.743   7.610   3.745  1.00 20.00    -0.030 C 
HETATM    3  C1  UNL     1     -33.799   7.176   4.450  1.00 20.00    -0.035 C 
HETATM    4  C3  UNL     1     -33.832   7.112   5.941  1.00 20.00     0.036 C 
ENDBRANCH   1   2
BRANCH   1   5
HETATM    5  C6  UNL     1     -31.858   8.838   1.720  1.00 20.00     0.057 C 
HETATM    6  C4  UNL     1     -31.213   8.502   0.383  1.00 20.00     0.022 C 
HETATM    7 BR7  UNL     1     -32.978  10.431   1.468  1.00 20.00    -0.091 Br
ENDBRANCH   1   5
TORSDOF 2
ENDMDL
MODEL 7
REMARK VINA RESULT:      -3.4     10.187     10.868
REMARK  2 active torsions:
REMARK  status: ('A' for Active; 'I' for Inactive)
REMARK    1  A    between atoms: C2_2  and  C5_5 
REMARK    2  A    between atoms: C5_5  and  C6_6 
ROOT
HETATM    1  C5  UNL     1     -34.834  16.353  -2.691  1.00 20.00     0.042 C 
ENDROOT
BRANCH   1   2
HETATM    2  C2  UNL     1     -34.185  17.098  -1.558  1.00 20.00    -0.030 C 
HETATM    3  C1  UNL     1     -33.019  17.753  -1.665  1.00 20.00    -0.035 C 
HETATM    4  C3  UNL     1     -32.373  18.488  -0.538  1.00 20.00     0.036 C 
ENDBRANCH   1   2
BRANCH   1   5
HETATM    5  C6  UNL     1     -33.818  15.752  -3.666  1.00 20.00     0.057 C 
HETATM    6  C4  UNL     1     -34.216  14.349  -4.099  1.00 20.00     0.022 C 
HETATM    7 BR7  UNL     1     -33.696  16.870  -5.276  1.00 20.00    -0.091 Br
ENDBRANCH   1   5
TORSDOF 2
ENDMDL
MODEL 8
REMARK VINA RESULT:      -3.3     10.031     10.545
REMARK  2 active torsions:
REMARK  status: ('A' for Active; 'I' for Inactive)
REMARK    1  A    between atoms: C2_2  and  C5_5 
REMARK    2  A    between atoms: C5_5  and  C6_6 
ROOT
HETATM    1  C5  UNL     1     -34.750  15.892  -3.188  1.00 20.00     0.042 C 
ENDROOT
BRANCH   1   2
HETATM    2  C2  UNL     1     -33.644  16.750  -2.639  1.00 20.00    -0.030 C 
HETATM    3  C1  UNL     1     -33.728  17.427  -1.484  1.00 20.00    -0.035 C 
HETATM    4  C3  UNL     1     -32.631  18.283  -0.942  1.00 20.00     0.036 C 
ENDBRANCH   1   2
BRANCH   1   5
HETATM    5  C6  UNL     1     -34.381  15.224  -4.515  1.00 20.00     0.057 C 
HETATM    6  C4  UNL     1     -33.015  14.558  -4.448  1.00 20.00     0.022 C 
HETATM    7 BR7  UNL     1     -35.705  13.841  -4.956  1.00 20.00    -0.091 Br
ENDBRANCH   1   5
TORSDOF 2
ENDMDL
MODEL 9
REMARK VINA RESULT:      -3.3      2.578      4.356
REMARK  2 active torsions:
REMARK  status: ('A' for Active; 'I' for Inactive)
REMARK    1  A    between atoms: C2_2  and  C5_5 
REMARK    2  A    between atoms: C5_5  and  C6_6 
ROOT
HETATM    1  C5  UNL     1     -32.819   7.869   4.391  1.00 20.00     0.042 C 
ENDROOT
BRANCH   1   2
HETATM    2  C2  UNL     1     -33.915   7.061   5.028  1.00 20.00    -0.030 C 
HETATM    3  C1  UNL     1     -33.754   5.805   5.473  1.00 20.00    -0.035 C 
HETATM    4  C3  UNL     1     -34.844   5.001   6.100  1.00 20.00     0.036 C 
ENDBRANCH   1   2
BRANCH   1   5
HETATM    5  C6  UNL     1     -32.395   7.324   3.025  1.00 20.00     0.057 C 
HETATM    6  C4  UNL     1     -33.465   6.428   2.420  1.00 20.00     0.022 C 
HETATM    7 BR7  UNL     1     -32.079   8.812   1.782  1.00 20.00    -0.091 Br
ENDBRANCH   1   5
TORSDOF 2
ENDMDL
