MODEL 1
REMARK VINA RESULT:      -6.1      0.000      0.000
REMARK  0 active torsions:
REMARK  status: ('A' for Active; 'I' for Inactive)
ROOT
HETATM    1  C1  UNL     1     -33.975   5.347   3.297  1.00 20.00     0.023 C 
HETATM    2  C2  UNL     1     -32.216   8.258   2.012  1.00 20.00     0.017 A 
HETATM    3  C3  UNL     1     -32.338   8.278   4.532  1.00 20.00     0.012 C 
HETATM    4  C4  UNL     1     -34.849   5.026   4.446  1.00 20.00     0.110 C 
HETATM    5  C5  UNL     1     -32.318   7.087   2.603  1.00 20.00     0.010 A 
HETATM    6  C6  UNL     1     -31.707   8.260   3.341  1.00 20.00    -0.008 A 
HETATM    7  C7  UNL     1     -33.394   6.542   3.404  1.00 20.00    -0.061 C 
HETATM    8  C8  UNL     1     -33.761   6.578   5.830  1.00 20.00     0.158 C 
HETATM    9  C9  UNL     1     -33.583   7.443   4.583  1.00 20.00     0.040 C 
HETATM   10  N10 UNL     1     -34.809   5.558   5.623  1.00 20.00    -0.301 NA
ENDROOT
TORSDOF 0
ENDMDL
MODEL 2
REMARK VINA RESULT:      -5.8      0.709      1.985
REMARK  0 active torsions:
REMARK  status: ('A' for Active; 'I' for Inactive)
ROOT
HETATM    1  C1  UNL     1     -33.641   7.248   5.696  1.00 20.00     0.023 C 
HETATM    2  C2  UNL     1     -31.272   8.350   3.168  1.00 20.00     0.017 A 
HETATM    3  C3  UNL     1     -33.099   6.919   2.176  1.00 20.00     0.012 C 
HETATM    4  C4  UNL     1     -34.489   6.062   5.947  1.00 20.00     0.110 C 
HETATM    5  C5  UNL     1     -32.423   8.342   3.806  1.00 20.00     0.010 A 
HETATM    6  C6  UNL     1     -32.376   8.047   2.322  1.00 20.00    -0.008 A 
HETATM    7  C7  UNL     1     -33.106   7.255   4.476  1.00 20.00    -0.061 C 
HETATM    8  C8  UNL     1     -34.795   5.677   3.652  1.00 20.00     0.158 C 
HETATM    9  C9  UNL     1     -33.370   6.190   3.459  1.00 20.00     0.040 C 
HETATM   10  N10 UNL     1     -35.037   5.299   5.060  1.00 20.00    -0.301 NA
ENDROOT
TORSDOF 0
ENDMDL
MODEL 3
REMARK VINA RESULT:      -5.4      1.755      3.443
REMARK  0 active torsions:
REMARK  status: ('A' for Active; 'I' for Inactive)
ROOT
HETATM    1  C1  UNL     1     -33.495   6.588   2.402  1.00 20.00     0.023 C 
HETATM    2  C2  UNL     1     -34.681   4.907   5.399  1.00 20.00     0.017 A 
HETATM    3  C3  UNL     1     -33.669   7.157   5.930  1.00 20.00     0.012 C 
HETATM    4  C4  UNL     1     -32.401   7.514   2.036  1.00 20.00     0.110 C 
HETATM    5  C5  UNL     1     -34.716   5.806   4.440  1.00 20.00     0.010 A 
HETATM    6  C6  UNL     1     -34.659   6.243   5.888  1.00 20.00    -0.008 A 
HETATM    7  C7  UNL     1     -33.631   6.438   3.719  1.00 20.00    -0.061 C 
HETATM    8  C8  UNL     1     -32.430   8.535   4.150  1.00 20.00     0.158 C 
HETATM    9  C9  UNL     1     -32.784   7.162   4.718  1.00 20.00     0.040 C 
HETATM   10  N10 UNL     1     -31.866   8.417   2.790  1.00 20.00    -0.301 NA
ENDROOT
TORSDOF 0
ENDMDL
MODEL 4
REMARK VINA RESULT:      -5.0      1.697      3.881
REMARK  0 active torsions:
REMARK  status: ('A' for Active; 'I' for Inactive)
ROOT
HETATM    1  C1  UNL     1     -32.445   7.992   4.334  1.00 20.00     0.023 C 
HETATM    2  C2  UNL     1     -34.924   6.218   6.314  1.00 20.00     0.017 A 
HETATM    3  C3  UNL     1     -34.515   5.084   4.097  1.00 20.00     0.012 C 
HETATM    4  C4  UNL     1     -32.179   8.247   2.902  1.00 20.00     0.110 C 
HETATM    5  C5  UNL     1     -33.742   6.407   5.769  1.00 20.00     0.010 A 
HETATM    6  C6  UNL     1     -34.538   5.161   5.443  1.00 20.00    -0.008 A 
HETATM    7  C7  UNL     1     -33.386   7.069   4.532  1.00 20.00    -0.061 C 
HETATM    8  C8  UNL     1     -33.078   6.174   2.267  1.00 20.00     0.158 C 
HETATM    9  C9  UNL     1     -34.070   6.345   3.416  1.00 20.00     0.040 C 
HETATM   10  N10 UNL     1     -32.451   7.464   1.911  1.00 20.00    -0.301 NA
ENDROOT
TORSDOF 0
ENDMDL
MODEL 5
REMARK VINA RESULT:      -4.6     11.532     12.024
REMARK  0 active torsions:
REMARK  status: ('A' for Active; 'I' for Inactive)
ROOT
HETATM    1  C1  UNL     1     -36.667  14.761  -4.540  1.00 20.00     0.023 C 
HETATM    2  C2  UNL     1     -35.202  16.661  -1.808  1.00 20.00     0.017 A 
HETATM    3  C3  UNL     1     -33.470  16.004  -3.522  1.00 20.00     0.012 C 
HETATM    4  C4  UNL     1     -36.252  13.672  -5.451  1.00 20.00     0.110 C 
HETATM    5  C5  UNL     1     -35.635  16.472  -3.036  1.00 20.00     0.010 A 
HETATM    6  C6  UNL     1     -34.195  16.874  -2.792  1.00 20.00    -0.008 A 
HETATM    7  C7  UNL     1     -35.652  15.268  -3.839  1.00 20.00    -0.061 C 
HETATM    8  C8  UNL     1     -34.017  14.390  -5.445  1.00 20.00     0.158 C 
HETATM    9  C9  UNL     1     -34.238  14.803  -3.991  1.00 20.00     0.040 C 
HETATM   10  N10 UNL     1     -35.059  13.444  -5.893  1.00 20.00    -0.301 NA
ENDROOT
TORSDOF 0
ENDMDL
MODEL 6
REMARK VINA RESULT:      -4.5     11.467     12.132
REMARK  0 active torsions:
REMARK  status: ('A' for Active; 'I' for Inactive)
ROOT
HETATM    1  C1  UNL     1     -37.087  15.986  -4.187  1.00 20.00     0.023 C 
HETATM    2  C2  UNL     1     -33.712  16.433  -2.912  1.00 20.00     0.017 A 
HETATM    3  C3  UNL     1     -33.860  14.473  -4.495  1.00 20.00     0.012 C 
HETATM    4  C4  UNL     1     -37.950  14.860  -4.604  1.00 20.00     0.110 C 
HETATM    5  C5  UNL     1     -34.664  16.482  -3.819  1.00 20.00     0.010 A 
HETATM    6  C6  UNL     1     -33.410  15.673  -4.078  1.00 20.00    -0.008 A 
HETATM    7  C7  UNL     1     -35.817  15.626  -4.002  1.00 20.00    -0.061 C 
HETATM    8  C8  UNL     1     -36.116  13.614  -5.375  1.00 20.00     0.158 C 
HETATM    9  C9  UNL     1     -35.317  14.235  -4.230  1.00 20.00     0.040 C 
HETATM   10  N10 UNL     1     -37.569  13.749  -5.143  1.00 20.00    -0.301 NA
ENDROOT
TORSDOF 0
ENDMDL
MODEL 7
REMARK VINA RESULT:      -4.4     11.678     12.276
REMARK  0 active torsions:
REMARK  status: ('A' for Active; 'I' for Inactive)
ROOT
HETATM    1  C1  UNL     1     -32.616  18.153  -1.168  1.00 20.00     0.023 C 
HETATM    2  C2  UNL     1     -33.919  15.658  -3.469  1.00 20.00     0.017 A 
HETATM    3  C3  UNL     1     -35.762  16.754  -2.138  1.00 20.00     0.012 C 
HETATM    4  C4  UNL     1     -32.961  18.684   0.169  1.00 20.00     0.110 C 
HETATM    5  C5  UNL     1     -33.684  16.878  -3.035  1.00 20.00     0.010 A 
HETATM    6  C6  UNL     1     -35.107  16.416  -3.266  1.00 20.00    -0.008 A 
HETATM    7  C7  UNL     1     -33.569  17.376  -1.681  1.00 20.00    -0.061 C 
HETATM    8  C8  UNL     1     -35.256  18.342  -0.183  1.00 20.00     0.158 C 
HETATM    9  C9  UNL     1     -34.866  17.103  -0.986  1.00 20.00     0.040 C 
HETATM   10  N10 UNL     1     -34.143  18.787   0.680  1.00 20.00    -0.301 NA
ENDROOT
TORSDOF 0
ENDMDL
MODEL 8
REMARK VINA RESULT:      -4.4     11.775     12.399
REMARK  0 active torsions:
REMARK  status: ('A' for Active; 'I' for Inactive)
ROOT
HETATM    1  C1  UNL     1     -34.498  18.290   1.148  1.00 20.00     0.023 C 
HETATM    2  C2  UNL     1     -35.810  17.129  -2.038  1.00 20.00     0.017 A 
HETATM    3  C3  UNL     1     -33.299  17.377  -2.097  1.00 20.00     0.012 C 
HETATM    4  C4  UNL     1     -33.376  19.131   1.620  1.00 20.00     0.110 C 
HETATM    5  C5  UNL     1     -35.182  17.009  -0.888  1.00 20.00     0.010 A 
HETATM    6  C6  UNL     1     -34.461  16.699  -2.183  1.00 20.00    -0.008 A 
HETATM    7  C7  UNL     1     -34.409  17.982  -0.145  1.00 20.00    -0.061 C 
HETATM    8  C8  UNL     1     -32.003  18.468  -0.165  1.00 20.00     0.158 C 
HETATM    9  C9  UNL     1     -33.271  18.416  -1.015  1.00 20.00     0.040 C 
HETATM   10  N10 UNL     1     -32.219  19.263   1.062  1.00 20.00    -0.301 NA
ENDROOT
TORSDOF 0
ENDMDL
MODEL 9
REMARK VINA RESULT:      -4.4     11.697     12.184
REMARK  0 active torsions:
REMARK  status: ('A' for Active; 'I' for Inactive)
ROOT
HETATM    1  C1  UNL     1     -35.990  15.183  -4.172  1.00 20.00     0.023 C 
HETATM    2  C2  UNL     1     -35.374  16.928  -1.042  1.00 20.00     0.017 A 
HETATM    3  C3  UNL     1     -33.402  17.094  -2.607  1.00 20.00     0.012 C 
HETATM    4  C4  UNL     1     -35.199  14.431  -5.170  1.00 20.00     0.110 C 
HETATM    5  C5  UNL     1     -35.637  16.835  -2.328  1.00 20.00     0.010 A 
HETATM    6  C6  UNL     1     -34.408  17.584  -1.856  1.00 20.00    -0.008 A 
HETATM    7  C7  UNL     1     -35.231  15.832  -3.289  1.00 20.00    -0.061 C 
HETATM    8  C8  UNL     1     -33.292  15.745  -4.791  1.00 20.00     0.158 C 
HETATM    9  C9  UNL     1     -33.735  15.823  -3.331  1.00 20.00     0.040 C 
HETATM   10  N10 UNL     1     -33.964  14.631  -5.491  1.00 20.00    -0.301 NA
ENDROOT
TORSDOF 0
ENDMDL
