MODEL 1
REMARK VINA RESULT:      -6.4      0.000      0.000
REMARK  1 active torsions:
REMARK  status: ('A' for Active; 'I' for Inactive)
REMARK    1  A    between atoms: C9_9  and  O10_10 
ROOT
HETATM    1  C1  UNL     1     -32.756   8.074   4.797  1.00 20.00     0.053 A 
HETATM    2  C2  UNL     1     -33.238   6.256   2.684  1.00 20.00     0.055 A 
HETATM    3  C3  UNL     1     -33.568   6.967   4.979  1.00 20.00    -0.046 A 
HETATM    4  C4  UNL     1     -33.807   6.066   3.933  1.00 20.00    -0.020 A 
HETATM    5  C5  UNL     1     -32.169   8.266   3.544  1.00 20.00     0.155 A 
HETATM    6  C6  UNL     1     -32.408   7.364   2.496  1.00 20.00     0.155 A 
HETATM    7  C7  UNL     1     -34.328   6.575   6.207  1.00 20.00     0.042 C 
HETATM    8  C8  UNL     1     -34.642   5.105   5.902  1.00 20.00     0.041 C 
HETATM    9  C9  UNL     1     -34.755   4.991   4.373  1.00 20.00     0.152 C 
HETATM   10  F11 UNL     1     -31.375   9.326   3.338  1.00 20.00    -0.203 F 
HETATM   11  F12 UNL     1     -31.840   7.572   1.300  1.00 20.00    -0.203 F 
ENDROOT
BRANCH   9  12
HETATM   12  O10 UNL     1     -34.352   3.711   3.929  1.00 20.00    -0.391 OA
HETATM   13  H20 UNL     1     -34.716   3.588   3.035  1.00 20.00     0.210 HD
ENDBRANCH   9  12
TORSDOF 1
ENDMDL
MODEL 2
REMARK VINA RESULT:      -5.7      3.101      4.592
REMARK  1 active torsions:
REMARK  status: ('A' for Active; 'I' for Inactive)
REMARK    1  A    between atoms: C9_9  and  O10_10 
ROOT
HETATM    1  C1  UNL     1     -33.765   5.474   3.073  1.00 20.00     0.053 A 
HETATM    2  C2  UNL     1     -33.696   6.994   5.458  1.00 20.00     0.055 A 
HETATM    3  C3  UNL     1     -33.102   6.688   3.127  1.00 20.00    -0.046 A 
HETATM    4  C4  UNL     1     -33.067   7.442   4.308  1.00 20.00    -0.020 A 
HETATM    5  C5  UNL     1     -34.392   5.010   4.232  1.00 20.00     0.155 A 
HETATM    6  C6  UNL     1     -34.358   5.764   5.415  1.00 20.00     0.155 A 
HETATM    7  C7  UNL     1     -32.396   7.400   2.016  1.00 20.00     0.042 C 
HETATM    8  C8  UNL     1     -31.548   8.408   2.804  1.00 20.00     0.041 C 
HETATM    9  C9  UNL     1     -32.334   8.731   4.086  1.00 20.00     0.152 C 
HETATM   10  F11 UNL     1     -35.038   3.836   4.213  1.00 20.00    -0.203 F 
HETATM   11  F12 UNL     1     -34.972   5.303   6.513  1.00 20.00    -0.203 F 
ENDROOT
BRANCH   9  12
HETATM   12  O10 UNL     1     -31.460   9.037   5.153  1.00 20.00    -0.391 OA
HETATM   13  H20 UNL     1     -31.794   8.574   5.941  1.00 20.00     0.210 HD
ENDBRANCH   9  12
TORSDOF 1
ENDMDL
MODEL 3
REMARK VINA RESULT:      -5.5      2.921      4.033
REMARK  1 active torsions:
REMARK  status: ('A' for Active; 'I' for Inactive)
REMARK    1  A    between atoms: C9_9  and  O10_10 
ROOT
HETATM    1  C1  UNL     1     -33.282   7.280   5.450  1.00 20.00     0.053 A 
HETATM    2  C2  UNL     1     -34.080   6.295   2.922  1.00 20.00     0.055 A 
HETATM    3  C3  UNL     1     -32.682   7.732   4.287  1.00 20.00    -0.046 A 
HETATM    4  C4  UNL     1     -33.077   7.245   3.034  1.00 20.00    -0.020 A 
HETATM    5  C5  UNL     1     -34.302   6.331   5.345  1.00 20.00     0.155 A 
HETATM    6  C6  UNL     1     -34.698   5.843   4.090  1.00 20.00     0.155 A 
HETATM    7  C7  UNL     1     -31.555   8.707   4.151  1.00 20.00     0.042 C 
HETATM    8  C8  UNL     1     -31.669   9.085   2.669  1.00 20.00     0.041 C 
HETATM    9  C9  UNL     1     -32.242   7.853   1.947  1.00 20.00     0.152 C 
HETATM   10  F11 UNL     1     -34.904   5.878   6.453  1.00 20.00    -0.203 F 
HETATM   11  F12 UNL     1     -35.674   4.929   4.013  1.00 20.00    -0.203 F 
ENDROOT
BRANCH   9  12
HETATM   12  O10 UNL     1     -33.017   8.235   0.829  1.00 20.00    -0.391 OA
HETATM   13  H20 UNL     1     -33.175   7.433   0.301  1.00 20.00     0.210 HD
ENDBRANCH   9  12
TORSDOF 1
ENDMDL
MODEL 4
REMARK VINA RESULT:      -5.1     11.883     12.209
REMARK  1 active torsions:
REMARK  status: ('A' for Active; 'I' for Inactive)
REMARK    1  A    between atoms: C9_9  and  O10_10 
ROOT
HETATM    1  C1  UNL     1     -32.937  17.681  -1.805  1.00 20.00     0.053 A 
HETATM    2  C2  UNL     1     -35.586  16.940  -1.142  1.00 20.00     0.055 A 
HETATM    3  C3  UNL     1     -33.509  18.072  -0.606  1.00 20.00    -0.046 A 
HETATM    4  C4  UNL     1     -34.821  17.705  -0.276  1.00 20.00    -0.020 A 
HETATM    5  C5  UNL     1     -33.698  16.900  -2.678  1.00 20.00     0.155 A 
HETATM    6  C6  UNL     1     -35.012  16.532  -2.349  1.00 20.00     0.155 A 
HETATM    7  C7  UNL     1     -32.910  18.933   0.461  1.00 20.00     0.042 C 
HETATM    8  C8  UNL     1     -33.837  18.624   1.644  1.00 20.00     0.041 C 
HETATM    9  C9  UNL     1     -35.215  18.295   1.045  1.00 20.00     0.152 C 
HETATM   10  F11 UNL     1     -33.171  16.502  -3.844  1.00 20.00    -0.203 F 
HETATM   11  F12 UNL     1     -35.725  15.787  -3.204  1.00 20.00    -0.203 F 
ENDROOT
BRANCH   9  12
HETATM   12  O10 UNL     1     -35.913  17.371   1.854  1.00 20.00    -0.391 OA
HETATM   13  H20 UNL     1     -36.846  17.399   1.583  1.00 20.00     0.210 HD
ENDBRANCH   9  12
TORSDOF 1
ENDMDL
MODEL 5
REMARK VINA RESULT:      -5.0     12.239     12.692
REMARK  1 active torsions:
REMARK  status: ('A' for Active; 'I' for Inactive)
REMARK    1  A    between atoms: C9_9  and  O10_10 
ROOT
HETATM    1  C1  UNL     1     -34.057  18.528   3.213  1.00 20.00     0.053 A 
HETATM    2  C2  UNL     1     -31.382  19.087   2.479  1.00 20.00     0.055 A 
HETATM    3  C3  UNL     1     -33.675  18.569   1.883  1.00 20.00    -0.046 A 
HETATM    4  C4  UNL     1     -32.350  18.845   1.518  1.00 20.00    -0.020 A 
HETATM    5  C5  UNL     1     -33.084  18.759   4.188  1.00 20.00     0.155 A 
HETATM    6  C6  UNL     1     -31.757  19.036   3.824  1.00 20.00     0.155 A 
HETATM    7  C7  UNL     1     -34.537  18.392   0.672  1.00 20.00     0.042 C 
HETATM    8  C8  UNL     1     -33.480  18.123  -0.406  1.00 20.00     0.041 C 
HETATM    9  C9  UNL     1     -32.213  18.881   0.025  1.00 20.00     0.152 C 
HETATM   10  F11 UNL     1     -33.422  18.722   5.485  1.00 20.00    -0.203 F 
HETATM   11  F12 UNL     1     -30.842  19.262   4.777  1.00 20.00    -0.203 F 
ENDROOT
BRANCH   9  12
HETATM   12  O10 UNL     1     -31.048  18.216  -0.418  1.00 20.00    -0.391 OA
HETATM   13  H20 UNL     1     -30.636  18.779  -1.096  1.00 20.00     0.210 HD
ENDBRANCH   9  12
TORSDOF 1
ENDMDL
MODEL 6
REMARK VINA RESULT:      -4.9     11.585     12.949
REMARK  1 active torsions:
REMARK  status: ('A' for Active; 'I' for Inactive)
REMARK    1  A    between atoms: C9_9  and  O10_10 
ROOT
HETATM    1  C1  UNL     1     -33.689  16.761  -5.937  1.00 20.00     0.053 A 
HETATM    2  C2  UNL     1     -34.280  14.898  -3.892  1.00 20.00     0.055 A 
HETATM    3  C3  UNL     1     -34.173  15.499  -6.239  1.00 20.00    -0.046 A 
HETATM    4  C4  UNL     1     -34.466  14.576  -5.227  1.00 20.00    -0.020 A 
HETATM    5  C5  UNL     1     -33.511  17.098  -4.593  1.00 20.00     0.155 A 
HETATM    6  C6  UNL     1     -33.804  16.173  -3.579  1.00 20.00     0.155 A 
HETATM    7  C7  UNL     1     -34.408  14.904  -7.592  1.00 20.00     0.042 C 
HETATM    8  C8  UNL     1     -35.316  13.719  -7.238  1.00 20.00     0.041 C 
HETATM    9  C9  UNL     1     -34.922  13.276  -5.819  1.00 20.00     0.152 C 
HETATM   10  F11 UNL     1     -33.049  18.313  -4.268  1.00 20.00    -0.203 F 
HETATM   11  F12 UNL     1     -33.619  16.515  -2.297  1.00 20.00    -0.203 F 
ENDROOT
BRANCH   9  12
HETATM   12  O10 UNL     1     -36.031  12.736  -5.130  1.00 20.00    -0.391 OA
HETATM   13  H20 UNL     1     -36.762  12.669  -5.768  1.00 20.00     0.210 HD
ENDBRANCH   9  12
TORSDOF 1
ENDMDL
MODEL 7
REMARK VINA RESULT:      -4.8     11.922     12.553
REMARK  1 active torsions:
REMARK  status: ('A' for Active; 'I' for Inactive)
REMARK    1  A    between atoms: C9_9  and  O10_10 
ROOT
HETATM    1  C1  UNL     1     -34.711  14.357  -4.426  1.00 20.00     0.053 A 
HETATM    2  C2  UNL     1     -37.188  15.682  -4.088  1.00 20.00     0.055 A 
HETATM    3  C3  UNL     1     -34.813  15.491  -3.638  1.00 20.00    -0.046 A 
HETATM    4  C4  UNL     1     -36.039  16.148  -3.470  1.00 20.00    -0.020 A 
HETATM    5  C5  UNL     1     -35.868  13.874  -5.043  1.00 20.00     0.155 A 
HETATM    6  C6  UNL     1     -37.096  14.531  -4.875  1.00 20.00     0.155 A 
HETATM    7  C7  UNL     1     -33.717  16.210  -2.915  1.00 20.00     0.042 C 
HETATM    8  C8  UNL     1     -34.525  17.065  -1.931  1.00 20.00     0.041 C 
HETATM    9  C9  UNL     1     -35.867  17.370  -2.618  1.00 20.00     0.152 C 
HETATM   10  F11 UNL     1     -35.803  12.775  -5.807  1.00 20.00    -0.203 F 
HETATM   11  F12 UNL     1     -38.192  14.054  -5.481  1.00 20.00    -0.203 F 
ENDROOT
BRANCH   9  12
HETATM   12  O10 UNL     1     -36.904  17.507  -1.668  1.00 20.00    -0.391 OA
HETATM   13  H20 UNL     1     -37.077  16.623  -1.301  1.00 20.00     0.210 HD
ENDBRANCH   9  12
TORSDOF 1
ENDMDL
MODEL 8
REMARK VINA RESULT:      -4.8      1.412      2.488
REMARK  1 active torsions:
REMARK  status: ('A' for Active; 'I' for Inactive)
REMARK    1  A    between atoms: C9_9  and  O10_10 
ROOT
HETATM    1  C1  UNL     1     -33.124   6.613   2.176  1.00 20.00     0.053 A 
HETATM    2  C2  UNL     1     -32.501   8.113   4.492  1.00 20.00     0.055 A 
HETATM    3  C3  UNL     1     -33.573   6.218   3.425  1.00 20.00    -0.046 A 
HETATM    4  C4  UNL     1     -33.265   6.960   4.573  1.00 20.00    -0.020 A 
HETATM    5  C5  UNL     1     -32.363   7.781   2.085  1.00 20.00     0.155 A 
HETATM    6  C6  UNL     1     -32.054   8.525   3.234  1.00 20.00     0.155 A 
HETATM    7  C7  UNL     1     -34.363   4.996   3.774  1.00 20.00     0.042 C 
HETATM    8  C8  UNL     1     -34.881   5.369   5.169  1.00 20.00     0.041 C 
HETATM    9  C9  UNL     1     -33.823   6.294   5.794  1.00 20.00     0.152 C 
HETATM   10  F11 UNL     1     -31.918   8.192   0.890  1.00 20.00    -0.203 F 
HETATM   11  F12 UNL     1     -31.318   9.639   3.123  1.00 20.00    -0.203 F 
ENDROOT
BRANCH   9  12
HETATM   12  O10 UNL     1     -34.419   7.219   6.681  1.00 20.00    -0.391 OA
HETATM   13  H20 UNL     1     -33.740   7.475   7.329  1.00 20.00     0.210 HD
ENDBRANCH   9  12
TORSDOF 1
ENDMDL
MODEL 9
REMARK VINA RESULT:      -4.8     12.069     12.383
REMARK  1 active torsions:
REMARK  status: ('A' for Active; 'I' for Inactive)
REMARK    1  A    between atoms: C9_9  and  O10_10 
ROOT
HETATM    1  C1  UNL     1     -33.996  18.494   1.961  1.00 20.00     0.053 A 
HETATM    2  C2  UNL     1     -32.155  18.519  -0.187  1.00 20.00     0.055 A 
HETATM    3  C3  UNL     1     -34.382  18.119   0.685  1.00 20.00    -0.046 A 
HETATM    4  C4  UNL     1     -33.471  18.131  -0.380  1.00 20.00    -0.020 A 
HETATM    5  C5  UNL     1     -32.668  18.875   2.165  1.00 20.00     0.155 A 
HETATM    6  C6  UNL     1     -31.755  18.887   1.100  1.00 20.00     0.155 A 
HETATM    7  C7  UNL     1     -35.745  17.712   0.218  1.00 20.00     0.042 C 
HETATM    8  C8  UNL     1     -35.409  17.036  -1.117  1.00 20.00     0.041 C 
HETATM    9  C9  UNL     1     -34.150  17.735  -1.656  1.00 20.00     0.152 C 
HETATM   10  F11 UNL     1     -32.263  19.238   3.390  1.00 20.00    -0.203 F 
HETATM   11  F12 UNL     1     -30.487  19.263   1.318  1.00 20.00    -0.203 F 
ENDROOT
BRANCH   9  12
HETATM   12  O10 UNL     1     -33.365  16.845  -2.423  1.00 20.00    -0.391 OA
HETATM   13  H20 UNL     1     -32.655  16.516  -1.845  1.00 20.00     0.210 HD
ENDBRANCH   9  12
TORSDOF 1
ENDMDL
