MODEL 1
REMARK VINA RESULT:      -4.5      0.000      0.000
REMARK  0 active torsions:
REMARK  status: ('A' for Active; 'I' for Inactive)
ROOT
HETATM    1  C1  UNL     1     -37.563  14.315  -5.160  1.00 20.00     0.004 A 
HETATM    2  C2  UNL     1     -36.350  13.681  -5.481  1.00 20.00     0.034 A 
HETATM    3  C3  UNL     1     -37.606  15.424  -4.304  1.00 20.00     0.021 A 
HETATM    4  C4  UNL     1     -33.156  14.631  -4.316  1.00 20.00     0.210 A 
HETATM    5  C5  UNL     1     -35.167  14.188  -4.923  1.00 20.00     0.086 A 
HETATM    6  C6  UNL     1     -35.253  15.286  -4.082  1.00 20.00     0.081 A 
HETATM    7  C7  UNL     1     -36.436  15.931  -3.733  1.00 20.00     0.029 A 
HETATM    8  C8  UNL     1     -33.605  16.650  -2.849  1.00 20.00     0.140 C 
HETATM    9  C9  UNL     1     -34.720  16.989  -1.852  1.00 20.00     0.100 C 
HETATM   10  N10 UNL     1     -33.853  13.790  -5.056  1.00 20.00    -0.242 NA
HETATM   11  N11 UNL     1     -33.962  15.548  -3.717  1.00 20.00    -0.338 N 
HETATM   12  S12 UNL     1     -36.347  17.325  -2.650  1.00 20.00    -0.126 SA
ENDROOT
TORSDOF 0
ENDMDL
MODEL 2
REMARK VINA RESULT:      -4.5      4.787      6.246
REMARK  0 active torsions:
REMARK  status: ('A' for Active; 'I' for Inactive)
ROOT
HETATM    1  C1  UNL     1     -34.368  17.692  -1.603  1.00 20.00     0.004 A 
HETATM    2  C2  UNL     1     -32.972  17.843  -1.565  1.00 20.00     0.034 A 
HETATM    3  C3  UNL     1     -35.163  17.943  -0.476  1.00 20.00     0.021 A 
HETATM    4  C4  UNL     1     -31.084  18.873   1.235  1.00 20.00     0.210 A 
HETATM    5  C5  UNL     1     -32.380  18.258  -0.362  1.00 20.00     0.086 A 
HETATM    6  C6  UNL     1     -33.201  18.496   0.728  1.00 20.00     0.081 A 
HETATM    7  C7  UNL     1     -34.585  18.345   0.731  1.00 20.00     0.029 A 
HETATM    8  C8  UNL     1     -32.819  19.263   3.044  1.00 20.00     0.140 C 
HETATM    9  C9  UNL     1     -34.099  18.518   3.440  1.00 20.00     0.100 C 
HETATM   10  N10 UNL     1     -31.062  18.495  -0.029  1.00 20.00    -0.242 NA
HETATM   11  N11 UNL     1     -32.353  18.890   1.724  1.00 20.00    -0.338 N 
HETATM   12  S12 UNL     1     -35.469  18.705   2.219  1.00 20.00    -0.126 SA
ENDROOT
TORSDOF 0
ENDMDL
MODEL 3
REMARK VINA RESULT:      -4.4      5.480      7.528
REMARK  0 active torsions:
REMARK  status: ('A' for Active; 'I' for Inactive)
ROOT
HETATM    1  C1  UNL     1     -31.115  19.250   3.239  1.00 20.00     0.004 A 
HETATM    2  C2  UNL     1     -30.607  18.979   1.957  1.00 20.00     0.034 A 
HETATM    3  C3  UNL     1     -32.493  19.258   3.495  1.00 20.00     0.021 A 
HETATM    4  C4  UNL     1     -32.532  18.241  -0.909  1.00 20.00     0.210 A 
HETATM    5  C5  UNL     1     -31.519  18.709   0.924  1.00 20.00     0.086 A 
HETATM    6  C6  UNL     1     -32.872  18.726   1.219  1.00 20.00     0.081 A 
HETATM    7  C7  UNL     1     -33.411  19.002   2.473  1.00 20.00     0.029 A 
HETATM    8  C8  UNL     1     -34.928  18.308  -0.083  1.00 20.00     0.140 C 
HETATM    9  C9  UNL     1     -35.667  19.222   0.903  1.00 20.00     0.100 C 
HETATM   10  N10 UNL     1     -31.323  18.408  -0.408  1.00 20.00    -0.242 NA
HETATM   11  N11 UNL     1     -33.490  18.421   0.039  1.00 20.00    -0.338 N 
HETATM   12  S12 UNL     1     -35.168  18.970   2.660  1.00 20.00    -0.126 SA
ENDROOT
TORSDOF 0
ENDMDL
MODEL 4
REMARK VINA RESULT:      -4.3      1.393      3.340
REMARK  0 active torsions:
REMARK  status: ('A' for Active; 'I' for Inactive)
ROOT
HETATM    1  C1  UNL     1     -34.066  16.701  -2.961  1.00 20.00     0.004 A 
HETATM    2  C2  UNL     1     -33.768  15.454  -3.537  1.00 20.00     0.034 A 
HETATM    3  C3  UNL     1     -35.353  17.252  -3.033  1.00 20.00     0.021 A 
HETATM    4  C4  UNL     1     -36.048  13.379  -5.256  1.00 20.00     0.210 A 
HETATM    5  C5  UNL     1     -34.798  14.761  -4.191  1.00 20.00     0.086 A 
HETATM    6  C6  UNL     1     -36.055  15.340  -4.240  1.00 20.00     0.081 A 
HETATM    7  C7  UNL     1     -36.384  16.577  -3.692  1.00 20.00     0.029 A 
HETATM    8  C8  UNL     1     -38.239  14.653  -5.165  1.00 20.00     0.140 C 
HETATM    9  C9  UNL     1     -38.587  16.141  -5.291  1.00 20.00     0.100 C 
HETATM   10  N10 UNL     1     -34.809  13.539  -4.833  1.00 20.00    -0.242 NA
HETATM   11  N11 UNL     1     -36.828  14.439  -4.916  1.00 20.00    -0.338 N 
HETATM   12  S12 UNL     1     -38.048  17.151  -3.846  1.00 20.00    -0.126 SA
ENDROOT
TORSDOF 0
ENDMDL
MODEL 5
REMARK VINA RESULT:      -4.2      2.003      3.275
REMARK  0 active torsions:
REMARK  status: ('A' for Active; 'I' for Inactive)
ROOT
HETATM    1  C1  UNL     1     -34.071  14.438  -4.188  1.00 20.00     0.004 A 
HETATM    2  C2  UNL     1     -35.166  13.730  -4.711  1.00 20.00     0.034 A 
HETATM    3  C3  UNL     1     -34.215  15.730  -3.665  1.00 20.00     0.021 A 
HETATM    4  C4  UNL     1     -38.495  14.897  -4.856  1.00 20.00     0.210 A 
HETATM    5  C5  UNL     1     -36.426  14.348  -4.695  1.00 20.00     0.086 A 
HETATM    6  C6  UNL     1     -36.526  15.626  -4.169  1.00 20.00     0.081 A 
HETATM    7  C7  UNL     1     -35.462  16.361  -3.654  1.00 20.00     0.029 A 
HETATM    8  C8  UNL     1     -38.390  17.206  -3.813  1.00 20.00     0.140 C 
HETATM    9  C9  UNL     1     -37.363  18.343  -3.896  1.00 20.00     0.100 C 
HETATM   10  N10 UNL     1     -37.662  13.909  -5.122  1.00 20.00    -0.242 NA
HETATM   11  N11 UNL     1     -37.850  15.946  -4.279  1.00 20.00    -0.338 N 
HETATM   12  S12 UNL     1     -35.785  17.977  -3.016  1.00 20.00    -0.126 SA
ENDROOT
TORSDOF 0
ENDMDL
MODEL 6
REMARK VINA RESULT:      -4.2      1.645      3.394
REMARK  0 active torsions:
REMARK  status: ('A' for Active; 'I' for Inactive)
ROOT
HETATM    1  C1  UNL     1     -34.652  16.646  -2.293  1.00 20.00     0.004 A 
HETATM    2  C2  UNL     1     -33.555  16.493  -3.157  1.00 20.00     0.034 A 
HETATM    3  C3  UNL     1     -35.945  16.263  -2.676  1.00 20.00     0.021 A 
HETATM    4  C4  UNL     1     -33.669  15.135  -6.414  1.00 20.00     0.210 A 
HETATM    5  C5  UNL     1     -33.781  15.936  -4.426  1.00 20.00     0.086 A 
HETATM    6  C6  UNL     1     -35.073  15.570  -4.765  1.00 20.00     0.081 A 
HETATM    7  C7  UNL     1     -36.185  15.719  -3.940  1.00 20.00     0.029 A 
HETATM    8  C8  UNL     1     -36.110  14.532  -6.750  1.00 20.00     0.140 C 
HETATM    9  C9  UNL     1     -37.420  15.224  -6.355  1.00 20.00     0.100 C 
HETATM   10  N10 UNL     1     -32.917  15.661  -5.467  1.00 20.00    -0.242 NA
HETATM   11  N11 UNL     1     -34.971  15.060  -6.028  1.00 20.00    -0.338 N 
HETATM   12  S12 UNL     1     -37.758  15.185  -4.543  1.00 20.00    -0.126 SA
ENDROOT
TORSDOF 0
ENDMDL
MODEL 7
REMARK VINA RESULT:      -4.2      2.547      4.441
REMARK  0 active torsions:
REMARK  status: ('A' for Active; 'I' for Inactive)
ROOT
HETATM    1  C1  UNL     1     -33.684  15.993  -3.660  1.00 20.00     0.004 A 
HETATM    2  C2  UNL     1     -35.011  15.839  -3.225  1.00 20.00     0.034 A 
HETATM    3  C3  UNL     1     -33.301  15.683  -4.972  1.00 20.00     0.021 A 
HETATM    4  C4  UNL     1     -37.707  14.697  -5.198  1.00 20.00     0.210 A 
HETATM    5  C5  UNL     1     -35.961  15.366  -4.144  1.00 20.00     0.086 A 
HETATM    6  C6  UNL     1     -35.542  15.072  -5.431  1.00 20.00     0.081 A 
HETATM    7  C7  UNL     1     -34.235  15.201  -5.893  1.00 20.00     0.029 A 
HETATM    8  C8  UNL     1     -36.674  14.273  -7.475  1.00 20.00     0.140 C 
HETATM    9  C9  UNL     1     -35.330  13.683  -7.918  1.00 20.00     0.100 C 
HETATM   10  N10 UNL     1     -37.312  15.124  -4.013  1.00 20.00    -0.242 NA
HETATM   11  N11 UNL     1     -36.671  14.656  -6.078  1.00 20.00    -0.338 N 
HETATM   12  S12 UNL     1     -33.891  14.785  -7.576  1.00 20.00    -0.126 SA
ENDROOT
TORSDOF 0
ENDMDL
MODEL 8
REMARK VINA RESULT:      -4.0      0.914      1.076
REMARK  0 active torsions:
REMARK  status: ('A' for Active; 'I' for Inactive)
ROOT
HETATM    1  C1  UNL     1     -38.643  15.218  -5.019  1.00 20.00     0.004 A 
HETATM    2  C2  UNL     1     -37.721  14.192  -5.285  1.00 20.00     0.034 A 
HETATM    3  C3  UNL     1     -38.285  16.350  -4.273  1.00 20.00     0.021 A 
HETATM    4  C4  UNL     1     -34.350  14.126  -4.238  1.00 20.00     0.210 A 
HETATM    5  C5  UNL     1     -36.416  14.325  -4.786  1.00 20.00     0.086 A 
HETATM    6  C6  UNL     1     -36.103  15.459  -4.054  1.00 20.00     0.081 A 
HETATM    7  C7  UNL     1     -36.993  16.488  -3.761  1.00 20.00     0.029 A 
HETATM    8  C8  UNL     1     -34.051  16.302  -2.970  1.00 20.00     0.140 C 
HETATM    9  C9  UNL     1     -34.953  17.079  -2.002  1.00 20.00     0.100 C 
HETATM   10  N10 UNL     1     -35.313  13.502  -4.889  1.00 20.00    -0.242 NA
HETATM   11  N11 UNL     1     -34.786  15.308  -3.725  1.00 20.00    -0.338 N 
HETATM   12  S12 UNL     1     -36.408  17.864  -2.819  1.00 20.00    -0.126 SA
ENDROOT
TORSDOF 0
ENDMDL
MODEL 9
REMARK VINA RESULT:      -4.0      2.020      3.606
REMARK  0 active torsions:
REMARK  status: ('A' for Active; 'I' for Inactive)
ROOT
HETATM    1  C1  UNL     1     -33.688  15.615  -3.719  1.00 20.00     0.004 A 
HETATM    2  C2  UNL     1     -33.438  14.510  -4.550  1.00 20.00     0.034 A 
HETATM    3  C3  UNL     1     -34.793  16.452  -3.925  1.00 20.00     0.021 A 
HETATM    4  C4  UNL     1     -35.423  13.501  -7.290  1.00 20.00     0.210 A 
HETATM    5  C5  UNL     1     -34.331  14.255  -5.602  1.00 20.00     0.086 A 
HETATM    6  C6  UNL     1     -35.411  15.105  -5.771  1.00 20.00     0.081 A 
HETATM    7  C7  UNL     1     -35.683  16.215  -4.976  1.00 20.00     0.029 A 
HETATM    8  C8  UNL     1     -37.314  15.190  -7.342  1.00 20.00     0.140 C 
HETATM    9  C9  UNL     1     -37.369  16.704  -7.102  1.00 20.00     0.100 C 
HETATM   10  N10 UNL     1     -34.351  13.261  -6.559  1.00 20.00    -0.242 NA
HETATM   11  N11 UNL     1     -36.089  14.600  -6.844  1.00 20.00    -0.338 N 
HETATM   12  S12 UNL     1     -37.118  17.181  -5.339  1.00 20.00    -0.126 SA
ENDROOT
TORSDOF 0
ENDMDL
