MODEL 1
REMARK VINA RESULT:      -4.9      0.000      0.000
REMARK  0 active torsions:
REMARK  status: ('A' for Active; 'I' for Inactive)
ROOT
HETATM    1  C1  UNL     1     -32.768  18.573  -0.329  1.00 20.00     0.011 A 
HETATM    2  C2  UNL     1     -32.755  17.878  -1.541  1.00 20.00     0.024 A 
HETATM    3  C3  UNL     1     -34.989  17.011  -1.122  1.00 20.00     0.031 A 
HETATM    4  C4  UNL     1     -33.897  18.482   0.468  1.00 20.00    -0.033 A 
HETATM    5  C5  UNL     1     -34.999  17.713   0.072  1.00 20.00    -0.049 A 
HETATM    6  C6  UNL     1     -33.857  17.102  -1.933  1.00 20.00     0.034 A 
HETATM    7  C7  UNL     1     -36.076  17.745   1.111  1.00 20.00     0.041 C 
HETATM    8  C8  UNL     1     -35.668  18.990   1.917  1.00 20.00     0.030 C 
HETATM    9  C9  UNL     1     -34.137  19.108   1.809  1.00 20.00     0.116 C 
HETATM   10 CL10 UNL     1     -33.808  16.249  -3.429  1.00 20.00    -0.084 Cl
HETATM   11 CL11 UNL     1     -33.324  18.168   3.078  1.00 20.00    -0.120 Cl
ENDROOT
TORSDOF 0
ENDMDL
MODEL 2
REMARK VINA RESULT:      -4.9      1.639      4.576
REMARK  0 active torsions:
REMARK  status: ('A' for Active; 'I' for Inactive)
ROOT
HETATM    1  C1  UNL     1     -32.888  17.766  -1.631  1.00 20.00     0.011 A 
HETATM    2  C2  UNL     1     -33.362  18.241  -0.406  1.00 20.00     0.024 A 
HETATM    3  C3  UNL     1     -35.522  17.185  -0.779  1.00 20.00     0.031 A 
HETATM    4  C4  UNL     1     -33.738  17.000  -2.412  1.00 20.00    -0.033 A 
HETATM    5  C5  UNL     1     -35.041  16.708  -1.987  1.00 20.00    -0.049 A 
HETATM    6  C6  UNL     1     -34.670  17.954   0.016  1.00 20.00     0.034 A 
HETATM    7  C7  UNL     1     -35.771  15.899  -3.012  1.00 20.00     0.041 C 
HETATM    8  C8  UNL     1     -34.597  15.360  -3.849  1.00 20.00     0.030 C 
HETATM    9  C9  UNL     1     -33.472  16.406  -3.762  1.00 20.00     0.116 C 
HETATM   10 CL10 UNL     1     -35.229  18.561   1.528  1.00 20.00    -0.084 Cl
HETATM   11 CL11 UNL     1     -33.642  17.646  -5.022  1.00 20.00    -0.120 Cl
ENDROOT
TORSDOF 0
ENDMDL
MODEL 3
REMARK VINA RESULT:      -4.7      1.294      4.091
REMARK  0 active torsions:
REMARK  status: ('A' for Active; 'I' for Inactive)
ROOT
HETATM    1  C1  UNL     1     -32.019  18.577  -0.239  1.00 20.00     0.011 A 
HETATM    2  C2  UNL     1     -32.167  18.941   1.101  1.00 20.00     0.024 A 
HETATM    3  C3  UNL     1     -34.489  18.215   1.090  1.00 20.00     0.031 A 
HETATM    4  C4  UNL     1     -33.109  18.029  -0.896  1.00 20.00    -0.033 A 
HETATM    5  C5  UNL     1     -34.330  17.845  -0.235  1.00 20.00    -0.049 A 
HETATM    6  C6  UNL     1     -33.394  18.763   1.760  1.00 20.00     0.034 A 
HETATM    7  C7  UNL     1     -35.359  17.273  -1.159  1.00 20.00     0.041 C 
HETATM    8  C8  UNL     1     -34.465  16.708  -2.278  1.00 20.00     0.030 C 
HETATM    9  C9  UNL     1     -33.204  17.589  -2.325  1.00 20.00     0.116 C 
HETATM   10 CL10 UNL     1     -33.549  19.230   3.411  1.00 20.00    -0.084 Cl
HETATM   11 CL11 UNL     1     -33.435  18.995  -3.386  1.00 20.00    -0.120 Cl
ENDROOT
TORSDOF 0
ENDMDL
MODEL 4
REMARK VINA RESULT:      -4.7      3.134      6.119
REMARK  0 active torsions:
REMARK  status: ('A' for Active; 'I' for Inactive)
ROOT
HETATM    1  C1  UNL     1     -36.296  16.258  -3.418  1.00 20.00     0.011 A 
HETATM    2  C2  UNL     1     -35.917  16.913  -2.244  1.00 20.00     0.024 A 
HETATM    3  C3  UNL     1     -33.569  16.462  -2.695  1.00 20.00     0.031 A 
HETATM    4  C4  UNL     1     -35.304  15.719  -4.219  1.00 20.00    -0.033 A 
HETATM    5  C5  UNL     1     -33.953  15.825  -3.863  1.00 20.00    -0.049 A 
HETATM    6  C6  UNL     1     -34.564  17.013  -1.885  1.00 20.00     0.034 A 
HETATM    7  C7  UNL     1     -33.079  15.138  -4.865  1.00 20.00     0.041 C 
HETATM    8  C8  UNL     1     -34.032  15.043  -6.069  1.00 20.00     0.030 C 
HETATM    9  C9  UNL     1     -35.459  14.955  -5.499  1.00 20.00     0.116 C 
HETATM   10 CL10 UNL     1     -34.128  17.820  -0.426  1.00 20.00    -0.084 Cl
HETATM   11 CL11 UNL     1     -35.917  13.273  -5.158  1.00 20.00    -0.120 Cl
ENDROOT
TORSDOF 0
ENDMDL
MODEL 5
REMARK VINA RESULT:      -4.5      4.137      6.914
REMARK  0 active torsions:
REMARK  status: ('A' for Active; 'I' for Inactive)
ROOT
HETATM    1  C1  UNL     1     -33.300  15.381  -4.545  1.00 20.00     0.011 A 
HETATM    2  C2  UNL     1     -33.624  16.033  -3.353  1.00 20.00     0.024 A 
HETATM    3  C3  UNL     1     -35.979  15.496  -3.645  1.00 20.00     0.031 A 
HETATM    4  C4  UNL     1     -34.322  14.789  -5.269  1.00 20.00    -0.033 A 
HETATM    5  C5  UNL     1     -35.648  14.842  -4.820  1.00 20.00    -0.049 A 
HETATM    6  C6  UNL     1     -34.954  16.091  -2.908  1.00 20.00     0.034 A 
HETATM    7  C7  UNL     1     -36.568  14.164  -5.786  1.00 20.00     0.041 C 
HETATM    8  C8  UNL     1     -35.572  13.309  -6.589  1.00 20.00     0.030 C 
HETATM    9  C9  UNL     1     -34.230  14.063  -6.577  1.00 20.00     0.116 C 
HETATM   10 CL10 UNL     1     -35.324  16.909  -1.437  1.00 20.00    -0.084 Cl
HETATM   11 CL11 UNL     1     -34.128  15.224  -7.918  1.00 20.00    -0.120 Cl
ENDROOT
TORSDOF 0
ENDMDL
MODEL 6
REMARK VINA RESULT:      -4.5      1.514      1.928
REMARK  0 active torsions:
REMARK  status: ('A' for Active; 'I' for Inactive)
ROOT
HETATM    1  C1  UNL     1     -33.060  18.203  -2.535  1.00 20.00     0.011 A 
HETATM    2  C2  UNL     1     -33.720  17.279  -3.348  1.00 20.00     0.024 A 
HETATM    3  C3  UNL     1     -35.212  16.670  -1.525  1.00 20.00     0.031 A 
HETATM    4  C4  UNL     1     -33.491  18.353  -1.227  1.00 20.00    -0.033 A 
HETATM    5  C5  UNL     1     -34.560  17.597  -0.729  1.00 20.00    -0.049 A 
HETATM    6  C6  UNL     1     -34.787  16.517  -2.846  1.00 20.00     0.034 A 
HETATM    7  C7  UNL     1     -34.814  17.911   0.712  1.00 20.00     0.041 C 
HETATM    8  C8  UNL     1     -34.091  19.263   0.848  1.00 20.00     0.030 C 
HETATM    9  C9  UNL     1     -32.932  19.251  -0.165  1.00 20.00     0.116 C 
HETATM   10 CL10 UNL     1     -35.576  15.378  -3.870  1.00 20.00    -0.084 Cl
HETATM   11 CL11 UNL     1     -31.466  18.534   0.536  1.00 20.00    -0.120 Cl
ENDROOT
TORSDOF 0
ENDMDL
MODEL 7
REMARK VINA RESULT:      -4.4      3.304      5.007
REMARK  0 active torsions:
REMARK  status: ('A' for Active; 'I' for Inactive)
ROOT
HETATM    1  C1  UNL     1     -34.294  14.745  -3.850  1.00 20.00     0.011 A 
HETATM    2  C2  UNL     1     -34.210  14.394  -5.199  1.00 20.00     0.024 A 
HETATM    3  C3  UNL     1     -33.587  16.668  -5.800  1.00 20.00     0.031 A 
HETATM    4  C4  UNL     1     -34.016  16.054  -3.493  1.00 20.00    -0.033 A 
HETATM    5  C5  UNL     1     -33.660  17.005  -4.459  1.00 20.00    -0.049 A 
HETATM    6  C6  UNL     1     -33.860  15.350  -6.167  1.00 20.00     0.034 A 
HETATM    7  C7  UNL     1     -33.443  18.348  -3.835  1.00 20.00     0.041 C 
HETATM    8  C8  UNL     1     -33.247  17.957  -2.359  1.00 20.00     0.030 C 
HETATM    9  C9  UNL     1     -34.063  16.672  -2.128  1.00 20.00     0.116 C 
HETATM   10 CL10 UNL     1     -33.774  14.889  -7.825  1.00 20.00    -0.084 Cl
HETATM   11 CL11 UNL     1     -35.741  17.044  -1.681  1.00 20.00    -0.120 Cl
ENDROOT
TORSDOF 0
ENDMDL
MODEL 8
REMARK VINA RESULT:      -4.4      2.132      5.176
REMARK  0 active torsions:
REMARK  status: ('A' for Active; 'I' for Inactive)
ROOT
HETATM    1  C1  UNL     1     -35.415  16.599  -1.681  1.00 20.00     0.011 A 
HETATM    2  C2  UNL     1     -34.755  17.314  -0.679  1.00 20.00     0.024 A 
HETATM    3  C3  UNL     1     -33.041  18.025  -2.253  1.00 20.00     0.031 A 
HETATM    4  C4  UNL     1     -34.881  16.612  -2.959  1.00 20.00    -0.033 A 
HETATM    5  C5  UNL     1     -33.708  17.324  -3.243  1.00 20.00    -0.049 A 
HETATM    6  C6  UNL     1     -33.575  18.020  -0.964  1.00 20.00     0.034 A 
HETATM    7  C7  UNL     1     -33.315  17.158  -4.677  1.00 20.00     0.041 C 
HETATM    8  C8  UNL     1     -34.640  16.671  -5.290  1.00 20.00     0.030 C 
HETATM    9  C9  UNL     1     -35.388  15.908  -4.182  1.00 20.00     0.116 C 
HETATM   10 CL10 UNL     1     -32.778  18.886   0.295  1.00 20.00    -0.084 Cl
HETATM   11 CL11 UNL     1     -34.916  14.196  -4.143  1.00 20.00    -0.120 Cl
ENDROOT
TORSDOF 0
ENDMDL
MODEL 9
REMARK VINA RESULT:      -4.4      1.386      4.586
REMARK  0 active torsions:
REMARK  status: ('A' for Active; 'I' for Inactive)
ROOT
HETATM    1  C1  UNL     1     -35.202  18.509   1.453  1.00 20.00     0.011 A 
HETATM    2  C2  UNL     1     -34.793  18.560   2.787  1.00 20.00     0.024 A 
HETATM    3  C3  UNL     1     -32.455  18.618   2.118  1.00 20.00     0.031 A 
HETATM    4  C4  UNL     1     -34.229  18.519   0.466  1.00 20.00    -0.033 A 
HETATM    5  C5  UNL     1     -32.869  18.579   0.797  1.00 20.00    -0.049 A 
HETATM    6  C6  UNL     1     -33.429  18.613   3.117  1.00 20.00     0.034 A 
HETATM    7  C7  UNL     1     -32.017  18.544  -0.433  1.00 20.00     0.041 C 
HETATM    8  C8  UNL     1     -33.042  18.938  -1.511  1.00 20.00     0.030 C 
HETATM    9  C9  UNL     1     -34.415  18.446  -1.019  1.00 20.00     0.116 C 
HETATM   10 CL10 UNL     1     -32.956  18.667   4.773  1.00 20.00    -0.084 Cl
HETATM   11 CL11 UNL     1     -34.717  16.768  -1.517  1.00 20.00    -0.120 Cl
ENDROOT
TORSDOF 0
ENDMDL
