MODEL 1
REMARK VINA RESULT:      -6.0      0.000      0.000
REMARK  3 active torsions:
REMARK  status: ('A' for Active; 'I' for Inactive)
REMARK    1  A    between atoms: C1_1  and  C7_7 
REMARK    2  A    between atoms: C2_2  and  C8_8 
REMARK    3  A    between atoms: C8_8  and  C9_9 
ROOT
HETATM    1  C1  UNL     1     -32.036   8.761   2.843  1.00 20.00     0.157 A 
HETATM    2  C2  UNL     1     -32.566   7.655   3.723  1.00 20.00     0.185 A 
HETATM    3  O10 UNL     1     -31.283   7.566   3.089  1.00 20.00    -0.372 OA
ENDROOT
BRANCH   2   4
HETATM    4  C8  UNL     1     -33.567   6.646   3.257  1.00 20.00     0.204 C 
HETATM    5  F11 UNL     1     -32.894   5.596   2.710  1.00 20.00    -0.246 F 
BRANCH   4   6
HETATM    6  C9  UNL     1     -34.497   6.129   4.367  1.00 20.00     0.014 C 
HETATM    7  C5  UNL     1     -34.122   6.674   5.747  1.00 20.00     0.012 C 
HETATM    8  C6  UNL     1     -34.467   4.598   4.400  1.00 20.00     0.012 C 
ENDBRANCH   4   6
ENDBRANCH   2   4
BRANCH   1   9
HETATM    9  C7  UNL     1     -32.458   8.952   1.431  1.00 20.00     0.009 C 
HETATM   10  C3  UNL     1     -32.916  10.397   1.155  1.00 20.00     0.012 C 
HETATM   11  C4  UNL     1     -31.338   8.581   0.438  1.00 20.00     0.012 C 
ENDBRANCH   1   9
TORSDOF 3
ENDMDL
MODEL 2
REMARK VINA RESULT:      -5.5      0.503      1.130
REMARK  3 active torsions:
REMARK  status: ('A' for Active; 'I' for Inactive)
REMARK    1  A    between atoms: C1_1  and  C7_7 
REMARK    2  A    between atoms: C2_2  and  C8_8 
REMARK    3  A    between atoms: C8_8  and  C9_9 
ROOT
HETATM    1  C1  UNL     1     -31.905   8.995   2.845  1.00 20.00     0.157 A 
HETATM    2  C2  UNL     1     -32.316   7.895   3.794  1.00 20.00     0.185 A 
HETATM    3  O10 UNL     1     -31.055   7.872   3.111  1.00 20.00    -0.372 OA
ENDROOT
BRANCH   2   4
HETATM    4  C8  UNL     1     -33.254   6.794   3.414  1.00 20.00     0.204 C 
HETATM    5  F11 UNL     1     -32.574   5.896   2.649  1.00 20.00    -0.246 F 
BRANCH   4   6
HETATM    6  C9  UNL     1     -33.882   6.065   4.613  1.00 20.00     0.014 C 
HETATM    7  C5  UNL     1     -35.269   5.501   4.297  1.00 20.00     0.012 C 
HETATM    8  C6  UNL     1     -33.981   7.019   5.807  1.00 20.00     0.012 C 
ENDBRANCH   4   6
ENDBRANCH   2   4
BRANCH   1   9
HETATM    9  C7  UNL     1     -32.394   9.088   1.445  1.00 20.00     0.009 C 
HETATM   10  C3  UNL     1     -32.847  10.517   1.085  1.00 20.00     0.012 C 
HETATM   11  C4  UNL     1     -31.329   8.628   0.429  1.00 20.00     0.012 C 
ENDBRANCH   1   9
TORSDOF 3
ENDMDL
MODEL 3
REMARK VINA RESULT:      -5.5      1.716      2.260
REMARK  3 active torsions:
REMARK  status: ('A' for Active; 'I' for Inactive)
REMARK    1  A    between atoms: C1_1  and  C7_7 
REMARK    2  A    between atoms: C2_2  and  C8_8 
REMARK    3  A    between atoms: C8_8  and  C9_9 
ROOT
HETATM    1  C1  UNL     1     -32.678   6.492   2.556  1.00 20.00     0.157 A 
HETATM    2  C2  UNL     1     -33.813   5.710   3.173  1.00 20.00     0.185 A 
HETATM    3  O10 UNL     1     -33.818   6.083   1.788  1.00 20.00    -0.372 OA
ENDROOT
BRANCH   2   4
HETATM    4  C8  UNL     1     -34.890   6.343   3.996  1.00 20.00     0.204 C 
HETATM    5  F11 UNL     1     -36.089   5.843   3.588  1.00 20.00    -0.246 F 
BRANCH   4   6
HETATM    6  C9  UNL     1     -34.735   6.118   5.509  1.00 20.00     0.014 C 
HETATM    7  C5  UNL     1     -33.749   7.099   6.149  1.00 20.00     0.012 C 
HETATM    8  C6  UNL     1     -34.271   4.684   5.777  1.00 20.00     0.012 C 
ENDBRANCH   4   6
ENDBRANCH   2   4
BRANCH   1   9
HETATM    9  C7  UNL     1     -32.523   7.962   2.708  1.00 20.00     0.009 C 
HETATM   10  C3  UNL     1     -31.356   8.326   3.646  1.00 20.00     0.012 C 
HETATM   11  C4  UNL     1     -32.315   8.665   1.352  1.00 20.00     0.012 C 
ENDBRANCH   1   9
TORSDOF 3
ENDMDL
MODEL 4
REMARK VINA RESULT:      -4.8      1.780      4.630
REMARK  3 active torsions:
REMARK  status: ('A' for Active; 'I' for Inactive)
REMARK    1  A    between atoms: C1_1  and  C7_7 
REMARK    2  A    between atoms: C2_2  and  C8_8 
REMARK    3  A    between atoms: C8_8  and  C9_9 
ROOT
HETATM    1  C1  UNL     1     -32.264   7.250   3.568  1.00 20.00     0.157 A 
HETATM    2  C2  UNL     1     -31.663   8.217   2.577  1.00 20.00     0.185 A 
HETATM    3  O10 UNL     1     -31.509   8.393   3.992  1.00 20.00    -0.372 OA
ENDROOT
BRANCH   2   4
HETATM    4  C8  UNL     1     -32.454   9.288   1.895  1.00 20.00     0.204 C 
HETATM    5  F11 UNL     1     -32.229  10.465   2.542  1.00 20.00    -0.246 F 
BRANCH   4   6
HETATM    6  C9  UNL     1     -32.121   9.458   0.404  1.00 20.00     0.014 C 
HETATM    7  C5  UNL     1     -33.365   9.399  -0.486  1.00 20.00     0.012 C 
HETATM    8  C6  UNL     1     -31.132   8.374  -0.035  1.00 20.00     0.012 C 
ENDBRANCH   4   6
ENDBRANCH   2   4
BRANCH   1   9
HETATM    9  C7  UNL     1     -33.698   7.269   3.959  1.00 20.00     0.009 C 
HETATM   10  C3  UNL     1     -34.477   6.085   3.355  1.00 20.00     0.012 C 
HETATM   11  C4  UNL     1     -33.879   7.262   5.490  1.00 20.00     0.012 C 
ENDBRANCH   1   9
TORSDOF 3
ENDMDL
MODEL 5
REMARK VINA RESULT:      -4.8      1.308      4.529
REMARK  3 active torsions:
REMARK  status: ('A' for Active; 'I' for Inactive)
REMARK    1  A    between atoms: C1_1  and  C7_7 
REMARK    2  A    between atoms: C2_2  and  C8_8 
REMARK    3  A    between atoms: C8_8  and  C9_9 
ROOT
HETATM    1  C1  UNL     1     -34.394   6.539   3.605  1.00 20.00     0.157 A 
HETATM    2  C2  UNL     1     -33.694   7.454   2.629  1.00 20.00     0.185 A 
HETATM    3  O10 UNL     1     -33.666   6.027   2.481  1.00 20.00    -0.372 OA
ENDROOT
BRANCH   2   4
HETATM    4  C8  UNL     1     -32.363   8.081   2.905  1.00 20.00     0.204 C 
HETATM    5  F11 UNL     1     -31.422   7.097   2.924  1.00 20.00    -0.246 F 
BRANCH   4   6
HETATM    6  C9  UNL     1     -31.955   9.155   1.884  1.00 20.00     0.014 C 
HETATM    7  C5  UNL     1     -33.116  10.079   1.510  1.00 20.00     0.012 C 
HETATM    8  C6  UNL     1     -31.408   8.489   0.619  1.00 20.00     0.012 C 
ENDBRANCH   4   6
ENDBRANCH   2   4
BRANCH   1   9
HETATM    9  C7  UNL     1     -33.830   6.175   4.931  1.00 20.00     0.009 C 
HETATM   10  C3  UNL     1     -33.900   7.348   5.929  1.00 20.00     0.012 C 
HETATM   11  C4  UNL     1     -34.538   4.951   5.544  1.00 20.00     0.012 C 
ENDBRANCH   1   9
TORSDOF 3
ENDMDL
MODEL 6
REMARK VINA RESULT:      -4.2      1.679      4.663
REMARK  3 active torsions:
REMARK  status: ('A' for Active; 'I' for Inactive)
REMARK    1  A    between atoms: C1_1  and  C7_7 
REMARK    2  A    between atoms: C2_2  and  C8_8 
REMARK    3  A    between atoms: C8_8  and  C9_9 
ROOT
HETATM    1  C1  UNL     1     -32.441   6.564   3.340  1.00 20.00     0.157 A 
HETATM    2  C2  UNL     1     -32.134   7.898   2.705  1.00 20.00     0.185 A 
HETATM    3  O10 UNL     1     -32.629   7.797   4.047  1.00 20.00    -0.372 OA
ENDROOT
BRANCH   2   4
HETATM    4  C8  UNL     1     -33.058   8.581   1.746  1.00 20.00     0.204 C 
HETATM    5  F11 UNL     1     -33.962   9.303   2.464  1.00 20.00    -0.246 F 
BRANCH   4   6
HETATM    6  C9  UNL     1     -32.348   9.508   0.747  1.00 20.00     0.014 C 
HETATM    7  C5  UNL     1     -32.301  10.961   1.225  1.00 20.00     0.012 C 
HETATM    8  C6  UNL     1     -33.050   9.443  -0.613  1.00 20.00     0.012 C 
ENDBRANCH   4   6
ENDBRANCH   2   4
BRANCH   1   9
HETATM    9  C7  UNL     1     -33.690   5.802   3.074  1.00 20.00     0.009 C 
HETATM   10  C3  UNL     1     -33.402   4.343   2.670  1.00 20.00     0.012 C 
HETATM   11  C4  UNL     1     -34.641   5.809   4.287  1.00 20.00     0.012 C 
ENDBRANCH   1   9
TORSDOF 3
ENDMDL
MODEL 7
REMARK VINA RESULT:      -4.1     10.770     11.559
REMARK  3 active torsions:
REMARK  status: ('A' for Active; 'I' for Inactive)
REMARK    1  A    between atoms: C1_1  and  C7_7 
REMARK    2  A    between atoms: C2_2  and  C8_8 
REMARK    3  A    between atoms: C8_8  and  C9_9 
ROOT
HETATM    1  C1  UNL     1     -35.566  16.822  -3.322  1.00 20.00     0.157 A 
HETATM    2  C2  UNL     1     -35.631  15.824  -4.453  1.00 20.00     0.185 A 
HETATM    3  O10 UNL     1     -36.680  15.933  -3.481  1.00 20.00    -0.372 OA
ENDROOT
BRANCH   2   4
HETATM    4  C8  UNL     1     -34.897  14.520  -4.438  1.00 20.00     0.204 C 
HETATM    5  F11 UNL     1     -35.804  13.516  -4.583  1.00 20.00    -0.246 F 
BRANCH   4   6
HETATM    6  C9  UNL     1     -33.822  14.395  -5.530  1.00 20.00     0.014 C 
HETATM    7  C5  UNL     1     -33.144  15.732  -5.841  1.00 20.00     0.012 C 
HETATM    8  C6  UNL     1     -34.446  13.833  -6.811  1.00 20.00     0.012 C 
ENDBRANCH   4   6
ENDBRANCH   2   4
BRANCH   1   9
HETATM    9  C7  UNL     1     -34.767  16.604  -2.088  1.00 20.00     0.009 C 
HETATM   10  C3  UNL     1     -33.378  17.268  -2.174  1.00 20.00     0.012 C 
HETATM   11  C4  UNL     1     -35.493  17.121  -0.830  1.00 20.00     0.012 C 
ENDBRANCH   1   9
TORSDOF 3
ENDMDL
MODEL 8
REMARK VINA RESULT:      -4.0     10.573     11.447
REMARK  3 active torsions:
REMARK  status: ('A' for Active; 'I' for Inactive)
REMARK    1  A    between atoms: C1_1  and  C7_7 
REMARK    2  A    between atoms: C2_2  and  C8_8 
REMARK    3  A    between atoms: C8_8  and  C9_9 
ROOT
HETATM    1  C1  UNL     1     -33.821  14.343  -5.381  1.00 20.00     0.157 A 
HETATM    2  C2  UNL     1     -33.758  14.900  -3.979  1.00 20.00     0.185 A 
HETATM    3  O10 UNL     1     -34.480  13.699  -4.282  1.00 20.00    -0.372 OA
ENDROOT
BRANCH   2   4
HETATM    4  C8  UNL     1     -34.606  16.041  -3.512  1.00 20.00     0.204 C 
HETATM    5  F11 UNL     1     -35.885  15.595  -3.377  1.00 20.00    -0.246 F 
BRANCH   4   6
HETATM    6  C9  UNL     1     -34.142  16.661  -2.184  1.00 20.00     0.014 C 
HETATM    7  C5  UNL     1     -35.312  17.022  -1.265  1.00 20.00     0.012 C 
HETATM    8  C6  UNL     1     -33.307  17.915  -2.459  1.00 20.00     0.012 C 
ENDBRANCH   4   6
ENDBRANCH   2   4
BRANCH   1   9
HETATM    9  C7  UNL     1     -34.731  14.875  -6.428  1.00 20.00     0.009 C 
HETATM   10  C3  UNL     1     -33.997  15.125  -7.760  1.00 20.00     0.012 C 
HETATM   11  C4  UNL     1     -35.929  13.937  -6.684  1.00 20.00     0.012 C 
ENDBRANCH   1   9
TORSDOF 3
ENDMDL
MODEL 9
REMARK VINA RESULT:      -3.9     10.878     11.861
REMARK  3 active torsions:
REMARK  status: ('A' for Active; 'I' for Inactive)
REMARK    1  A    between atoms: C1_1  and  C7_7 
REMARK    2  A    between atoms: C2_2  and  C8_8 
REMARK    3  A    between atoms: C8_8  and  C9_9 
ROOT
HETATM    1  C1  UNL     1     -33.626  16.199  -6.126  1.00 20.00     0.157 A 
HETATM    2  C2  UNL     1     -33.448  16.496  -4.656  1.00 20.00     0.185 A 
HETATM    3  O10 UNL     1     -32.704  15.461  -5.312  1.00 20.00    -0.372 OA
ENDROOT
BRANCH   2   4
HETATM    4  C8  UNL     1     -34.396  16.016  -3.603  1.00 20.00     0.204 C 
HETATM    5  F11 UNL     1     -34.308  14.659  -3.535  1.00 20.00    -0.246 F 
BRANCH   4   6
HETATM    6  C9  UNL     1     -34.136  16.611  -2.210  1.00 20.00     0.014 C 
HETATM    7  C5  UNL     1     -35.430  16.948  -1.465  1.00 20.00     0.012 C 
HETATM    8  C6  UNL     1     -33.278  17.874  -2.335  1.00 20.00     0.012 C 
ENDBRANCH   4   6
ENDBRANCH   2   4
BRANCH   1   9
HETATM    9  C7  UNL     1     -34.758  15.401  -6.665  1.00 20.00     0.009 C 
HETATM   10  C3  UNL     1     -35.614  16.210  -7.659  1.00 20.00     0.012 C 
HETATM   11  C4  UNL     1     -34.278  14.106  -7.352  1.00 20.00     0.012 C 
ENDBRANCH   1   9
TORSDOF 3
ENDMDL
