MODEL 1
REMARK VINA RESULT:      -4.6      0.000      0.000
REMARK  1 active torsions:
REMARK  status: ('A' for Active; 'I' for Inactive)
REMARK    1  A    between atoms: C2_2  and  C4_4 
ROOT
HETATM    1  C1  UNL     1     -32.964   7.127   3.144  1.00 20.00    -0.010 C 
HETATM    2  C2  UNL     1     -33.808   6.755   4.121  1.00 20.00     0.021 C 
HETATM    3  C3  UNL     1     -31.831   8.096   3.256  1.00 20.00     0.037 C 
HETATM    4 CL5  UNL     1     -33.564   7.398   5.721  1.00 20.00    -0.088 Cl
ENDROOT
BRANCH   2   5
HETATM    5  C4  UNL     1     -34.942   5.787   4.008  1.00 20.00     0.165 C 
HETATM    6 CL6  UNL     1     -34.423   4.163   4.513  1.00 20.00    -0.125 Cl
ENDBRANCH   2   5
TORSDOF 1
ENDMDL
MODEL 2
REMARK VINA RESULT:      -4.4      1.594      3.223
REMARK  1 active torsions:
REMARK  status: ('A' for Active; 'I' for Inactive)
REMARK    1  A    between atoms: C2_2  and  C4_4 
ROOT
HETATM    1  C1  UNL     1     -34.140   5.521   3.755  1.00 20.00    -0.010 C 
HETATM    2  C2  UNL     1     -33.607   6.739   3.950  1.00 20.00     0.021 C 
HETATM    3  C3  UNL     1     -34.692   4.604   4.799  1.00 20.00     0.037 C 
HETATM    4 CL5  UNL     1     -33.584   7.389   5.565  1.00 20.00    -0.088 Cl
ENDROOT
BRANCH   2   5
HETATM    5  C4  UNL     1     -33.054   7.654   2.904  1.00 20.00     0.165 C 
HETATM    6 CL6  UNL     1     -31.461   8.268   3.398  1.00 20.00    -0.125 Cl
ENDBRANCH   2   5
TORSDOF 1
ENDMDL
MODEL 3
REMARK VINA RESULT:      -4.4      1.348      1.844
REMARK  1 active torsions:
REMARK  status: ('A' for Active; 'I' for Inactive)
REMARK    1  A    between atoms: C2_2  and  C4_4 
ROOT
HETATM    1  C1  UNL     1     -33.323   7.383   3.346  1.00 20.00    -0.010 C 
HETATM    2  C2  UNL     1     -33.800   6.129   3.422  1.00 20.00     0.021 C 
HETATM    3  C3  UNL     1     -32.091   7.833   2.629  1.00 20.00     0.037 C 
HETATM    4 CL5  UNL     1     -32.963   4.867   2.563  1.00 20.00    -0.088 Cl
ENDROOT
BRANCH   2   5
HETATM    5  C4  UNL     1     -35.032   5.679   4.141  1.00 20.00     0.165 C 
HETATM    6 CL6  UNL     1     -34.602   4.913   5.687  1.00 20.00    -0.125 Cl
ENDBRANCH   2   5
TORSDOF 1
ENDMDL
MODEL 4
REMARK VINA RESULT:      -4.3      1.813      3.543
REMARK  1 active torsions:
REMARK  status: ('A' for Active; 'I' for Inactive)
REMARK    1  A    between atoms: C2_2  and  C4_4 
ROOT
HETATM    1  C1  UNL     1     -34.037   6.577   4.671  1.00 20.00    -0.010 C 
HETATM    2  C2  UNL     1     -33.451   6.464   3.467  1.00 20.00     0.021 C 
HETATM    3  C3  UNL     1     -34.606   5.473   5.501  1.00 20.00     0.037 C 
HETATM    4 CL5  UNL     1     -33.258   4.875   2.782  1.00 20.00    -0.088 Cl
ENDROOT
BRANCH   2   5
HETATM    5  C4  UNL     1     -32.883   7.571   2.637  1.00 20.00     0.165 C 
HETATM    6 CL6  UNL     1     -31.468   8.285   3.442  1.00 20.00    -0.125 Cl
ENDBRANCH   2   5
TORSDOF 1
ENDMDL
MODEL 5
REMARK VINA RESULT:      -3.9      1.839      2.382
REMARK  1 active torsions:
REMARK  status: ('A' for Active; 'I' for Inactive)
REMARK    1  A    between atoms: C2_2  and  C4_4 
ROOT
HETATM    1  C1  UNL     1     -33.704   7.188   4.732  1.00 20.00    -0.010 C 
HETATM    2  C2  UNL     1     -34.141   6.041   4.183  1.00 20.00     0.021 C 
HETATM    3  C3  UNL     1     -33.691   7.541   6.184  1.00 20.00     0.037 C 
HETATM    4 CL5  UNL     1     -34.710   4.779   5.238  1.00 20.00    -0.088 Cl
ENDROOT
BRANCH   2   5
HETATM    5  C4  UNL     1     -34.155   5.690   2.730  1.00 20.00     0.165 C 
HETATM    6 CL6  UNL     1     -32.835   4.559   2.354  1.00 20.00    -0.125 Cl
ENDBRANCH   2   5
TORSDOF 1
ENDMDL
MODEL 6
REMARK VINA RESULT:      -3.8      1.925      2.384
REMARK  1 active torsions:
REMARK  status: ('A' for Active; 'I' for Inactive)
REMARK    1  A    between atoms: C2_2  and  C4_4 
ROOT
HETATM    1  C1  UNL     1     -33.993   6.778   4.902  1.00 20.00    -0.010 C 
HETATM    2  C2  UNL     1     -33.398   6.799   3.698  1.00 20.00     0.021 C 
HETATM    3  C3  UNL     1     -33.603   7.564   6.111  1.00 20.00     0.037 C 
HETATM    4 CL5  UNL     1     -32.061   7.886   3.450  1.00 20.00    -0.088 Cl
ENDROOT
BRANCH   2   5
HETATM    5  C4  UNL     1     -33.789   6.010   2.489  1.00 20.00     0.165 C 
HETATM    6 CL6  UNL     1     -32.923   4.458   2.456  1.00 20.00    -0.125 Cl
ENDBRANCH   2   5
TORSDOF 1
ENDMDL
MODEL 7
REMARK VINA RESULT:      -3.7      2.779      4.122
REMARK  1 active torsions:
REMARK  status: ('A' for Active; 'I' for Inactive)
REMARK    1  A    between atoms: C2_2  and  C4_4 
ROOT
HETATM    1  C1  UNL     1     -33.337   7.158   2.516  1.00 20.00    -0.010 C 
HETATM    2  C2  UNL     1     -32.315   8.024   2.412  1.00 20.00     0.021 C 
HETATM    3  C3  UNL     1     -33.747   6.393   3.733  1.00 20.00     0.037 C 
HETATM    4 CL5  UNL     1     -31.371   8.371   3.834  1.00 20.00    -0.088 Cl
ENDROOT
BRANCH   2   5
HETATM    5  C4  UNL     1     -31.906   8.788   1.194  1.00 20.00     0.165 C 
HETATM    6 CL6  UNL     1     -32.780  10.334   1.110  1.00 20.00    -0.125 Cl
ENDBRANCH   2   5
TORSDOF 1
ENDMDL
MODEL 8
REMARK VINA RESULT:      -3.6      1.352      2.798
REMARK  1 active torsions:
REMARK  status: ('A' for Active; 'I' for Inactive)
REMARK    1  A    between atoms: C2_2  and  C4_4 
ROOT
HETATM    1  C1  UNL     1     -33.963   6.387   3.409  1.00 20.00    -0.010 C 
HETATM    2  C2  UNL     1     -34.212   5.646   4.503  1.00 20.00     0.021 C 
HETATM    3  C3  UNL     1     -33.677   5.887   2.031  1.00 20.00     0.037 C 
HETATM    4 CL5  UNL     1     -34.277   3.914   4.337  1.00 20.00    -0.088 Cl
ENDROOT
BRANCH   2   5
HETATM    5  C4  UNL     1     -34.497   6.149   5.882  1.00 20.00     0.165 C 
HETATM    6 CL6  UNL     1     -33.569   7.630   6.206  1.00 20.00    -0.125 Cl
ENDBRANCH   2   5
TORSDOF 1
ENDMDL
MODEL 9
REMARK VINA RESULT:      -3.6      2.115      2.576
REMARK  1 active torsions:
REMARK  status: ('A' for Active; 'I' for Inactive)
REMARK    1  A    between atoms: C2_2  and  C4_4 
ROOT
HETATM    1  C1  UNL     1     -32.832   8.494   1.390  1.00 20.00    -0.010 C 
HETATM    2  C2  UNL     1     -32.585   7.792   2.509  1.00 20.00     0.021 C 
HETATM    3  C3  UNL     1     -32.192   9.780   0.977  1.00 20.00     0.037 C 
HETATM    4 CL5  UNL     1     -31.356   8.368   3.600  1.00 20.00    -0.088 Cl
ENDROOT
BRANCH   2   5
HETATM    5  C4  UNL     1     -33.227   6.506   2.921  1.00 20.00     0.165 C 
HETATM    6 CL6  UNL     1     -34.045   6.696   4.488  1.00 20.00    -0.125 Cl
ENDBRANCH   2   5
TORSDOF 1
ENDMDL
