MODEL 1
REMARK VINA RESULT:      -5.3      0.000      0.000
REMARK  5 active torsions:
REMARK  status: ('A' for Active; 'I' for Inactive)
REMARK    1  A    between atoms: C1_1  and  O9_9 
REMARK    2  A    between atoms: C5_5  and  C6_6 
REMARK    3  A    between atoms: C6_6  and  C7_7 
REMARK    4  A    between atoms: C7_7  and  C8_8 
REMARK    5  A    between atoms: C8_8  and  O9_9 
ROOT
HETATM    1  C4  UNL     1     -32.954   4.741   2.410  1.00 20.00     0.040 C 
HETATM    2  C8  UNL     1     -33.187   6.138   2.968  1.00 20.00     0.125 C 
ENDROOT
BRANCH   2   3
HETATM    3  C7  UNL     1     -34.610   6.364   3.494  1.00 20.00     0.032 C 
BRANCH   3   4
HETATM    4  C6  UNL     1     -35.032   5.355   4.562  1.00 20.00     0.002 C 
BRANCH   4   5
HETATM    5  C5  UNL     1     -34.413   5.695   5.920  1.00 20.00    -0.004 C 
HETATM    6  C3  UNL     1     -33.917   7.132   5.962  1.00 20.00     0.005 C 
ENDBRANCH   4   5
ENDBRANCH   3   4
ENDBRANCH   2   3
BRANCH   2   7
HETATM    7  O9  UNL     1     -32.935   7.087   1.931  1.00 20.00    -0.340 OA
BRANCH   7   8
HETATM    8  C1  UNL     1     -32.268   8.232   2.182  1.00 20.00     0.109 C 
HETATM    9  C2  UNL     1     -31.459   8.356   3.434  1.00 20.00     0.089 C 
HETATM   10  S10 UNL     1     -32.407   9.447   1.051  1.00 20.00    -0.058 SA
ENDBRANCH   7   8
ENDBRANCH   2   7
TORSDOF 5
ENDMDL
MODEL 2
REMARK VINA RESULT:      -5.0      2.527      4.421
REMARK  5 active torsions:
REMARK  status: ('A' for Active; 'I' for Inactive)
REMARK    1  A    between atoms: C1_1  and  O9_9 
REMARK    2  A    between atoms: C5_5  and  C6_6 
REMARK    3  A    between atoms: C6_6  and  C7_7 
REMARK    4  A    between atoms: C7_7  and  C8_8 
REMARK    5  A    between atoms: C8_8  and  O9_9 
ROOT
HETATM    1  C4  UNL     1     -32.957   5.238   2.689  1.00 20.00     0.040 C 
HETATM    2  C8  UNL     1     -33.418   6.689   2.703  1.00 20.00     0.125 C 
ENDROOT
BRANCH   2   3
HETATM    3  C7  UNL     1     -32.297   7.690   3.009  1.00 20.00     0.032 C 
BRANCH   3   4
HETATM    4  C6  UNL     1     -31.734   8.374   1.763  1.00 20.00     0.002 C 
BRANCH   4   5
HETATM    5  C5  UNL     1     -32.612   9.550   1.332  1.00 20.00    -0.004 C 
HETATM    6  C3  UNL     1     -32.953   9.478  -0.148  1.00 20.00     0.005 C 
ENDBRANCH   4   5
ENDBRANCH   3   4
ENDBRANCH   2   3
BRANCH   2   7
HETATM    7  O9  UNL     1     -34.432   6.831   3.698  1.00 20.00    -0.340 OA
BRANCH   7   8
HETATM    8  C1  UNL     1     -34.218   6.440   4.971  1.00 20.00     0.109 C 
HETATM    9  C2  UNL     1     -33.602   7.396   5.944  1.00 20.00     0.089 C 
HETATM   10  S10 UNL     1     -34.665   4.884   5.365  1.00 20.00    -0.058 SA
ENDBRANCH   7   8
ENDBRANCH   2   7
TORSDOF 5
ENDMDL
MODEL 3
REMARK VINA RESULT:      -5.0      1.305      2.160
REMARK  5 active torsions:
REMARK  status: ('A' for Active; 'I' for Inactive)
REMARK    1  A    between atoms: C1_1  and  O9_9 
REMARK    2  A    between atoms: C5_5  and  C6_6 
REMARK    3  A    between atoms: C6_6  and  C7_7 
REMARK    4  A    between atoms: C7_7  and  C8_8 
REMARK    5  A    between atoms: C8_8  and  O9_9 
ROOT
HETATM    1  C4  UNL     1     -31.396   8.209   3.808  1.00 20.00     0.040 C 
HETATM    2  C8  UNL     1     -32.542   7.948   2.839  1.00 20.00     0.125 C 
ENDROOT
BRANCH   2   3
HETATM    3  C7  UNL     1     -33.027   6.494   2.835  1.00 20.00     0.032 C 
BRANCH   3   4
HETATM    4  C6  UNL     1     -34.464   6.330   3.330  1.00 20.00     0.002 C 
BRANCH   4   5
HETATM    5  C5  UNL     1     -34.502   5.650   4.701  1.00 20.00    -0.004 C 
HETATM    6  C3  UNL     1     -34.135   6.620   5.813  1.00 20.00     0.005 C 
ENDBRANCH   4   5
ENDBRANCH   3   4
ENDBRANCH   2   3
BRANCH   2   7
HETATM    7  O9  UNL     1     -32.103   8.281   1.522  1.00 20.00    -0.340 OA
BRANCH   7   8
HETATM    8  C1  UNL     1     -32.570   9.377   0.889  1.00 20.00     0.109 C 
HETATM    9  C2  UNL     1     -32.638  10.680   1.622  1.00 20.00     0.089 C 
HETATM   10  S10 UNL     1     -33.047   9.185  -0.696  1.00 20.00    -0.058 SA
ENDBRANCH   7   8
ENDBRANCH   2   7
TORSDOF 5
ENDMDL
MODEL 4
REMARK VINA RESULT:      -4.9      2.486      4.806
REMARK  5 active torsions:
REMARK  status: ('A' for Active; 'I' for Inactive)
REMARK    1  A    between atoms: C1_1  and  O9_9 
REMARK    2  A    between atoms: C5_5  and  C6_6 
REMARK    3  A    between atoms: C6_6  and  C7_7 
REMARK    4  A    between atoms: C7_7  and  C8_8 
REMARK    5  A    between atoms: C8_8  and  O9_9 
ROOT
HETATM    1  C4  UNL     1     -31.599   8.371   3.893  1.00 20.00     0.040 C 
HETATM    2  C8  UNL     1     -32.455   7.402   3.089  1.00 20.00     0.125 C 
ENDROOT
BRANCH   2   3
HETATM    3  C7  UNL     1     -32.569   7.765   1.604  1.00 20.00     0.032 C 
BRANCH   3   4
HETATM    4  C6  UNL     1     -31.685   8.944   1.195  1.00 20.00     0.002 C 
BRANCH   4   5
HETATM    5  C5  UNL     1     -32.516  10.070   0.576  1.00 20.00    -0.004 C 
HETATM    6  C3  UNL     1     -33.321   9.577  -0.616  1.00 20.00     0.005 C 
ENDBRANCH   4   5
ENDBRANCH   3   4
ENDBRANCH   2   3
BRANCH   2   7
HETATM    7  O9  UNL     1     -33.768   7.387   3.651  1.00 20.00    -0.340 OA
BRANCH   7   8
HETATM    8  C1  UNL     1     -34.060   6.610   4.715  1.00 20.00     0.109 C 
HETATM    9  C2  UNL     1     -33.892   7.158   6.097  1.00 20.00     0.089 C 
HETATM   10  S10 UNL     1     -34.594   5.065   4.395  1.00 20.00    -0.058 SA
ENDBRANCH   7   8
ENDBRANCH   2   7
TORSDOF 5
ENDMDL
MODEL 5
REMARK VINA RESULT:      -4.9      1.322      2.321
REMARK  5 active torsions:
REMARK  status: ('A' for Active; 'I' for Inactive)
REMARK    1  A    between atoms: C1_1  and  O9_9 
REMARK    2  A    between atoms: C5_5  and  C6_6 
REMARK    3  A    between atoms: C6_6  and  C7_7 
REMARK    4  A    between atoms: C7_7  and  C8_8 
REMARK    5  A    between atoms: C8_8  and  O9_9 
ROOT
HETATM    1  C4  UNL     1     -31.848   8.058   3.962  1.00 20.00     0.040 C 
HETATM    2  C8  UNL     1     -32.793   7.822   2.792  1.00 20.00     0.125 C 
ENDROOT
BRANCH   2   3
HETATM    3  C7  UNL     1     -33.265   6.369   2.664  1.00 20.00     0.032 C 
BRANCH   3   4
HETATM    4  C6  UNL     1     -34.634   6.115   3.296  1.00 20.00     0.002 C 
BRANCH   4   5
HETATM    5  C5  UNL     1     -34.562   5.004   4.346  1.00 20.00    -0.004 C 
HETATM    6  C3  UNL     1     -34.485   5.573   5.754  1.00 20.00     0.005 C 
ENDBRANCH   4   5
ENDBRANCH   3   4
ENDBRANCH   2   3
BRANCH   2   7
HETATM    7  O9  UNL     1     -32.118   8.184   1.587  1.00 20.00    -0.340 OA
BRANCH   7   8
HETATM    8  C1  UNL     1     -32.569   9.194   0.814  1.00 20.00     0.109 C 
HETATM    9  C2  UNL     1     -32.956   8.921  -0.606  1.00 20.00     0.089 C 
HETATM   10  S10 UNL     1     -32.658  10.700   1.520  1.00 20.00    -0.058 SA
ENDBRANCH   7   8
ENDBRANCH   2   7
TORSDOF 5
ENDMDL
MODEL 6
REMARK VINA RESULT:      -3.9     10.989     11.627
REMARK  5 active torsions:
REMARK  status: ('A' for Active; 'I' for Inactive)
REMARK    1  A    between atoms: C1_1  and  O9_9 
REMARK    2  A    between atoms: C5_5  and  C6_6 
REMARK    3  A    between atoms: C6_6  and  C7_7 
REMARK    4  A    between atoms: C7_7  and  C8_8 
REMARK    5  A    between atoms: C8_8  and  O9_9 
ROOT
HETATM    1  C4  UNL     1     -32.682  14.158  -4.181  1.00 20.00     0.040 C 
HETATM    2  C8  UNL     1     -34.060  14.738  -4.467  1.00 20.00     0.125 C 
ENDROOT
BRANCH   2   3
HETATM    3  C7  UNL     1     -34.605  15.620  -3.338  1.00 20.00     0.032 C 
BRANCH   3   4
HETATM    4  C6  UNL     1     -33.659  16.753  -2.939  1.00 20.00     0.002 C 
BRANCH   4   5
HETATM    5  C5  UNL     1     -33.924  17.217  -1.505  1.00 20.00    -0.004 C 
HETATM    6  C3  UNL     1     -35.381  17.022  -1.117  1.00 20.00     0.005 C 
ENDBRANCH   4   5
ENDBRANCH   3   4
ENDBRANCH   2   3
BRANCH   2   7
HETATM    7  O9  UNL     1     -34.971  13.657  -4.672  1.00 20.00    -0.340 OA
BRANCH   7   8
HETATM    8  C1  UNL     1     -35.848  13.672  -5.697  1.00 20.00     0.109 C 
HETATM    9  C2  UNL     1     -37.264  14.087  -5.451  1.00 20.00     0.089 C 
HETATM   10  S10 UNL     1     -35.269  13.212  -7.190  1.00 20.00    -0.058 SA
ENDBRANCH   7   8
ENDBRANCH   2   7
TORSDOF 5
ENDMDL
MODEL 7
REMARK VINA RESULT:      -3.8      0.993      2.191
REMARK  5 active torsions:
REMARK  status: ('A' for Active; 'I' for Inactive)
REMARK    1  A    between atoms: C1_1  and  O9_9 
REMARK    2  A    between atoms: C5_5  and  C6_6 
REMARK    3  A    between atoms: C6_6  and  C7_7 
REMARK    4  A    between atoms: C7_7  and  C8_8 
REMARK    5  A    between atoms: C8_8  and  O9_9 
ROOT
HETATM    1  C4  UNL     1     -33.551   7.431   5.498  1.00 20.00     0.040 C 
HETATM    2  C8  UNL     1     -34.039   7.278   4.065  1.00 20.00     0.125 C 
ENDROOT
BRANCH   2   3
HETATM    3  C7  UNL     1     -34.999   6.100   3.862  1.00 20.00     0.032 C 
BRANCH   3   4
HETATM    4  C6  UNL     1     -34.838   4.995   4.906  1.00 20.00     0.002 C 
BRANCH   4   5
HETATM    5  C5  UNL     1     -34.083   3.795   4.329  1.00 20.00    -0.004 C 
HETATM    6  C3  UNL     1     -33.390   4.148   3.023  1.00 20.00     0.005 C 
ENDBRANCH   4   5
ENDBRANCH   3   4
ENDBRANCH   2   3
BRANCH   2   7
HETATM    7  O9  UNL     1     -32.904   7.085   3.220  1.00 20.00    -0.340 OA
BRANCH   7   8
HETATM    8  C1  UNL     1     -32.127   8.123   2.849  1.00 20.00     0.109 C 
HETATM    9  C2  UNL     1     -30.948   8.500   3.689  1.00 20.00     0.089 C 
HETATM   10  S10 UNL     1     -32.558   8.924   1.453  1.00 20.00    -0.058 SA
ENDBRANCH   7   8
ENDBRANCH   2   7
TORSDOF 5
ENDMDL
MODEL 8
REMARK VINA RESULT:      -3.8     11.470     12.184
REMARK  5 active torsions:
REMARK  status: ('A' for Active; 'I' for Inactive)
REMARK    1  A    between atoms: C1_1  and  O9_9 
REMARK    2  A    between atoms: C5_5  and  C6_6 
REMARK    3  A    between atoms: C6_6  and  C7_7 
REMARK    4  A    between atoms: C7_7  and  C8_8 
REMARK    5  A    between atoms: C8_8  and  O9_9 
ROOT
HETATM    1  C4  UNL     1     -33.686  17.312  -5.333  1.00 20.00     0.040 C 
HETATM    2  C8  UNL     1     -34.318  16.108  -4.648  1.00 20.00     0.125 C 
ENDROOT
BRANCH   2   3
HETATM    3  C7  UNL     1     -33.953  15.980  -3.165  1.00 20.00     0.032 C 
BRANCH   3   4
HETATM    4  C6  UNL     1     -35.002  16.578  -2.226  1.00 20.00     0.002 C 
BRANCH   4   5
HETATM    5  C5  UNL     1     -34.344  17.361  -1.088  1.00 20.00    -0.004 C 
HETATM    6  C3  UNL     1     -32.974  17.884  -1.491  1.00 20.00     0.005 C 
ENDBRANCH   4   5
ENDBRANCH   3   4
ENDBRANCH   2   3
BRANCH   2   7
HETATM    7  O9  UNL     1     -33.883  14.926  -5.322  1.00 20.00    -0.340 OA
BRANCH   7   8
HETATM    8  C1  UNL     1     -34.764  14.120  -5.951  1.00 20.00     0.109 C 
HETATM    9  C2  UNL     1     -35.910  13.538  -5.185  1.00 20.00     0.089 C 
HETATM   10  S10 UNL     1     -34.494  13.829  -7.569  1.00 20.00    -0.058 SA
ENDBRANCH   7   8
ENDBRANCH   2   7
TORSDOF 5
ENDMDL
MODEL 9
REMARK VINA RESULT:      -3.6     11.426     12.090
REMARK  5 active torsions:
REMARK  status: ('A' for Active; 'I' for Inactive)
REMARK    1  A    between atoms: C1_1  and  O9_9 
REMARK    2  A    between atoms: C5_5  and  C6_6 
REMARK    3  A    between atoms: C6_6  and  C7_7 
REMARK    4  A    between atoms: C7_7  and  C8_8 
REMARK    5  A    between atoms: C8_8  and  O9_9 
ROOT
HETATM    1  C4  UNL     1     -33.583  16.287  -6.176  1.00 20.00     0.040 C 
HETATM    2  C8  UNL     1     -34.172  15.497  -5.016  1.00 20.00     0.125 C 
ENDROOT
BRANCH   2   3
HETATM    3  C7  UNL     1     -33.329  15.559  -3.737  1.00 20.00     0.032 C 
BRANCH   3   4
HETATM    4  C6  UNL     1     -33.738  16.689  -2.791  1.00 20.00     0.002 C 
BRANCH   4   5
HETATM    5  C5  UNL     1     -35.171  16.500  -2.290  1.00 20.00    -0.004 C 
HETATM    6  C3  UNL     1     -35.368  17.124  -0.917  1.00 20.00     0.005 C 
ENDBRANCH   4   5
ENDBRANCH   3   4
ENDBRANCH   2   3
BRANCH   2   7
HETATM    7  O9  UNL     1     -34.288  14.131  -5.413  1.00 20.00    -0.340 OA
BRANCH   7   8
HETATM    8  C1  UNL     1     -35.389  13.683  -6.053  1.00 20.00     0.109 C 
HETATM    9  C2  UNL     1     -35.239  12.866  -7.297  1.00 20.00     0.089 C 
HETATM   10  S10 UNL     1     -36.862  14.089  -5.388  1.00 20.00    -0.058 SA
ENDBRANCH   7   8
ENDBRANCH   2   7
TORSDOF 5
ENDMDL
