MODEL 1
REMARK VINA RESULT:      -5.5      0.000      0.000
REMARK  2 active torsions:
REMARK  status: ('A' for Active; 'I' for Inactive)
REMARK    1  A    between atoms: C1_1  and  C2_2 
REMARK    2  A    between atoms: C1_1  and  C3_3 
ROOT
HETATM    1  C2  UNL     1     -32.780   7.166   3.320  1.00 20.00     0.043 A 
HETATM    2  C4  UNL     1     -33.912   7.319   4.208  1.00 20.00     0.013 A 
HETATM    3  C5  UNL     1     -33.844   6.171   3.210  1.00 20.00    -0.023 A 
HETATM    4  C8  UNL     1     -33.745   7.121   5.675  1.00 20.00     0.012 C 
HETATM    5  C9  UNL     1     -33.514   4.775   3.682  1.00 20.00     0.017 C 
HETATM    6  C10 UNL     1     -34.819   6.203   2.058  1.00 20.00     0.017 C 
ENDROOT
BRANCH   1   7
HETATM    7  C1  UNL     1     -32.491   8.035   2.405  1.00 20.00    -0.159 C 
BRANCH   7   8
HETATM    8  C3  UNL     1     -32.198   8.912   1.482  1.00 20.00     0.022 C 
HETATM    9  C6  UNL     1     -31.202   8.631   0.394  1.00 20.00     0.029 C 
HETATM   10  C7  UNL     1     -32.839  10.270   1.434  1.00 20.00     0.029 C 
ENDBRANCH   7   8
ENDBRANCH   1   7
TORSDOF 2
ENDMDL
MODEL 2
REMARK VINA RESULT:      -5.2      1.214      2.519
REMARK  2 active torsions:
REMARK  status: ('A' for Active; 'I' for Inactive)
REMARK    1  A    between atoms: C1_1  and  C2_2 
REMARK    2  A    between atoms: C1_1  and  C3_3 
ROOT
HETATM    1  C2  UNL     1     -33.436   7.625   2.577  1.00 20.00     0.043 A 
HETATM    2  C4  UNL     1     -32.635   6.435   2.761  1.00 20.00     0.013 A 
HETATM    3  C5  UNL     1     -32.760   7.477   3.864  1.00 20.00    -0.023 A 
HETATM    4  C8  UNL     1     -33.287   5.098   2.840  1.00 20.00     0.012 C 
HETATM    5  C9  UNL     1     -33.640   7.212   5.061  1.00 20.00     0.017 C 
HETATM    6  C10 UNL     1     -31.527   8.285   4.189  1.00 20.00     0.017 C 
ENDROOT
BRANCH   1   7
HETATM    7  C1  UNL     1     -33.148   8.529   1.696  1.00 20.00    -0.159 C 
BRANCH   7   8
HETATM    8  C3  UNL     1     -32.857   9.441   0.807  1.00 20.00     0.022 C 
HETATM    9  C6  UNL     1     -32.331  10.795   1.188  1.00 20.00     0.029 C 
HETATM   10  C7  UNL     1     -33.022   9.205  -0.668  1.00 20.00     0.029 C 
ENDBRANCH   7   8
ENDBRANCH   1   7
TORSDOF 2
ENDMDL
MODEL 3
REMARK VINA RESULT:      -5.1      0.940      2.050
REMARK  2 active torsions:
REMARK  status: ('A' for Active; 'I' for Inactive)
REMARK    1  A    between atoms: C1_1  and  C2_2 
REMARK    2  A    between atoms: C1_1  and  C3_3 
ROOT
HETATM    1  C2  UNL     1     -33.568   6.802   2.389  1.00 20.00     0.043 A 
HETATM    2  C4  UNL     1     -32.814   5.736   3.012  1.00 20.00     0.013 A 
HETATM    3  C5  UNL     1     -33.811   6.565   3.810  1.00 20.00    -0.023 A 
HETATM    4  C8  UNL     1     -33.068   4.317   2.633  1.00 20.00     0.012 C 
HETATM    5  C9  UNL     1     -35.156   5.987   4.178  1.00 20.00     0.017 C 
HETATM    6  C10 UNL     1     -33.249   7.495   4.858  1.00 20.00     0.017 C 
ENDROOT
BRANCH   1   7
HETATM    7  C1  UNL     1     -33.004   7.863   1.907  1.00 20.00    -0.159 C 
BRANCH   7   8
HETATM    8  C3  UNL     1     -32.437   8.934   1.421  1.00 20.00     0.022 C 
HETATM    9  C6  UNL     1     -31.163   8.877   0.627  1.00 20.00     0.029 C 
HETATM   10  C7  UNL     1     -33.015  10.307   1.614  1.00 20.00     0.029 C 
ENDBRANCH   7   8
ENDBRANCH   1   7
TORSDOF 2
ENDMDL
MODEL 4
REMARK VINA RESULT:      -4.3     10.177     11.511
REMARK  2 active torsions:
REMARK  status: ('A' for Active; 'I' for Inactive)
REMARK    1  A    between atoms: C1_1  and  C2_2 
REMARK    2  A    between atoms: C1_1  and  C3_3 
ROOT
HETATM    1  C2  UNL     1     -33.826  15.840  -3.566  1.00 20.00     0.043 A 
HETATM    2  C4  UNL     1     -35.030  15.320  -4.177  1.00 20.00     0.013 A 
HETATM    3  C5  UNL     1     -34.119  16.284  -4.927  1.00 20.00    -0.023 A 
HETATM    4  C8  UNL     1     -35.131  13.875  -4.524  1.00 20.00     0.012 C 
HETATM    5  C9  UNL     1     -33.207  15.774  -6.015  1.00 20.00     0.017 C 
HETATM    6  C10 UNL     1     -34.655  17.671  -5.190  1.00 20.00     0.017 C 
ENDROOT
BRANCH   1   7
HETATM    7  C1  UNL     1     -33.849  16.606  -2.522  1.00 20.00    -0.159 C 
BRANCH   7   8
HETATM    8  C3  UNL     1     -33.872  17.378  -1.470  1.00 20.00     0.022 C 
HETATM    9  C6  UNL     1     -35.072  17.475  -0.571  1.00 20.00     0.029 C 
HETATM   10  C7  UNL     1     -32.699  18.227  -1.071  1.00 20.00     0.029 C 
ENDBRANCH   7   8
ENDBRANCH   1   7
TORSDOF 2
ENDMDL
MODEL 5
REMARK VINA RESULT:      -4.3      1.096      4.325
REMARK  2 active torsions:
REMARK  status: ('A' for Active; 'I' for Inactive)
REMARK    1  A    between atoms: C1_1  and  C2_2 
REMARK    2  A    between atoms: C1_1  and  C3_3 
ROOT
HETATM    1  C2  UNL     1     -33.164   8.004   2.274  1.00 20.00     0.043 A 
HETATM    2  C4  UNL     1     -32.929   9.431   2.275  1.00 20.00     0.013 A 
HETATM    3  C5  UNL     1     -31.778   8.444   2.129  1.00 20.00    -0.023 A 
HETATM    4  C8  UNL     1     -33.416  10.272   1.145  1.00 20.00     0.012 C 
HETATM    5  C9  UNL     1     -31.137   8.221   0.781  1.00 20.00     0.017 C 
HETATM    6  C10 UNL     1     -30.809   8.343   3.282  1.00 20.00     0.017 C 
ENDROOT
BRANCH   1   7
HETATM    7  C1  UNL     1     -33.630   7.374   3.305  1.00 20.00    -0.159 C 
BRANCH   7   8
HETATM    8  C3  UNL     1     -34.101   6.739   4.344  1.00 20.00     0.022 C 
HETATM    9  C6  UNL     1     -34.974   5.524   4.215  1.00 20.00     0.029 C 
HETATM   10  C7  UNL     1     -33.802   7.172   5.752  1.00 20.00     0.029 C 
ENDBRANCH   7   8
ENDBRANCH   1   7
TORSDOF 2
ENDMDL
MODEL 6
REMARK VINA RESULT:      -4.3     10.159     11.243
REMARK  2 active torsions:
REMARK  status: ('A' for Active; 'I' for Inactive)
REMARK    1  A    between atoms: C1_1  and  C2_2 
REMARK    2  A    between atoms: C1_1  and  C3_3 
ROOT
HETATM    1  C2  UNL     1     -35.584  15.820  -3.685  1.00 20.00     0.043 A 
HETATM    2  C4  UNL     1     -35.275  16.204  -5.046  1.00 20.00     0.013 A 
HETATM    3  C5  UNL     1     -34.862  14.844  -4.498  1.00 20.00    -0.023 A 
HETATM    4  C8  UNL     1     -36.368  16.371  -6.044  1.00 20.00     0.012 C 
HETATM    5  C9  UNL     1     -35.624  13.603  -4.897  1.00 20.00     0.017 C 
HETATM    6  C10 UNL     1     -33.386  14.605  -4.293  1.00 20.00     0.017 C 
ENDROOT
BRANCH   1   7
HETATM    7  C1  UNL     1     -35.086  16.432  -2.659  1.00 20.00    -0.159 C 
BRANCH   7   8
HETATM    8  C3  UNL     1     -34.585  17.050  -1.624  1.00 20.00     0.022 C 
HETATM    9  C6  UNL     1     -33.184  17.592  -1.613  1.00 20.00     0.029 C 
HETATM   10  C7  UNL     1     -35.371  17.271  -0.363  1.00 20.00     0.029 C 
ENDBRANCH   7   8
ENDBRANCH   1   7
TORSDOF 2
ENDMDL
MODEL 7
REMARK VINA RESULT:      -4.1     10.243     11.271
REMARK  2 active torsions:
REMARK  status: ('A' for Active; 'I' for Inactive)
REMARK    1  A    between atoms: C1_1  and  C2_2 
REMARK    2  A    between atoms: C1_1  and  C3_3 
ROOT
HETATM    1  C2  UNL     1     -33.918  16.751  -1.924  1.00 20.00     0.043 A 
HETATM    2  C4  UNL     1     -33.518  18.136  -1.803  1.00 20.00     0.013 A 
HETATM    3  C5  UNL     1     -34.939  17.696  -1.476  1.00 20.00    -0.023 A 
HETATM    4  C8  UNL     1     -32.542  18.546  -0.755  1.00 20.00     0.012 C 
HETATM    5  C9  UNL     1     -35.384  17.577  -0.039  1.00 20.00     0.017 C 
HETATM    6  C10 UNL     1     -36.033  18.154  -2.410  1.00 20.00     0.017 C 
ENDROOT
BRANCH   1   7
HETATM    7  C1  UNL     1     -33.940  16.129  -3.059  1.00 20.00    -0.159 C 
BRANCH   7   8
HETATM    8  C3  UNL     1     -33.963  15.502  -4.204  1.00 20.00     0.022 C 
HETATM    9  C6  UNL     1     -33.197  15.989  -5.401  1.00 20.00     0.029 C 
HETATM   10  C7  UNL     1     -34.752  14.241  -4.413  1.00 20.00     0.029 C 
ENDBRANCH   7   8
ENDBRANCH   1   7
TORSDOF 2
ENDMDL
MODEL 8
REMARK VINA RESULT:      -4.1     10.080     11.538
REMARK  2 active torsions:
REMARK  status: ('A' for Active; 'I' for Inactive)
REMARK    1  A    between atoms: C1_1  and  C2_2 
REMARK    2  A    between atoms: C1_1  and  C3_3 
ROOT
HETATM    1  C2  UNL     1     -33.639  16.603  -3.162  1.00 20.00     0.043 A 
HETATM    2  C4  UNL     1     -34.226  15.388  -3.684  1.00 20.00     0.013 A 
HETATM    3  C5  UNL     1     -34.459  16.731  -4.364  1.00 20.00    -0.023 A 
HETATM    4  C8  UNL     1     -33.359  14.329  -4.272  1.00 20.00     0.012 C 
HETATM    5  C9  UNL     1     -33.733  17.069  -5.643  1.00 20.00     0.017 C 
HETATM    6  C10 UNL     1     -35.854  17.305  -4.292  1.00 20.00     0.017 C 
ENDROOT
BRANCH   1   7
HETATM    7  C1  UNL     1     -33.954  17.086  -2.002  1.00 20.00    -0.159 C 
BRANCH   7   8
HETATM    8  C3  UNL     1     -34.271  17.573  -0.834  1.00 20.00     0.022 C 
HETATM    9  C6  UNL     1     -33.314  18.397  -0.020  1.00 20.00     0.029 C 
HETATM   10  C7  UNL     1     -35.621  17.353  -0.212  1.00 20.00     0.029 C 
ENDBRANCH   7   8
ENDBRANCH   1   7
TORSDOF 2
ENDMDL
MODEL 9
REMARK VINA RESULT:      -4.0     10.124     11.265
REMARK  2 active torsions:
REMARK  status: ('A' for Active; 'I' for Inactive)
REMARK    1  A    between atoms: C1_1  and  C2_2 
REMARK    2  A    between atoms: C1_1  and  C3_3 
ROOT
HETATM    1  C2  UNL     1     -34.046  16.946  -1.599  1.00 20.00     0.043 A 
HETATM    2  C4  UNL     1     -33.787  18.358  -1.416  1.00 20.00     0.013 A 
HETATM    3  C5  UNL     1     -35.160  17.765  -1.126  1.00 20.00    -0.023 A 
HETATM    4  C8  UNL     1     -32.866  18.818  -0.339  1.00 20.00     0.012 C 
HETATM    5  C9  UNL     1     -35.604  17.542   0.299  1.00 20.00     0.017 C 
HETATM    6  C10 UNL     1     -36.285  18.151  -2.055  1.00 20.00     0.017 C 
ENDROOT
BRANCH   1   7
HETATM    7  C1  UNL     1     -33.995  16.373  -2.759  1.00 20.00    -0.159 C 
BRANCH   7   8
HETATM    8  C3  UNL     1     -33.943  15.796  -3.928  1.00 20.00     0.022 C 
HETATM    9  C6  UNL     1     -34.443  14.398  -4.156  1.00 20.00     0.029 C 
HETATM   10  C7  UNL     1     -33.384  16.486  -5.140  1.00 20.00     0.029 C 
ENDBRANCH   7   8
ENDBRANCH   1   7
TORSDOF 2
ENDMDL
