MODEL 1
REMARK VINA RESULT:      -3.4      0.000      0.000
REMARK  0 active torsions:
REMARK  status: ('A' for Active; 'I' for Inactive)
ROOT
HETATM    1  C1  UNL     1     -34.975  14.536  -4.156  1.00 20.00     0.175 C 
HETATM    2  C2  UNL     1     -35.691  17.001  -5.252  1.00 20.00     0.175 C 
HETATM    3  C3  UNL     1     -35.774  14.697  -6.825  1.00 20.00     0.175 C 
HETATM    4  C4  UNL     1     -33.317  15.760  -6.037  1.00 20.00     0.175 C 
HETATM    5  S5  UNL     1     -35.795  16.085  -3.692  1.00 20.00    -0.117 SA
HETATM    6  S6  UNL     1     -35.885  13.582  -5.400  1.00 20.00    -0.117 SA
HETATM    7  S7  UNL     1     -36.662  16.260  -6.592  1.00 20.00    -0.117 SA
HETATM    8  S8  UNL     1     -33.216  14.737  -4.543  1.00 20.00    -0.117 SA
HETATM    9  S9  UNL     1     -33.993  17.414  -5.735  1.00 20.00    -0.117 SA
HETATM   10  S10 UNL     1     -34.084  14.911  -7.444  1.00 20.00    -0.117 SA
ENDROOT
TORSDOF 0
ENDMDL
MODEL 2
REMARK VINA RESULT:      -3.4      0.006      2.802
REMARK  0 active torsions:
REMARK  status: ('A' for Active; 'I' for Inactive)
ROOT
HETATM    1  C1  UNL     1     -34.974  14.536  -4.155  1.00 20.00     0.175 C 
HETATM    2  C2  UNL     1     -33.316  15.764  -6.035  1.00 20.00     0.175 C 
HETATM    3  C3  UNL     1     -35.689  17.003  -5.246  1.00 20.00     0.175 C 
HETATM    4  C4  UNL     1     -35.774  14.703  -6.823  1.00 20.00     0.175 C 
HETATM    5  S5  UNL     1     -33.215  14.739  -4.544  1.00 20.00    -0.117 SA
HETATM    6  S6  UNL     1     -35.793  16.084  -3.687  1.00 20.00    -0.117 SA
HETATM    7  S7  UNL     1     -33.992  17.419  -5.730  1.00 20.00    -0.117 SA
HETATM    8  S8  UNL     1     -35.885  13.584  -5.400  1.00 20.00    -0.117 SA
HETATM    9  S9  UNL     1     -34.085  14.918  -7.442  1.00 20.00    -0.117 SA
HETATM   10  S10 UNL     1     -36.662  16.265  -6.586  1.00 20.00    -0.117 SA
ENDROOT
TORSDOF 0
ENDMDL
MODEL 3
REMARK VINA RESULT:      -3.4      0.005      2.802
REMARK  0 active torsions:
REMARK  status: ('A' for Active; 'I' for Inactive)
ROOT
HETATM    1  C1  UNL     1     -34.976  14.535  -4.158  1.00 20.00     0.175 C 
HETATM    2  C2  UNL     1     -35.775  14.701  -6.826  1.00 20.00     0.175 C 
HETATM    3  C3  UNL     1     -33.317  15.762  -6.037  1.00 20.00     0.175 C 
HETATM    4  C4  UNL     1     -35.690  17.001  -5.248  1.00 20.00     0.175 C 
HETATM    5  S5  UNL     1     -35.886  13.584  -5.404  1.00 20.00    -0.117 SA
HETATM    6  S6  UNL     1     -33.216  14.736  -4.546  1.00 20.00    -0.117 SA
HETATM    7  S7  UNL     1     -34.085  14.918  -7.446  1.00 20.00    -0.117 SA
HETATM    8  S8  UNL     1     -35.794  16.082  -3.689  1.00 20.00    -0.117 SA
HETATM    9  S9  UNL     1     -36.663  16.264  -6.588  1.00 20.00    -0.117 SA
HETATM   10  S10 UNL     1     -33.993  17.416  -5.731  1.00 20.00    -0.117 SA
ENDROOT
TORSDOF 0
ENDMDL
MODEL 4
REMARK VINA RESULT:      -3.4      0.028      3.236
REMARK  0 active torsions:
REMARK  status: ('A' for Active; 'I' for Inactive)
ROOT
HETATM    1  C1  UNL     1     -35.680  17.015  -5.223  1.00 20.00     0.175 C 
HETATM    2  C2  UNL     1     -34.964  14.544  -4.143  1.00 20.00     0.175 C 
HETATM    3  C3  UNL     1     -33.312  15.776  -6.024  1.00 20.00     0.175 C 
HETATM    4  C4  UNL     1     -35.773  14.721  -6.808  1.00 20.00     0.175 C 
HETATM    5  S5  UNL     1     -35.778  16.091  -3.666  1.00 20.00    -0.117 SA
HETATM    6  S6  UNL     1     -33.984  17.430  -5.711  1.00 20.00    -0.117 SA
HETATM    7  S7  UNL     1     -33.206  14.743  -4.538  1.00 20.00    -0.117 SA
HETATM    8  S8  UNL     1     -36.659  16.285  -6.561  1.00 20.00    -0.117 SA
HETATM    9  S9  UNL     1     -35.881  13.599  -5.389  1.00 20.00    -0.117 SA
HETATM   10  S10 UNL     1     -34.086  14.937  -7.433  1.00 20.00    -0.117 SA
ENDROOT
TORSDOF 0
ENDMDL
MODEL 5
REMARK VINA RESULT:      -3.4      0.026      2.799
REMARK  0 active torsions:
REMARK  status: ('A' for Active; 'I' for Inactive)
ROOT
HETATM    1  C1  UNL     1     -35.681  17.013  -5.223  1.00 20.00     0.175 C 
HETATM    2  C2  UNL     1     -33.313  15.774  -6.026  1.00 20.00     0.175 C 
HETATM    3  C3  UNL     1     -35.775  14.720  -6.810  1.00 20.00     0.175 C 
HETATM    4  C4  UNL     1     -34.965  14.541  -4.145  1.00 20.00     0.175 C 
HETATM    5  S5  UNL     1     -33.985  17.428  -5.712  1.00 20.00    -0.117 SA
HETATM    6  S6  UNL     1     -36.660  16.282  -6.562  1.00 20.00    -0.117 SA
HETATM    7  S7  UNL     1     -34.087  14.935  -7.435  1.00 20.00    -0.117 SA
HETATM    8  S8  UNL     1     -35.780  16.089  -3.667  1.00 20.00    -0.117 SA
HETATM    9  S9  UNL     1     -33.208  14.742  -4.539  1.00 20.00    -0.117 SA
HETATM   10  S10 UNL     1     -35.882  13.596  -5.391  1.00 20.00    -0.117 SA
ENDROOT
TORSDOF 0
ENDMDL
MODEL 6
REMARK VINA RESULT:      -3.4      0.016      3.236
REMARK  0 active torsions:
REMARK  status: ('A' for Active; 'I' for Inactive)
ROOT
HETATM    1  C1  UNL     1     -35.773  14.712  -6.820  1.00 20.00     0.175 C 
HETATM    2  C2  UNL     1     -33.317  15.776  -6.031  1.00 20.00     0.175 C 
HETATM    3  C3  UNL     1     -34.970  14.538  -4.154  1.00 20.00     0.175 C 
HETATM    4  C4  UNL     1     -35.692  17.007  -5.236  1.00 20.00     0.175 C 
HETATM    5  S5  UNL     1     -34.084  14.933  -7.440  1.00 20.00    -0.117 SA
HETATM    6  S6  UNL     1     -35.880  13.589  -5.401  1.00 20.00    -0.117 SA
HETATM    7  S7  UNL     1     -33.211  14.746  -4.542  1.00 20.00    -0.117 SA
HETATM    8  S8  UNL     1     -36.665  16.271  -6.578  1.00 20.00    -0.117 SA
HETATM    9  S9  UNL     1     -33.997  17.427  -5.720  1.00 20.00    -0.117 SA
HETATM   10  S10 UNL     1     -35.792  16.083  -3.680  1.00 20.00    -0.117 SA
ENDROOT
TORSDOF 0
ENDMDL
MODEL 7
REMARK VINA RESULT:      -3.4      0.022      2.805
REMARK  0 active torsions:
REMARK  status: ('A' for Active; 'I' for Inactive)
ROOT
HETATM    1  C1  UNL     1     -35.768  14.717  -6.827  1.00 20.00     0.175 C 
HETATM    2  C2  UNL     1     -35.697  17.008  -5.235  1.00 20.00     0.175 C 
HETATM    3  C3  UNL     1     -33.317  15.787  -6.030  1.00 20.00     0.175 C 
HETATM    4  C4  UNL     1     -34.969  14.538  -4.160  1.00 20.00     0.175 C 
HETATM    5  S5  UNL     1     -36.664  16.274  -6.580  1.00 20.00    -0.117 SA
HETATM    6  S6  UNL     1     -34.079  14.946  -7.444  1.00 20.00    -0.117 SA
HETATM    7  S7  UNL     1     -34.001  17.435  -5.713  1.00 20.00    -0.117 SA
HETATM    8  S8  UNL     1     -35.875  13.589  -5.412  1.00 20.00    -0.117 SA
HETATM    9  S9  UNL     1     -35.796  16.078  -3.682  1.00 20.00    -0.117 SA
HETATM   10  S10 UNL     1     -33.211  14.751  -4.546  1.00 20.00    -0.117 SA
ENDROOT
TORSDOF 0
ENDMDL
MODEL 8
REMARK VINA RESULT:      -3.4      0.023      2.797
REMARK  0 active torsions:
REMARK  status: ('A' for Active; 'I' for Inactive)
ROOT
HETATM    1  C1  UNL     1     -35.683  17.012  -5.227  1.00 20.00     0.175 C 
HETATM    2  C2  UNL     1     -35.774  14.718  -6.813  1.00 20.00     0.175 C 
HETATM    3  C3  UNL     1     -34.968  14.541  -4.147  1.00 20.00     0.175 C 
HETATM    4  C4  UNL     1     -33.314  15.774  -6.026  1.00 20.00     0.175 C 
HETATM    5  S5  UNL     1     -36.660  16.279  -6.567  1.00 20.00    -0.117 SA
HETATM    6  S6  UNL     1     -35.784  16.087  -3.671  1.00 20.00    -0.117 SA
HETATM    7  S7  UNL     1     -35.881  13.594  -5.395  1.00 20.00    -0.117 SA
HETATM    8  S8  UNL     1     -33.988  17.429  -5.713  1.00 20.00    -0.117 SA
HETATM    9  S9  UNL     1     -34.085  14.936  -7.436  1.00 20.00    -0.117 SA
HETATM   10  S10 UNL     1     -33.209  14.743  -4.540  1.00 20.00    -0.117 SA
ENDROOT
TORSDOF 0
ENDMDL
MODEL 9
REMARK VINA RESULT:      -3.4      0.011      2.805
REMARK  0 active torsions:
REMARK  status: ('A' for Active; 'I' for Inactive)
ROOT
HETATM    1  C1  UNL     1     -35.770  14.707  -6.825  1.00 20.00     0.175 C 
HETATM    2  C2  UNL     1     -34.973  14.537  -4.156  1.00 20.00     0.175 C 
HETATM    3  C3  UNL     1     -35.693  17.004  -5.243  1.00 20.00     0.175 C 
HETATM    4  C4  UNL     1     -33.317  15.772  -6.031  1.00 20.00     0.175 C 
HETATM    5  S5  UNL     1     -35.881  13.587  -5.404  1.00 20.00    -0.117 SA
HETATM    6  S6  UNL     1     -36.662  16.267  -6.585  1.00 20.00    -0.117 SA
HETATM    7  S7  UNL     1     -35.795  16.083  -3.685  1.00 20.00    -0.117 SA
HETATM    8  S8  UNL     1     -34.081  14.927  -7.443  1.00 20.00    -0.117 SA
HETATM    9  S9  UNL     1     -33.214  14.743  -4.543  1.00 20.00    -0.117 SA
HETATM   10  S10 UNL     1     -33.996  17.424  -5.723  1.00 20.00    -0.117 SA
ENDROOT
TORSDOF 0
ENDMDL
