MODEL 1
REMARK VINA RESULT:      -5.6      0.000      0.000
REMARK  4 active torsions:
REMARK  status: ('A' for Active; 'I' for Inactive)
REMARK    1  A    between atoms: C3_3  and  C5_5 
REMARK    2  A    between atoms: C5_5  and  N8_8 
REMARK    3  A    between atoms: C6_6  and  C7_7 
REMARK    4  A    between atoms: C6_6  and  N8_8 
ROOT
HETATM    1  N8  UNL     1     -34.274   5.761   2.846  1.00 20.00     0.089 N 
HETATM    2  H23 UNL     1     -34.309   4.741   2.739  1.00 20.00     0.316 HD
ENDROOT
BRANCH   1   3
HETATM    3  C5  UNL     1     -32.909   6.205   2.927  1.00 20.00     0.274 C 
BRANCH   3   4
HETATM    4  C3  UNL     1     -32.821   7.690   2.862  1.00 20.00     0.018 A 
HETATM    5  C1  UNL     1     -31.562   8.393   3.298  1.00 20.00     0.011 A 
HETATM    6  C2  UNL     1     -31.934   8.351   1.839  1.00 20.00    -0.013 A 
HETATM    7  C4  UNL     1     -32.386   9.589   1.145  1.00 20.00     0.010 C 
ENDBRANCH   3   4
ENDBRANCH   1   3
BRANCH   1   8
HETATM    8  C6  UNL     1     -35.033   6.123   4.045  1.00 20.00     0.340 C 
BRANCH   8   9
HETATM    9  C7  UNL     1     -34.291   5.694   5.293  1.00 20.00     0.381 C 
HETATM   10  F9  UNL     1     -34.896   4.609   5.841  1.00 20.00    -0.213 F 
HETATM   11  F10 UNL     1     -34.365   6.685   6.218  1.00 20.00    -0.213 F 
ENDBRANCH   8   9
ENDBRANCH   1   8
TORSDOF 4
ENDMDL
MODEL 2
REMARK VINA RESULT:      -5.6      3.628      5.161
REMARK  4 active torsions:
REMARK  status: ('A' for Active; 'I' for Inactive)
REMARK    1  A    between atoms: C3_3  and  C5_5 
REMARK    2  A    between atoms: C5_5  and  N8_8 
REMARK    3  A    between atoms: C6_6  and  C7_7 
REMARK    4  A    between atoms: C6_6  and  N8_8 
ROOT
HETATM    1  N8  UNL     1     -31.928   8.247   2.575  1.00 20.00     0.089 N 
HETATM    2  H23 UNL     1     -31.239   7.493   2.671  1.00 20.00     0.316 HD
ENDROOT
BRANCH   1   3
HETATM    3  C5  UNL     1     -33.252   7.743   2.819  1.00 20.00     0.274 C 
BRANCH   3   4
HETATM    4  C3  UNL     1     -33.255   6.753   3.932  1.00 20.00     0.018 A 
HETATM    5  C1  UNL     1     -33.877   7.106   5.258  1.00 20.00     0.011 A 
HETATM    6  C2  UNL     1     -34.544   6.098   4.358  1.00 20.00    -0.013 A 
HETATM    7  C4  UNL     1     -34.562   4.657   4.733  1.00 20.00     0.010 C 
ENDBRANCH   3   4
ENDBRANCH   1   3
BRANCH   1   8
HETATM    8  C6  UNL     1     -31.805   8.815   1.231  1.00 20.00     0.340 C 
BRANCH   8   9
HETATM    9  C7  UNL     1     -32.899   9.832   0.982  1.00 20.00     0.381 C 
HETATM   10  F9  UNL     1     -33.117   9.957  -0.352  1.00 20.00    -0.213 F 
HETATM   11  F10 UNL     1     -32.484  11.048   1.421  1.00 20.00    -0.213 F 
ENDBRANCH   8   9
ENDBRANCH   1   8
TORSDOF 4
ENDMDL
MODEL 3
REMARK VINA RESULT:      -5.6      0.915      1.589
REMARK  4 active torsions:
REMARK  status: ('A' for Active; 'I' for Inactive)
REMARK    1  A    between atoms: C3_3  and  C5_5 
REMARK    2  A    between atoms: C5_5  and  N8_8 
REMARK    3  A    between atoms: C6_6  and  C7_7 
REMARK    4  A    between atoms: C6_6  and  N8_8 
ROOT
HETATM    1  N8  UNL     1     -33.693   7.316   3.687  1.00 20.00     0.089 N 
HETATM    2  H23 UNL     1     -34.370   7.938   3.233  1.00 20.00     0.316 HD
ENDROOT
BRANCH   1   3
HETATM    3  C5  UNL     1     -32.556   7.109   2.832  1.00 20.00     0.274 C 
BRANCH   3   4
HETATM    4  C3  UNL     1     -31.996   8.404   2.357  1.00 20.00     0.018 A 
HETATM    5  C1  UNL     1     -31.423   8.517   0.967  1.00 20.00     0.011 A 
HETATM    6  C2  UNL     1     -32.722   9.201   1.304  1.00 20.00    -0.013 A 
HETATM    7  C4  UNL     1     -32.784  10.687   1.400  1.00 20.00     0.010 C 
ENDBRANCH   3   4
ENDBRANCH   1   3
BRANCH   1   8
HETATM    8  C6  UNL     1     -34.367   6.056   4.005  1.00 20.00     0.340 C 
BRANCH   8   9
HETATM    9  C7  UNL     1     -34.599   5.939   5.497  1.00 20.00     0.381 C 
HETATM   10  F9  UNL     1     -33.827   6.839   6.157  1.00 20.00    -0.213 F 
HETATM   11  F10 UNL     1     -34.202   4.710   5.915  1.00 20.00    -0.213 F 
ENDBRANCH   8   9
ENDBRANCH   1   8
TORSDOF 4
ENDMDL
MODEL 4
REMARK VINA RESULT:      -5.5      1.477      2.037
REMARK  4 active torsions:
REMARK  status: ('A' for Active; 'I' for Inactive)
REMARK    1  A    between atoms: C3_3  and  C5_5 
REMARK    2  A    between atoms: C5_5  and  N8_8 
REMARK    3  A    between atoms: C6_6  and  C7_7 
REMARK    4  A    between atoms: C6_6  and  N8_8 
ROOT
HETATM    1  N8  UNL     1     -32.550   7.533   3.780  1.00 20.00     0.089 N 
HETATM    2  H23 UNL     1     -33.069   8.198   4.364  1.00 20.00     0.316 HD
ENDROOT
BRANCH   1   3
HETATM    3  C5  UNL     1     -31.807   8.235   2.770  1.00 20.00     0.274 C 
BRANCH   3   4
HETATM    4  C3  UNL     1     -32.715   8.946   1.827  1.00 20.00     0.018 A 
HETATM    5  C1  UNL     1     -32.495  10.405   1.520  1.00 20.00     0.011 A 
HETATM    6  C2  UNL     1     -32.217   9.363   0.468  1.00 20.00    -0.013 A 
HETATM    7  C4  UNL     1     -33.105   9.246  -0.722  1.00 20.00     0.010 C 
ENDBRANCH   3   4
ENDBRANCH   1   3
BRANCH   1   8
HETATM    8  C6  UNL     1     -33.507   6.593   3.193  1.00 20.00     0.340 C 
BRANCH   8   9
HETATM    9  C7  UNL     1     -34.368   5.969   4.270  1.00 20.00     0.381 C 
HETATM   10  F9  UNL     1     -35.648   5.860   3.834  1.00 20.00    -0.213 F 
HETATM   11  F10 UNL     1     -34.396   6.791   5.350  1.00 20.00    -0.213 F 
ENDBRANCH   8   9
ENDBRANCH   1   8
TORSDOF 4
ENDMDL
MODEL 5
REMARK VINA RESULT:      -5.4      3.389      5.176
REMARK  4 active torsions:
REMARK  status: ('A' for Active; 'I' for Inactive)
REMARK    1  A    between atoms: C3_3  and  C5_5 
REMARK    2  A    between atoms: C5_5  and  N8_8 
REMARK    3  A    between atoms: C6_6  and  C7_7 
REMARK    4  A    between atoms: C6_6  and  N8_8 
ROOT
HETATM    1  N8  UNL     1     -32.209   8.628   2.447  1.00 20.00     0.089 N 
HETATM    2  H23 UNL     1     -31.412   8.969   2.996  1.00 20.00     0.316 HD
ENDROOT
BRANCH   1   3
HETATM    3  C5  UNL     1     -32.490   7.258   2.776  1.00 20.00     0.274 C 
BRANCH   3   4
HETATM    4  C3  UNL     1     -33.707   7.146   3.626  1.00 20.00     0.018 A 
HETATM    5  C1  UNL     1     -34.779   6.143   3.285  1.00 20.00     0.011 A 
HETATM    6  C2  UNL     1     -33.912   5.935   4.499  1.00 20.00    -0.013 A 
HETATM    7  C4  UNL     1     -34.487   6.086   5.865  1.00 20.00     0.010 C 
ENDBRANCH   3   4
ENDBRANCH   1   3
BRANCH   1   8
HETATM    8  C6  UNL     1     -31.892   8.789   1.027  1.00 20.00     0.340 C 
BRANCH   8   9
HETATM    9  C7  UNL     1     -32.670   9.946   0.436  1.00 20.00     0.381 C 
HETATM   10  F9  UNL     1     -33.458  10.507   1.388  1.00 20.00    -0.213 F 
HETATM   11  F10 UNL     1     -33.503   9.477  -0.527  1.00 20.00    -0.213 F 
ENDBRANCH   8   9
ENDBRANCH   1   8
TORSDOF 4
ENDMDL
MODEL 6
REMARK VINA RESULT:      -5.3      3.474      5.173
REMARK  4 active torsions:
REMARK  status: ('A' for Active; 'I' for Inactive)
REMARK    1  A    between atoms: C3_3  and  C5_5 
REMARK    2  A    between atoms: C5_5  and  N8_8 
REMARK    3  A    between atoms: C6_6  and  C7_7 
REMARK    4  A    between atoms: C6_6  and  N8_8 
ROOT
HETATM    1  N8  UNL     1     -32.107   7.771   2.678  1.00 20.00     0.089 N 
HETATM    2  H23 UNL     1     -31.179   7.621   2.265  1.00 20.00     0.316 HD
ENDROOT
BRANCH   1   3
HETATM    3  C5  UNL     1     -32.845   6.538   2.702  1.00 20.00     0.274 C 
BRANCH   3   4
HETATM    4  C3  UNL     1     -33.843   6.528   3.806  1.00 20.00     0.018 A 
HETATM    5  C1  UNL     1     -35.264   6.104   3.538  1.00 20.00     0.011 A 
HETATM    6  C2  UNL     1     -34.355   5.219   4.351  1.00 20.00    -0.013 A 
HETATM    7  C4  UNL     1     -34.582   5.055   5.814  1.00 20.00     0.010 C 
ENDBRANCH   3   4
ENDBRANCH   1   3
BRANCH   1   8
HETATM    8  C6  UNL     1     -32.797   8.800   1.899  1.00 20.00     0.340 C 
BRANCH   8   9
HETATM    9  C7  UNL     1     -31.951   9.230   0.719  1.00 20.00     0.381 C 
HETATM   10  F9  UNL     1     -32.686   9.176  -0.420  1.00 20.00    -0.213 F 
HETATM   11  F10 UNL     1     -30.928   8.351   0.561  1.00 20.00    -0.213 F 
ENDBRANCH   8   9
ENDBRANCH   1   8
TORSDOF 4
ENDMDL
MODEL 7
REMARK VINA RESULT:      -5.1      3.431      4.878
REMARK  4 active torsions:
REMARK  status: ('A' for Active; 'I' for Inactive)
REMARK    1  A    between atoms: C3_3  and  C5_5 
REMARK    2  A    between atoms: C5_5  and  N8_8 
REMARK    3  A    between atoms: C6_6  and  C7_7 
REMARK    4  A    between atoms: C6_6  and  N8_8 
ROOT
HETATM    1  N8  UNL     1     -32.286   7.194   2.482  1.00 20.00     0.089 N 
HETATM    2  H23 UNL     1     -31.680   6.890   1.713  1.00 20.00     0.316 HD
ENDROOT
BRANCH   1   3
HETATM    3  C5  UNL     1     -33.436   6.335   2.577  1.00 20.00     0.274 C 
BRANCH   3   4
HETATM    4  C3  UNL     1     -34.255   6.662   3.776  1.00 20.00     0.018 A 
HETATM    5  C1  UNL     1     -34.823   5.557   4.629  1.00 20.00     0.011 A 
HETATM    6  C2  UNL     1     -33.705   6.418   5.158  1.00 20.00    -0.013 A 
HETATM    7  C4  UNL     1     -33.966   7.396   6.250  1.00 20.00     0.010 C 
ENDBRANCH   3   4
ENDBRANCH   1   3
BRANCH   1   8
HETATM    8  C6  UNL     1     -32.669   8.586   2.244  1.00 20.00     0.340 C 
BRANCH   8   9
HETATM    9  C7  UNL     1     -32.252   9.022   0.855  1.00 20.00     0.381 C 
HETATM   10  F9  UNL     1     -31.008   8.555   0.578  1.00 20.00    -0.213 F 
HETATM   11  F10 UNL     1     -32.174  10.376   0.817  1.00 20.00    -0.213 F 
ENDBRANCH   8   9
ENDBRANCH   1   8
TORSDOF 4
ENDMDL
MODEL 8
REMARK VINA RESULT:      -4.5      1.630      2.091
REMARK  4 active torsions:
REMARK  status: ('A' for Active; 'I' for Inactive)
REMARK    1  A    between atoms: C3_3  and  C5_5 
REMARK    2  A    between atoms: C5_5  and  N8_8 
REMARK    3  A    between atoms: C6_6  and  C7_7 
REMARK    4  A    between atoms: C6_6  and  N8_8 
ROOT
HETATM    1  N8  UNL     1     -33.489   7.026   5.707  1.00 20.00     0.089 N 
HETATM    2  H23 UNL     1     -33.563   7.633   6.531  1.00 20.00     0.316 HD
ENDROOT
BRANCH   1   3
HETATM    3  C5  UNL     1     -33.688   7.791   4.507  1.00 20.00     0.274 C 
BRANCH   3   4
HETATM    4  C3  UNL     1     -32.524   7.665   3.587  1.00 20.00     0.018 A 
HETATM    5  C1  UNL     1     -32.508   6.592   2.529  1.00 20.00     0.011 A 
HETATM    6  C2  UNL     1     -32.665   8.038   2.134  1.00 20.00    -0.013 A 
HETATM    7  C4  UNL     1     -31.558   8.746   1.433  1.00 20.00     0.010 C 
ENDBRANCH   3   4
ENDBRANCH   1   3
BRANCH   1   8
HETATM    8  C6  UNL     1     -34.477   5.954   5.836  1.00 20.00     0.340 C 
BRANCH   8   9
HETATM    9  C7  UNL     1     -34.700   5.273   4.502  1.00 20.00     0.381 C 
HETATM   10  F9  UNL     1     -35.892   5.659   3.979  1.00 20.00    -0.213 F 
HETATM   11  F10 UNL     1     -34.779   3.932   4.694  1.00 20.00    -0.213 F 
ENDBRANCH   8   9
ENDBRANCH   1   8
TORSDOF 4
ENDMDL
MODEL 9
REMARK VINA RESULT:      -4.3      2.990      4.836
REMARK  4 active torsions:
REMARK  status: ('A' for Active; 'I' for Inactive)
REMARK    1  A    between atoms: C3_3  and  C5_5 
REMARK    2  A    between atoms: C5_5  and  N8_8 
REMARK    3  A    between atoms: C6_6  and  C7_7 
REMARK    4  A    between atoms: C6_6  and  N8_8 
ROOT
HETATM    1  N8  UNL     1     -32.284   8.004   4.368  1.00 20.00     0.089 N 
HETATM    2  H23 UNL     1     -31.532   7.633   4.959  1.00 20.00     0.316 HD
ENDROOT
BRANCH   1   3
HETATM    3  C5  UNL     1     -33.565   7.696   4.943  1.00 20.00     0.274 C 
BRANCH   3   4
HETATM    4  C3  UNL     1     -33.655   6.258   5.319  1.00 20.00     0.018 A 
HETATM    5  C1  UNL     1     -34.863   5.743   6.059  1.00 20.00     0.011 A 
HETATM    6  C2  UNL     1     -34.637   5.354   4.621  1.00 20.00    -0.013 A 
HETATM    7  C4  UNL     1     -34.253   3.957   4.274  1.00 20.00     0.010 C 
ENDBRANCH   3   4
ENDBRANCH   1   3
BRANCH   1   8
HETATM    8  C6  UNL     1     -32.141   7.432   3.028  1.00 20.00     0.340 C 
BRANCH   8   9
HETATM    9  C7  UNL     1     -31.910   8.525   2.005  1.00 20.00     0.381 C 
HETATM   10  F9  UNL     1     -31.676   9.705   2.635  1.00 20.00    -0.213 F 
HETATM   11  F10 UNL     1     -33.040   8.695   1.273  1.00 20.00    -0.213 F 
ENDBRANCH   8   9
ENDBRANCH   1   8
TORSDOF 4
ENDMDL
