MODEL 1
REMARK VINA RESULT:      -5.9      0.000      0.000
REMARK  3 active torsions:
REMARK  status: ('A' for Active; 'I' for Inactive)
REMARK       I    between atoms: C1_1  and  N10_10 
REMARK    1  A    between atoms: C7_7  and  C8_8 
REMARK    2  A    between atoms: C7_7  and  N10_10 
REMARK    3  A    between atoms: C8_8  and  C9_9 
ROOT
HETATM    1  C7  UNL     1     -32.396   7.103   3.006  1.00 20.00     0.127 C 
ENDROOT
BRANCH   1   2
HETATM    2  C8  UNL     1     -33.466   6.002   2.840  1.00 20.00     0.007 C 
HETATM    3  C3  UNL     1     -32.780   4.685   2.430  1.00 20.00     0.012 C 
BRANCH   2   4
HETATM    4  C9  UNL     1     -34.402   5.848   4.097  1.00 20.00    -0.047 C 
HETATM    5  C4  UNL     1     -35.864   6.178   3.720  1.00 20.00     0.015 C 
HETATM    6  C5  UNL     1     -33.983   6.772   5.256  1.00 20.00     0.015 C 
HETATM    7  C6  UNL     1     -34.387   4.392   4.612  1.00 20.00     0.015 C 
ENDBRANCH   2   4
ENDBRANCH   1   2
BRANCH   1   8
HETATM    8  N10 UNL     1     -32.806   8.358   2.431  1.00 20.00    -0.361 N 
HETATM    9  C1  UNL     1     -32.161   8.950   1.358  1.00 20.00     0.213 C 
HETATM   10  C2  UNL     1     -32.757  10.248   0.926  1.00 20.00     0.117 C 
HETATM   11  O11 UNL     1     -31.185   8.505   0.765  1.00 20.00    -0.274 OA
HETATM   12  H30 UNL     1     -33.610   8.835   2.834  1.00 20.00     0.162 HD
ENDBRANCH   1   8
TORSDOF 3
ENDMDL
MODEL 2
REMARK VINA RESULT:      -5.5      1.205      2.302
REMARK  3 active torsions:
REMARK  status: ('A' for Active; 'I' for Inactive)
REMARK       I    between atoms: C1_1  and  N10_10 
REMARK    1  A    between atoms: C7_7  and  C8_8 
REMARK    2  A    between atoms: C7_7  and  N10_10 
REMARK    3  A    between atoms: C8_8  and  C9_9 
ROOT
HETATM    1  C7  UNL     1     -33.532   8.016   3.494  1.00 20.00     0.127 C 
ENDROOT
BRANCH   1   2
HETATM    2  C8  UNL     1     -33.363   6.863   4.506  1.00 20.00     0.007 C 
HETATM    3  C3  UNL     1     -33.609   7.397   5.930  1.00 20.00     0.012 C 
BRANCH   2   4
HETATM    4  C9  UNL     1     -34.235   5.597   4.160  1.00 20.00    -0.047 C 
HETATM    5  C4  UNL     1     -34.532   4.785   5.441  1.00 20.00     0.015 C 
HETATM    6  C5  UNL     1     -33.539   4.666   3.149  1.00 20.00     0.015 C 
HETATM    7  C6  UNL     1     -35.597   6.020   3.568  1.00 20.00     0.015 C 
ENDBRANCH   2   4
ENDBRANCH   1   2
BRANCH   1   8
HETATM    8  N10 UNL     1     -32.524   7.996   2.465  1.00 20.00    -0.361 N 
HETATM    9  C1  UNL     1     -32.393   8.989   1.510  1.00 20.00     0.213 C 
HETATM   10  C2  UNL     1     -31.279   8.765   0.542  1.00 20.00     0.117 C 
HETATM   11  O11 UNL     1     -33.091   9.992   1.406  1.00 20.00    -0.274 OA
HETATM   12  H30 UNL     1     -31.875   7.213   2.439  1.00 20.00     0.162 HD
ENDBRANCH   1   8
TORSDOF 3
ENDMDL
MODEL 3
REMARK VINA RESULT:      -4.9      2.224      4.962
REMARK  3 active torsions:
REMARK  status: ('A' for Active; 'I' for Inactive)
REMARK       I    between atoms: C1_1  and  N10_10 
REMARK    1  A    between atoms: C7_7  and  C8_8 
REMARK    2  A    between atoms: C7_7  and  N10_10 
REMARK    3  A    between atoms: C8_8  and  C9_9 
ROOT
HETATM    1  C7  UNL     1     -33.246   6.859   2.268  1.00 20.00     0.127 C 
ENDROOT
BRANCH   1   2
HETATM    2  C8  UNL     1     -32.744   8.302   2.491  1.00 20.00     0.007 C 
HETATM    3  C3  UNL     1     -31.539   8.278   3.450  1.00 20.00     0.012 C 
BRANCH   2   4
HETATM    4  C9  UNL     1     -32.453   9.074   1.149  1.00 20.00    -0.047 C 
HETATM    5  C4  UNL     1     -31.035   8.736   0.634  1.00 20.00     0.015 C 
HETATM    6  C5  UNL     1     -32.552  10.602   1.320  1.00 20.00     0.015 C 
HETATM    7  C6  UNL     1     -33.447   8.646   0.047  1.00 20.00     0.015 C 
ENDBRANCH   2   4
ENDBRANCH   1   2
BRANCH   1   8
HETATM    8  N10 UNL     1     -33.398   6.134   3.503  1.00 20.00    -0.361 N 
HETATM    9  C1  UNL     1     -34.628   5.791   4.038  1.00 20.00     0.213 C 
HETATM   10  C2  UNL     1     -34.549   5.039   5.325  1.00 20.00     0.117 C 
HETATM   11  O11 UNL     1     -35.725   6.046   3.554  1.00 20.00    -0.274 OA
HETATM   12  H30 UNL     1     -32.558   5.859   4.009  1.00 20.00     0.162 HD
ENDBRANCH   1   8
TORSDOF 3
ENDMDL
MODEL 4
REMARK VINA RESULT:      -4.9      2.220      4.984
REMARK  3 active torsions:
REMARK  status: ('A' for Active; 'I' for Inactive)
REMARK       I    between atoms: C1_1  and  N10_10 
REMARK    1  A    between atoms: C7_7  and  C8_8 
REMARK    2  A    between atoms: C7_7  and  N10_10 
REMARK    3  A    between atoms: C8_8  and  C9_9 
ROOT
HETATM    1  C7  UNL     1     -33.244   6.863   2.250  1.00 20.00     0.127 C 
ENDROOT
BRANCH   1   2
HETATM    2  C8  UNL     1     -32.746   8.310   2.457  1.00 20.00     0.007 C 
HETATM    3  C3  UNL     1     -31.541   8.299   3.416  1.00 20.00     0.012 C 
BRANCH   2   4
HETATM    4  C9  UNL     1     -32.456   9.068   1.107  1.00 20.00    -0.047 C 
HETATM    5  C4  UNL     1     -32.540  10.596   1.322  1.00 20.00     0.015 C 
HETATM    6  C5  UNL     1     -33.450   8.684  -0.005  1.00 20.00     0.015 C 
HETATM    7  C6  UNL     1     -31.028   8.761   0.605  1.00 20.00     0.015 C 
ENDBRANCH   2   4
ENDBRANCH   1   2
BRANCH   1   8
HETATM    8  N10 UNL     1     -33.407   6.155   3.493  1.00 20.00    -0.361 N 
HETATM    9  C1  UNL     1     -34.641   5.822   4.023  1.00 20.00     0.213 C 
HETATM   10  C2  UNL     1     -34.574   5.088   5.321  1.00 20.00     0.117 C 
HETATM   11  O11 UNL     1     -35.734   6.073   3.527  1.00 20.00    -0.274 OA
HETATM   12  H30 UNL     1     -32.572   5.886   4.009  1.00 20.00     0.162 HD
ENDBRANCH   1   8
TORSDOF 3
ENDMDL
MODEL 5
REMARK VINA RESULT:      -4.6     11.078     11.771
REMARK  3 active torsions:
REMARK  status: ('A' for Active; 'I' for Inactive)
REMARK       I    between atoms: C1_1  and  N10_10 
REMARK    1  A    between atoms: C7_7  and  C8_8 
REMARK    2  A    between atoms: C7_7  and  N10_10 
REMARK    3  A    between atoms: C8_8  and  C9_9 
ROOT
HETATM    1  C7  UNL     1     -35.761  15.432  -4.158  1.00 20.00     0.127 C 
ENDROOT
BRANCH   1   2
HETATM    2  C8  UNL     1     -34.515  15.705  -3.289  1.00 20.00     0.007 C 
HETATM    3  C3  UNL     1     -33.253  15.617  -4.169  1.00 20.00     0.012 C 
BRANCH   2   4
HETATM    4  C9  UNL     1     -34.607  17.048  -2.471  1.00 20.00    -0.047 C 
HETATM    5  C4  UNL     1     -33.202  17.485  -1.998  1.00 20.00     0.015 C 
HETATM    6  C5  UNL     1     -35.514  16.918  -1.233  1.00 20.00     0.015 C 
HETATM    7  C6  UNL     1     -35.159  18.188  -3.356  1.00 20.00     0.015 C 
ENDBRANCH   2   4
ENDBRANCH   1   2
BRANCH   1   8
HETATM    8  N10 UNL     1     -35.420  14.962  -5.476  1.00 20.00    -0.361 N 
HETATM    9  C1  UNL     1     -35.559  13.643  -5.872  1.00 20.00     0.213 C 
HETATM   10  C2  UNL     1     -35.146  13.381  -7.283  1.00 20.00     0.117 C 
HETATM   11  O11 UNL     1     -35.977  12.720  -5.184  1.00 20.00    -0.274 OA
HETATM   12  H30 UNL     1     -35.059  15.634  -6.149  1.00 20.00     0.162 HD
ENDBRANCH   1   8
TORSDOF 3
ENDMDL
MODEL 6
REMARK VINA RESULT:      -4.6     11.072     11.743
REMARK  3 active torsions:
REMARK  status: ('A' for Active; 'I' for Inactive)
REMARK       I    between atoms: C1_1  and  N10_10 
REMARK    1  A    between atoms: C7_7  and  C8_8 
REMARK    2  A    between atoms: C7_7  and  N10_10 
REMARK    3  A    between atoms: C8_8  and  C9_9 
ROOT
HETATM    1  C7  UNL     1     -35.764  15.433  -4.173  1.00 20.00     0.127 C 
ENDROOT
BRANCH   1   2
HETATM    2  C8  UNL     1     -34.530  15.700  -3.285  1.00 20.00     0.007 C 
HETATM    3  C3  UNL     1     -33.253  15.561  -4.135  1.00 20.00     0.012 C 
BRANCH   2   4
HETATM    4  C9  UNL     1     -34.609  17.065  -2.503  1.00 20.00    -0.047 C 
HETATM    5  C4  UNL     1     -35.480  16.908  -1.236  1.00 20.00     0.015 C 
HETATM    6  C5  UNL     1     -35.206  18.197  -3.361  1.00 20.00     0.015 C 
HETATM    7  C6  UNL     1     -33.205  17.506  -2.034  1.00 20.00     0.015 C 
ENDBRANCH   2   4
ENDBRANCH   1   2
BRANCH   1   8
HETATM    8  N10 UNL     1     -35.405  14.957  -5.484  1.00 20.00    -0.361 N 
HETATM    9  C1  UNL     1     -35.536  13.635  -5.876  1.00 20.00     0.213 C 
HETATM   10  C2  UNL     1     -35.105  13.366  -7.279  1.00 20.00     0.117 C 
HETATM   11  O11 UNL     1     -35.963  12.715  -5.188  1.00 20.00    -0.274 OA
HETATM   12  H30 UNL     1     -35.035  15.625  -6.157  1.00 20.00     0.162 HD
ENDBRANCH   1   8
TORSDOF 3
ENDMDL
MODEL 7
REMARK VINA RESULT:      -4.0     10.942     11.916
REMARK  3 active torsions:
REMARK  status: ('A' for Active; 'I' for Inactive)
REMARK       I    between atoms: C1_1  and  N10_10 
REMARK    1  A    between atoms: C7_7  and  C8_8 
REMARK    2  A    between atoms: C7_7  and  N10_10 
REMARK    3  A    between atoms: C8_8  and  C9_9 
ROOT
HETATM    1  C7  UNL     1     -34.719  15.340  -3.922  1.00 20.00     0.127 C 
ENDROOT
BRANCH   1   2
HETATM    2  C8  UNL     1     -34.688  15.535  -5.453  1.00 20.00     0.007 C 
HETATM    3  C3  UNL     1     -33.231  15.742  -5.909  1.00 20.00     0.012 C 
BRANCH   2   4
HETATM    4  C9  UNL     1     -35.428  14.390  -6.242  1.00 20.00    -0.047 C 
HETATM    5  C4  UNL     1     -34.434  13.644  -7.161  1.00 20.00     0.015 C 
HETATM    6  C5  UNL     1     -36.578  14.929  -7.113  1.00 20.00     0.015 C 
HETATM    7  C6  UNL     1     -36.011  13.345  -5.266  1.00 20.00     0.015 C 
ENDBRANCH   2   4
ENDBRANCH   1   2
BRANCH   1   8
HETATM    8  N10 UNL     1     -33.835  16.246  -3.235  1.00 20.00    -0.361 N 
HETATM    9  C1  UNL     1     -34.153  16.854  -2.033  1.00 20.00     0.213 C 
HETATM   10  C2  UNL     1     -33.088  17.754  -1.500  1.00 20.00     0.117 C 
HETATM   11  O11 UNL     1     -35.196  16.713  -1.403  1.00 20.00    -0.274 OA
HETATM   12  H30 UNL     1     -32.930  16.450  -3.654  1.00 20.00     0.162 HD
ENDBRANCH   1   8
TORSDOF 3
ENDMDL
MODEL 8
REMARK VINA RESULT:      -3.9     11.336     12.237
REMARK  3 active torsions:
REMARK  status: ('A' for Active; 'I' for Inactive)
REMARK       I    between atoms: C1_1  and  N10_10 
REMARK    1  A    between atoms: C7_7  and  C8_8 
REMARK    2  A    between atoms: C7_7  and  N10_10 
REMARK    3  A    between atoms: C8_8  and  C9_9 
ROOT
HETATM    1  C7  UNL     1     -33.099  15.397  -4.675  1.00 20.00     0.127 C 
ENDROOT
BRANCH   1   2
HETATM    2  C8  UNL     1     -33.402  16.891  -4.428  1.00 20.00     0.007 C 
HETATM    3  C3  UNL     1     -33.914  17.528  -5.733  1.00 20.00     0.012 C 
BRANCH   2   4
HETATM    4  C9  UNL     1     -34.358  17.137  -3.201  1.00 20.00    -0.047 C 
HETATM    5  C4  UNL     1     -35.124  18.468  -3.378  1.00 20.00     0.015 C 
HETATM    6  C5  UNL     1     -33.593  17.197  -1.865  1.00 20.00     0.015 C 
HETATM    7  C6  UNL     1     -35.416  16.017  -3.101  1.00 20.00     0.015 C 
ENDBRANCH   2   4
ENDBRANCH   1   2
BRANCH   1   8
HETATM    8  N10 UNL     1     -33.382  14.997  -6.030  1.00 20.00    -0.361 N 
HETATM    9  C1  UNL     1     -34.318  14.032  -6.357  1.00 20.00     0.213 C 
HETATM   10  C2  UNL     1     -34.449  13.776  -7.822  1.00 20.00     0.117 C 
HETATM   11  O11 UNL     1     -35.017  13.403  -5.570  1.00 20.00    -0.274 OA
HETATM   12  H30 UNL     1     -32.867  15.446  -6.784  1.00 20.00     0.162 HD
ENDBRANCH   1   8
TORSDOF 3
ENDMDL
MODEL 9
REMARK VINA RESULT:      -3.9     10.780     12.201
REMARK  3 active torsions:
REMARK  status: ('A' for Active; 'I' for Inactive)
REMARK       I    between atoms: C1_1  and  N10_10 
REMARK    1  A    between atoms: C7_7  and  C8_8 
REMARK    2  A    between atoms: C7_7  and  N10_10 
REMARK    3  A    between atoms: C8_8  and  C9_9 
ROOT
HETATM    1  C7  UNL     1     -33.552  15.539  -4.294  1.00 20.00     0.127 C 
ENDROOT
BRANCH   1   2
HETATM    2  C8  UNL     1     -34.140  14.566  -5.339  1.00 20.00     0.007 C 
HETATM    3  C3  UNL     1     -35.346  13.830  -4.724  1.00 20.00     0.012 C 
BRANCH   2   4
HETATM    4  C9  UNL     1     -34.472  15.255  -6.715  1.00 20.00    -0.047 C 
HETATM    5  C4  UNL     1     -33.746  16.615  -6.822  1.00 20.00     0.015 C 
HETATM    6  C5  UNL     1     -35.982  15.499  -6.899  1.00 20.00     0.015 C 
HETATM    7  C6  UNL     1     -33.977  14.386  -7.893  1.00 20.00     0.015 C 
ENDBRANCH   2   4
ENDBRANCH   1   2
BRANCH   1   8
HETATM    8  N10 UNL     1     -34.498  15.876  -3.262  1.00 20.00    -0.361 N 
HETATM    9  C1  UNL     1     -34.212  16.742  -2.221  1.00 20.00     0.213 C 
HETATM   10  C2  UNL     1     -35.342  16.947  -1.267  1.00 20.00     0.117 C 
HETATM   11  O11 UNL     1     -33.150  17.325  -2.035  1.00 20.00    -0.274 OA
HETATM   12  H30 UNL     1     -35.425  15.456  -3.301  1.00 20.00     0.162 HD
ENDBRANCH   1   8
TORSDOF 3
ENDMDL
