MODEL 1
REMARK VINA RESULT:      -5.0      0.000      0.000
REMARK  2 active torsions:
REMARK  status: ('A' for Active; 'I' for Inactive)
REMARK    1  A    between atoms: C5_5  and  C7_7 
REMARK    2  A    between atoms: C6_6  and  C7_7 
ROOT
HETATM    1  C1  UNL     1     -34.146   4.794   4.148  1.00 20.00     0.033 C 
HETATM    2  C2  UNL     1     -34.790   4.856   5.518  1.00 20.00     0.168 C 
HETATM    3  C3  UNL     1     -33.854   6.939   5.054  1.00 20.00     0.172 C 
HETATM    4  C5  UNL     1     -34.163   6.249   3.736  1.00 20.00     0.014 C 
HETATM    5  O8  UNL     1     -34.443   6.129   6.083  1.00 20.00    -0.391 OA
ENDROOT
BRANCH   4   6
HETATM    6  C7  UNL     1     -33.190   6.592   2.623  1.00 20.00     0.041 C 
BRANCH   6   7
HETATM    7  C6  UNL     1     -32.792   8.036   2.649  1.00 20.00     0.145 A 
HETATM    8  C4  UNL     1     -31.870   8.607   1.608  1.00 20.00     0.200 A 
HETATM    9  O9  UNL     1     -31.408   8.266   2.926  1.00 20.00    -0.381 OA
ENDBRANCH   6   7
ENDBRANCH   4   6
TORSDOF 2
ENDMDL
MODEL 2
REMARK VINA RESULT:      -4.9      1.075      1.166
REMARK  2 active torsions:
REMARK  status: ('A' for Active; 'I' for Inactive)
REMARK    1  A    between atoms: C5_5  and  C7_7 
REMARK    2  A    between atoms: C6_6  and  C7_7 
ROOT
HETATM    1  C1  UNL     1     -33.892   5.774   3.533  1.00 20.00     0.033 C 
HETATM    2  C2  UNL     1     -34.832   5.426   4.668  1.00 20.00     0.168 C 
HETATM    3  C3  UNL     1     -33.495   7.211   5.345  1.00 20.00     0.172 C 
HETATM    4  C5  UNL     1     -33.578   7.224   3.828  1.00 20.00     0.014 C 
HETATM    5  O8  UNL     1     -34.437   6.224   5.794  1.00 20.00    -0.391 OA
ENDROOT
BRANCH   4   6
HETATM    6  C7  UNL     1     -32.322   7.740   3.151  1.00 20.00     0.041 C 
BRANCH   6   7
HETATM    7  C6  UNL     1     -32.617   8.373   1.826  1.00 20.00     0.145 A 
HETATM    8  C4  UNL     1     -31.510   8.787   0.898  1.00 20.00     0.200 A 
HETATM    9  O9  UNL     1     -32.208   9.739   1.717  1.00 20.00    -0.381 OA
ENDBRANCH   6   7
ENDBRANCH   4   6
TORSDOF 2
ENDMDL
MODEL 3
REMARK VINA RESULT:      -4.6      1.155      1.573
REMARK  2 active torsions:
REMARK  status: ('A' for Active; 'I' for Inactive)
REMARK    1  A    between atoms: C5_5  and  C7_7 
REMARK    2  A    between atoms: C6_6  and  C7_7 
ROOT
HETATM    1  C1  UNL     1     -33.414   7.430   4.807  1.00 20.00     0.033 C 
HETATM    2  C2  UNL     1     -34.103   6.604   5.873  1.00 20.00     0.168 C 
HETATM    3  C3  UNL     1     -34.677   5.737   3.788  1.00 20.00     0.172 C 
HETATM    4  C5  UNL     1     -33.342   6.450   3.658  1.00 20.00     0.014 C 
HETATM    5  O8  UNL     1     -34.979   5.694   5.192  1.00 20.00    -0.391 OA
ENDROOT
BRANCH   4   6
HETATM    6  C7  UNL     1     -33.123   7.095   2.302  1.00 20.00     0.041 C 
BRANCH   6   7
HETATM    7  C6  UNL     1     -32.171   8.249   2.376  1.00 20.00     0.145 A 
HETATM    8  C4  UNL     1     -32.377   9.482   1.541  1.00 20.00     0.200 A 
HETATM    9  O9  UNL     1     -31.417   8.474   1.182  1.00 20.00    -0.381 OA
ENDBRANCH   6   7
ENDBRANCH   4   6
TORSDOF 2
ENDMDL
MODEL 4
REMARK VINA RESULT:      -4.0      1.274      4.234
REMARK  2 active torsions:
REMARK  status: ('A' for Active; 'I' for Inactive)
REMARK    1  A    between atoms: C5_5  and  C7_7 
REMARK    2  A    between atoms: C6_6  and  C7_7 
ROOT
HETATM    1  C1  UNL     1     -33.265   7.961   2.190  1.00 20.00     0.033 C 
HETATM    2  C2  UNL     1     -31.971   8.486   1.604  1.00 20.00     0.168 C 
HETATM    3  C3  UNL     1     -31.656   8.148   3.888  1.00 20.00     0.172 C 
HETATM    4  C5  UNL     1     -32.770   7.228   3.417  1.00 20.00     0.014 C 
HETATM    5  O8  UNL     1     -31.083   8.729   2.706  1.00 20.00    -0.391 OA
ENDROOT
BRANCH   4   6
HETATM    6  C7  UNL     1     -33.838   6.976   4.464  1.00 20.00     0.041 C 
BRANCH   6   7
HETATM    7  C6  UNL     1     -34.681   5.783   4.132  1.00 20.00     0.145 A 
HETATM    8  C4  UNL     1     -34.599   4.522   4.945  1.00 20.00     0.200 A 
HETATM    9  O9  UNL     1     -33.946   4.646   3.671  1.00 20.00    -0.381 OA
ENDBRANCH   6   7
ENDBRANCH   4   6
TORSDOF 2
ENDMDL
MODEL 5
REMARK VINA RESULT:      -3.7     11.620     12.087
REMARK  2 active torsions:
REMARK  status: ('A' for Active; 'I' for Inactive)
REMARK    1  A    between atoms: C5_5  and  C7_7 
REMARK    2  A    between atoms: C6_6  and  C7_7 
ROOT
HETATM    1  C1  UNL     1     -35.612  16.516  -2.214  1.00 20.00     0.033 C 
HETATM    2  C2  UNL     1     -34.370  17.270  -1.786  1.00 20.00     0.168 C 
HETATM    3  C3  UNL     1     -33.800  15.863  -3.554  1.00 20.00     0.172 C 
HETATM    4  C5  UNL     1     -35.283  16.175  -3.651  1.00 20.00     0.014 C 
HETATM    5  O8  UNL     1     -33.272  16.717  -2.526  1.00 20.00    -0.391 OA
ENDROOT
BRANCH   4   6
HETATM    6  C7  UNL     1     -36.110  15.041  -4.226  1.00 20.00     0.041 C 
BRANCH   6   7
HETATM    7  C6  UNL     1     -35.257  13.993  -4.872  1.00 20.00     0.145 A 
HETATM    8  C4  UNL     1     -35.498  13.559  -6.290  1.00 20.00     0.200 A 
HETATM    9  O9  UNL     1     -35.939  12.772  -5.172  1.00 20.00    -0.381 OA
ENDBRANCH   6   7
ENDBRANCH   4   6
TORSDOF 2
ENDMDL
MODEL 6
REMARK VINA RESULT:      -3.7     11.200     12.611
REMARK  2 active torsions:
REMARK  status: ('A' for Active; 'I' for Inactive)
REMARK    1  A    between atoms: C5_5  and  C7_7 
REMARK    2  A    between atoms: C6_6  and  C7_7 
ROOT
HETATM    1  C1  UNL     1     -33.744  16.284  -5.263  1.00 20.00     0.033 C 
HETATM    2  C2  UNL     1     -33.475  17.691  -4.770  1.00 20.00     0.168 C 
HETATM    3  C3  UNL     1     -34.309  16.438  -2.991  1.00 20.00     0.172 C 
HETATM    4  C5  UNL     1     -33.656  15.488  -3.980  1.00 20.00     0.014 C 
HETATM    5  O8  UNL     1     -33.984  17.767  -3.430  1.00 20.00    -0.391 OA
ENDROOT
BRANCH   4   6
HETATM    6  C7  UNL     1     -34.319  14.125  -4.047  1.00 20.00     0.041 C 
BRANCH   6   7
HETATM    7  C6  UNL     1     -35.192  13.982  -5.256  1.00 20.00     0.145 A 
HETATM    8  C4  UNL     1     -36.690  13.953  -5.134  1.00 20.00     0.200 A 
HETATM    9  O9  UNL     1     -35.921  12.753  -5.321  1.00 20.00    -0.381 OA
ENDBRANCH   6   7
ENDBRANCH   4   6
TORSDOF 2
ENDMDL
MODEL 7
REMARK VINA RESULT:      -3.6     11.601     12.107
REMARK  2 active torsions:
REMARK  status: ('A' for Active; 'I' for Inactive)
REMARK    1  A    between atoms: C5_5  and  C7_7 
REMARK    2  A    between atoms: C6_6  and  C7_7 
ROOT
HETATM    1  C1  UNL     1     -33.730  16.214  -3.446  1.00 20.00     0.033 C 
HETATM    2  C2  UNL     1     -33.477  17.089  -2.235  1.00 20.00     0.168 C 
HETATM    3  C3  UNL     1     -35.780  16.835  -2.488  1.00 20.00     0.172 C 
HETATM    4  C5  UNL     1     -35.094  15.641  -3.130  1.00 20.00     0.014 C 
HETATM    5  O8  UNL     1     -34.756  17.565  -1.791  1.00 20.00    -0.391 OA
ENDROOT
BRANCH   4   6
HETATM    6  C7  UNL     1     -35.831  15.088  -4.335  1.00 20.00     0.041 C 
BRANCH   6   7
HETATM    7  C6  UNL     1     -35.122  13.914  -4.938  1.00 20.00     0.145 A 
HETATM    8  C4  UNL     1     -35.409  13.472  -6.345  1.00 20.00     0.200 A 
HETATM    9  O9  UNL     1     -35.962  12.788  -5.208  1.00 20.00    -0.381 OA
ENDBRANCH   6   7
ENDBRANCH   4   6
TORSDOF 2
ENDMDL
MODEL 8
REMARK VINA RESULT:      -3.6     11.406     11.934
REMARK  2 active torsions:
REMARK  status: ('A' for Active; 'I' for Inactive)
REMARK    1  A    between atoms: C5_5  and  C7_7 
REMARK    2  A    between atoms: C6_6  and  C7_7 
ROOT
HETATM    1  C1  UNL     1     -35.363  16.912  -1.154  1.00 20.00     0.033 C 
HETATM    2  C2  UNL     1     -34.369  17.851  -0.501  1.00 20.00     0.168 C 
HETATM    3  C3  UNL     1     -33.408  17.005  -2.449  1.00 20.00     0.172 C 
HETATM    4  C5  UNL     1     -34.919  16.952  -2.599  1.00 20.00     0.014 C 
HETATM    5  O8  UNL     1     -33.146  17.744  -1.245  1.00 20.00    -0.391 OA
ENDROOT
BRANCH   4   6
HETATM    6  C7  UNL     1     -35.410  15.785  -3.434  1.00 20.00     0.041 C 
BRANCH   6   7
HETATM    7  C6  UNL     1     -34.279  14.963  -3.972  1.00 20.00     0.145 A 
HETATM    8  C4  UNL     1     -34.336  14.370  -5.352  1.00 20.00     0.200 A 
HETATM    9  O9  UNL     1     -34.593  13.583  -4.177  1.00 20.00    -0.381 OA
ENDBRANCH   6   7
ENDBRANCH   4   6
TORSDOF 2
ENDMDL
MODEL 9
REMARK VINA RESULT:      -3.6     11.502     12.233
REMARK  2 active torsions:
REMARK  status: ('A' for Active; 'I' for Inactive)
REMARK    1  A    between atoms: C5_5  and  C7_7 
REMARK    2  A    between atoms: C6_6  and  C7_7 
ROOT
HETATM    1  C1  UNL     1     -35.265  15.379  -3.900  1.00 20.00     0.033 C 
HETATM    2  C2  UNL     1     -35.095  14.016  -4.538  1.00 20.00     0.168 C 
HETATM    3  C3  UNL     1     -33.055  15.136  -4.648  1.00 20.00     0.172 C 
HETATM    4  C5  UNL     1     -33.847  15.700  -3.482  1.00 20.00     0.014 C 
HETATM    5  O8  UNL     1     -33.781  13.988  -5.115  1.00 20.00    -0.391 OA
ENDROOT
BRANCH   4   6
HETATM    6  C7  UNL     1     -33.593  17.174  -3.225  1.00 20.00     0.041 C 
BRANCH   6   7
HETATM    7  C6  UNL     1     -33.338  17.456  -1.776  1.00 20.00     0.145 A 
HETATM    8  C4  UNL     1     -33.575  18.823  -1.197  1.00 20.00     0.200 A 
HETATM    9  O9  UNL     1     -32.256  18.359  -1.529  1.00 20.00    -0.381 OA
ENDBRANCH   6   7
ENDBRANCH   4   6
TORSDOF 2
ENDMDL
