MODEL 1
REMARK VINA RESULT:      -4.2      0.000      0.000
REMARK  1 active torsions:
REMARK  status: ('A' for Active; 'I' for Inactive)
REMARK    1  A    between atoms: C4_4  and  C8_8 
ROOT
HETATM    1  C1  UNL     1     -32.271   7.931   2.330  1.00 20.00     0.137 C 
HETATM    2  C2  UNL     1     -33.313   6.854   2.504  1.00 20.00     0.095 C 
HETATM    3  C3  UNL     1     -31.841   8.614   3.601  1.00 20.00     0.152 C 
HETATM    4  C4  UNL     1     -33.150   6.315   3.919  1.00 20.00     0.062 C 
HETATM    5  O9  UNL     1     -31.842   8.262   1.228  1.00 20.00    -0.297 OA
HETATM    6  S10 UNL     1     -32.753   7.776   4.919  1.00 20.00    -0.156 SA
ENDROOT
BRANCH   4   7
HETATM    7  C8  UNL     1     -34.399   5.618   4.429  1.00 20.00    -0.038 C 
HETATM    8  C5  UNL     1     -35.608   6.053   3.589  1.00 20.00     0.015 C 
HETATM    9  C6  UNL     1     -34.633   5.997   5.898  1.00 20.00     0.015 C 
HETATM   10  C7  UNL     1     -34.218   4.097   4.315  1.00 20.00     0.015 C 
ENDBRANCH   4   7
TORSDOF 1
ENDMDL
MODEL 2
REMARK VINA RESULT:      -4.2     11.630     12.301
REMARK  1 active torsions:
REMARK  status: ('A' for Active; 'I' for Inactive)
REMARK    1  A    between atoms: C4_4  and  C8_8 
ROOT
HETATM    1  C1  UNL     1     -35.239  13.915  -5.012  1.00 20.00     0.137 C 
HETATM    2  C2  UNL     1     -35.547  14.885  -3.898  1.00 20.00     0.095 C 
HETATM    3  C3  UNL     1     -34.087  14.307  -5.898  1.00 20.00     0.152 C 
HETATM    4  C4  UNL     1     -34.247  15.610  -3.580  1.00 20.00     0.062 C 
HETATM    5  O9  UNL     1     -35.909  12.905  -5.213  1.00 20.00    -0.297 OA
HETATM    6  S10 UNL     1     -33.451  15.846  -5.193  1.00 20.00    -0.156 SA
ENDROOT
BRANCH   4   7
HETATM    7  C8  UNL     1     -34.472  16.935  -2.873  1.00 20.00    -0.038 C 
HETATM    8  C5  UNL     1     -35.592  16.779  -1.836  1.00 20.00     0.015 C 
HETATM    9  C6  UNL     1     -34.873  18.002  -3.903  1.00 20.00     0.015 C 
HETATM   10  C7  UNL     1     -33.177  17.365  -2.168  1.00 20.00     0.015 C 
ENDBRANCH   4   7
TORSDOF 1
ENDMDL
MODEL 3
REMARK VINA RESULT:      -4.2     11.633     12.311
REMARK  1 active torsions:
REMARK  status: ('A' for Active; 'I' for Inactive)
REMARK    1  A    between atoms: C4_4  and  C8_8 
ROOT
HETATM    1  C1  UNL     1     -35.241  13.919  -5.011  1.00 20.00     0.137 C 
HETATM    2  C2  UNL     1     -35.544  14.887  -3.895  1.00 20.00     0.095 C 
HETATM    3  C3  UNL     1     -34.095  14.314  -5.905  1.00 20.00     0.152 C 
HETATM    4  C4  UNL     1     -34.243  15.614  -3.584  1.00 20.00     0.062 C 
HETATM    5  O9  UNL     1     -35.911  12.909  -5.210  1.00 20.00    -0.297 OA
HETATM    6  S10 UNL     1     -33.458  15.853  -5.202  1.00 20.00    -0.156 SA
ENDROOT
BRANCH   4   7
HETATM    7  C8  UNL     1     -34.466  16.938  -2.874  1.00 20.00    -0.038 C 
HETATM    8  C5  UNL     1     -33.176  17.358  -2.156  1.00 20.00     0.015 C 
HETATM    9  C6  UNL     1     -35.597  16.784  -1.846  1.00 20.00     0.015 C 
HETATM   10  C7  UNL     1     -34.853  18.011  -3.903  1.00 20.00     0.015 C 
ENDBRANCH   4   7
TORSDOF 1
ENDMDL
MODEL 4
REMARK VINA RESULT:      -4.0     11.606     12.522
REMARK  1 active torsions:
REMARK  status: ('A' for Active; 'I' for Inactive)
REMARK    1  A    between atoms: C4_4  and  C8_8 
ROOT
HETATM    1  C1  UNL     1     -36.072  13.769  -4.946  1.00 20.00     0.137 C 
HETATM    2  C2  UNL     1     -35.056  14.601  -4.202  1.00 20.00     0.095 C 
HETATM    3  C3  UNL     1     -37.440  14.387  -5.063  1.00 20.00     0.152 C 
HETATM    4  C4  UNL     1     -35.483  16.053  -4.360  1.00 20.00     0.062 C 
HETATM    5  O9  UNL     1     -35.818  12.649  -5.380  1.00 20.00    -0.297 OA
HETATM    6  S10 UNL     1     -37.294  16.008  -4.273  1.00 20.00    -0.156 SA
ENDROOT
BRANCH   4   7
HETATM    7  C8  UNL     1     -34.899  16.957  -3.289  1.00 20.00    -0.038 C 
HETATM    8  C5  UNL     1     -33.446  16.547  -3.009  1.00 20.00     0.015 C 
HETATM    9  C6  UNL     1     -35.724  16.823  -2.000  1.00 20.00     0.015 C 
HETATM   10  C7  UNL     1     -34.936  18.414  -3.771  1.00 20.00     0.015 C 
ENDBRANCH   4   7
TORSDOF 1
ENDMDL
MODEL 5
REMARK VINA RESULT:      -3.9     11.849     12.683
REMARK  1 active torsions:
REMARK  status: ('A' for Active; 'I' for Inactive)
REMARK    1  A    between atoms: C4_4  and  C8_8 
ROOT
HETATM    1  C1  UNL     1     -37.047  14.269  -4.926  1.00 20.00     0.137 C 
HETATM    2  C2  UNL     1     -36.646  15.589  -4.314  1.00 20.00     0.095 C 
HETATM    3  C3  UNL     1     -35.914  13.464  -5.506  1.00 20.00     0.152 C 
HETATM    4  C4  UNL     1     -35.199  15.439  -3.866  1.00 20.00     0.062 C 
HETATM    5  O9  UNL     1     -38.216  13.901  -4.993  1.00 20.00    -0.297 OA
HETATM    6  S10 UNL     1     -34.424  14.429  -5.159  1.00 20.00    -0.156 SA
ENDROOT
BRANCH   4   7
HETATM    7  C8  UNL     1     -34.492  16.774  -3.707  1.00 20.00    -0.038 C 
HETATM    8  C5  UNL     1     -35.518  17.911  -3.805  1.00 20.00     0.015 C 
HETATM    9  C6  UNL     1     -33.444  16.933  -4.818  1.00 20.00     0.015 C 
HETATM   10  C7  UNL     1     -33.799  16.826  -2.337  1.00 20.00     0.015 C 
ENDBRANCH   4   7
TORSDOF 1
ENDMDL
MODEL 6
REMARK VINA RESULT:      -3.9     11.671     12.716
REMARK  1 active torsions:
REMARK  status: ('A' for Active; 'I' for Inactive)
REMARK    1  A    between atoms: C4_4  and  C8_8 
ROOT
HETATM    1  C1  UNL     1     -37.321  14.306  -5.413  1.00 20.00     0.137 C 
HETATM    2  C2  UNL     1     -36.224  14.663  -4.441  1.00 20.00     0.095 C 
HETATM    3  C3  UNL     1     -36.962  14.463  -6.867  1.00 20.00     0.152 C 
HETATM    4  C4  UNL     1     -34.907  14.442  -5.170  1.00 20.00     0.062 C 
HETATM    5  O9  UNL     1     -38.442  13.961  -5.047  1.00 20.00    -0.297 OA
HETATM    6  S10 UNL     1     -35.231  14.988  -6.870  1.00 20.00    -0.156 SA
ENDROOT
BRANCH   4   7
HETATM    7  C8  UNL     1     -33.756  15.214  -4.550  1.00 20.00    -0.038 C 
HETATM    8  C5  UNL     1     -32.608  14.249  -4.224  1.00 20.00     0.015 C 
HETATM    9  C6  UNL     1     -34.233  15.897  -3.260  1.00 20.00     0.015 C 
HETATM   10  C7  UNL     1     -33.263  16.280  -5.540  1.00 20.00     0.015 C 
ENDBRANCH   4   7
TORSDOF 1
ENDMDL
MODEL 7
REMARK VINA RESULT:      -3.8      2.150      3.987
REMARK  1 active torsions:
REMARK  status: ('A' for Active; 'I' for Inactive)
REMARK    1  A    between atoms: C4_4  and  C8_8 
ROOT
HETATM    1  C1  UNL     1     -34.467   5.194   4.527  1.00 20.00     0.137 C 
HETATM    2  C2  UNL     1     -33.717   5.782   3.357  1.00 20.00     0.095 C 
HETATM    3  C3  UNL     1     -34.419   6.011   5.791  1.00 20.00     0.152 C 
HETATM    4  C4  UNL     1     -33.692   7.289   3.569  1.00 20.00     0.062 C 
HETATM    5  O9  UNL     1     -35.032   4.105   4.469  1.00 20.00    -0.297 OA
HETATM    6  S10 UNL     1     -33.478   7.494   5.359  1.00 20.00    -0.156 SA
ENDROOT
BRANCH   4   7
HETATM    7  C8  UNL     1     -32.578   7.972   2.796  1.00 20.00    -0.038 C 
HETATM    8  C5  UNL     1     -32.058   7.028   1.704  1.00 20.00     0.015 C 
HETATM    9  C6  UNL     1     -31.431   8.325   3.755  1.00 20.00     0.015 C 
HETATM   10  C7  UNL     1     -33.117   9.257   2.149  1.00 20.00     0.015 C 
ENDBRANCH   4   7
TORSDOF 1
ENDMDL
MODEL 8
REMARK VINA RESULT:      -3.8     11.521     12.305
REMARK  1 active torsions:
REMARK  status: ('A' for Active; 'I' for Inactive)
REMARK    1  A    between atoms: C4_4  and  C8_8 
ROOT
HETATM    1  C1  UNL     1     -34.317  14.707  -4.319  1.00 20.00     0.137 C 
HETATM    2  C2  UNL     1     -33.738  15.671  -3.314  1.00 20.00     0.095 C 
HETATM    3  C3  UNL     1     -35.796  14.852  -4.565  1.00 20.00     0.152 C 
HETATM    4  C4  UNL     1     -34.628  16.906  -3.333  1.00 20.00     0.062 C 
HETATM    5  O9  UNL     1     -33.644  13.833  -4.860  1.00 20.00    -0.297 OA
HETATM    6  S10 UNL     1     -36.308  16.253  -3.543  1.00 20.00    -0.156 SA
ENDROOT
BRANCH   4   7
HETATM    7  C8  UNL     1     -34.510  17.735  -2.066  1.00 20.00    -0.038 C 
HETATM    8  C5  UNL     1     -35.026  19.155  -2.332  1.00 20.00     0.015 C 
HETATM    9  C6  UNL     1     -33.038  17.798  -1.631  1.00 20.00     0.015 C 
HETATM   10  C7  UNL     1     -35.345  17.087  -0.951  1.00 20.00     0.015 C 
ENDBRANCH   4   7
TORSDOF 1
ENDMDL
MODEL 9
REMARK VINA RESULT:      -3.7     11.982     12.858
REMARK  1 active torsions:
REMARK  status: ('A' for Active; 'I' for Inactive)
REMARK    1  A    between atoms: C4_4  and  C8_8 
ROOT
HETATM    1  C1  UNL     1     -37.577  14.822  -4.689  1.00 20.00     0.137 C 
HETATM    2  C2  UNL     1     -36.083  14.735  -4.493  1.00 20.00     0.095 C 
HETATM    3  C3  UNL     1     -38.186  16.160  -4.363  1.00 20.00     0.152 C 
HETATM    4  C4  UNL     1     -35.539  16.146  -4.664  1.00 20.00     0.062 C 
HETATM    5  O9  UNL     1     -38.254  13.859  -5.040  1.00 20.00    -0.297 OA
HETATM    6  S10 UNL     1     -36.791  17.213  -3.899  1.00 20.00    -0.156 SA
ENDROOT
BRANCH   4   7
HETATM    7  C8  UNL     1     -34.179  16.333  -4.014  1.00 20.00    -0.038 C 
HETATM    8  C5  UNL     1     -33.323  15.081  -4.247  1.00 20.00     0.015 C 
HETATM    9  C6  UNL     1     -34.360  16.556  -2.505  1.00 20.00     0.015 C 
HETATM   10  C7  UNL     1     -33.480  17.553  -4.632  1.00 20.00     0.015 C 
ENDBRANCH   4   7
TORSDOF 1
ENDMDL
