MODEL 1
REMARK VINA RESULT:      -5.9      0.000      0.000
REMARK  1 active torsions:
REMARK  status: ('A' for Active; 'I' for Inactive)
REMARK    1  A    between atoms: C2_2  and  C6_6 
ROOT
HETATM    1  C1  UNL     1     -33.350   7.319   5.048  1.00 20.00     0.011 C 
HETATM    2  C2  UNL     1     -33.803   6.429   4.150  1.00 20.00     0.026 C 
HETATM    3  C3  UNL     1     -32.294   8.329   4.711  1.00 20.00     0.195 C 
HETATM    4  C4  UNL     1     -33.280   6.445   2.738  1.00 20.00     0.069 C 
HETATM    5  C5  UNL     1     -32.540   7.744   2.429  1.00 20.00     0.172 C 
HETATM    6  O7  UNL     1     -31.621   8.036   3.481  1.00 20.00    -0.387 OA
ENDROOT
BRANCH   2   7
HETATM    7  C6  UNL     1     -34.828   5.389   4.484  1.00 20.00     0.413 C 
HETATM    8  F8  UNL     1     -36.005   5.662   3.888  1.00 20.00    -0.166 F 
HETATM    9  F9  UNL     1     -34.429   4.167   4.075  1.00 20.00    -0.166 F 
HETATM   10  F10 UNL     1     -35.042   5.329   5.815  1.00 20.00    -0.166 F 
ENDBRANCH   2   7
TORSDOF 1
ENDMDL
MODEL 2
REMARK VINA RESULT:      -5.9      0.045      1.197
REMARK  1 active torsions:
REMARK  status: ('A' for Active; 'I' for Inactive)
REMARK    1  A    between atoms: C2_2  and  C6_6 
ROOT
HETATM    1  C1  UNL     1     -33.319   7.343   5.017  1.00 20.00     0.011 C 
HETATM    2  C2  UNL     1     -33.789   6.452   4.128  1.00 20.00     0.026 C 
HETATM    3  C3  UNL     1     -32.256   8.341   4.664  1.00 20.00     0.195 C 
HETATM    4  C4  UNL     1     -33.277   6.454   2.712  1.00 20.00     0.069 C 
HETATM    5  C5  UNL     1     -32.526   7.744   2.389  1.00 20.00     0.172 C 
HETATM    6  O7  UNL     1     -31.596   8.033   3.432  1.00 20.00    -0.387 OA
ENDROOT
BRANCH   2   7
HETATM    7  C6  UNL     1     -34.821   5.425   4.477  1.00 20.00     0.413 C 
HETATM    8  F8  UNL     1     -35.021   5.375   5.810  1.00 20.00    -0.166 F 
HETATM    9  F9  UNL     1     -36.002   5.706   3.891  1.00 20.00    -0.166 F 
HETATM   10  F10 UNL     1     -34.440   4.196   4.070  1.00 20.00    -0.166 F 
ENDBRANCH   2   7
TORSDOF 1
ENDMDL
MODEL 3
REMARK VINA RESULT:      -5.7      3.159      3.789
REMARK  1 active torsions:
REMARK  status: ('A' for Active; 'I' for Inactive)
REMARK    1  A    between atoms: C2_2  and  C6_6 
ROOT
HETATM    1  C1  UNL     1     -33.446   7.291   4.927  1.00 20.00     0.011 C 
HETATM    2  C2  UNL     1     -33.166   7.074   3.632  1.00 20.00     0.026 C 
HETATM    3  C3  UNL     1     -34.307   6.358   5.727  1.00 20.00     0.195 C 
HETATM    4  C4  UNL     1     -33.689   5.843   2.940  1.00 20.00     0.069 C 
HETATM    5  C5  UNL     1     -34.187   4.805   3.943  1.00 20.00     0.172 C 
HETATM    6  O7  UNL     1     -35.031   5.435   4.907  1.00 20.00    -0.387 OA
ENDROOT
BRANCH   2   7
HETATM    7  C6  UNL     1     -32.342   8.017   2.811  1.00 20.00     0.413 C 
HETATM    8  F8  UNL     1     -31.709   7.364   1.815  1.00 20.00    -0.166 F 
HETATM    9  F9  UNL     1     -33.111   8.975   2.255  1.00 20.00    -0.166 F 
HETATM   10  F10 UNL     1     -31.405   8.627   3.566  1.00 20.00    -0.166 F 
ENDBRANCH   2   7
TORSDOF 1
ENDMDL
MODEL 4
REMARK VINA RESULT:      -5.7      3.159      3.783
REMARK  1 active torsions:
REMARK  status: ('A' for Active; 'I' for Inactive)
REMARK    1  A    between atoms: C2_2  and  C6_6 
ROOT
HETATM    1  C1  UNL     1     -33.444   7.293   4.929  1.00 20.00     0.011 C 
HETATM    2  C2  UNL     1     -33.168   7.078   3.633  1.00 20.00     0.026 C 
HETATM    3  C3  UNL     1     -34.304   6.361   5.730  1.00 20.00     0.195 C 
HETATM    4  C4  UNL     1     -33.694   5.849   2.941  1.00 20.00     0.069 C 
HETATM    5  C5  UNL     1     -34.192   4.811   3.944  1.00 20.00     0.172 C 
HETATM    6  O7  UNL     1     -35.032   5.440   4.910  1.00 20.00    -0.387 OA
ENDROOT
BRANCH   2   7
HETATM    7  C6  UNL     1     -32.343   8.021   2.812  1.00 20.00     0.413 C 
HETATM    8  F8  UNL     1     -31.410   8.632   3.569  1.00 20.00    -0.166 F 
HETATM    9  F9  UNL     1     -31.708   7.369   1.817  1.00 20.00    -0.166 F 
HETATM   10  F10 UNL     1     -33.113   8.979   2.253  1.00 20.00    -0.166 F 
ENDBRANCH   2   7
TORSDOF 1
ENDMDL
MODEL 5
REMARK VINA RESULT:      -5.7      3.160      3.786
REMARK  1 active torsions:
REMARK  status: ('A' for Active; 'I' for Inactive)
REMARK    1  A    between atoms: C2_2  and  C6_6 
ROOT
HETATM    1  C1  UNL     1     -33.434   7.287   4.916  1.00 20.00     0.011 C 
HETATM    2  C2  UNL     1     -33.162   7.073   3.619  1.00 20.00     0.026 C 
HETATM    3  C3  UNL     1     -34.296   6.357   5.717  1.00 20.00     0.195 C 
HETATM    4  C4  UNL     1     -33.695   5.848   2.925  1.00 20.00     0.069 C 
HETATM    5  C5  UNL     1     -34.194   4.809   3.928  1.00 20.00     0.172 C 
HETATM    6  O7  UNL     1     -35.029   5.440   4.897  1.00 20.00    -0.387 OA
ENDROOT
BRANCH   2   7
HETATM    7  C6  UNL     1     -32.335   8.014   2.797  1.00 20.00     0.413 C 
HETATM    8  F8  UNL     1     -33.106   8.964   2.230  1.00 20.00    -0.166 F 
HETATM    9  F9  UNL     1     -31.407   8.633   3.556  1.00 20.00    -0.166 F 
HETATM   10  F10 UNL     1     -31.691   7.359   1.809  1.00 20.00    -0.166 F 
ENDBRANCH   2   7
TORSDOF 1
ENDMDL
MODEL 6
REMARK VINA RESULT:      -5.6      3.052      3.986
REMARK  1 active torsions:
REMARK  status: ('A' for Active; 'I' for Inactive)
REMARK    1  A    between atoms: C2_2  and  C6_6 
ROOT
HETATM    1  C1  UNL     1     -33.941   5.937   3.352  1.00 20.00     0.011 C 
HETATM    2  C2  UNL     1     -33.252   6.994   3.811  1.00 20.00     0.026 C 
HETATM    3  C3  UNL     1     -34.721   5.034   4.263  1.00 20.00     0.195 C 
HETATM    4  C4  UNL     1     -33.273   7.334   5.277  1.00 20.00     0.069 C 
HETATM    5  C5  UNL     1     -34.401   6.606   6.005  1.00 20.00     0.172 C 
HETATM    6  O7  UNL     1     -34.393   5.226   5.643  1.00 20.00    -0.387 OA
ENDROOT
BRANCH   2   7
HETATM    7  C6  UNL     1     -32.436   7.879   2.919  1.00 20.00     0.413 C 
HETATM    8  F8  UNL     1     -31.429   8.458   3.604  1.00 20.00    -0.166 F 
HETATM    9  F9  UNL     1     -31.896   7.177   1.902  1.00 20.00    -0.166 F 
HETATM   10  F10 UNL     1     -33.193   8.862   2.386  1.00 20.00    -0.166 F 
ENDBRANCH   2   7
TORSDOF 1
ENDMDL
MODEL 7
REMARK VINA RESULT:      -5.5      0.453      1.589
REMARK  1 active torsions:
REMARK  status: ('A' for Active; 'I' for Inactive)
REMARK    1  A    between atoms: C2_2  and  C6_6 
ROOT
HETATM    1  C1  UNL     1     -33.428   6.442   2.614  1.00 20.00     0.011 C 
HETATM    2  C2  UNL     1     -33.779   6.462   3.910  1.00 20.00     0.026 C 
HETATM    3  C3  UNL     1     -32.474   7.440   2.028  1.00 20.00     0.195 C 
HETATM    4  C4  UNL     1     -33.184   7.487   4.840  1.00 20.00     0.069 C 
HETATM    5  C5  UNL     1     -31.957   8.156   4.225  1.00 20.00     0.172 C 
HETATM    6  O7  UNL     1     -32.250   8.561   2.888  1.00 20.00    -0.387 OA
ENDROOT
BRANCH   2   7
HETATM    7  C6  UNL     1     -34.760   5.497   4.501  1.00 20.00     0.413 C 
HETATM    8  F8  UNL     1     -35.994   5.692   3.993  1.00 20.00    -0.166 F 
HETATM    9  F9  UNL     1     -34.402   4.223   4.242  1.00 20.00    -0.166 F 
HETATM   10  F10 UNL     1     -34.837   5.640   5.840  1.00 20.00    -0.166 F 
ENDBRANCH   2   7
TORSDOF 1
ENDMDL
MODEL 8
REMARK VINA RESULT:      -5.3      2.519      3.285
REMARK  1 active torsions:
REMARK  status: ('A' for Active; 'I' for Inactive)
REMARK    1  A    between atoms: C2_2  and  C6_6 
ROOT
HETATM    1  C1  UNL     1     -33.430   7.104   4.548  1.00 20.00     0.011 C 
HETATM    2  C2  UNL     1     -33.767   6.035   3.808  1.00 20.00     0.026 C 
HETATM    3  C3  UNL     1     -33.853   7.252   5.979  1.00 20.00     0.195 C 
HETATM    4  C4  UNL     1     -34.564   4.912   4.419  1.00 20.00     0.069 C 
HETATM    5  C5  UNL     1     -34.572   4.996   5.943  1.00 20.00     0.172 C 
HETATM    6  O7  UNL     1     -34.882   6.328   6.350  1.00 20.00    -0.387 OA
ENDROOT
BRANCH   2   7
HETATM    7  C6  UNL     1     -33.386   5.893   2.367  1.00 20.00     0.413 C 
HETATM    8  F8  UNL     1     -32.502   6.844   2.005  1.00 20.00    -0.166 F 
HETATM    9  F9  UNL     1     -32.822   4.691   2.130  1.00 20.00    -0.166 F 
HETATM   10  F10 UNL     1     -34.466   6.006   1.565  1.00 20.00    -0.166 F 
ENDBRANCH   2   7
TORSDOF 1
ENDMDL
MODEL 9
REMARK VINA RESULT:      -4.5      2.470      3.337
REMARK  1 active torsions:
REMARK  status: ('A' for Active; 'I' for Inactive)
REMARK    1  A    between atoms: C2_2  and  C6_6 
ROOT
HETATM    1  C1  UNL     1     -34.483   5.057   4.391  1.00 20.00     0.011 C 
HETATM    2  C2  UNL     1     -33.747   5.978   3.749  1.00 20.00     0.026 C 
HETATM    3  C3  UNL     1     -34.818   5.175   5.849  1.00 20.00     0.195 C 
HETATM    4  C4  UNL     1     -33.259   7.201   4.479  1.00 20.00     0.069 C 
HETATM    5  C5  UNL     1     -33.996   7.395   5.802  1.00 20.00     0.172 C 
HETATM    6  O7  UNL     1     -34.027   6.162   6.519  1.00 20.00    -0.387 OA
ENDROOT
BRANCH   2   7
HETATM    7  C6  UNL     1     -33.371   5.853   2.304  1.00 20.00     0.413 C 
HETATM    8  F8  UNL     1     -32.483   6.804   1.953  1.00 20.00    -0.166 F 
HETATM    9  F9  UNL     1     -32.814   4.651   2.052  1.00 20.00    -0.166 F 
HETATM   10  F10 UNL     1     -34.453   5.982   1.508  1.00 20.00    -0.166 F 
ENDBRANCH   2   7
TORSDOF 1
ENDMDL
