MODEL 1
REMARK VINA RESULT:      -5.1      0.000      0.000
REMARK  1 active torsions:
REMARK  status: ('A' for Active; 'I' for Inactive)
REMARK    1  A    between atoms: C2_2  and  C4_4 
ROOT
HETATM    1  C1  UNL     1     -35.399   5.840   3.817  1.00 20.00     0.092 A 
HETATM    2  C2  UNL     1     -34.483   5.954   5.016  1.00 20.00     0.092 A 
HETATM    3  C3  UNL     1     -34.168   5.012   3.910  1.00 20.00     0.250 A 
HETATM    4  F5  UNL     1     -34.257   3.651   4.102  1.00 20.00    -0.206 F 
HETATM    5  F6  UNL     1     -33.110   5.238   3.059  1.00 20.00    -0.206 F 
ENDROOT
BRANCH   2   6
HETATM    6  C4  UNL     1     -33.662   7.179   5.218  1.00 20.00     0.232 C 
HETATM    7  F7  UNL     1     -33.765   7.592   6.516  1.00 20.00    -0.255 F 
ENDBRANCH   2   6
TORSDOF 1
ENDMDL
MODEL 2
REMARK VINA RESULT:      -4.9      1.495      1.839
REMARK  1 active torsions:
REMARK  status: ('A' for Active; 'I' for Inactive)
REMARK    1  A    between atoms: C2_2  and  C4_4 
ROOT
HETATM    1  C1  UNL     1     -33.646   5.996   3.241  1.00 20.00     0.092 A 
HETATM    2  C2  UNL     1     -34.057   7.100   4.191  1.00 20.00     0.092 A 
HETATM    3  C3  UNL     1     -34.873   5.864   4.070  1.00 20.00     0.250 A 
HETATM    4  F5  UNL     1     -36.117   5.901   3.481  1.00 20.00    -0.206 F 
HETATM    5  F6  UNL     1     -34.929   4.942   5.090  1.00 20.00    -0.206 F 
ENDROOT
BRANCH   2   6
HETATM    6  C4  UNL     1     -33.265   7.361   5.424  1.00 20.00     0.232 C 
HETATM    7  F7  UNL     1     -34.091   7.355   6.511  1.00 20.00    -0.255 F 
ENDBRANCH   2   6
TORSDOF 1
ENDMDL
MODEL 3
REMARK VINA RESULT:      -4.8      1.576      2.179
REMARK  1 active torsions:
REMARK  status: ('A' for Active; 'I' for Inactive)
REMARK    1  A    between atoms: C2_2  and  C4_4 
ROOT
HETATM    1  C1  UNL     1     -35.455   5.904   3.819  1.00 20.00     0.092 A 
HETATM    2  C2  UNL     1     -33.997   6.250   4.030  1.00 20.00     0.092 A 
HETATM    3  C3  UNL     1     -34.565   4.995   4.588  1.00 20.00     0.250 A 
HETATM    4  F5  UNL     1     -34.731   4.845   5.947  1.00 20.00    -0.206 F 
HETATM    5  F6  UNL     1     -34.217   3.764   4.079  1.00 20.00    -0.206 F 
ENDROOT
BRANCH   2   6
HETATM    6  C4  UNL     1     -33.042   6.201   2.889  1.00 20.00     0.232 C 
HETATM    7  F7  UNL     1     -32.096   7.174   3.040  1.00 20.00    -0.255 F 
ENDBRANCH   2   6
TORSDOF 1
ENDMDL
MODEL 4
REMARK VINA RESULT:      -4.8      0.945      1.100
REMARK  1 active torsions:
REMARK  status: ('A' for Active; 'I' for Inactive)
REMARK    1  A    between atoms: C2_2  and  C4_4 
ROOT
HETATM    1  C1  UNL     1     -35.160   5.904   3.673  1.00 20.00     0.092 A 
HETATM    2  C2  UNL     1     -34.029   5.970   4.676  1.00 20.00     0.092 A 
HETATM    3  C3  UNL     1     -33.746   5.790   3.228  1.00 20.00     0.250 A 
HETATM    4  F5  UNL     1     -33.261   4.592   2.753  1.00 20.00    -0.206 F 
HETATM    5  F6  UNL     1     -33.167   6.792   2.484  1.00 20.00    -0.206 F 
ENDROOT
BRANCH   2   6
HETATM    6  C4  UNL     1     -33.703   7.255   5.353  1.00 20.00     0.232 C 
HETATM    7  F7  UNL     1     -34.238   7.262   6.609  1.00 20.00    -0.255 F 
ENDBRANCH   2   6
TORSDOF 1
ENDMDL
MODEL 5
REMARK VINA RESULT:      -4.7      1.855      2.520
REMARK  1 active torsions:
REMARK  status: ('A' for Active; 'I' for Inactive)
REMARK    1  A    between atoms: C2_2  and  C4_4 
ROOT
HETATM    1  C1  UNL     1     -33.862   6.966   4.037  1.00 20.00     0.092 A 
HETATM    2  C2  UNL     1     -34.783   5.776   4.190  1.00 20.00     0.092 A 
HETATM    3  C3  UNL     1     -33.894   5.896   3.006  1.00 20.00     0.250 A 
HETATM    4  F5  UNL     1     -34.419   6.147   1.758  1.00 20.00    -0.206 F 
HETATM    5  F6  UNL     1     -32.814   5.059   2.836  1.00 20.00    -0.206 F 
ENDROOT
BRANCH   2   6
HETATM    6  C4  UNL     1     -34.513   4.749   5.233  1.00 20.00     0.232 C 
HETATM    7  F7  UNL     1     -34.132   3.579   4.639  1.00 20.00    -0.255 F 
ENDBRANCH   2   6
TORSDOF 1
ENDMDL
MODEL 6
REMARK VINA RESULT:      -4.7      1.599      2.044
REMARK  1 active torsions:
REMARK  status: ('A' for Active; 'I' for Inactive)
REMARK    1  A    between atoms: C2_2  and  C4_4 
ROOT
HETATM    1  C1  UNL     1     -32.818   7.138   3.343  1.00 20.00     0.092 A 
HETATM    2  C2  UNL     1     -34.085   6.997   4.158  1.00 20.00     0.092 A 
HETATM    3  C3  UNL     1     -33.752   6.008   3.100  1.00 20.00     0.250 A 
HETATM    4  F5  UNL     1     -34.488   5.953   1.937  1.00 20.00    -0.206 F 
HETATM    5  F6  UNL     1     -33.386   4.720   3.415  1.00 20.00    -0.206 F 
ENDROOT
BRANCH   2   6
HETATM    6  C4  UNL     1     -34.013   6.615   5.595  1.00 20.00     0.232 C 
HETATM    7  F7  UNL     1     -34.843   5.556   5.830  1.00 20.00    -0.255 F 
ENDBRANCH   2   6
TORSDOF 1
ENDMDL
MODEL 7
REMARK VINA RESULT:      -4.7      1.538      2.878
REMARK  1 active torsions:
REMARK  status: ('A' for Active; 'I' for Inactive)
REMARK    1  A    between atoms: C2_2  and  C4_4 
ROOT
HETATM    1  C1  UNL     1     -33.660   7.115   5.720  1.00 20.00     0.092 A 
HETATM    2  C2  UNL     1     -34.642   6.113   5.151  1.00 20.00     0.092 A 
HETATM    3  C3  UNL     1     -33.753   6.895   4.253  1.00 20.00     0.250 A 
HETATM    4  F5  UNL     1     -34.270   7.875   3.434  1.00 20.00    -0.206 F 
HETATM    5  F6  UNL     1     -32.718   6.295   3.571  1.00 20.00    -0.206 F 
ENDROOT
BRANCH   2   6
HETATM    6  C4  UNL     1     -34.420   4.654   5.344  1.00 20.00     0.232 C 
HETATM    7  F7  UNL     1     -34.514   4.012   4.143  1.00 20.00    -0.255 F 
ENDBRANCH   2   6
TORSDOF 1
ENDMDL
MODEL 8
REMARK VINA RESULT:      -4.6      1.864      2.319
REMARK  1 active torsions:
REMARK  status: ('A' for Active; 'I' for Inactive)
REMARK    1  A    between atoms: C2_2  and  C4_4 
ROOT
HETATM    1  C1  UNL     1     -34.333   6.289   5.598  1.00 20.00     0.092 A 
HETATM    2  C2  UNL     1     -33.526   6.176   4.323  1.00 20.00     0.092 A 
HETATM    3  C3  UNL     1     -34.840   5.494   4.449  1.00 20.00     0.250 A 
HETATM    4  F5  UNL     1     -34.912   4.121   4.530  1.00 20.00    -0.206 F 
HETATM    5  F6  UNL     1     -35.938   5.921   3.737  1.00 20.00    -0.206 F 
ENDROOT
BRANCH   2   6
HETATM    6  C4  UNL     1     -33.373   7.355   3.427  1.00 20.00     0.232 C 
HETATM    7  F7  UNL     1     -32.301   7.168   2.601  1.00 20.00    -0.255 F 
ENDBRANCH   2   6
TORSDOF 1
ENDMDL
MODEL 9
REMARK VINA RESULT:      -4.6      2.106      2.784
REMARK  1 active torsions:
REMARK  status: ('A' for Active; 'I' for Inactive)
REMARK    1  A    between atoms: C2_2  and  C4_4 
ROOT
HETATM    1  C1  UNL     1     -33.590   5.042   3.247  1.00 20.00     0.092 A 
HETATM    2  C2  UNL     1     -33.630   6.513   2.894  1.00 20.00     0.092 A 
HETATM    3  C3  UNL     1     -34.512   5.966   3.958  1.00 20.00     0.250 A 
HETATM    4  F5  UNL     1     -35.872   5.877   3.763  1.00 20.00    -0.206 F 
HETATM    5  F6  UNL     1     -34.307   6.272   5.284  1.00 20.00    -0.206 F 
ENDROOT
BRANCH   2   6
HETATM    6  C4  UNL     1     -32.487   7.400   3.246  1.00 20.00     0.232 C 
HETATM    7  F7  UNL     1     -31.907   7.876   2.106  1.00 20.00    -0.255 F 
ENDBRANCH   2   6
TORSDOF 1
ENDMDL
