MODEL 1
REMARK VINA RESULT:      -5.3      0.000      0.000
REMARK  1 active torsions:
REMARK  status: ('A' for Active; 'I' for Inactive)
REMARK    1  A    between atoms: C2_2  and  C6_6 
ROOT
HETATM    1  C1  UNL     1     -34.299   4.554   4.538  1.00 20.00     0.139 C 
HETATM    2  C4  UNL     1     -34.458   4.928   6.019  1.00 20.00     0.081 C 
HETATM    3  C5  UNL     1     -34.398   6.411   5.595  1.00 20.00     0.028 C 
HETATM    4  C6  UNL     1     -34.414   6.031   4.080  1.00 20.00     0.035 C 
HETATM    5  C8  UNL     1     -35.707   6.355   3.344  1.00 20.00     0.027 C 
HETATM    6  O9  UNL     1     -34.153   3.497   3.960  1.00 20.00    -0.297 OA
ENDROOT
BRANCH   4   7
HETATM    7  C2  UNL     1     -33.197   6.443   3.337  1.00 20.00    -0.014 C 
HETATM    8  C3  UNL     1     -33.001   7.678   2.853  1.00 20.00    -0.034 C 
HETATM    9  C7  UNL     1     -31.777   8.093   2.107  1.00 20.00     0.036 C 
ENDBRANCH   4   7
TORSDOF 1
ENDMDL
MODEL 2
REMARK VINA RESULT:      -4.7      1.446      1.898
REMARK  1 active torsions:
REMARK  status: ('A' for Active; 'I' for Inactive)
REMARK    1  A    between atoms: C2_2  and  C6_6 
ROOT
HETATM    1  C1  UNL     1     -35.135   5.735   3.963  1.00 20.00     0.139 C 
HETATM    2  C4  UNL     1     -34.720   4.346   4.467  1.00 20.00     0.081 C 
HETATM    3  C5  UNL     1     -33.272   4.873   4.563  1.00 20.00     0.028 C 
HETATM    4  C6  UNL     1     -33.725   6.328   4.219  1.00 20.00     0.035 C 
HETATM    5  C8  UNL     1     -33.667   7.315   5.377  1.00 20.00     0.027 C 
HETATM    6  O9  UNL     1     -36.179   6.186   3.539  1.00 20.00    -0.297 OA
ENDROOT
BRANCH   4   7
HETATM    7  C2  UNL     1     -33.148   6.864   2.962  1.00 20.00    -0.014 C 
HETATM    8  C3  UNL     1     -32.376   7.959   2.902  1.00 20.00    -0.034 C 
HETATM    9  C7  UNL     1     -31.795   8.497   1.637  1.00 20.00     0.036 C 
ENDBRANCH   4   7
TORSDOF 1
ENDMDL
MODEL 3
REMARK VINA RESULT:      -4.6      1.770      2.403
REMARK  1 active torsions:
REMARK  status: ('A' for Active; 'I' for Inactive)
REMARK    1  A    between atoms: C2_2  and  C6_6 
ROOT
HETATM    1  C1  UNL     1     -33.699   6.791   4.917  1.00 20.00     0.139 C 
HETATM    2  C4  UNL     1     -35.018   6.017   5.047  1.00 20.00     0.081 C 
HETATM    3  C5  UNL     1     -35.048   5.915   3.507  1.00 20.00     0.028 C 
HETATM    4  C6  UNL     1     -33.623   6.546   3.387  1.00 20.00     0.035 C 
HETATM    5  C8  UNL     1     -32.522   5.583   2.967  1.00 20.00     0.027 C 
HETATM    6  O9  UNL     1     -32.990   7.363   5.720  1.00 20.00    -0.297 OA
ENDROOT
BRANCH   4   7
HETATM    7  C2  UNL     1     -33.589   7.835   2.653  1.00 20.00    -0.014 C 
HETATM    8  C3  UNL     1     -32.505   8.304   2.018  1.00 20.00    -0.034 C 
HETATM    9  C7  UNL     1     -32.471   9.600   1.279  1.00 20.00     0.036 C 
ENDBRANCH   4   7
TORSDOF 1
ENDMDL
MODEL 4
REMARK VINA RESULT:      -4.5     12.003     12.829
REMARK  1 active torsions:
REMARK  status: ('A' for Active; 'I' for Inactive)
REMARK    1  A    between atoms: C2_2  and  C6_6 
ROOT
HETATM    1  C1  UNL     1     -35.336  13.788  -5.538  1.00 20.00     0.139 C 
HETATM    2  C4  UNL     1     -35.229  14.460  -6.914  1.00 20.00     0.081 C 
HETATM    3  C5  UNL     1     -34.518  15.642  -6.221  1.00 20.00     0.028 C 
HETATM    4  C6  UNL     1     -34.471  14.881  -4.857  1.00 20.00     0.035 C 
HETATM    5  C8  UNL     1     -33.090  14.404  -4.430  1.00 20.00     0.027 C 
HETATM    6  O9  UNL     1     -35.883  12.777  -5.148  1.00 20.00    -0.297 OA
ENDROOT
BRANCH   4   7
HETATM    7  C2  UNL     1     -35.229  15.542  -3.766  1.00 20.00    -0.014 C 
HETATM    8  C3  UNL     1     -34.652  16.181  -2.738  1.00 20.00    -0.034 C 
HETATM    9  C7  UNL     1     -35.414  16.847  -1.641  1.00 20.00     0.036 C 
ENDBRANCH   4   7
TORSDOF 1
ENDMDL
MODEL 5
REMARK VINA RESULT:      -4.2     11.900     12.712
REMARK  1 active torsions:
REMARK  status: ('A' for Active; 'I' for Inactive)
REMARK    1  A    between atoms: C2_2  and  C6_6 
ROOT
HETATM    1  C1  UNL     1     -33.818  14.384  -4.328  1.00 20.00     0.139 C 
HETATM    2  C4  UNL     1     -35.269  13.992  -4.638  1.00 20.00     0.081 C 
HETATM    3  C5  UNL     1     -35.677  15.442  -4.296  1.00 20.00     0.028 C 
HETATM    4  C6  UNL     1     -34.184  15.881  -4.152  1.00 20.00     0.035 C 
HETATM    5  C8  UNL     1     -33.665  16.782  -5.264  1.00 20.00     0.027 C 
HETATM    6  O9  UNL     1     -32.784  13.752  -4.262  1.00 20.00    -0.297 OA
ENDROOT
BRANCH   4   7
HETATM    7  C2  UNL     1     -33.817  16.352  -2.794  1.00 20.00    -0.014 C 
HETATM    8  C3  UNL     1     -33.369  17.588  -2.529  1.00 20.00    -0.034 C 
HETATM    9  C7  UNL     1     -33.001  18.062  -1.163  1.00 20.00     0.036 C 
ENDBRANCH   4   7
TORSDOF 1
ENDMDL
MODEL 6
REMARK VINA RESULT:      -4.1      3.029      5.062
REMARK  1 active torsions:
REMARK  status: ('A' for Active; 'I' for Inactive)
REMARK    1  A    between atoms: C2_2  and  C6_6 
ROOT
HETATM    1  C1  UNL     1     -31.691   8.897   0.836  1.00 20.00     0.139 C 
HETATM    2  C4  UNL     1     -32.459  10.222   0.718  1.00 20.00     0.081 C 
HETATM    3  C5  UNL     1     -33.240   9.819   1.988  1.00 20.00     0.028 C 
HETATM    4  C6  UNL     1     -32.340   8.560   2.204  1.00 20.00     0.035 C 
HETATM    5  C8  UNL     1     -31.382   8.645   3.384  1.00 20.00     0.027 C 
HETATM    6  O9  UNL     1     -30.879   8.343   0.125  1.00 20.00    -0.297 OA
ENDROOT
BRANCH   4   7
HETATM    7  C2  UNL     1     -33.071   7.271   2.132  1.00 20.00    -0.014 C 
HETATM    8  C3  UNL     1     -32.887   6.260   2.993  1.00 20.00    -0.034 C 
HETATM    9  C7  UNL     1     -33.623   4.964   2.922  1.00 20.00     0.036 C 
ENDBRANCH   4   7
TORSDOF 1
ENDMDL
MODEL 7
REMARK VINA RESULT:      -4.0     12.628     13.322
REMARK  1 active torsions:
REMARK  status: ('A' for Active; 'I' for Inactive)
REMARK    1  A    between atoms: C2_2  and  C6_6 
ROOT
HETATM    1  C1  UNL     1     -33.803  16.683  -5.036  1.00 20.00     0.139 C 
HETATM    2  C4  UNL     1     -32.940  15.503  -5.504  1.00 20.00     0.081 C 
HETATM    3  C5  UNL     1     -33.266  14.804  -4.167  1.00 20.00     0.028 C 
HETATM    4  C6  UNL     1     -34.281  15.923  -3.770  1.00 20.00     0.035 C 
HETATM    5  C8  UNL     1     -35.746  15.511  -3.809  1.00 20.00     0.027 C 
HETATM    6  O9  UNL     1     -34.027  17.782  -5.498  1.00 20.00    -0.297 OA
ENDROOT
BRANCH   4   7
HETATM    7  C2  UNL     1     -33.913  16.670  -2.543  1.00 20.00    -0.014 C 
HETATM    8  C3  UNL     1     -34.788  17.012  -1.586  1.00 20.00    -0.034 C 
HETATM    9  C7  UNL     1     -34.418  17.762  -0.351  1.00 20.00     0.036 C 
ENDBRANCH   4   7
TORSDOF 1
ENDMDL
MODEL 8
REMARK VINA RESULT:      -4.0     12.140     13.025
REMARK  1 active torsions:
REMARK  status: ('A' for Active; 'I' for Inactive)
REMARK    1  A    between atoms: C2_2  and  C6_6 
ROOT
HETATM    1  C1  UNL     1     -34.481  15.876  -5.310  1.00 20.00     0.139 C 
HETATM    2  C4  UNL     1     -34.065  14.424  -5.581  1.00 20.00     0.081 C 
HETATM    3  C5  UNL     1     -34.543  14.078  -4.155  1.00 20.00     0.028 C 
HETATM    4  C6  UNL     1     -35.125  15.513  -3.947  1.00 20.00     0.035 C 
HETATM    5  C8  UNL     1     -36.645  15.600  -3.934  1.00 20.00     0.027 C 
HETATM    6  O9  UNL     1     -34.357  16.907  -5.940  1.00 20.00    -0.297 OA
ENDROOT
BRANCH   4   7
HETATM    7  C2  UNL     1     -34.484  16.275  -2.847  1.00 20.00    -0.014 C 
HETATM    8  C3  UNL     1     -35.154  16.791  -1.807  1.00 20.00    -0.034 C 
HETATM    9  C7  UNL     1     -34.509  17.556  -0.700  1.00 20.00     0.036 C 
ENDBRANCH   4   7
TORSDOF 1
ENDMDL
MODEL 9
REMARK VINA RESULT:      -3.9     11.987     13.148
REMARK  1 active torsions:
REMARK  status: ('A' for Active; 'I' for Inactive)
REMARK    1  A    between atoms: C2_2  and  C6_6 
ROOT
HETATM    1  C1  UNL     1     -37.064  14.650  -5.282  1.00 20.00     0.139 C 
HETATM    2  C4  UNL     1     -36.785  15.307  -6.641  1.00 20.00     0.081 C 
HETATM    3  C5  UNL     1     -35.576  16.013  -5.991  1.00 20.00     0.028 C 
HETATM    4  C6  UNL     1     -35.757  15.211  -4.663  1.00 20.00     0.035 C 
HETATM    5  C8  UNL     1     -34.694  14.155  -4.394  1.00 20.00     0.027 C 
HETATM    6  O9  UNL     1     -37.965  13.950  -4.868  1.00 20.00    -0.297 OA
ENDROOT
BRANCH   4   7
HETATM    7  C2  UNL     1     -36.059  16.054  -3.480  1.00 20.00    -0.014 C 
HETATM    8  C3  UNL     1     -35.180  16.310  -2.501  1.00 20.00    -0.034 C 
HETATM    9  C7  UNL     1     -35.484  17.159  -1.312  1.00 20.00     0.036 C 
ENDBRANCH   4   7
TORSDOF 1
ENDMDL
