MODEL 1
REMARK VINA RESULT:      -5.3      0.000      0.000
REMARK  0 active torsions:
REMARK  status: ('A' for Active; 'I' for Inactive)
ROOT
HETATM    1  C1  UNL     1     -33.099   7.010   3.426  1.00 20.00     0.221 C 
HETATM    2  C2  UNL     1     -35.480   5.981   3.720  1.00 20.00     0.020 C 
HETATM    3  C3  UNL     1     -33.911   4.636   4.145  1.00 20.00     0.020 C 
HETATM    4  C4  UNL     1     -34.013   6.676   5.739  1.00 20.00     0.127 C 
HETATM    5  C5  UNL     1     -34.049   5.805   3.116  1.00 20.00     0.078 C 
HETATM    6  C6  UNL     1     -34.791   5.551   5.050  1.00 20.00     0.005 C 
HETATM    7  N7  UNL     1     -33.161   7.363   4.769  1.00 20.00    -0.360 N 
HETATM    8  O8  UNL     1     -32.381   7.590   2.611  1.00 20.00    -0.273 OA
HETATM    9  H17 UNL     1     -32.587   8.135   5.093  1.00 20.00     0.162 HD
ENDROOT
TORSDOF 0
ENDMDL
MODEL 2
REMARK VINA RESULT:      -5.0      1.472      2.417
REMARK  0 active torsions:
REMARK  status: ('A' for Active; 'I' for Inactive)
ROOT
HETATM    1  C1  UNL     1     -33.769   6.975   5.307  1.00 20.00     0.221 C 
HETATM    2  C2  UNL     1     -33.974   4.609   4.222  1.00 20.00     0.020 C 
HETATM    3  C3  UNL     1     -35.462   5.968   3.594  1.00 20.00     0.020 C 
HETATM    4  C4  UNL     1     -33.055   6.654   2.923  1.00 20.00     0.127 C 
HETATM    5  C5  UNL     1     -34.712   5.778   4.953  1.00 20.00     0.078 C 
HETATM    6  C6  UNL     1     -34.099   5.534   2.974  1.00 20.00     0.005 C 
HETATM    7  N7  UNL     1     -32.984   7.331   4.217  1.00 20.00    -0.360 N 
HETATM    8  O8  UNL     1     -33.707   7.546   6.396  1.00 20.00    -0.273 OA
HETATM    9  H17 UNL     1     -32.327   8.098   4.324  1.00 20.00     0.162 HD
ENDROOT
TORSDOF 0
ENDMDL
MODEL 3
REMARK VINA RESULT:      -4.7      1.208      1.970
REMARK  0 active torsions:
REMARK  status: ('A' for Active; 'I' for Inactive)
ROOT
HETATM    1  C1  UNL     1     -33.090   6.624   3.047  1.00 20.00     0.221 C 
HETATM    2  C2  UNL     1     -34.159   6.108   5.372  1.00 20.00     0.020 C 
HETATM    3  C3  UNL     1     -35.540   6.095   3.778  1.00 20.00     0.020 C 
HETATM    4  C4  UNL     1     -33.719   4.260   3.611  1.00 20.00     0.127 C 
HETATM    5  C5  UNL     1     -34.251   6.937   4.049  1.00 20.00     0.078 C 
HETATM    6  C6  UNL     1     -34.751   4.962   4.499  1.00 20.00     0.005 C 
HETATM    7  N7  UNL     1     -32.911   5.253   2.903  1.00 20.00    -0.360 N 
HETATM    8  O8  UNL     1     -32.410   7.457   2.450  1.00 20.00    -0.273 OA
HETATM    9  H17 UNL     1     -32.183   4.924   2.276  1.00 20.00     0.162 HD
ENDROOT
TORSDOF 0
ENDMDL
MODEL 4
REMARK VINA RESULT:      -4.5      1.862      2.397
REMARK  0 active torsions:
REMARK  status: ('A' for Active; 'I' for Inactive)
ROOT
HETATM    1  C1  UNL     1     -34.066   6.644   5.428  1.00 20.00     0.221 C 
HETATM    2  C2  UNL     1     -34.971   6.287   3.005  1.00 20.00     0.020 C 
HETATM    3  C3  UNL     1     -32.891   5.984   3.191  1.00 20.00     0.020 C 
HETATM    4  C4  UNL     1     -34.326   4.308   4.548  1.00 20.00     0.127 C 
HETATM    5  C5  UNL     1     -33.884   6.959   3.906  1.00 20.00     0.078 C 
HETATM    6  C6  UNL     1     -34.105   5.007   3.203  1.00 20.00     0.005 C 
HETATM    7  N7  UNL     1     -34.281   5.286   5.634  1.00 20.00    -0.360 N 
HETATM    8  O8  UNL     1     -34.028   7.466   6.343  1.00 20.00    -0.273 OA
HETATM    9  H17 UNL     1     -34.415   4.958   6.585  1.00 20.00     0.162 HD
ENDROOT
TORSDOF 0
ENDMDL
MODEL 5
REMARK VINA RESULT:      -4.4      1.559      1.909
REMARK  0 active torsions:
REMARK  status: ('A' for Active; 'I' for Inactive)
ROOT
HETATM    1  C1  UNL     1     -33.207   5.062   2.962  1.00 20.00     0.221 C 
HETATM    2  C2  UNL     1     -35.455   5.954   3.946  1.00 20.00     0.020 C 
HETATM    3  C3  UNL     1     -34.076   5.315   5.410  1.00 20.00     0.020 C 
HETATM    4  C4  UNL     1     -33.267   7.340   4.011  1.00 20.00     0.127 C 
HETATM    5  C5  UNL     1     -34.385   4.813   3.962  1.00 20.00     0.078 C 
HETATM    6  C6  UNL     1     -34.411   6.716   4.817  1.00 20.00     0.005 C 
HETATM    7  N7  UNL     1     -32.724   6.360   3.072  1.00 20.00    -0.360 N 
HETATM    8  O8  UNL     1     -32.748   4.238   2.170  1.00 20.00    -0.273 OA
HETATM    9  H17 UNL     1     -31.955   6.642   2.471  1.00 20.00     0.162 HD
ENDROOT
TORSDOF 0
ENDMDL
MODEL 6
REMARK VINA RESULT:      -4.3      2.134      2.845
REMARK  0 active torsions:
REMARK  status: ('A' for Active; 'I' for Inactive)
ROOT
HETATM    1  C1  UNL     1     -33.977   4.399   4.001  1.00 20.00     0.221 C 
HETATM    2  C2  UNL     1     -35.406   6.569   3.754  1.00 20.00     0.020 C 
HETATM    3  C3  UNL     1     -33.924   6.690   5.250  1.00 20.00     0.020 C 
HETATM    4  C4  UNL     1     -32.983   6.397   2.854  1.00 20.00     0.127 C 
HETATM    5  C5  UNL     1     -34.805   5.507   4.732  1.00 20.00     0.078 C 
HETATM    6  C6  UNL     1     -33.961   7.150   3.762  1.00 20.00     0.005 C 
HETATM    7  N7  UNL     1     -33.095   4.957   3.083  1.00 20.00    -0.360 N 
HETATM    8  O8  UNL     1     -34.070   3.186   4.192  1.00 20.00    -0.273 OA
HETATM    9  H17 UNL     1     -32.501   4.335   2.544  1.00 20.00     0.162 HD
ENDROOT
TORSDOF 0
ENDMDL
MODEL 7
REMARK VINA RESULT:      -4.1      2.044      2.690
REMARK  0 active torsions:
REMARK  status: ('A' for Active; 'I' for Inactive)
ROOT
HETATM    1  C1  UNL     1     -34.221   4.721   4.400  1.00 20.00     0.221 C 
HETATM    2  C2  UNL     1     -32.679   6.514   3.294  1.00 20.00     0.020 C 
HETATM    3  C3  UNL     1     -34.739   6.873   3.016  1.00 20.00     0.020 C 
HETATM    4  C4  UNL     1     -33.977   6.968   5.490  1.00 20.00     0.127 C 
HETATM    5  C5  UNL     1     -33.902   5.556   3.116  1.00 20.00     0.078 C 
HETATM    6  C6  UNL     1     -33.705   7.411   4.049  1.00 20.00     0.005 C 
HETATM    7  N7  UNL     1     -34.233   5.528   5.531  1.00 20.00    -0.360 N 
HETATM    8  O8  UNL     1     -34.437   3.509   4.437  1.00 20.00    -0.273 OA
HETATM    9  H17 UNL     1     -34.429   5.099   6.430  1.00 20.00     0.162 HD
ENDROOT
TORSDOF 0
ENDMDL
MODEL 8
REMARK VINA RESULT:      -4.1     11.902     12.597
REMARK  0 active torsions:
REMARK  status: ('A' for Active; 'I' for Inactive)
ROOT
HETATM    1  C1  UNL     1     -35.160  13.835  -4.954  1.00 20.00     0.221 C 
HETATM    2  C2  UNL     1     -35.230  16.437  -5.155  1.00 20.00     0.020 C 
HETATM    3  C3  UNL     1     -34.757  15.744  -3.219  1.00 20.00     0.020 C 
HETATM    4  C4  UNL     1     -33.004  15.118  -5.021  1.00 20.00     0.127 C 
HETATM    5  C5  UNL     1     -35.683  15.179  -4.345  1.00 20.00     0.078 C 
HETATM    6  C6  UNL     1     -33.877  16.221  -4.413  1.00 20.00     0.005 C 
HETATM    7  N7  UNL     1     -33.806  13.918  -5.255  1.00 20.00    -0.360 N 
HETATM    8  O8  UNL     1     -35.833  12.824  -5.151  1.00 20.00    -0.273 OA
HETATM    9  H17 UNL     1     -33.351  13.105  -5.659  1.00 20.00     0.162 HD
ENDROOT
TORSDOF 0
ENDMDL
MODEL 9
REMARK VINA RESULT:      -4.0     11.758     12.679
REMARK  0 active torsions:
REMARK  status: ('A' for Active; 'I' for Inactive)
ROOT
HETATM    1  C1  UNL     1     -35.345  13.821  -5.158  1.00 20.00     0.221 C 
HETATM    2  C2  UNL     1     -34.605  15.652  -3.451  1.00 20.00     0.020 C 
HETATM    3  C3  UNL     1     -33.004  14.781  -4.515  1.00 20.00     0.020 C 
HETATM    4  C4  UNL     1     -34.675  16.086  -6.005  1.00 20.00     0.127 C 
HETATM    5  C5  UNL     1     -34.366  14.208  -4.001  1.00 20.00     0.078 C 
HETATM    6  C6  UNL     1     -33.827  16.088  -4.729  1.00 20.00     0.005 C 
HETATM    7  N7  UNL     1     -35.423  14.834  -6.107  1.00 20.00    -0.360 N 
HETATM    8  O8  UNL     1     -35.976  12.767  -5.246  1.00 20.00    -0.273 OA
HETATM    9  H17 UNL     1     -36.031  14.699  -6.909  1.00 20.00     0.162 HD
ENDROOT
TORSDOF 0
ENDMDL
