MODEL 1
REMARK VINA RESULT:      -5.3      0.000      0.000
REMARK  0 active torsions:
REMARK  status: ('A' for Active; 'I' for Inactive)
ROOT
HETATM    1  C1  UNL     1     -32.477   7.672   2.315  1.00 20.00     0.102 C 
HETATM    2  C2  UNL     1     -33.407   7.511   4.569  1.00 20.00     0.050 A 
HETATM    3  C3  UNL     1     -34.388   5.444   5.345  1.00 20.00     0.069 A 
HETATM    4  C4  UNL     1     -33.125   6.915   3.341  1.00 20.00     0.087 A 
HETATM    5  C5  UNL     1     -34.105   4.848   4.116  1.00 20.00     0.158 A 
HETATM    6  C6  UNL     1     -33.473   5.585   3.113  1.00 20.00     0.175 A 
HETATM    7  C7  UNL     1     -34.039   6.775   5.572  1.00 20.00     0.038 A 
HETATM    8  N8  UNL     1     -31.951   8.287   1.483  1.00 20.00    -0.191 NA
HETATM    9  F9  UNL     1     -34.440   3.570   3.899  1.00 20.00    -0.203 F 
HETATM   10  F10 UNL     1     -33.207   4.997   1.937  1.00 20.00    -0.201 F 
HETATM   11 CL11 UNL     1     -34.389   7.510   7.088  1.00 20.00    -0.084 Cl
ENDROOT
TORSDOF 0
ENDMDL
MODEL 2
REMARK VINA RESULT:      -4.6     12.513     12.924
REMARK  0 active torsions:
REMARK  status: ('A' for Active; 'I' for Inactive)
ROOT
HETATM    1  C1  UNL     1     -37.190  14.512  -4.850  1.00 20.00     0.102 C 
HETATM    2  C2  UNL     1     -35.709  15.712  -3.322  1.00 20.00     0.050 A 
HETATM    3  C3  UNL     1     -33.464  16.297  -3.997  1.00 20.00     0.069 A 
HETATM    4  C4  UNL     1     -35.927  15.116  -4.563  1.00 20.00     0.087 A 
HETATM    5  C5  UNL     1     -33.682  15.701  -5.240  1.00 20.00     0.158 A 
HETATM    6  C6  UNL     1     -34.915  15.111  -5.522  1.00 20.00     0.175 A 
HETATM    7  C7  UNL     1     -34.477  16.303  -3.038  1.00 20.00     0.038 A 
HETATM    8  N8  UNL     1     -38.216  14.021  -5.083  1.00 20.00    -0.191 NA
HETATM    9  F9  UNL     1     -32.710  15.697  -6.160  1.00 20.00    -0.203 F 
HETATM   10  F10 UNL     1     -35.109  14.543  -6.722  1.00 20.00    -0.201 F 
HETATM   11 CL11 UNL     1     -34.207  17.036  -1.505  1.00 20.00    -0.084 Cl
ENDROOT
TORSDOF 0
ENDMDL
MODEL 3
REMARK VINA RESULT:      -4.6     12.483     13.479
REMARK  0 active torsions:
REMARK  status: ('A' for Active; 'I' for Inactive)
ROOT
HETATM    1  C1  UNL     1     -35.407  13.852  -5.039  1.00 20.00     0.102 C 
HETATM    2  C2  UNL     1     -34.490  15.519  -3.506  1.00 20.00     0.050 A 
HETATM    3  C3  UNL     1     -33.603  17.603  -4.349  1.00 20.00     0.069 A 
HETATM    4  C4  UNL     1     -34.796  15.123  -4.808  1.00 20.00     0.087 A 
HETATM    5  C5  UNL     1     -33.911  17.207  -5.651  1.00 20.00     0.158 A 
HETATM    6  C6  UNL     1     -34.507  15.967  -5.880  1.00 20.00     0.175 A 
HETATM    7  C7  UNL     1     -33.893  16.759  -3.276  1.00 20.00     0.038 A 
HETATM    8  N8  UNL     1     -35.903  12.820  -5.227  1.00 20.00    -0.191 NA
HETATM    9  F9  UNL     1     -33.633  18.018  -6.680  1.00 20.00    -0.203 F 
HETATM   10  F10 UNL     1     -34.797  15.601  -7.138  1.00 20.00    -0.201 F 
HETATM   11 CL11 UNL     1     -33.513  17.247  -1.671  1.00 20.00    -0.084 Cl
ENDROOT
TORSDOF 0
ENDMDL
MODEL 4
REMARK VINA RESULT:      -4.5     12.350     13.344
REMARK  0 active torsions:
REMARK  status: ('A' for Active; 'I' for Inactive)
ROOT
HETATM    1  C1  UNL     1     -36.982  14.318  -5.151  1.00 20.00     0.102 C 
HETATM    2  C2  UNL     1     -35.453  15.876  -6.249  1.00 20.00     0.050 A 
HETATM    3  C3  UNL     1     -33.089  15.828  -5.752  1.00 20.00     0.069 A 
HETATM    4  C4  UNL     1     -35.662  14.828  -5.353  1.00 20.00     0.087 A 
HETATM    5  C5  UNL     1     -33.299  14.780  -4.856  1.00 20.00     0.158 A 
HETATM    6  C6  UNL     1     -34.586  14.280  -4.656  1.00 20.00     0.175 A 
HETATM    7  C7  UNL     1     -34.166  16.376  -6.449  1.00 20.00     0.038 A 
HETATM    8  N8  UNL     1     -38.054  13.904  -4.987  1.00 20.00    -0.191 NA
HETATM    9  F9  UNL     1     -32.264  14.254  -4.188  1.00 20.00    -0.203 F 
HETATM   10  F10 UNL     1     -34.771  13.271  -3.792  1.00 20.00    -0.201 F 
HETATM   11 CL11 UNL     1     -33.908  17.671  -7.552  1.00 20.00    -0.084 Cl
ENDROOT
TORSDOF 0
ENDMDL
MODEL 5
REMARK VINA RESULT:      -4.5      2.703      3.060
REMARK  0 active torsions:
REMARK  status: ('A' for Active; 'I' for Inactive)
ROOT
HETATM    1  C1  UNL     1     -32.108   7.948   2.230  1.00 20.00     0.102 C 
HETATM    2  C2  UNL     1     -33.488   6.168   3.177  1.00 20.00     0.050 A 
HETATM    3  C3  UNL     1     -34.082   6.192   5.520  1.00 20.00     0.069 A 
HETATM    4  C4  UNL     1     -32.776   7.354   3.346  1.00 20.00     0.087 A 
HETATM    5  C5  UNL     1     -33.369   7.379   5.688  1.00 20.00     0.158 A 
HETATM    6  C6  UNL     1     -32.715   7.960   4.600  1.00 20.00     0.175 A 
HETATM    7  C7  UNL     1     -34.142   5.586   4.264  1.00 20.00     0.038 A 
HETATM    8  N8  UNL     1     -31.565   8.429   1.324  1.00 20.00    -0.191 NA
HETATM    9  F9  UNL     1     -33.312   7.960   6.893  1.00 20.00    -0.203 F 
HETATM   10  F10 UNL     1     -32.035   9.102   4.778  1.00 20.00    -0.201 F 
HETATM   11 CL11 UNL     1     -35.020   4.121   4.057  1.00 20.00    -0.084 Cl
ENDROOT
TORSDOF 0
ENDMDL
MODEL 6
REMARK VINA RESULT:      -4.4     12.086     12.585
REMARK  0 active torsions:
REMARK  status: ('A' for Active; 'I' for Inactive)
ROOT
HETATM    1  C1  UNL     1     -35.572  13.693  -5.222  1.00 20.00     0.102 C 
HETATM    2  C2  UNL     1     -36.701  15.604  -4.200  1.00 20.00     0.050 A 
HETATM    3  C3  UNL     1     -35.493  17.103  -2.740  1.00 20.00     0.069 A 
HETATM    4  C4  UNL     1     -35.543  14.848  -4.381  1.00 20.00     0.087 A 
HETATM    5  C5  UNL     1     -34.335  16.347  -2.921  1.00 20.00     0.158 A 
HETATM    6  C6  UNL     1     -34.361  15.218  -3.742  1.00 20.00     0.175 A 
HETATM    7  C7  UNL     1     -36.676  16.732  -3.380  1.00 20.00     0.038 A 
HETATM    8  N8  UNL     1     -35.596  12.755  -5.905  1.00 20.00    -0.191 NA
HETATM    9  F9  UNL     1     -33.200  16.704  -2.308  1.00 20.00    -0.203 F 
HETATM   10  F10 UNL     1     -33.239  14.502  -3.907  1.00 20.00    -0.201 F 
HETATM   11 CL11 UNL     1     -38.105  17.664  -3.155  1.00 20.00    -0.084 Cl
ENDROOT
TORSDOF 0
ENDMDL
MODEL 7
REMARK VINA RESULT:      -4.4      3.564      4.486
REMARK  0 active torsions:
REMARK  status: ('A' for Active; 'I' for Inactive)
ROOT
HETATM    1  C1  UNL     1     -34.410   5.505   4.102  1.00 20.00     0.102 C 
HETATM    2  C2  UNL     1     -33.082   6.862   2.564  1.00 20.00     0.050 A 
HETATM    3  C3  UNL     1     -31.756   8.707   3.388  1.00 20.00     0.069 A 
HETATM    4  C4  UNL     1     -33.511   6.590   3.863  1.00 20.00     0.087 A 
HETATM    5  C5  UNL     1     -32.185   8.434   4.687  1.00 20.00     0.158 A 
HETATM    6  C6  UNL     1     -33.063   7.376   4.924  1.00 20.00     0.175 A 
HETATM    7  C7  UNL     1     -32.205   7.921   2.326  1.00 20.00     0.038 A 
HETATM    8  N8  UNL     1     -35.140   4.624   4.297  1.00 20.00    -0.191 NA
HETATM    9  F9  UNL     1     -31.754   9.188   5.706  1.00 20.00    -0.203 F 
HETATM   10  F10 UNL     1     -33.465   7.126   6.179  1.00 20.00    -0.201 F 
HETATM   11 CL11 UNL     1     -31.677   8.258   0.723  1.00 20.00    -0.084 Cl
ENDROOT
TORSDOF 0
ENDMDL
MODEL 8
REMARK VINA RESULT:      -4.4      2.755      3.122
REMARK  0 active torsions:
REMARK  status: ('A' for Active; 'I' for Inactive)
ROOT
HETATM    1  C1  UNL     1     -32.301   8.358   3.192  1.00 20.00     0.102 C 
HETATM    2  C2  UNL     1     -32.782   6.034   2.612  1.00 20.00     0.050 A 
HETATM    3  C3  UNL     1     -34.172   4.674   4.047  1.00 20.00     0.069 A 
HETATM    4  C4  UNL     1     -32.936   7.111   3.484  1.00 20.00     0.087 A 
HETATM    5  C5  UNL     1     -34.326   5.753   4.919  1.00 20.00     0.158 A 
HETATM    6  C6  UNL     1     -33.707   6.971   4.637  1.00 20.00     0.175 A 
HETATM    7  C7  UNL     1     -33.400   4.815   2.893  1.00 20.00     0.038 A 
HETATM    8  N8  UNL     1     -31.786   9.371   2.955  1.00 20.00    -0.191 NA
HETATM    9  F9  UNL     1     -35.067   5.617   6.026  1.00 20.00    -0.203 F 
HETATM   10  F10 UNL     1     -33.866   7.998   5.485  1.00 20.00    -0.201 F 
HETATM   11 CL11 UNL     1     -33.209   3.485   1.819  1.00 20.00    -0.084 Cl
ENDROOT
TORSDOF 0
ENDMDL
MODEL 9
REMARK VINA RESULT:      -4.3     12.649     13.019
REMARK  0 active torsions:
REMARK  status: ('A' for Active; 'I' for Inactive)
ROOT
HETATM    1  C1  UNL     1     -36.188  18.029   1.002  1.00 20.00     0.102 C 
HETATM    2  C2  UNL     1     -35.533  16.975  -1.103  1.00 20.00     0.050 A 
HETATM    3  C3  UNL     1     -33.299  17.268  -1.977  1.00 20.00     0.069 A 
HETATM    4  C4  UNL     1     -35.208  17.773  -0.006  1.00 20.00     0.087 A 
HETATM    5  C5  UNL     1     -32.974  18.065  -0.879  1.00 20.00     0.158 A 
HETATM    6  C6  UNL     1     -33.929  18.317   0.107  1.00 20.00     0.175 A 
HETATM    7  C7  UNL     1     -34.579  16.723  -2.089  1.00 20.00     0.038 A 
HETATM    8  N8  UNL     1     -36.984  18.238   1.821  1.00 20.00    -0.191 NA
HETATM    9  F9  UNL     1     -31.746  18.587  -0.772  1.00 20.00    -0.203 F 
HETATM   10  F10 UNL     1     -33.601  19.085   1.156  1.00 20.00    -0.201 F 
HETATM   11 CL11 UNL     1     -34.980  15.741  -3.444  1.00 20.00    -0.084 Cl
ENDROOT
TORSDOF 0
ENDMDL
