MODEL 1
REMARK VINA RESULT:      -6.3      0.000      0.000
REMARK  1 active torsions:
REMARK  status: ('A' for Active; 'I' for Inactive)
REMARK    1  A    between atoms: C7_7  and  C8_8 
ROOT
HETATM    1  C4  UNL     1     -33.720   5.476   3.112  1.00 20.00     0.038 C 
HETATM    2  C5  UNL     1     -34.122   4.246   3.923  1.00 20.00     0.270 C 
HETATM    3  C6  UNL     1     -34.534   5.585   5.889  1.00 20.00     0.307 C 
HETATM    4  C8  UNL     1     -33.164   6.581   4.015  1.00 20.00     0.027 C 
HETATM    5  C9  UNL     1     -34.138   6.864   5.160  1.00 20.00     0.202 C 
HETATM    6  N10 UNL     1     -35.082   4.588   4.972  1.00 20.00     0.086 N 
HETATM    7  F11 UNL     1     -33.529   7.690   6.055  1.00 20.00    -0.247 F 
HETATM    8  H27 UNL     1     -35.926   4.965   4.539  1.00 20.00     0.315 HD
ENDROOT
BRANCH   4   9
HETATM    9  C7  UNL     1     -32.930   7.852   3.199  1.00 20.00    -0.008 C 
HETATM   10  C2  UNL     1     -32.817   7.680   1.662  1.00 20.00     0.005 C 
HETATM   11  C1  UNL     1     -31.745   8.789   1.691  1.00 20.00     0.001 C 
HETATM   12  C3  UNL     1     -31.477   8.394   3.159  1.00 20.00     0.005 C 
ENDBRANCH   4   9
TORSDOF 1
ENDMDL
MODEL 2
REMARK VINA RESULT:      -5.8      1.684      2.341
REMARK  1 active torsions:
REMARK  status: ('A' for Active; 'I' for Inactive)
REMARK    1  A    between atoms: C7_7  and  C8_8 
ROOT
HETATM    1  C4  UNL     1     -33.046   7.462   4.924  1.00 20.00     0.038 C 
HETATM    2  C5  UNL     1     -34.030   7.011   6.001  1.00 20.00     0.270 C 
HETATM    3  C6  UNL     1     -35.046   5.410   4.506  1.00 20.00     0.307 C 
HETATM    4  C8  UNL     1     -33.619   7.246   3.520  1.00 20.00     0.027 C 
HETATM    5  C9  UNL     1     -34.111   5.806   3.369  1.00 20.00     0.202 C 
HETATM    6  N10 UNL     1     -34.424   5.615   5.812  1.00 20.00     0.086 N 
HETATM    7  F11 UNL     1     -34.800   5.702   2.199  1.00 20.00    -0.247 F 
HETATM    8  H27 UNL     1     -33.595   5.025   5.882  1.00 20.00     0.315 HD
ENDROOT
BRANCH   4   9
HETATM    9  C7  UNL     1     -32.551   7.548   2.469  1.00 20.00    -0.008 C 
HETATM   10  C2  UNL     1     -31.450   8.565   2.868  1.00 20.00     0.005 C 
HETATM   11  C1  UNL     1     -31.494   9.073   1.413  1.00 20.00     0.001 C 
HETATM   12  C3  UNL     1     -32.942   8.545   1.347  1.00 20.00     0.005 C 
ENDBRANCH   4   9
TORSDOF 1
ENDMDL
MODEL 3
REMARK VINA RESULT:      -5.3      1.966      3.946
REMARK  1 active torsions:
REMARK  status: ('A' for Active; 'I' for Inactive)
REMARK    1  A    between atoms: C7_7  and  C8_8 
ROOT
HETATM    1  C4  UNL     1     -33.027   7.011   2.446  1.00 20.00     0.038 C 
HETATM    2  C5  UNL     1     -32.124   8.224   2.229  1.00 20.00     0.270 C 
HETATM    3  C6  UNL     1     -32.057   8.690   4.597  1.00 20.00     0.307 C 
HETATM    4  C8  UNL     1     -33.866   7.162   3.718  1.00 20.00     0.027 C 
HETATM    5  C9  UNL     1     -32.965   7.504   4.905  1.00 20.00     0.202 C 
HETATM    6  N10 UNL     1     -31.266   8.465   3.389  1.00 20.00     0.086 N 
HETATM    7  F11 UNL     1     -33.751   7.837   5.966  1.00 20.00    -0.247 F 
HETATM    8  H27 UNL     1     -30.667   7.652   3.532  1.00 20.00     0.315 HD
ENDROOT
BRANCH   4   9
HETATM    9  C7  UNL     1     -34.628   5.867   3.995  1.00 20.00    -0.008 C 
HETATM   10  C2  UNL     1     -34.573   5.324   5.446  1.00 20.00     0.005 C 
HETATM   11  C1  UNL     1     -34.532   3.907   4.837  1.00 20.00     0.001 C 
HETATM   12  C3  UNL     1     -33.933   4.547   3.567  1.00 20.00     0.005 C 
ENDBRANCH   4   9
TORSDOF 1
ENDMDL
MODEL 4
REMARK VINA RESULT:      -4.7      2.501      4.576
REMARK  1 active torsions:
REMARK  status: ('A' for Active; 'I' for Inactive)
REMARK    1  A    between atoms: C7_7  and  C8_8 
ROOT
HETATM    1  C4  UNL     1     -32.437   7.789   4.265  1.00 20.00     0.038 C 
HETATM    2  C5  UNL     1     -31.386   8.489   3.406  1.00 20.00     0.270 C 
HETATM    3  C6  UNL     1     -32.606   7.993   1.382  1.00 20.00     0.307 C 
HETATM    4  C8  UNL     1     -33.165   6.697   3.476  1.00 20.00     0.027 C 
HETATM    5  C9  UNL     1     -33.697   7.266   2.159  1.00 20.00     0.202 C 
HETATM    6  N10 UNL     1     -31.976   9.039   2.185  1.00 20.00     0.086 N 
HETATM    7  F11 UNL     1     -34.149   6.236   1.391  1.00 20.00    -0.247 F 
HETATM    8  H27 UNL     1     -32.680   9.731   2.440  1.00 20.00     0.315 HD
ENDROOT
BRANCH   4   9
HETATM    9  C7  UNL     1     -34.318   6.135   4.307  1.00 20.00    -0.008 C 
HETATM   10  C2  UNL     1     -34.176   6.230   5.848  1.00 20.00     0.005 C 
HETATM   11  C1  UNL     1     -34.868   4.854   5.925  1.00 20.00     0.001 C 
HETATM   12  C3  UNL     1     -34.354   4.595   4.493  1.00 20.00     0.005 C 
ENDBRANCH   4   9
TORSDOF 1
ENDMDL
MODEL 5
REMARK VINA RESULT:      -4.6     12.035     12.770
REMARK  1 active torsions:
REMARK  status: ('A' for Active; 'I' for Inactive)
REMARK    1  A    between atoms: C7_7  and  C8_8 
ROOT
HETATM    1  C4  UNL     1     -35.042  15.015  -3.755  1.00 20.00     0.038 C 
HETATM    2  C5  UNL     1     -34.908  14.064  -4.942  1.00 20.00     0.270 C 
HETATM    3  C6  UNL     1     -33.308  15.517  -6.020  1.00 20.00     0.307 C 
HETATM    4  C8  UNL     1     -34.735  16.460  -4.161  1.00 20.00     0.027 C 
HETATM    5  C9  UNL     1     -33.388  16.529  -4.882  1.00 20.00     0.202 C 
HETATM    6  N10 UNL     1     -33.582  14.159  -5.555  1.00 20.00     0.086 N 
HETATM    7  F11 UNL     1     -33.241  17.775  -5.412  1.00 20.00    -0.247 F 
HETATM    8  H27 UNL     1     -32.879  13.896  -4.864  1.00 20.00     0.315 HD
ENDROOT
BRANCH   4   9
HETATM    9  C7  UNL     1     -34.714  17.355  -2.923  1.00 20.00    -0.008 C 
HETATM   10  C2  UNL     1     -33.424  17.321  -2.062  1.00 20.00     0.005 C 
HETATM   11  C1  UNL     1     -34.333  17.457  -0.824  1.00 20.00     0.001 C 
HETATM   12  C3  UNL     1     -35.459  16.825  -1.669  1.00 20.00     0.005 C 
ENDBRANCH   4   9
TORSDOF 1
ENDMDL
MODEL 6
REMARK VINA RESULT:      -4.6     11.460     12.138
REMARK  1 active torsions:
REMARK  status: ('A' for Active; 'I' for Inactive)
REMARK    1  A    between atoms: C7_7  and  C8_8 
ROOT
HETATM    1  C4  UNL     1     -36.513  15.885  -3.678  1.00 20.00     0.038 C 
HETATM    2  C5  UNL     1     -37.205  15.334  -4.923  1.00 20.00     0.270 C 
HETATM    3  C6  UNL     1     -35.372  13.824  -5.362  1.00 20.00     0.307 C 
HETATM    4  C8  UNL     1     -34.990  15.760  -3.785  1.00 20.00     0.027 C 
HETATM    5  C9  UNL     1     -34.605  14.323  -4.143  1.00 20.00     0.202 C 
HETATM    6  N10 UNL     1     -36.817  13.946  -5.179  1.00 20.00     0.086 N 
HETATM    7  F11 UNL     1     -33.275  14.290  -4.437  1.00 20.00    -0.247 F 
HETATM    8  H27 UNL     1     -37.100  13.372  -4.385  1.00 20.00     0.315 HD
ENDROOT
BRANCH   4   9
HETATM    9  C7  UNL     1     -34.340  16.162  -2.462  1.00 20.00    -0.008 C 
HETATM   10  C2  UNL     1     -35.242  16.905  -1.442  1.00 20.00     0.005 C 
HETATM   11  C1  UNL     1     -34.003  17.745  -1.070  1.00 20.00     0.001 C 
HETATM   12  C3  UNL     1     -33.460  17.439  -2.481  1.00 20.00     0.005 C 
ENDBRANCH   4   9
TORSDOF 1
ENDMDL
MODEL 7
REMARK VINA RESULT:      -4.5     11.639     12.136
REMARK  1 active torsions:
REMARK  status: ('A' for Active; 'I' for Inactive)
REMARK    1  A    between atoms: C7_7  and  C8_8 
ROOT
HETATM    1  C4  UNL     1     -33.356  15.405  -3.868  1.00 20.00     0.038 C 
HETATM    2  C5  UNL     1     -33.337  14.130  -4.709  1.00 20.00     0.270 C 
HETATM    3  C6  UNL     1     -35.724  14.233  -5.053  1.00 20.00     0.307 C 
HETATM    4  C8  UNL     1     -34.714  15.603  -3.187  1.00 20.00     0.027 C 
HETATM    5  C9  UNL     1     -35.839  15.504  -4.218  1.00 20.00     0.202 C 
HETATM    6  N10 UNL     1     -34.417  14.126  -5.696  1.00 20.00     0.086 N 
HETATM    7  F11 UNL     1     -37.031  15.472  -3.560  1.00 20.00    -0.247 F 
HETATM    8  H27 UNL     1     -34.291  14.917  -6.327  1.00 20.00     0.315 HD
ENDROOT
BRANCH   4   9
HETATM    9  C7  UNL     1     -34.755  16.964  -2.495  1.00 20.00    -0.008 C 
HETATM   10  C2  UNL     1     -33.437  17.452  -1.839  1.00 20.00     0.005 C 
HETATM   11  C1  UNL     1     -34.305  18.055  -0.715  1.00 20.00     0.001 C 
HETATM   12  C3  UNL     1     -35.374  17.002  -1.072  1.00 20.00     0.005 C 
ENDBRANCH   4   9
TORSDOF 1
ENDMDL
MODEL 8
REMARK VINA RESULT:      -4.4     11.970     12.805
REMARK  1 active torsions:
REMARK  status: ('A' for Active; 'I' for Inactive)
REMARK    1  A    between atoms: C7_7  and  C8_8 
ROOT
HETATM    1  C4  UNL     1     -35.216  14.198  -4.408  1.00 20.00     0.038 C 
HETATM    2  C5  UNL     1     -35.877  13.422  -5.545  1.00 20.00     0.270 C 
HETATM    3  C6  UNL     1     -34.287  14.274  -7.149  1.00 20.00     0.307 C 
HETATM    4  C8  UNL     1     -34.510  15.454  -4.927  1.00 20.00     0.027 C 
HETATM    5  C9  UNL     1     -33.571  15.091  -6.079  1.00 20.00     0.202 C 
HETATM    6  N10 UNL     1     -34.911  13.078  -6.588  1.00 20.00     0.086 N 
HETATM    7  F11 UNL     1     -33.123  16.241  -6.654  1.00 20.00    -0.247 F 
HETATM    8  H27 UNL     1     -34.187  12.483  -6.185  1.00 20.00     0.315 HD
ENDROOT
BRANCH   4   9
HETATM    9  C7  UNL     1     -33.721  16.113  -3.796  1.00 20.00    -0.008 C 
HETATM   10  C2  UNL     1     -34.477  16.340  -2.461  1.00 20.00     0.005 C 
HETATM   11  C1  UNL     1     -33.699  17.665  -2.330  1.00 20.00     0.001 C 
HETATM   12  C3  UNL     1     -33.562  17.655  -3.867  1.00 20.00     0.005 C 
ENDBRANCH   4   9
TORSDOF 1
ENDMDL
MODEL 9
REMARK VINA RESULT:      -4.4      2.235      4.187
REMARK  1 active torsions:
REMARK  status: ('A' for Active; 'I' for Inactive)
REMARK    1  A    between atoms: C7_7  and  C8_8 
ROOT
HETATM    1  C4  UNL     1     -33.456   7.103   1.968  1.00 20.00     0.038 C 
HETATM    2  C5  UNL     1     -33.077   8.226   1.005  1.00 20.00     0.270 C 
HETATM    3  C6  UNL     1     -31.456   9.113   2.559  1.00 20.00     0.307 C 
HETATM    4  C8  UNL     1     -33.207   7.510   3.424  1.00 20.00     0.027 C 
HETATM    5  C9  UNL     1     -31.779   8.033   3.586  1.00 20.00     0.202 C 
HETATM    6  N10 UNL     1     -31.689   8.646   1.194  1.00 20.00     0.086 N 
HETATM    7  F11 UNL     1     -31.654   8.579   4.828  1.00 20.00    -0.247 F 
HETATM    8  H27 UNL     1     -31.075   7.854   1.005  1.00 20.00     0.315 HD
ENDROOT
BRANCH   4   9
HETATM    9  C7  UNL     1     -33.435   6.313   4.345  1.00 20.00    -0.008 C 
HETATM   10  C2  UNL     1     -34.683   5.439   4.055  1.00 20.00     0.005 C 
HETATM   11  C1  UNL     1     -34.833   5.277   5.582  1.00 20.00     0.001 C 
HETATM   12  C3  UNL     1     -34.073   6.611   5.728  1.00 20.00     0.005 C 
ENDBRANCH   4   9
TORSDOF 1
ENDMDL
