MODEL 1
REMARK VINA RESULT:      -5.3      0.000      0.000
REMARK  0 active torsions:
REMARK  status: ('A' for Active; 'I' for Inactive)
ROOT
HETATM    1  C1  UNL     1     -32.910   7.696   3.624  1.00 20.00     0.088 C 
HETATM    2  C2  UNL     1     -34.728   5.295   5.898  1.00 20.00     0.001 C 
HETATM    3  C3  UNL     1     -34.015   6.674   5.860  1.00 20.00     0.010 C 
HETATM    4  C4  UNL     1     -34.677   4.733   4.454  1.00 20.00     0.007 C 
HETATM    5  C5  UNL     1     -33.379   5.903   2.396  1.00 20.00     0.153 C 
HETATM    6  C6  UNL     1     -33.955   6.955   4.384  1.00 20.00     0.031 C 
HETATM    7  C7  UNL     1     -33.591   5.583   3.851  1.00 20.00     0.014 C 
HETATM    8  N8  UNL     1     -32.598   7.182   2.469  1.00 20.00    -0.305 NA
ENDROOT
TORSDOF 0
ENDMDL
MODEL 2
REMARK VINA RESULT:      -5.2      0.452      1.863
REMARK  0 active torsions:
REMARK  status: ('A' for Active; 'I' for Inactive)
ROOT
HETATM    1  C1  UNL     1     -33.292   6.342   2.425  1.00 20.00     0.088 C 
HETATM    2  C2  UNL     1     -34.819   5.790   5.831  1.00 20.00     0.001 C 
HETATM    3  C3  UNL     1     -34.848   5.294   4.359  1.00 20.00     0.010 C 
HETATM    4  C4  UNL     1     -33.744   6.905   5.898  1.00 20.00     0.007 C 
HETATM    5  C5  UNL     1     -32.403   7.875   3.767  1.00 20.00     0.153 C 
HETATM    6  C6  UNL     1     -33.574   5.871   3.809  1.00 20.00     0.031 C 
HETATM    7  C7  UNL     1     -33.593   7.249   4.441  1.00 20.00     0.014 C 
HETATM    8  N8  UNL     1     -32.579   7.429   2.345  1.00 20.00    -0.305 NA
ENDROOT
TORSDOF 0
ENDMDL
MODEL 3
REMARK VINA RESULT:      -4.9      1.752      3.443
REMARK  0 active torsions:
REMARK  status: ('A' for Active; 'I' for Inactive)
ROOT
HETATM    1  C1  UNL     1     -34.518   4.506   4.639  1.00 20.00     0.088 C 
HETATM    2  C2  UNL     1     -32.814   7.136   2.538  1.00 20.00     0.001 C 
HETATM    3  C3  UNL     1     -33.238   5.642   2.558  1.00 20.00     0.010 C 
HETATM    4  C4  UNL     1     -33.304   7.751   3.875  1.00 20.00     0.007 C 
HETATM    5  C5  UNL     1     -34.457   6.353   5.875  1.00 20.00     0.153 C 
HETATM    6  C6  UNL     1     -34.231   5.613   3.686  1.00 20.00     0.031 C 
HETATM    7  C7  UNL     1     -33.538   6.510   4.694  1.00 20.00     0.014 C 
HETATM    8  N8  UNL     1     -34.719   4.876   5.872  1.00 20.00    -0.305 NA
ENDROOT
TORSDOF 0
ENDMDL
MODEL 4
REMARK VINA RESULT:      -4.8      1.701      2.984
REMARK  0 active torsions:
REMARK  status: ('A' for Active; 'I' for Inactive)
ROOT
HETATM    1  C1  UNL     1     -33.946   4.810   3.449  1.00 20.00     0.088 C 
HETATM    2  C2  UNL     1     -32.899   8.124   4.918  1.00 20.00     0.001 C 
HETATM    3  C3  UNL     1     -32.781   7.232   3.652  1.00 20.00     0.010 C 
HETATM    4  C4  UNL     1     -33.800   7.354   5.917  1.00 20.00     0.007 C 
HETATM    5  C5  UNL     1     -34.743   4.856   5.524  1.00 20.00     0.153 C 
HETATM    6  C6  UNL     1     -33.890   6.239   3.865  1.00 20.00     0.031 C 
HETATM    7  C7  UNL     1     -33.738   5.962   5.348  1.00 20.00     0.014 C 
HETATM    8  N8  UNL     1     -34.479   4.001   4.320  1.00 20.00    -0.305 NA
ENDROOT
TORSDOF 0
ENDMDL
MODEL 5
REMARK VINA RESULT:      -4.8      1.765      2.967
REMARK  0 active torsions:
REMARK  status: ('A' for Active; 'I' for Inactive)
ROOT
HETATM    1  C1  UNL     1     -34.421   6.184   5.811  1.00 20.00     0.088 C 
HETATM    2  C2  UNL     1     -32.933   7.179   2.489  1.00 20.00     0.001 C 
HETATM    3  C3  UNL     1     -33.383   7.736   3.867  1.00 20.00     0.010 C 
HETATM    4  C4  UNL     1     -33.175   5.649   2.532  1.00 20.00     0.007 C 
HETATM    5  C5  UNL     1     -34.364   4.339   4.572  1.00 20.00     0.153 C 
HETATM    6  C6  UNL     1     -33.483   6.484   4.693  1.00 20.00     0.031 C 
HETATM    7  C7  UNL     1     -34.124   5.539   3.696  1.00 20.00     0.014 C 
HETATM    8  N8  UNL     1     -34.892   4.970   5.826  1.00 20.00    -0.305 NA
ENDROOT
TORSDOF 0
ENDMDL
MODEL 6
REMARK VINA RESULT:      -4.6      1.729      2.764
REMARK  0 active torsions:
REMARK  status: ('A' for Active; 'I' for Inactive)
ROOT
HETATM    1  C1  UNL     1     -34.662   4.867   5.503  1.00 20.00     0.088 C 
HETATM    2  C2  UNL     1     -32.984   8.188   4.874  1.00 20.00     0.001 C 
HETATM    3  C3  UNL     1     -33.785   7.380   5.931  1.00 20.00     0.010 C 
HETATM    4  C4  UNL     1     -32.805   7.255   3.648  1.00 20.00     0.007 C 
HETATM    5  C5  UNL     1     -33.907   4.802   3.413  1.00 20.00     0.153 C 
HETATM    6  C6  UNL     1     -33.673   5.977   5.402  1.00 20.00     0.031 C 
HETATM    7  C7  UNL     1     -33.863   6.219   3.918  1.00 20.00     0.014 C 
HETATM    8  N8  UNL     1     -34.782   4.135   4.432  1.00 20.00    -0.305 NA
ENDROOT
TORSDOF 0
ENDMDL
MODEL 7
REMARK VINA RESULT:      -4.5      1.643      2.923
REMARK  0 active torsions:
REMARK  status: ('A' for Active; 'I' for Inactive)
ROOT
HETATM    1  C1  UNL     1     -34.479   6.070   5.937  1.00 20.00     0.088 C 
HETATM    2  C2  UNL     1     -33.433   4.660   2.597  1.00 20.00     0.001 C 
HETATM    3  C3  UNL     1     -34.082   4.285   3.957  1.00 20.00     0.010 C 
HETATM    4  C4  UNL     1     -33.138   6.181   2.654  1.00 20.00     0.007 C 
HETATM    5  C5  UNL     1     -33.511   7.736   4.829  1.00 20.00     0.153 C 
HETATM    6  C6  UNL     1     -34.444   5.634   4.514  1.00 20.00     0.031 C 
HETATM    7  C7  UNL     1     -33.213   6.434   4.136  1.00 20.00     0.014 C 
HETATM    8  N8  UNL     1     -34.027   7.272   6.158  1.00 20.00    -0.305 NA
ENDROOT
TORSDOF 0
ENDMDL
MODEL 8
REMARK VINA RESULT:      -4.0     12.023     12.763
REMARK  0 active torsions:
REMARK  status: ('A' for Active; 'I' for Inactive)
ROOT
HETATM    1  C1  UNL     1     -34.424  13.683  -6.734  1.00 20.00     0.088 C 
HETATM    2  C2  UNL     1     -33.533  16.143  -4.015  1.00 20.00     0.001 C 
HETATM    3  C3  UNL     1     -33.081  15.600  -5.397  1.00 20.00     0.010 C 
HETATM    4  C4  UNL     1     -34.846  15.399  -3.657  1.00 20.00     0.007 C 
HETATM    5  C5  UNL     1     -35.926  13.404  -5.119  1.00 20.00     0.153 C 
HETATM    6  C6  UNL     1     -34.320  14.898  -5.879  1.00 20.00     0.031 C 
HETATM    7  C7  UNL     1     -34.779  14.227  -4.599  1.00 20.00     0.014 C 
HETATM    8  N8  UNL     1     -35.358  12.843  -6.389  1.00 20.00    -0.305 NA
ENDROOT
TORSDOF 0
ENDMDL
MODEL 9
REMARK VINA RESULT:      -3.8     11.893     12.756
REMARK  0 active torsions:
REMARK  status: ('A' for Active; 'I' for Inactive)
ROOT
HETATM    1  C1  UNL     1     -35.717  13.399  -4.938  1.00 20.00     0.088 C 
HETATM    2  C2  UNL     1     -33.538  16.366  -4.108  1.00 20.00     0.001 C 
HETATM    3  C3  UNL     1     -34.715  15.501  -3.580  1.00 20.00     0.010 C 
HETATM    4  C4  UNL     1     -33.108  15.746  -5.462  1.00 20.00     0.007 C 
HETATM    5  C5  UNL     1     -34.374  13.699  -6.685  1.00 20.00     0.153 C 
HETATM    6  C6  UNL     1     -34.618  14.278  -4.449  1.00 20.00     0.031 C 
HETATM    7  C7  UNL     1     -34.315  14.910  -5.793  1.00 20.00     0.014 C 
HETATM    8  N8  UNL     1     -35.592  12.992  -6.169  1.00 20.00    -0.305 NA
ENDROOT
TORSDOF 0
ENDMDL
