MODEL 1
REMARK VINA RESULT:      -6.2      0.000      0.000
REMARK  5 active torsions:
REMARK  status: ('A' for Active; 'I' for Inactive)
REMARK    1  A    between atoms: C3_3  and  C7_7 
REMARK    2  A    between atoms: C4_4  and  C8_8 
REMARK    3  A    between atoms: C7_7  and  C9_9 
REMARK    4  A    between atoms: C8_8  and  C10_10 
REMARK    5  A    between atoms: C9_9  and  C10_10 
ROOT
HETATM    1  C9  UNL     1     -32.570   7.590   3.638  1.00 20.00     0.004 C 
ENDROOT
BRANCH   1   2
HETATM    2  C7  UNL     1     -31.502   8.390   2.888  1.00 20.00     0.026 C 
BRANCH   2   3
HETATM    3  C3  UNL     1     -31.865   8.559   1.442  1.00 20.00    -0.031 C 
HETATM    4  C1  UNL     1     -32.702   9.504   0.989  1.00 20.00    -0.035 C 
HETATM    5  C5  UNL     1     -33.069   9.668  -0.449  1.00 20.00     0.035 C 
ENDBRANCH   2   3
ENDBRANCH   1   2
BRANCH   1   6
HETATM    6  C10 UNL     1     -32.954   6.321   2.873  1.00 20.00     0.004 C 
BRANCH   6   7
HETATM    7  C8  UNL     1     -34.401   5.914   3.162  1.00 20.00     0.026 C 
BRANCH   7   8
HETATM    8  C4  UNL     1     -34.461   4.781   4.145  1.00 20.00    -0.031 C 
HETATM    9  C2  UNL     1     -34.534   4.950   5.473  1.00 20.00    -0.035 C 
HETATM   10  C6  UNL     1     -34.563   6.285   6.141  1.00 20.00     0.035 C 
ENDBRANCH   7   8
ENDBRANCH   6   7
ENDBRANCH   1   6
TORSDOF 5
ENDMDL
MODEL 2
REMARK VINA RESULT:      -5.9      0.807      1.484
REMARK  5 active torsions:
REMARK  status: ('A' for Active; 'I' for Inactive)
REMARK    1  A    between atoms: C3_3  and  C7_7 
REMARK    2  A    between atoms: C4_4  and  C8_8 
REMARK    3  A    between atoms: C7_7  and  C9_9 
REMARK    4  A    between atoms: C8_8  and  C10_10 
REMARK    5  A    between atoms: C9_9  and  C10_10 
ROOT
HETATM    1  C9  UNL     1     -32.402   7.297   3.257  1.00 20.00     0.004 C 
ENDROOT
BRANCH   1   2
HETATM    2  C7  UNL     1     -31.501   8.429   2.760  1.00 20.00     0.026 C 
BRANCH   2   3
HETATM    3  C3  UNL     1     -31.753   8.729   1.311  1.00 20.00    -0.031 C 
HETATM    4  C1  UNL     1     -32.881   9.292   0.852  1.00 20.00    -0.035 C 
HETATM    5  C5  UNL     1     -33.135   9.584  -0.590  1.00 20.00     0.035 C 
ENDBRANCH   2   3
ENDBRANCH   1   2
BRANCH   1   6
HETATM    6  C10 UNL     1     -32.990   7.617   4.634  1.00 20.00     0.004 C 
BRANCH   6   7
HETATM    7  C8  UNL     1     -34.420   7.088   4.764  1.00 20.00     0.026 C 
BRANCH   7   8
HETATM    8  C4  UNL     1     -34.519   6.049   5.843  1.00 20.00    -0.031 C 
HETATM    9  C2  UNL     1     -34.449   4.729   5.616  1.00 20.00    -0.035 C 
HETATM   10  C6  UNL     1     -34.265   4.128   4.262  1.00 20.00     0.035 C 
ENDBRANCH   7   8
ENDBRANCH   6   7
ENDBRANCH   1   6
TORSDOF 5
ENDMDL
MODEL 3
REMARK VINA RESULT:      -5.6      0.800      5.515
REMARK  5 active torsions:
REMARK  status: ('A' for Active; 'I' for Inactive)
REMARK    1  A    between atoms: C3_3  and  C7_7 
REMARK    2  A    between atoms: C4_4  and  C8_8 
REMARK    3  A    between atoms: C7_7  and  C9_9 
REMARK    4  A    between atoms: C8_8  and  C10_10 
REMARK    5  A    between atoms: C9_9  and  C10_10 
ROOT
HETATM    1  C9  UNL     1     -33.307   7.628   3.105  1.00 20.00     0.004 C 
ENDROOT
BRANCH   1   2
HETATM    2  C7  UNL     1     -33.591   6.217   2.585  1.00 20.00     0.026 C 
BRANCH   2   3
HETATM    3  C3  UNL     1     -34.056   5.314   3.690  1.00 20.00    -0.031 C 
HETATM    4  C1  UNL     1     -34.338   5.738   4.931  1.00 20.00    -0.035 C 
HETATM    5  C5  UNL     1     -34.793   4.839   6.032  1.00 20.00     0.035 C 
ENDBRANCH   2   3
ENDBRANCH   1   2
BRANCH   1   6
HETATM    6  C10 UNL     1     -31.816   7.962   3.023  1.00 20.00     0.004 C 
BRANCH   6   7
HETATM    7  C8  UNL     1     -31.466   8.621   1.686  1.00 20.00     0.026 C 
BRANCH   7   8
HETATM    8  C4  UNL     1     -32.243   9.889   1.486  1.00 20.00    -0.031 C 
HETATM    9  C2  UNL     1     -32.993  10.142   0.403  1.00 20.00    -0.035 C 
HETATM   10  C6  UNL     1     -33.149   9.194  -0.739  1.00 20.00     0.035 C 
ENDBRANCH   7   8
ENDBRANCH   6   7
ENDBRANCH   1   6
TORSDOF 5
ENDMDL
MODEL 4
REMARK VINA RESULT:      -5.4      1.292      2.295
REMARK  5 active torsions:
REMARK  status: ('A' for Active; 'I' for Inactive)
REMARK    1  A    between atoms: C3_3  and  C7_7 
REMARK    2  A    between atoms: C4_4  and  C8_8 
REMARK    3  A    between atoms: C7_7  and  C9_9 
REMARK    4  A    between atoms: C8_8  and  C10_10 
REMARK    5  A    between atoms: C9_9  and  C10_10 
ROOT
HETATM    1  C9  UNL     1     -33.146   7.521   5.186  1.00 20.00     0.004 C 
ENDROOT
BRANCH   1   2
HETATM    2  C7  UNL     1     -33.582   7.874   3.762  1.00 20.00     0.026 C 
BRANCH   2   3
HETATM    3  C3  UNL     1     -32.397   8.070   2.862  1.00 20.00    -0.031 C 
HETATM    4  C1  UNL     1     -32.480   8.558   1.616  1.00 20.00    -0.035 C 
HETATM    5  C5  UNL     1     -31.303   8.747   0.718  1.00 20.00     0.035 C 
ENDBRANCH   2   3
ENDBRANCH   1   2
BRANCH   1   6
HETATM    6  C10 UNL     1     -34.130   6.552   5.845  1.00 20.00     0.004 C 
BRANCH   6   7
HETATM    7  C8  UNL     1     -34.939   5.783   4.798  1.00 20.00     0.026 C 
BRANCH   7   8
HETATM    8  C4  UNL     1     -34.536   4.338   4.754  1.00 20.00    -0.031 C 
HETATM    9  C2  UNL     1     -33.750   3.812   3.802  1.00 20.00    -0.035 C 
HETATM   10  C6  UNL     1     -33.179   4.597   2.668  1.00 20.00     0.035 C 
ENDBRANCH   7   8
ENDBRANCH   6   7
ENDBRANCH   1   6
TORSDOF 5
ENDMDL
MODEL 5
REMARK VINA RESULT:      -5.4      1.048      5.422
REMARK  5 active torsions:
REMARK  status: ('A' for Active; 'I' for Inactive)
REMARK    1  A    between atoms: C3_3  and  C7_7 
REMARK    2  A    between atoms: C4_4  and  C8_8 
REMARK    3  A    between atoms: C7_7  and  C9_9 
REMARK    4  A    between atoms: C8_8  and  C10_10 
REMARK    5  A    between atoms: C9_9  and  C10_10 
ROOT
HETATM    1  C9  UNL     1     -32.157   8.283   4.285  1.00 20.00     0.004 C 
ENDROOT
BRANCH   1   2
HETATM    2  C7  UNL     1     -33.167   7.818   5.337  1.00 20.00     0.026 C 
BRANCH   2   3
HETATM    3  C3  UNL     1     -33.996   6.675   4.827  1.00 20.00    -0.031 C 
HETATM    4  C1  UNL     1     -34.216   5.548   5.520  1.00 20.00    -0.035 C 
HETATM    5  C5  UNL     1     -35.035   4.407   5.011  1.00 20.00     0.035 C 
ENDBRANCH   2   3
ENDBRANCH   1   2
BRANCH   1   6
HETATM    6  C10 UNL     1     -32.413   7.611   2.933  1.00 20.00     0.004 C 
BRANCH   6   7
HETATM    7  C8  UNL     1     -31.712   8.360   1.798  1.00 20.00     0.026 C 
BRANCH   7   8
HETATM    8  C4  UNL     1     -32.240   9.759   1.663  1.00 20.00    -0.031 C 
HETATM    9  C2  UNL     1     -32.893  10.208   0.581  1.00 20.00    -0.035 C 
HETATM   10  C6  UNL     1     -33.177   9.375  -0.624  1.00 20.00     0.035 C 
ENDBRANCH   7   8
ENDBRANCH   6   7
ENDBRANCH   1   6
TORSDOF 5
ENDMDL
MODEL 6
REMARK VINA RESULT:      -4.9      0.884      5.248
REMARK  5 active torsions:
REMARK  status: ('A' for Active; 'I' for Inactive)
REMARK    1  A    between atoms: C3_3  and  C7_7 
REMARK    2  A    between atoms: C4_4  and  C8_8 
REMARK    3  A    between atoms: C7_7  and  C9_9 
REMARK    4  A    between atoms: C8_8  and  C10_10 
REMARK    5  A    between atoms: C9_9  and  C10_10 
ROOT
HETATM    1  C9  UNL     1     -34.323   5.827   2.845  1.00 20.00     0.004 C 
ENDROOT
BRANCH   1   2
HETATM    2  C7  UNL     1     -34.344   4.899   4.061  1.00 20.00     0.026 C 
BRANCH   2   3
HETATM    3  C3  UNL     1     -34.367   5.681   5.342  1.00 20.00    -0.031 C 
HETATM    4  C1  UNL     1     -33.923   6.941   5.453  1.00 20.00    -0.035 C 
HETATM    5  C5  UNL     1     -33.939   7.718   6.729  1.00 20.00     0.035 C 
ENDBRANCH   2   3
ENDBRANCH   1   2
BRANCH   1   6
HETATM    6  C10 UNL     1     -32.919   6.379   2.590  1.00 20.00     0.004 C 
BRANCH   6   7
HETATM    7  C8  UNL     1     -32.934   7.904   2.470  1.00 20.00     0.026 C 
BRANCH   7   8
HETATM    8  C4  UNL     1     -31.709   8.406   1.763  1.00 20.00    -0.031 C 
HETATM    9  C2  UNL     1     -31.743   9.117   0.626  1.00 20.00    -0.035 C 
HETATM   10  C6  UNL     1     -33.002   9.497  -0.079  1.00 20.00     0.035 C 
ENDBRANCH   7   8
ENDBRANCH   6   7
ENDBRANCH   1   6
TORSDOF 5
ENDMDL
MODEL 7
REMARK VINA RESULT:      -4.5      1.081      2.377
REMARK  5 active torsions:
REMARK  status: ('A' for Active; 'I' for Inactive)
REMARK    1  A    between atoms: C3_3  and  C7_7 
REMARK    2  A    between atoms: C4_4  and  C8_8 
REMARK    3  A    between atoms: C7_7  and  C9_9 
REMARK    4  A    between atoms: C8_8  and  C10_10 
REMARK    5  A    between atoms: C9_9  and  C10_10 
ROOT
HETATM    1  C9  UNL     1     -34.358   5.358   3.126  1.00 20.00     0.004 C 
ENDROOT
BRANCH   1   2
HETATM    2  C7  UNL     1     -32.997   5.861   2.641  1.00 20.00     0.026 C 
BRANCH   2   3
HETATM    3  C3  UNL     1     -32.932   7.361   2.661  1.00 20.00    -0.031 C 
HETATM    4  C1  UNL     1     -32.491   8.101   1.634  1.00 20.00    -0.035 C 
HETATM    5  C5  UNL     1     -32.420   9.593   1.656  1.00 20.00     0.035 C 
ENDBRANCH   2   3
ENDBRANCH   1   2
BRANCH   1   6
HETATM    6  C10 UNL     1     -34.203   4.181   4.092  1.00 20.00     0.004 C 
BRANCH   6   7
HETATM    7  C8  UNL     1     -33.883   4.663   5.510  1.00 20.00     0.026 C 
BRANCH   7   8
HETATM    8  C4  UNL     1     -34.804   5.772   5.927  1.00 20.00    -0.031 C 
HETATM    9  C2  UNL     1     -34.415   7.046   6.080  1.00 20.00    -0.035 C 
HETATM   10  C6  UNL     1     -33.018   7.522   5.854  1.00 20.00     0.035 C 
ENDBRANCH   7   8
ENDBRANCH   6   7
ENDBRANCH   1   6
TORSDOF 5
ENDMDL
MODEL 8
REMARK VINA RESULT:      -4.4      1.148      4.807
REMARK  5 active torsions:
REMARK  status: ('A' for Active; 'I' for Inactive)
REMARK    1  A    between atoms: C3_3  and  C7_7 
REMARK    2  A    between atoms: C4_4  and  C8_8 
REMARK    3  A    between atoms: C7_7  and  C9_9 
REMARK    4  A    between atoms: C8_8  and  C10_10 
REMARK    5  A    between atoms: C9_9  and  C10_10 
ROOT
HETATM    1  C9  UNL     1     -34.030   7.246   5.586  1.00 20.00     0.004 C 
ENDROOT
BRANCH   1   2
HETATM    2  C7  UNL     1     -34.475   5.792   5.413  1.00 20.00     0.026 C 
BRANCH   2   3
HETATM    3  C3  UNL     1     -34.359   5.354   3.982  1.00 20.00    -0.031 C 
HETATM    4  C1  UNL     1     -33.345   4.614   3.509  1.00 20.00    -0.035 C 
HETATM    5  C5  UNL     1     -33.226   4.183   2.085  1.00 20.00     0.035 C 
ENDBRANCH   2   3
ENDBRANCH   1   2
BRANCH   1   6
HETATM    6  C10 UNL     1     -32.815   7.564   4.711  1.00 20.00     0.004 C 
BRANCH   6   7
HETATM    7  C8  UNL     1     -33.234   8.226   3.397  1.00 20.00     0.026 C 
BRANCH   7   8
HETATM    8  C4  UNL     1     -32.205   8.008   2.326  1.00 20.00    -0.031 C 
HETATM    9  C2  UNL     1     -31.983   8.866   1.319  1.00 20.00    -0.035 C 
HETATM   10  C6  UNL     1     -32.730  10.145   1.137  1.00 20.00     0.035 C 
ENDBRANCH   7   8
ENDBRANCH   6   7
ENDBRANCH   1   6
TORSDOF 5
ENDMDL
MODEL 9
REMARK VINA RESULT:      -4.2     10.591     11.530
REMARK  5 active torsions:
REMARK  status: ('A' for Active; 'I' for Inactive)
REMARK    1  A    between atoms: C3_3  and  C7_7 
REMARK    2  A    between atoms: C4_4  and  C8_8 
REMARK    3  A    between atoms: C7_7  and  C9_9 
REMARK    4  A    between atoms: C8_8  and  C10_10 
REMARK    5  A    between atoms: C9_9  and  C10_10 
ROOT
HETATM    1  C9  UNL     1     -35.381  16.034  -3.030  1.00 20.00     0.004 C 
ENDROOT
BRANCH   1   2
HETATM    2  C7  UNL     1     -35.264  16.790  -1.704  1.00 20.00     0.026 C 
BRANCH   2   3
HETATM    3  C3  UNL     1     -33.871  17.308  -1.494  1.00 20.00    -0.031 C 
HETATM    4  C1  UNL     1     -33.524  18.126  -0.490  1.00 20.00    -0.035 C 
HETATM    5  C5  UNL     1     -32.141  18.647  -0.283  1.00 20.00     0.035 C 
ENDBRANCH   2   3
ENDBRANCH   1   2
BRANCH   1   6
HETATM    6  C10 UNL     1     -34.002  15.762  -3.637  1.00 20.00     0.004 C 
BRANCH   6   7
HETATM    7  C8  UNL     1     -33.938  14.369  -4.268  1.00 20.00     0.026 C 
BRANCH   7   8
HETATM    8  C4  UNL     1     -35.306  13.877  -4.641  1.00 20.00    -0.031 C 
HETATM    9  C2  UNL     1     -35.661  13.533  -5.888  1.00 20.00    -0.035 C 
HETATM   10  C6  UNL     1     -34.741  13.596  -7.061  1.00 20.00     0.035 C 
ENDBRANCH   7   8
ENDBRANCH   6   7
ENDBRANCH   1   6
TORSDOF 5
ENDMDL
