MODEL 1
REMARK VINA RESULT:      -5.5      0.000      0.000
REMARK  1 active torsions:
REMARK  status: ('A' for Active; 'I' for Inactive)
REMARK    1  A    between atoms: C5_5  and  C6_6 
ROOT
HETATM    1  C1  UNL     1     -34.560   5.759   4.656  1.00 20.00     0.078 C 
HETATM    2  C2  UNL     1     -34.149   5.284   3.477  1.00 20.00    -0.018 C 
HETATM    3  C3  UNL     1     -33.893   6.922   5.271  1.00 20.00     0.283 C 
HETATM    4  C4  UNL     1     -33.067   5.951   2.696  1.00 20.00     0.061 C 
HETATM    5  C5  UNL     1     -33.038   7.429   3.059  1.00 20.00     0.149 C 
HETATM    6  O7  UNL     1     -34.111   7.227   6.438  1.00 20.00    -0.260 OA
HETATM    7  O8  UNL     1     -33.007   7.600   4.493  1.00 20.00    -0.311 OA
ENDROOT
BRANCH   5   8
HETATM    8  C6  UNL     1     -31.811   8.120   2.478  1.00 20.00     0.147 C 
HETATM    9 CL9  UNL     1     -32.290   9.246   1.194  1.00 20.00    -0.128 Cl
ENDBRANCH   5   8
TORSDOF 1
ENDMDL
MODEL 2
REMARK VINA RESULT:      -5.2      1.926      2.425
REMARK  1 active torsions:
REMARK  status: ('A' for Active; 'I' for Inactive)
REMARK    1  A    between atoms: C5_5  and  C6_6 
ROOT
HETATM    1  C1  UNL     1     -34.352   5.277   5.706  1.00 20.00     0.078 C 
HETATM    2  C2  UNL     1     -34.232   6.596   5.880  1.00 20.00    -0.018 C 
HETATM    3  C3  UNL     1     -34.218   4.682   4.362  1.00 20.00     0.283 C 
HETATM    4  C4  UNL     1     -33.878   7.508   4.755  1.00 20.00     0.061 C 
HETATM    5  C5  UNL     1     -33.081   6.726   3.720  1.00 20.00     0.149 C 
HETATM    6  O7  UNL     1     -34.541   3.518   4.156  1.00 20.00    -0.260 OA
HETATM    7  O8  UNL     1     -33.762   5.499   3.376  1.00 20.00    -0.311 OA
ENDROOT
BRANCH   5   8
HETATM    8  C6  UNL     1     -32.890   7.530   2.441  1.00 20.00     0.147 C 
HETATM    9 CL9  UNL     1     -31.525   8.649   2.617  1.00 20.00    -0.128 Cl
ENDBRANCH   5   8
TORSDOF 1
ENDMDL
MODEL 3
REMARK VINA RESULT:      -4.6      1.552      2.104
REMARK  1 active torsions:
REMARK  status: ('A' for Active; 'I' for Inactive)
REMARK    1  A    between atoms: C5_5  and  C6_6 
ROOT
HETATM    1  C1  UNL     1     -34.188   6.628   5.359  1.00 20.00     0.078 C 
HETATM    2  C2  UNL     1     -33.239   7.526   5.635  1.00 20.00    -0.018 C 
HETATM    3  C3  UNL     1     -34.556   6.329   3.962  1.00 20.00     0.283 C 
HETATM    4  C4  UNL     1     -32.457   8.198   4.557  1.00 20.00     0.061 C 
HETATM    5  C5  UNL     1     -32.419   7.288   3.337  1.00 20.00     0.149 C 
HETATM    6  O7  UNL     1     -35.564   5.681   3.703  1.00 20.00    -0.260 OA
HETATM    7  O8  UNL     1     -33.749   6.840   2.996  1.00 20.00    -0.311 OA
ENDROOT
BRANCH   5   8
HETATM    8  C6  UNL     1     -31.840   8.006   2.125  1.00 20.00     0.147 C 
HETATM    9 CL9  UNL     1     -32.820   9.430   1.729  1.00 20.00    -0.128 Cl
ENDBRANCH   5   8
TORSDOF 1
ENDMDL
MODEL 4
REMARK VINA RESULT:      -4.4      2.669      3.888
REMARK  1 active torsions:
REMARK  status: ('A' for Active; 'I' for Inactive)
REMARK    1  A    between atoms: C5_5  and  C6_6 
ROOT
HETATM    1  C1  UNL     1     -32.289   8.335   4.384  1.00 20.00     0.078 C 
HETATM    2  C2  UNL     1     -32.899   7.950   5.509  1.00 20.00    -0.018 C 
HETATM    3  C3  UNL     1     -32.484   7.583   3.130  1.00 20.00     0.283 C 
HETATM    4  C4  UNL     1     -33.860   6.809   5.530  1.00 20.00     0.061 C 
HETATM    5  C5  UNL     1     -34.484   6.666   4.149  1.00 20.00     0.149 C 
HETATM    6  O7  UNL     1     -31.767   7.788   2.157  1.00 20.00    -0.260 OA
HETATM    7  O8  UNL     1     -33.460   6.638   3.130  1.00 20.00    -0.311 OA
ENDROOT
BRANCH   5   8
HETATM    8  C6  UNL     1     -35.294   5.382   4.035  1.00 20.00     0.147 C 
HETATM    9 CL9  UNL     1     -34.273   3.976   4.394  1.00 20.00    -0.128 Cl
ENDBRANCH   5   8
TORSDOF 1
ENDMDL
MODEL 5
REMARK VINA RESULT:      -4.1      2.204      2.456
REMARK  1 active torsions:
REMARK  status: ('A' for Active; 'I' for Inactive)
REMARK    1  A    between atoms: C5_5  and  C6_6 
ROOT
HETATM    1  C1  UNL     1     -34.494   6.120   6.199  1.00 20.00     0.078 C 
HETATM    2  C2  UNL     1     -34.786   4.955   5.613  1.00 20.00    -0.018 C 
HETATM    3  C3  UNL     1     -33.697   7.138   5.488  1.00 20.00     0.283 C 
HETATM    4  C4  UNL     1     -34.398   4.667   4.202  1.00 20.00     0.061 C 
HETATM    5  C5  UNL     1     -34.294   5.982   3.442  1.00 20.00     0.149 C 
HETATM    6  O7  UNL     1     -33.239   8.106   6.085  1.00 20.00    -0.260 OA
HETATM    7  O8  UNL     1     -33.470   6.922   4.166  1.00 20.00    -0.311 OA
ENDROOT
BRANCH   5   8
HETATM    8  C6  UNL     1     -33.677   5.781   2.065  1.00 20.00     0.147 C 
HETATM    9 CL9  UNL     1     -32.720   4.288   2.031  1.00 20.00    -0.128 Cl
ENDBRANCH   5   8
TORSDOF 1
ENDMDL
MODEL 6
REMARK VINA RESULT:      -4.1      2.354      3.403
REMARK  1 active torsions:
REMARK  status: ('A' for Active; 'I' for Inactive)
REMARK    1  A    between atoms: C5_5  and  C6_6 
ROOT
HETATM    1  C1  UNL     1     -33.149   8.129   5.253  1.00 20.00     0.078 C 
HETATM    2  C2  UNL     1     -33.874   7.302   6.011  1.00 20.00    -0.018 C 
HETATM    3  C3  UNL     1     -32.546   7.656   3.992  1.00 20.00     0.283 C 
HETATM    4  C4  UNL     1     -34.176   5.906   5.583  1.00 20.00     0.061 C 
HETATM    5  C5  UNL     1     -34.153   5.841   4.062  1.00 20.00     0.149 C 
HETATM    6  O7  UNL     1     -31.706   8.330   3.406  1.00 20.00    -0.260 OA
HETATM    7  O8  UNL     1     -32.940   6.434   3.547  1.00 20.00    -0.311 OA
ENDROOT
BRANCH   5   8
HETATM    8  C6  UNL     1     -34.220   4.404   3.564  1.00 20.00     0.147 C 
HETATM    9 CL9  UNL     1     -32.965   4.115   2.345  1.00 20.00    -0.128 Cl
ENDBRANCH   5   8
TORSDOF 1
ENDMDL
MODEL 7
REMARK VINA RESULT:      -4.1     11.442     12.107
REMARK  1 active torsions:
REMARK  status: ('A' for Active; 'I' for Inactive)
REMARK    1  A    between atoms: C5_5  and  C6_6 
ROOT
HETATM    1  C1  UNL     1     -34.757  14.253  -6.567  1.00 20.00     0.078 C 
HETATM    2  C2  UNL     1     -33.831  15.212  -6.651  1.00 20.00    -0.018 C 
HETATM    3  C3  UNL     1     -35.231  13.782  -5.251  1.00 20.00     0.283 C 
HETATM    4  C4  UNL     1     -33.302  15.902  -5.440  1.00 20.00     0.061 C 
HETATM    5  C5  UNL     1     -34.359  15.856  -4.346  1.00 20.00     0.149 C 
HETATM    6  O7  UNL     1     -35.907  12.764  -5.155  1.00 20.00    -0.260 OA
HETATM    7  O8  UNL     1     -34.847  14.508  -4.168  1.00 20.00    -0.311 OA
ENDROOT
BRANCH   5   8
HETATM    8  C6  UNL     1     -33.801  16.332  -3.012  1.00 20.00     0.147 C 
HETATM    9 CL9  UNL     1     -35.119  16.610  -1.858  1.00 20.00    -0.128 Cl
ENDBRANCH   5   8
TORSDOF 1
ENDMDL
MODEL 8
REMARK VINA RESULT:      -4.0     11.368     11.862
REMARK  1 active torsions:
REMARK  status: ('A' for Active; 'I' for Inactive)
REMARK    1  A    between atoms: C5_5  and  C6_6 
ROOT
HETATM    1  C1  UNL     1     -34.098  14.294  -5.695  1.00 20.00     0.078 C 
HETATM    2  C2  UNL     1     -33.307  15.269  -5.240  1.00 20.00    -0.018 C 
HETATM    3  C3  UNL     1     -35.305  13.896  -4.945  1.00 20.00     0.283 C 
HETATM    4  C4  UNL     1     -33.647  16.050  -4.015  1.00 20.00     0.061 C 
HETATM    5  C5  UNL     1     -35.159  16.046  -3.834  1.00 20.00     0.149 C 
HETATM    6  O7  UNL     1     -35.910  12.868  -5.230  1.00 20.00    -0.260 OA
HETATM    7  O8  UNL     1     -35.677  14.700  -3.914  1.00 20.00    -0.311 OA
ENDROOT
BRANCH   5   8
HETATM    8  C6  UNL     1     -35.559  16.622  -2.482  1.00 20.00     0.147 C 
HETATM    9 CL9  UNL     1     -34.115  16.999  -1.523  1.00 20.00    -0.128 Cl
ENDBRANCH   5   8
TORSDOF 1
ENDMDL
MODEL 9
REMARK VINA RESULT:      -4.0     10.111     10.717
REMARK  1 active torsions:
REMARK  status: ('A' for Active; 'I' for Inactive)
REMARK    1  A    between atoms: C5_5  and  C6_6 
ROOT
HETATM    1  C1  UNL     1     -41.429   7.562  -0.079  1.00 20.00     0.078 C 
HETATM    2  C2  UNL     1     -40.785   6.395   0.011  1.00 20.00    -0.018 C 
HETATM    3  C3  UNL     1     -42.661   7.678  -0.884  1.00 20.00     0.283 C 
HETATM    4  C4  UNL     1     -41.318   5.152  -0.618  1.00 20.00     0.061 C 
HETATM    5  C5  UNL     1     -42.833   5.265  -0.722  1.00 20.00     0.149 C 
HETATM    6  O7  UNL     1     -43.133   8.777  -1.153  1.00 20.00    -0.260 OA
HETATM    7  O8  UNL     1     -43.208   6.519  -1.334  1.00 20.00    -0.311 OA
ENDROOT
BRANCH   5   8
HETATM    8  C6  UNL     1     -43.417   4.139  -1.564  1.00 20.00     0.147 C 
HETATM    9 CL9  UNL     1     -42.196   3.512  -2.686  1.00 20.00    -0.128 Cl
ENDBRANCH   5   8
TORSDOF 1
ENDMDL
