MODEL 1
REMARK VINA RESULT:      -7.4      0.000      0.000
REMARK  2 active torsions:
REMARK  status: ('A' for Active; 'I' for Inactive)
REMARK    1  A    between atoms: C1_1  and  C3_3 
REMARK    2  A    between atoms: C2_2  and  C4_4 
ROOT
HETATM    1  C4  UNL     1     -32.918   6.930   3.527  1.00 20.00     0.097 C 
HETATM    2  C5  UNL     1     -34.094   7.033   4.536  1.00 20.00     0.074 C 
HETATM    3  C6  UNL     1     -33.698   5.770   2.850  1.00 20.00     0.315 C 
HETATM    4  C7  UNL     1     -34.402   5.544   4.218  1.00 20.00     0.312 C 
HETATM    5  C8  UNL     1     -33.726   7.351   5.972  1.00 20.00     0.017 C 
HETATM    6  F10 UNL     1     -34.526   6.115   1.837  1.00 20.00    -0.199 F 
HETATM    7  F11 UNL     1     -32.944   4.740   2.407  1.00 20.00    -0.199 F 
HETATM    8  F12 UNL     1     -35.711   5.217   4.154  1.00 20.00    -0.199 F 
HETATM    9  F13 UNL     1     -33.808   4.631   5.022  1.00 20.00    -0.199 F 
ENDROOT
BRANCH   1  10
HETATM   10  C2  UNL     1     -32.691   8.121   2.687  1.00 20.00    -0.012 C 
HETATM   11  C1  UNL     1     -32.006   8.092   1.538  1.00 20.00     0.038 C 
BRANCH  11  12
HETATM   12  C3  UNL     1     -31.836   9.340   0.771  1.00 20.00     0.258 C 
HETATM   13  O9  UNL     1     -32.636  10.264   0.850  1.00 20.00    -0.302 OA
ENDBRANCH  11  12
ENDBRANCH   1  10
TORSDOF 2
ENDMDL
MODEL 2
REMARK VINA RESULT:      -5.2     10.935     11.699
REMARK  2 active torsions:
REMARK  status: ('A' for Active; 'I' for Inactive)
REMARK    1  A    between atoms: C1_1  and  C3_3 
REMARK    2  A    between atoms: C2_2  and  C4_4 
ROOT
HETATM    1  C4  UNL     1     -34.261  15.520  -3.403  1.00 20.00     0.097 C 
HETATM    2  C5  UNL     1     -35.365  15.762  -4.468  1.00 20.00     0.074 C 
HETATM    3  C6  UNL     1     -33.438  14.827  -4.523  1.00 20.00     0.315 C 
HETATM    4  C7  UNL     1     -34.788  14.542  -5.238  1.00 20.00     0.312 C 
HETATM    5  C8  UNL     1     -36.800  15.640  -3.993  1.00 20.00     0.017 C 
HETATM    6  F10 UNL     1     -32.585  15.616  -5.216  1.00 20.00    -0.199 F 
HETATM    7  F11 UNL     1     -32.739  13.734  -4.144  1.00 20.00    -0.199 F 
HETATM    8  F12 UNL     1     -34.771  14.655  -6.585  1.00 20.00    -0.199 F 
HETATM    9  F13 UNL     1     -35.345  13.343  -4.951  1.00 20.00    -0.199 F 
ENDROOT
BRANCH   1  10
HETATM   10  C2  UNL     1     -33.655  16.733  -2.825  1.00 20.00    -0.012 C 
HETATM   11  C1  UNL     1     -33.907  17.162  -1.583  1.00 20.00     0.038 C 
BRANCH  11  12
HETATM   12  C3  UNL     1     -33.248  18.390  -1.098  1.00 20.00     0.258 C 
HETATM   13  O9  UNL     1     -32.038  18.557  -1.195  1.00 20.00    -0.302 OA
ENDBRANCH  11  12
ENDBRANCH   1  10
TORSDOF 2
ENDMDL
MODEL 3
REMARK VINA RESULT:      -5.0      1.569      2.460
REMARK  2 active torsions:
REMARK  status: ('A' for Active; 'I' for Inactive)
REMARK    1  A    between atoms: C1_1  and  C3_3 
REMARK    2  A    between atoms: C2_2  and  C4_4 
ROOT
HETATM    1  C4  UNL     1     -34.062   6.019   2.656  1.00 20.00     0.097 C 
HETATM    2  C5  UNL     1     -33.049   5.050   3.323  1.00 20.00     0.074 C 
HETATM    3  C6  UNL     1     -34.816   6.046   4.014  1.00 20.00     0.315 C 
HETATM    4  C7  UNL     1     -34.184   4.656   4.308  1.00 20.00     0.312 C 
HETATM    5  C8  UNL     1     -32.503   3.938   2.448  1.00 20.00     0.017 C 
HETATM    6  F10 UNL     1     -34.460   7.025   4.878  1.00 20.00    -0.199 F 
HETATM    7  F11 UNL     1     -36.165   6.066   3.933  1.00 20.00    -0.199 F 
HETATM    8  F12 UNL     1     -33.803   4.447   5.587  1.00 20.00    -0.199 F 
HETATM    9  F13 UNL     1     -34.942   3.595   3.945  1.00 20.00    -0.199 F 
ENDROOT
BRANCH   1  10
HETATM   10  C2  UNL     1     -33.510   7.311   2.209  1.00 20.00    -0.012 C 
HETATM   11  C1  UNL     1     -32.278   7.732   2.519  1.00 20.00     0.038 C 
BRANCH  11  12
HETATM   12  C3  UNL     1     -31.820   9.043   2.020  1.00 20.00     0.258 C 
HETATM   13  O9  UNL     1     -31.845   9.329   0.829  1.00 20.00    -0.302 OA
ENDBRANCH  11  12
ENDBRANCH   1  10
TORSDOF 2
ENDMDL
MODEL 4
REMARK VINA RESULT:      -4.9     11.391     12.118
REMARK  2 active torsions:
REMARK  status: ('A' for Active; 'I' for Inactive)
REMARK    1  A    between atoms: C1_1  and  C3_3 
REMARK    2  A    between atoms: C2_2  and  C4_4 
ROOT
HETATM    1  C4  UNL     1     -35.232  16.707  -3.204  1.00 20.00     0.097 C 
HETATM    2  C5  UNL     1     -34.928  16.826  -1.686  1.00 20.00     0.074 C 
HETATM    3  C6  UNL     1     -33.707  16.878  -3.447  1.00 20.00     0.315 C 
HETATM    4  C7  UNL     1     -33.647  17.613  -2.078  1.00 20.00     0.312 C 
HETATM    5  C8  UNL     1     -35.948  17.576  -0.851  1.00 20.00     0.017 C 
HETATM    6  F10 UNL     1     -32.979  15.740  -3.511  1.00 20.00    -0.199 F 
HETATM    7  F11 UNL     1     -33.367  17.623  -4.522  1.00 20.00    -0.199 F 
HETATM    8  F12 UNL     1     -32.552  17.361  -1.328  1.00 20.00    -0.199 F 
HETATM    9  F13 UNL     1     -33.775  18.959  -2.146  1.00 20.00    -0.199 F 
ENDROOT
BRANCH   1  10
HETATM   10  C2  UNL     1     -35.806  15.422  -3.642  1.00 20.00    -0.012 C 
HETATM   11  C1  UNL     1     -35.950  15.078  -4.927  1.00 20.00     0.038 C 
BRANCH  11  12
HETATM   12  C3  UNL     1     -36.536  13.766  -5.260  1.00 20.00     0.258 C 
HETATM   13  O9  UNL     1     -35.884  12.731  -5.201  1.00 20.00    -0.302 OA
ENDBRANCH  11  12
ENDBRANCH   1  10
TORSDOF 2
ENDMDL
MODEL 5
REMARK VINA RESULT:      -4.9     10.640     12.004
REMARK  2 active torsions:
REMARK  status: ('A' for Active; 'I' for Inactive)
REMARK    1  A    between atoms: C1_1  and  C3_3 
REMARK    2  A    between atoms: C2_2  and  C4_4 
ROOT
HETATM    1  C4  UNL     1     -34.535  15.811  -3.979  1.00 20.00     0.097 C 
HETATM    2  C5  UNL     1     -34.478  16.179  -5.486  1.00 20.00     0.074 C 
HETATM    3  C6  UNL     1     -33.977  14.417  -4.375  1.00 20.00     0.315 C 
HETATM    4  C7  UNL     1     -34.580  14.658  -5.787  1.00 20.00     0.312 C 
HETATM    5  C8  UNL     1     -35.606  17.045  -6.013  1.00 20.00     0.017 C 
HETATM    6  F10 UNL     1     -32.631  14.281  -4.348  1.00 20.00    -0.199 F 
HETATM    7  F11 UNL     1     -34.490  13.368  -3.694  1.00 20.00    -0.199 F 
HETATM    8  F12 UNL     1     -33.835  14.215  -6.823  1.00 20.00    -0.199 F 
HETATM    9  F13 UNL     1     -35.830  14.171  -5.965  1.00 20.00    -0.199 F 
ENDROOT
BRANCH   1  10
HETATM   10  C2  UNL     1     -33.673  16.615  -3.093  1.00 20.00    -0.012 C 
HETATM   11  C1  UNL     1     -34.065  17.067  -1.896  1.00 20.00     0.038 C 
BRANCH  11  12
HETATM   12  C3  UNL     1     -33.124  17.864  -1.085  1.00 20.00     0.258 C 
HETATM   13  O9  UNL     1     -32.282  18.592  -1.597  1.00 20.00    -0.302 OA
ENDBRANCH  11  12
ENDBRANCH   1  10
TORSDOF 2
ENDMDL
MODEL 6
REMARK VINA RESULT:      -4.8     11.159     12.168
REMARK  2 active torsions:
REMARK  status: ('A' for Active; 'I' for Inactive)
REMARK    1  A    between atoms: C1_1  and  C3_3 
REMARK    2  A    between atoms: C2_2  and  C4_4 
ROOT
HETATM    1  C4  UNL     1     -34.098  16.720  -3.400  1.00 20.00     0.097 C 
HETATM    2  C5  UNL     1     -34.369  15.208  -3.627  1.00 20.00     0.074 C 
HETATM    3  C6  UNL     1     -35.636  16.927  -3.455  1.00 20.00     0.315 C 
HETATM    4  C7  UNL     1     -35.708  15.623  -4.297  1.00 20.00     0.312 C 
HETATM    5  C8  UNL     1     -33.378  14.469  -4.505  1.00 20.00     0.017 C 
HETATM    6  F10 UNL     1     -36.291  16.875  -2.272  1.00 20.00    -0.199 F 
HETATM    7  F11 UNL     1     -36.052  18.049  -4.085  1.00 20.00    -0.199 F 
HETATM    8  F12 UNL     1     -36.764  14.819  -4.042  1.00 20.00    -0.199 F 
HETATM    9  F13 UNL     1     -35.668  15.804  -5.638  1.00 20.00    -0.199 F 
ENDROOT
BRANCH   1  10
HETATM   10  C2  UNL     1     -33.454  17.068  -2.120  1.00 20.00    -0.012 C 
HETATM   11  C1  UNL     1     -32.961  18.282  -1.850  1.00 20.00     0.038 C 
BRANCH  11  12
HETATM   12  C3  UNL     1     -32.336  18.529  -0.537  1.00 20.00     0.258 C 
HETATM   13  O9  UNL     1     -31.150  18.300  -0.330  1.00 20.00    -0.302 OA
ENDBRANCH  11  12
ENDBRANCH   1  10
TORSDOF 2
ENDMDL
MODEL 7
REMARK VINA RESULT:      -4.7     10.705     11.707
REMARK  2 active torsions:
REMARK  status: ('A' for Active; 'I' for Inactive)
REMARK    1  A    between atoms: C1_1  and  C3_3 
REMARK    2  A    between atoms: C2_2  and  C4_4 
ROOT
HETATM    1  C4  UNL     1     -35.051  15.886  -4.052  1.00 20.00     0.097 C 
HETATM    2  C5  UNL     1     -34.488  14.439  -4.030  1.00 20.00     0.074 C 
HETATM    3  C6  UNL     1     -36.323  15.301  -4.723  1.00 20.00     0.315 C 
HETATM    4  C7  UNL     1     -35.432  14.131  -5.225  1.00 20.00     0.312 C 
HETATM    5  C8  UNL     1     -33.002  14.288  -4.290  1.00 20.00     0.017 C 
HETATM    6  F10 UNL     1     -37.325  14.933  -3.890  1.00 20.00    -0.199 F 
HETATM    7  F11 UNL     1     -36.878  16.065  -5.690  1.00 20.00    -0.199 F 
HETATM    8  F12 UNL     1     -36.010  12.910  -5.215  1.00 20.00    -0.199 F 
HETATM    9  F13 UNL     1     -34.902  14.305  -6.458  1.00 20.00    -0.199 F 
ENDROOT
BRANCH   1  10
HETATM   10  C2  UNL     1     -35.257  16.512  -2.733  1.00 20.00    -0.012 C 
HETATM   11  C1  UNL     1     -34.254  16.929  -1.952  1.00 20.00     0.038 C 
BRANCH  11  12
HETATM   12  C3  UNL     1     -34.567  17.544  -0.647  1.00 20.00     0.258 C 
HETATM   13  O9  UNL     1     -35.578  17.253  -0.019  1.00 20.00    -0.302 OA
ENDBRANCH  11  12
ENDBRANCH   1  10
TORSDOF 2
ENDMDL
MODEL 8
REMARK VINA RESULT:      -4.4     11.054     12.090
REMARK  2 active torsions:
REMARK  status: ('A' for Active; 'I' for Inactive)
REMARK    1  A    between atoms: C1_1  and  C3_3 
REMARK    2  A    between atoms: C2_2  and  C4_4 
ROOT
HETATM    1  C4  UNL     1     -35.382  15.660  -4.716  1.00 20.00     0.097 C 
HETATM    2  C5  UNL     1     -34.408  15.414  -3.532  1.00 20.00     0.074 C 
HETATM    3  C6  UNL     1     -34.658  14.501  -5.455  1.00 20.00     0.315 C 
HETATM    4  C7  UNL     1     -33.420  14.806  -4.566  1.00 20.00     0.312 C 
HETATM    5  C8  UNL     1     -33.927  16.644  -2.786  1.00 20.00     0.017 C 
HETATM    6  F10 UNL     1     -35.183  13.265  -5.291  1.00 20.00    -0.199 F 
HETATM    7  F11 UNL     1     -34.478  14.677  -6.782  1.00 20.00    -0.199 F 
HETATM    8  F12 UNL     1     -32.723  13.728  -4.145  1.00 20.00    -0.199 F 
HETATM    9  F13 UNL     1     -32.525  15.665  -5.107  1.00 20.00    -0.199 F 
ENDROOT
BRANCH   1  10
HETATM   10  C2  UNL     1     -36.810  15.437  -4.425  1.00 20.00    -0.012 C 
HETATM   11  C1  UNL     1     -37.750  15.354  -5.374  1.00 20.00     0.038 C 
BRANCH  11  12
HETATM   12  C3  UNL     1     -39.153  15.128  -4.977  1.00 20.00     0.258 C 
HETATM   13  O9  UNL     1     -39.656  15.698  -4.016  1.00 20.00    -0.302 OA
ENDBRANCH  11  12
ENDBRANCH   1  10
TORSDOF 2
ENDMDL
