MODEL 1
REMARK VINA RESULT:      -5.8      0.000      0.000
REMARK  1 active torsions:
REMARK  status: ('A' for Active; 'I' for Inactive)
REMARK    1  A    between atoms: N9_9  and  O10_10 
ROOT
HETATM    1  C1  UNL     1     -32.530   7.587   3.514  1.00 20.00     0.044 C 
HETATM    2  C2  UNL     1     -32.621   6.967   2.132  1.00 20.00     0.058 C 
HETATM    3  C3  UNL     1     -33.888   6.090   2.258  1.00 20.00     0.011 C 
HETATM    4  C4  UNL     1     -34.742   5.737   5.957  1.00 20.00     0.001 C 
HETATM    5  C5  UNL     1     -33.624   6.803   5.835  1.00 20.00     0.011 C 
HETATM    6  C6  UNL     1     -35.103   5.304   4.515  1.00 20.00     0.005 C 
HETATM    7  C7  UNL     1     -33.674   7.165   4.376  1.00 20.00     0.040 C 
HETATM    8  C8  UNL     1     -33.905   5.792   3.743  1.00 20.00    -0.004 C 
HETATM    9  N9  UNL     1     -31.595   8.399   3.868  1.00 20.00    -0.145 NA
ENDROOT
BRANCH   9  10
HETATM   10  O10 UNL     1     -31.814   8.775   5.196  1.00 20.00    -0.266 OA
HETATM   11  H23 UNL     1     -31.173   8.216   5.666  1.00 20.00     0.247 HD
ENDBRANCH   9  10
TORSDOF 1
ENDMDL
MODEL 2
REMARK VINA RESULT:      -5.6      2.550      3.923
REMARK  1 active torsions:
REMARK  status: ('A' for Active; 'I' for Inactive)
REMARK    1  A    between atoms: N9_9  and  O10_10 
ROOT
HETATM    1  C1  UNL     1     -34.310   5.944   5.313  1.00 20.00     0.044 C 
HETATM    2  C2  UNL     1     -33.909   7.015   6.312  1.00 20.00     0.058 C 
HETATM    3  C3  UNL     1     -33.398   8.141   5.385  1.00 20.00     0.011 C 
HETATM    4  C4  UNL     1     -32.843   6.679   1.907  1.00 20.00     0.001 C 
HETATM    5  C5  UNL     1     -33.574   5.607   2.755  1.00 20.00     0.011 C 
HETATM    6  C6  UNL     1     -32.701   7.933   2.804  1.00 20.00     0.005 C 
HETATM    7  C7  UNL     1     -34.110   6.410   3.908  1.00 20.00     0.040 C 
HETATM    8  C8  UNL     1     -32.937   7.354   4.175  1.00 20.00    -0.004 C 
HETATM    9  N9  UNL     1     -34.791   4.799   5.653  1.00 20.00    -0.145 NA
ENDROOT
BRANCH   9  10
HETATM   10  O10 UNL     1     -35.048   4.064   4.493  1.00 20.00    -0.266 OA
HETATM   11  H23 UNL     1     -34.436   4.477   3.860  1.00 20.00     0.247 HD
ENDBRANCH   9  10
TORSDOF 1
ENDMDL
MODEL 3
REMARK VINA RESULT:      -4.9     11.744     12.865
REMARK  1 active torsions:
REMARK  status: ('A' for Active; 'I' for Inactive)
REMARK    1  A    between atoms: N9_9  and  O10_10 
ROOT
HETATM    1  C1  UNL     1     -34.778  13.875  -6.278  1.00 20.00     0.044 C 
HETATM    2  C2  UNL     1     -34.253  14.483  -7.567  1.00 20.00     0.058 C 
HETATM    3  C3  UNL     1     -33.383  15.648  -7.039  1.00 20.00     0.011 C 
HETATM    4  C4  UNL     1     -34.263  16.241  -3.377  1.00 20.00     0.001 C 
HETATM    5  C5  UNL     1     -34.962  14.931  -3.819  1.00 20.00     0.011 C 
HETATM    6  C6  UNL     1     -33.435  16.734  -4.589  1.00 20.00     0.005 C 
HETATM    7  C7  UNL     1     -34.225  14.577  -5.082  1.00 20.00     0.040 C 
HETATM    8  C8  UNL     1     -34.058  15.957  -5.719  1.00 20.00    -0.004 C 
HETATM    9  N9  UNL     1     -35.571  12.861  -6.243  1.00 20.00    -0.145 NA
ENDROOT
BRANCH   9  10
HETATM   10  O10 UNL     1     -35.852  12.566  -4.907  1.00 20.00    -0.266 OA
HETATM   11  H23 UNL     1     -35.214  11.855  -4.724  1.00 20.00     0.247 HD
ENDBRANCH   9  10
TORSDOF 1
ENDMDL
MODEL 4
REMARK VINA RESULT:      -4.8      1.592      3.101
REMARK  1 active torsions:
REMARK  status: ('A' for Active; 'I' for Inactive)
REMARK    1  A    between atoms: N9_9  and  O10_10 
ROOT
HETATM    1  C1  UNL     1     -33.923   6.656   4.697  1.00 20.00     0.044 C 
HETATM    2  C2  UNL     1     -34.886   5.857   3.838  1.00 20.00     0.058 C 
HETATM    3  C3  UNL     1     -34.208   5.924   2.450  1.00 20.00     0.011 C 
HETATM    4  C4  UNL     1     -31.559   8.666   2.538  1.00 20.00     0.001 C 
HETATM    5  C5  UNL     1     -32.059   8.452   3.989  1.00 20.00     0.011 C 
HETATM    6  C6  UNL     1     -32.294   7.626   1.657  1.00 20.00     0.005 C 
HETATM    7  C7  UNL     1     -32.741   7.113   3.906  1.00 20.00     0.040 C 
HETATM    8  C8  UNL     1     -33.439   7.225   2.550  1.00 20.00    -0.004 C 
HETATM    9  N9  UNL     1     -34.103   6.872   5.954  1.00 20.00    -0.145 NA
ENDROOT
BRANCH   9  10
HETATM   10  O10 UNL     1     -33.034   7.635   6.429  1.00 20.00    -0.266 OA
HETATM   11  H23 UNL     1     -32.865   7.220   7.292  1.00 20.00     0.247 HD
ENDBRANCH   9  10
TORSDOF 1
ENDMDL
MODEL 5
REMARK VINA RESULT:      -4.7      1.621      2.584
REMARK  1 active torsions:
REMARK  status: ('A' for Active; 'I' for Inactive)
REMARK    1  A    between atoms: N9_9  and  O10_10 
ROOT
HETATM    1  C1  UNL     1     -33.030   7.551   3.931  1.00 20.00     0.044 C 
HETATM    2  C2  UNL     1     -33.383   8.305   5.200  1.00 20.00     0.058 C 
HETATM    3  C3  UNL     1     -33.832   7.161   6.138  1.00 20.00     0.011 C 
HETATM    4  C4  UNL     1     -34.437   4.044   4.027  1.00 20.00     0.001 C 
HETATM    5  C5  UNL     1     -33.766   5.102   3.116  1.00 20.00     0.011 C 
HETATM    6  C6  UNL     1     -34.522   4.666   5.443  1.00 20.00     0.005 C 
HETATM    7  C7  UNL     1     -33.197   6.078   4.111  1.00 20.00     0.040 C 
HETATM    8  C8  UNL     1     -34.323   6.129   5.144  1.00 20.00    -0.004 C 
HETATM    9  N9  UNL     1     -32.608   8.124   2.858  1.00 20.00    -0.145 NA
ENDROOT
BRANCH   9  10
HETATM   10  O10 UNL     1     -32.381   7.141   1.892  1.00 20.00    -0.266 OA
HETATM   11  H23 UNL     1     -31.420   7.212   1.762  1.00 20.00     0.247 HD
ENDBRANCH   9  10
TORSDOF 1
ENDMDL
MODEL 6
REMARK VINA RESULT:      -4.5     11.923     12.134
REMARK  1 active torsions:
REMARK  status: ('A' for Active; 'I' for Inactive)
REMARK    1  A    between atoms: N9_9  and  O10_10 
ROOT
HETATM    1  C1  UNL     1     -32.330  18.300  -0.396  1.00 20.00     0.044 C 
HETATM    2  C2  UNL     1     -33.043  17.807  -1.642  1.00 20.00     0.058 C 
HETATM    3  C3  UNL     1     -34.528  18.006  -1.261  1.00 20.00     0.011 C 
HETATM    4  C4  UNL     1     -34.738  18.557   2.506  1.00 20.00     0.001 C 
HETATM    5  C5  UNL     1     -33.240  18.598   2.110  1.00 20.00     0.011 C 
HETATM    6  C6  UNL     1     -35.540  18.379   1.193  1.00 20.00     0.005 C 
HETATM    7  C7  UNL     1     -33.301  18.804   0.621  1.00 20.00     0.040 C 
HETATM    8  C8  UNL     1     -34.471  17.894   0.248  1.00 20.00    -0.004 C 
HETATM    9  N9  UNL     1     -31.049  18.306  -0.266  1.00 20.00    -0.145 NA
ENDROOT
BRANCH   9  10
HETATM   10  O10 UNL     1     -30.734  18.820   0.994  1.00 20.00    -0.266 OA
HETATM   11  H23 UNL     1     -30.050  19.474   0.774  1.00 20.00     0.247 HD
ENDBRANCH   9  10
TORSDOF 1
ENDMDL
MODEL 7
REMARK VINA RESULT:      -4.5      1.761      2.338
REMARK  1 active torsions:
REMARK  status: ('A' for Active; 'I' for Inactive)
REMARK    1  A    between atoms: N9_9  and  O10_10 
ROOT
HETATM    1  C1  UNL     1     -33.354   7.331   4.752  1.00 20.00     0.044 C 
HETATM    2  C2  UNL     1     -32.441   8.017   3.751  1.00 20.00     0.058 C 
HETATM    3  C3  UNL     1     -32.546   7.078   2.527  1.00 20.00     0.011 C 
HETATM    4  C4  UNL     1     -34.108   3.790   3.665  1.00 20.00     0.001 C 
HETATM    5  C5  UNL     1     -34.228   4.796   4.837  1.00 20.00     0.011 C 
HETATM    6  C6  UNL     1     -33.463   4.559   2.485  1.00 20.00     0.005 C 
HETATM    7  C7  UNL     1     -33.995   6.119   4.160  1.00 20.00     0.040 C 
HETATM    8  C8  UNL     1     -32.873   5.754   3.188  1.00 20.00    -0.004 C 
HETATM    9  N9  UNL     1     -33.563   7.774   5.943  1.00 20.00    -0.145 NA
ENDROOT
BRANCH   9  10
HETATM   10  O10 UNL     1     -34.448   6.908   6.588  1.00 20.00    -0.266 OA
HETATM   11  H23 UNL     1     -35.118   7.527   6.925  1.00 20.00     0.247 HD
ENDBRANCH   9  10
TORSDOF 1
ENDMDL
MODEL 8
REMARK VINA RESULT:      -4.5     12.074     12.446
REMARK  1 active torsions:
REMARK  status: ('A' for Active; 'I' for Inactive)
REMARK    1  A    between atoms: N9_9  and  O10_10 
ROOT
HETATM    1  C1  UNL     1     -35.777  14.062  -5.496  1.00 20.00     0.044 C 
HETATM    2  C2  UNL     1     -37.258  14.176  -5.184  1.00 20.00     0.058 C 
HETATM    3  C3  UNL     1     -37.300  15.434  -4.286  1.00 20.00     0.011 C 
HETATM    4  C4  UNL     1     -33.746  16.211  -3.141  1.00 20.00     0.001 C 
HETATM    5  C5  UNL     1     -33.658  15.103  -4.221  1.00 20.00     0.011 C 
HETATM    6  C6  UNL     1     -35.241  16.597  -3.022  1.00 20.00     0.005 C 
HETATM    7  C7  UNL     1     -35.005  15.186  -4.886  1.00 20.00     0.040 C 
HETATM    8  C8  UNL     1     -35.913  15.418  -3.677  1.00 20.00    -0.004 C 
HETATM    9  N9  UNL     1     -35.274  13.127  -6.225  1.00 20.00    -0.145 NA
ENDROOT
BRANCH   9  10
HETATM   10  O10 UNL     1     -33.894  13.322  -6.306  1.00 20.00    -0.266 OA
HETATM   11  H23 UNL     1     -33.790  13.604  -7.231  1.00 20.00     0.247 HD
ENDBRANCH   9  10
TORSDOF 1
ENDMDL
MODEL 9
REMARK VINA RESULT:      -4.4     12.064     12.536
REMARK  1 active torsions:
REMARK  status: ('A' for Active; 'I' for Inactive)
REMARK    1  A    between atoms: N9_9  and  O10_10 
ROOT
HETATM    1  C1  UNL     1     -36.567  14.117  -5.367  1.00 20.00     0.044 C 
HETATM    2  C2  UNL     1     -35.996  13.563  -6.661  1.00 20.00     0.058 C 
HETATM    3  C3  UNL     1     -34.476  13.733  -6.437  1.00 20.00     0.011 C 
HETATM    4  C4  UNL     1     -33.950  16.095  -3.491  1.00 20.00     0.001 C 
HETATM    5  C5  UNL     1     -35.460  15.751  -3.551  1.00 20.00     0.011 C 
HETATM    6  C6  UNL     1     -33.264  15.280  -4.614  1.00 20.00     0.005 C 
HETATM    7  C7  UNL     1     -35.482  14.528  -4.428  1.00 20.00     0.040 C 
HETATM    8  C8  UNL     1     -34.439  14.905  -5.479  1.00 20.00    -0.004 C 
HETATM    9  N9  UNL     1     -37.829  14.182  -5.118  1.00 20.00    -0.145 NA
ENDROOT
BRANCH   9  10
HETATM   10  O10 UNL     1     -38.002  14.739  -3.849  1.00 20.00    -0.266 OA
HETATM   11  H23 UNL     1     -37.179  14.473  -3.405  1.00 20.00     0.247 HD
ENDBRANCH   9  10
TORSDOF 1
ENDMDL
