MODEL 1
REMARK VINA RESULT:      -4.9      0.000      0.000
REMARK  0 active torsions:
REMARK  status: ('A' for Active; 'I' for Inactive)
ROOT
HETATM    1  C1  UNL     1     -34.046   6.794   5.382  1.00 20.00     0.135 C 
HETATM    2  C2  UNL     1     -32.865   7.326   4.601  1.00 20.00     0.110 C 
HETATM    3  C3  UNL     1     -35.064   6.012   3.260  1.00 20.00     0.179 C 
HETATM    4  C4  UNL     1     -34.838   5.673   4.732  1.00 20.00     0.075 C 
HETATM    5  C5  UNL     1     -33.262   7.538   3.143  1.00 20.00     0.124 C 
HETATM    6  C6  UNL     1     -34.092   4.356   4.911  1.00 20.00     0.020 C 
HETATM    7  C7  UNL     1     -32.048   7.891   2.294  1.00 20.00     0.040 C 
HETATM    8  O8  UNL     1     -34.288   7.176   6.526  1.00 20.00    -0.297 OA
HETATM    9  O9  UNL     1     -33.836   6.340   2.607  1.00 20.00    -0.385 OA
ENDROOT
TORSDOF 0
ENDMDL
MODEL 2
REMARK VINA RESULT:      -4.1     11.556     12.921
REMARK  0 active torsions:
REMARK  status: ('A' for Active; 'I' for Inactive)
ROOT
HETATM    1  C1  UNL     1     -35.395  13.795  -5.271  1.00 20.00     0.135 C 
HETATM    2  C2  UNL     1     -34.537  14.326  -4.143  1.00 20.00     0.110 C 
HETATM    3  C3  UNL     1     -35.654  16.108  -6.128  1.00 20.00     0.179 C 
HETATM    4  C4  UNL     1     -35.465  14.645  -6.527  1.00 20.00     0.075 C 
HETATM    5  C5  UNL     1     -34.814  15.812  -3.938  1.00 20.00     0.124 C 
HETATM    6  C6  UNL     1     -34.201  14.433  -7.353  1.00 20.00     0.020 C 
HETATM    7  C7  UNL     1     -33.832  16.416  -2.943  1.00 20.00     0.040 C 
HETATM    8  O8  UNL     1     -35.923  12.685  -5.212  1.00 20.00    -0.297 OA
HETATM    9  O9  UNL     1     -34.670  16.519  -5.175  1.00 20.00    -0.385 OA
ENDROOT
TORSDOF 0
ENDMDL
MODEL 3
REMARK VINA RESULT:      -3.9     11.811     12.618
REMARK  0 active torsions:
REMARK  status: ('A' for Active; 'I' for Inactive)
ROOT
HETATM    1  C1  UNL     1     -35.838  13.790  -5.007  1.00 20.00     0.135 C 
HETATM    2  C2  UNL     1     -34.594  14.515  -4.542  1.00 20.00     0.110 C 
HETATM    3  C3  UNL     1     -37.218  15.667  -4.158  1.00 20.00     0.179 C 
HETATM    4  C4  UNL     1     -37.059  14.648  -5.285  1.00 20.00     0.075 C 
HETATM    5  C5  UNL     1     -34.960  15.536  -3.469  1.00 20.00     0.124 C 
HETATM    6  C6  UNL     1     -36.908  15.317  -6.647  1.00 20.00     0.020 C 
HETATM    7  C7  UNL     1     -33.765  16.411  -3.120  1.00 20.00     0.040 C 
HETATM    8  O8  UNL     1     -35.830  12.583  -5.245  1.00 20.00    -0.297 OA
HETATM    9  O9  UNL     1     -36.007  16.394  -3.937  1.00 20.00    -0.385 OA
ENDROOT
TORSDOF 0
ENDMDL
MODEL 4
REMARK VINA RESULT:      -3.9     11.659     13.077
REMARK  0 active torsions:
REMARK  status: ('A' for Active; 'I' for Inactive)
ROOT
HETATM    1  C1  UNL     1     -35.102  13.958  -5.337  1.00 20.00     0.135 C 
HETATM    2  C2  UNL     1     -35.247  14.897  -6.514  1.00 20.00     0.110 C 
HETATM    3  C3  UNL     1     -33.002  15.115  -4.705  1.00 20.00     0.179 C 
HETATM    4  C4  UNL     1     -34.273  14.459  -4.168  1.00 20.00     0.075 C 
HETATM    5  C5  UNL     1     -33.892  15.506  -6.860  1.00 20.00     0.124 C 
HETATM    6  C6  UNL     1     -35.108  15.422  -3.331  1.00 20.00     0.020 C 
HETATM    7  C7  UNL     1     -34.037  16.596  -7.914  1.00 20.00     0.040 C 
HETATM    8  O8  UNL     1     -35.709  12.889  -5.286  1.00 20.00    -0.297 OA
HETATM    9  O9  UNL     1     -33.303  16.099  -5.697  1.00 20.00    -0.385 OA
ENDROOT
TORSDOF 0
ENDMDL
MODEL 5
REMARK VINA RESULT:      -3.9      1.492      2.575
REMARK  0 active torsions:
REMARK  status: ('A' for Active; 'I' for Inactive)
ROOT
HETATM    1  C1  UNL     1     -33.262   5.420   2.991  1.00 20.00     0.135 C 
HETATM    2  C2  UNL     1     -32.891   6.555   2.062  1.00 20.00     0.110 C 
HETATM    3  C3  UNL     1     -33.539   7.056   4.834  1.00 20.00     0.179 C 
HETATM    4  C4  UNL     1     -34.103   5.785   4.202  1.00 20.00     0.075 C 
HETATM    5  C5  UNL     1     -32.418   7.756   2.874  1.00 20.00     0.124 C 
HETATM    6  C6  UNL     1     -35.558   5.949   3.778  1.00 20.00     0.020 C 
HETATM    7  C7  UNL     1     -32.219   8.973   1.981  1.00 20.00     0.040 C 
HETATM    8  O8  UNL     1     -32.986   4.251   2.725  1.00 20.00    -0.297 OA
HETATM    9  O9  UNL     1     -33.392   8.098   3.866  1.00 20.00    -0.385 OA
ENDROOT
TORSDOF 0
ENDMDL
MODEL 6
REMARK VINA RESULT:      -3.8     11.505     12.727
REMARK  0 active torsions:
REMARK  status: ('A' for Active; 'I' for Inactive)
ROOT
HETATM    1  C1  UNL     1     -33.637  14.443  -4.393  1.00 20.00     0.135 C 
HETATM    2  C2  UNL     1     -35.056  13.927  -4.475  1.00 20.00     0.110 C 
HETATM    3  C3  UNL     1     -34.378  16.570  -5.431  1.00 20.00     0.179 C 
HETATM    4  C4  UNL     1     -33.465  15.952  -4.373  1.00 20.00     0.075 C 
HETATM    5  C5  UNL     1     -35.831  14.707  -5.533  1.00 20.00     0.124 C 
HETATM    6  C6  UNL     1     -33.767  16.478  -2.975  1.00 20.00     0.020 C 
HETATM    7  C7  UNL     1     -37.309  14.341  -5.506  1.00 20.00     0.040 C 
HETATM    8  O8  UNL     1     -32.681  13.683  -4.244  1.00 20.00    -0.297 OA
HETATM    9  O9  UNL     1     -35.725  16.114  -5.286  1.00 20.00    -0.385 OA
ENDROOT
TORSDOF 0
ENDMDL
MODEL 7
REMARK VINA RESULT:      -3.7     11.741     13.078
REMARK  0 active torsions:
REMARK  status: ('A' for Active; 'I' for Inactive)
ROOT
HETATM    1  C1  UNL     1     -35.554  13.886  -5.149  1.00 20.00     0.135 C 
HETATM    2  C2  UNL     1     -36.449  14.927  -4.516  1.00 20.00     0.110 C 
HETATM    3  C3  UNL     1     -34.323  15.693  -6.319  1.00 20.00     0.179 C 
HETATM    4  C4  UNL     1     -34.180  14.355  -5.596  1.00 20.00     0.075 C 
HETATM    5  C5  UNL     1     -36.410  16.213  -5.336  1.00 20.00     0.124 C 
HETATM    6  C6  UNL     1     -33.259  14.450  -4.386  1.00 20.00     0.020 C 
HETATM    7  C7  UNL     1     -37.148  17.337  -4.623  1.00 20.00     0.040 C 
HETATM    8  O8  UNL     1     -35.881  12.701  -5.204  1.00 20.00    -0.297 OA
HETATM    9  O9  UNL     1     -35.055  16.635  -5.531  1.00 20.00    -0.385 OA
ENDROOT
TORSDOF 0
ENDMDL
MODEL 8
REMARK VINA RESULT:      -3.7     12.038     12.975
REMARK  0 active torsions:
REMARK  status: ('A' for Active; 'I' for Inactive)
ROOT
HETATM    1  C1  UNL     1     -36.986  14.279  -5.234  1.00 20.00     0.135 C 
HETATM    2  C2  UNL     1     -36.378  14.190  -6.616  1.00 20.00     0.110 C 
HETATM    3  C3  UNL     1     -34.721  14.644  -4.290  1.00 20.00     0.179 C 
HETATM    4  C4  UNL     1     -36.191  15.049  -4.193  1.00 20.00     0.075 C 
HETATM    5  C5  UNL     1     -34.896  13.846  -6.509  1.00 20.00     0.124 C 
HETATM    6  C6  UNL     1     -36.391  16.545  -4.407  1.00 20.00     0.020 C 
HETATM    7  C7  UNL     1     -34.216  13.936  -7.868  1.00 20.00     0.040 C 
HETATM    8  O8  UNL     1     -38.110  13.842  -4.994  1.00 20.00    -0.297 OA
HETATM    9  O9  UNL     1     -34.236  14.764  -5.629  1.00 20.00    -0.385 OA
ENDROOT
TORSDOF 0
ENDMDL
MODEL 9
REMARK VINA RESULT:      -3.6      1.727      2.713
REMARK  0 active torsions:
REMARK  status: ('A' for Active; 'I' for Inactive)
ROOT
HETATM    1  C1  UNL     1     -33.348   7.477   3.319  1.00 20.00     0.135 C 
HETATM    2  C2  UNL     1     -32.549   6.291   2.826  1.00 20.00     0.110 C 
HETATM    3  C3  UNL     1     -35.057   5.920   4.216  1.00 20.00     0.179 C 
HETATM    4  C4  UNL     1     -34.298   7.220   4.475  1.00 20.00     0.075 C 
HETATM    5  C5  UNL     1     -33.459   5.073   2.694  1.00 20.00     0.124 C 
HETATM    6  C6  UNL     1     -33.509   7.176   5.778  1.00 20.00     0.020 C 
HETATM    7  C7  UNL     1     -32.650   3.820   2.384  1.00 20.00     0.040 C 
HETATM    8  O8  UNL     1     -33.162   8.609   2.876  1.00 20.00    -0.297 OA
HETATM    9  O9  UNL     1     -34.163   4.845   3.920  1.00 20.00    -0.385 OA
ENDROOT
TORSDOF 0
ENDMDL
