MODEL 1
REMARK VINA RESULT:      -6.3      0.000      0.000
REMARK  0 active torsions:
REMARK  status: ('A' for Active; 'I' for Inactive)
ROOT
HETATM    1  C1  UNL     1     -32.509   7.928   2.425  1.00 20.00     0.064 C 
HETATM    2  C2  UNL     1     -33.927   6.713   5.742  1.00 20.00     0.012 C 
HETATM    3  C3  UNL     1     -34.519   5.568   5.377  1.00 20.00     0.090 C 
HETATM    4  C4  UNL     1     -33.205   7.607   4.777  1.00 20.00     0.049 C 
HETATM    5  C5  UNL     1     -34.497   5.045   3.974  1.00 20.00     0.071 C 
HETATM    6  C6  UNL     1     -33.461   5.744   3.090  1.00 20.00     0.026 C 
HETATM    7  C7  UNL     1     -33.485   7.263   3.304  1.00 20.00     0.096 C 
HETATM    8  N8  UNL     1     -31.739   8.452   1.733  1.00 20.00    -0.197 NA
HETATM    9  F9  UNL     1     -35.146   4.837   6.326  1.00 20.00    -0.211 F 
ENDROOT
TORSDOF 0
ENDMDL
MODEL 2
REMARK VINA RESULT:      -6.2      0.366      1.713
REMARK  0 active torsions:
REMARK  status: ('A' for Active; 'I' for Inactive)
ROOT
HETATM    1  C1  UNL     1     -32.406   7.957   2.351  1.00 20.00     0.064 C 
HETATM    2  C2  UNL     1     -34.497   5.218   3.969  1.00 20.00     0.012 C 
HETATM    3  C3  UNL     1     -34.499   5.605   5.251  1.00 20.00     0.090 C 
HETATM    4  C4  UNL     1     -33.787   5.976   2.885  1.00 20.00     0.049 C 
HETATM    5  C5  UNL     1     -33.819   6.849   5.734  1.00 20.00     0.071 C 
HETATM    6  C6  UNL     1     -33.430   7.798   4.597  1.00 20.00     0.026 C 
HETATM    7  C7  UNL     1     -32.807   7.031   3.424  1.00 20.00     0.096 C 
HETATM    8  N8  UNL     1     -32.090   8.686   1.506  1.00 20.00    -0.197 NA
HETATM    9  F9  UNL     1     -35.169   4.849   6.150  1.00 20.00    -0.211 F 
ENDROOT
TORSDOF 0
ENDMDL
MODEL 3
REMARK VINA RESULT:      -4.3      3.296      4.442
REMARK  0 active torsions:
REMARK  status: ('A' for Active; 'I' for Inactive)
ROOT
HETATM    1  C1  UNL     1     -34.406   5.943   5.161  1.00 20.00     0.064 C 
HETATM    2  C2  UNL     1     -32.828   6.965   1.851  1.00 20.00     0.012 C 
HETATM    3  C3  UNL     1     -32.139   8.056   2.208  1.00 20.00     0.090 C 
HETATM    4  C4  UNL     1     -33.655   6.164   2.815  1.00 20.00     0.049 C 
HETATM    5  C5  UNL     1     -32.095   8.575   3.612  1.00 20.00     0.071 C 
HETATM    6  C6  UNL     1     -32.613   7.566   4.640  1.00 20.00     0.026 C 
HETATM    7  C7  UNL     1     -33.898   6.887   4.151  1.00 20.00     0.096 C 
HETATM    8  N8  UNL     1     -34.805   5.200   5.957  1.00 20.00    -0.197 NA
HETATM    9  F9  UNL     1     -31.428   8.707   1.260  1.00 20.00    -0.211 F 
ENDROOT
TORSDOF 0
ENDMDL
MODEL 4
REMARK VINA RESULT:      -4.1     12.070     12.503
REMARK  0 active torsions:
REMARK  status: ('A' for Active; 'I' for Inactive)
ROOT
HETATM    1  C1  UNL     1     -33.528  16.534  -4.078  1.00 20.00     0.064 C 
HETATM    2  C2  UNL     1     -35.419  17.103  -0.824  1.00 20.00     0.012 C 
HETATM    3  C3  UNL     1     -34.536  17.828  -0.124  1.00 20.00     0.090 C 
HETATM    4  C4  UNL     1     -35.151  16.602  -2.213  1.00 20.00     0.049 C 
HETATM    5  C5  UNL     1     -33.202  18.239  -0.665  1.00 20.00     0.071 C 
HETATM    6  C6  UNL     1     -33.087  18.058  -2.181  1.00 20.00     0.026 C 
HETATM    7  C7  UNL     1     -33.673  16.712  -2.624  1.00 20.00     0.096 C 
HETATM    8  N8  UNL     1     -33.414  16.394  -5.224  1.00 20.00    -0.197 NA
HETATM    9  F9  UNL     1     -34.876  18.228   1.122  1.00 20.00    -0.211 F 
ENDROOT
TORSDOF 0
ENDMDL
MODEL 5
REMARK VINA RESULT:      -4.0      2.038      2.625
REMARK  0 active torsions:
REMARK  status: ('A' for Active; 'I' for Inactive)
ROOT
HETATM    1  C1  UNL     1     -33.172   4.444   2.330  1.00 20.00     0.064 C 
HETATM    2  C2  UNL     1     -33.314   7.370   4.760  1.00 20.00     0.012 C 
HETATM    3  C3  UNL     1     -34.085   6.872   5.735  1.00 20.00     0.090 C 
HETATM    4  C4  UNL     1     -32.946   6.596   3.528  1.00 20.00     0.049 C 
HETATM    5  C5  UNL     1     -34.637   5.480   5.713  1.00 20.00     0.071 C 
HETATM    6  C6  UNL     1     -33.964   4.585   4.669  1.00 20.00     0.026 C 
HETATM    7  C7  UNL     1     -33.789   5.324   3.336  1.00 20.00     0.096 C 
HETATM    8  N8  UNL     1     -32.685   3.751   1.537  1.00 20.00    -0.197 NA
HETATM    9  F9  UNL     1     -34.359   7.655   6.802  1.00 20.00    -0.211 F 
ENDROOT
TORSDOF 0
ENDMDL
MODEL 6
REMARK VINA RESULT:      -3.9     12.301     13.416
REMARK  0 active torsions:
REMARK  status: ('A' for Active; 'I' for Inactive)
ROOT
HETATM    1  C1  UNL     1     -35.584  13.892  -5.034  1.00 20.00     0.064 C 
HETATM    2  C2  UNL     1     -33.835  17.219  -5.634  1.00 20.00     0.012 C 
HETATM    3  C3  UNL     1     -33.540  17.596  -4.383  1.00 20.00     0.090 C 
HETATM    4  C4  UNL     1     -34.553  15.942  -5.958  1.00 20.00     0.049 C 
HETATM    5  C5  UNL     1     -33.869  16.770  -3.178  1.00 20.00     0.071 C 
HETATM    6  C6  UNL     1     -34.248  15.328  -3.526  1.00 20.00     0.026 C 
HETATM    7  C7  UNL     1     -35.199  15.280  -4.729  1.00 20.00     0.096 C 
HETATM    8  N8  UNL     1     -35.886  12.798  -5.274  1.00 20.00    -0.197 NA
HETATM    9  F9  UNL     1     -32.892  18.769  -4.201  1.00 20.00    -0.211 F 
ENDROOT
TORSDOF 0
ENDMDL
MODEL 7
REMARK VINA RESULT:      -3.9     12.202     12.566
REMARK  0 active torsions:
REMARK  status: ('A' for Active; 'I' for Inactive)
ROOT
HETATM    1  C1  UNL     1     -34.951  16.214  -3.563  1.00 20.00     0.064 C 
HETATM    2  C2  UNL     1     -34.880  17.759  -0.084  1.00 20.00     0.012 C 
HETATM    3  C3  UNL     1     -33.633  18.244  -0.032  1.00 20.00     0.090 C 
HETATM    4  C4  UNL     1     -35.427  17.029  -1.276  1.00 20.00     0.049 C 
HETATM    5  C5  UNL     1     -32.663  18.136  -1.168  1.00 20.00     0.071 C 
HETATM    6  C6  UNL     1     -33.329  17.742  -2.489  1.00 20.00     0.026 C 
HETATM    7  C7  UNL     1     -34.342  16.609  -2.281  1.00 20.00     0.096 C 
HETATM    8  N8  UNL     1     -35.432  15.904  -4.571  1.00 20.00    -0.197 NA
HETATM    9  F9  UNL     1     -33.237  18.884   1.092  1.00 20.00    -0.211 F 
ENDROOT
TORSDOF 0
ENDMDL
MODEL 8
REMARK VINA RESULT:      -3.8     12.023     12.464
REMARK  0 active torsions:
REMARK  status: ('A' for Active; 'I' for Inactive)
ROOT
HETATM    1  C1  UNL     1     -33.629  16.854  -3.799  1.00 20.00     0.064 C 
HETATM    2  C2  UNL     1     -33.237  18.337  -0.315  1.00 20.00     0.012 C 
HETATM    3  C3  UNL     1     -34.436  18.080   0.222  1.00 20.00     0.090 C 
HETATM    4  C4  UNL     1     -32.866  17.950  -1.717  1.00 20.00     0.049 C 
HETATM    5  C5  UNL     1     -35.524  17.355  -0.508  1.00 20.00     0.071 C 
HETATM    6  C6  UNL     1     -35.026  16.641  -1.769  1.00 20.00     0.026 C 
HETATM    7  C7  UNL     1     -34.075  17.537  -2.573  1.00 20.00     0.096 C 
HETATM    8  N8  UNL     1     -33.278  16.316  -4.764  1.00 20.00    -0.197 NA
HETATM    9  F9  UNL     1     -34.669  18.474   1.495  1.00 20.00    -0.211 F 
ENDROOT
TORSDOF 0
ENDMDL
MODEL 9
REMARK VINA RESULT:      -3.8     12.101     12.678
REMARK  0 active torsions:
REMARK  status: ('A' for Active; 'I' for Inactive)
ROOT
HETATM    1  C1  UNL     1     -35.623  13.893  -4.952  1.00 20.00     0.064 C 
HETATM    2  C2  UNL     1     -33.830  16.567  -2.921  1.00 20.00     0.012 C 
HETATM    3  C3  UNL     1     -34.804  17.469  -2.745  1.00 20.00     0.090 C 
HETATM    4  C4  UNL     1     -34.022  15.289  -3.684  1.00 20.00     0.049 C 
HETATM    5  C5  UNL     1     -36.196  17.284  -3.265  1.00 20.00     0.071 C 
HETATM    6  C6  UNL     1     -36.487  15.845  -3.701  1.00 20.00     0.026 C 
HETATM    7  C7  UNL     1     -35.319  15.265  -4.510  1.00 20.00     0.096 C 
HETATM    8  N8  UNL     1     -35.862  12.813  -5.299  1.00 20.00    -0.197 NA
HETATM    9  F9  UNL     1     -34.524  18.590  -2.043  1.00 20.00    -0.211 F 
ENDROOT
TORSDOF 0
ENDMDL
