MODEL 1
REMARK VINA RESULT:      -4.6      0.000      0.000
REMARK  2 active torsions:
REMARK  status: ('A' for Active; 'I' for Inactive)
REMARK    1  A    between atoms: C1_1  and  C7_7 
REMARK    2  A    between atoms: C4_4  and  C7_7 
ROOT
HETATM    1  C2  UNL     1     -31.554   8.253   2.873  1.00 20.00     0.197 C 
HETATM    2  C3  UNL     1     -32.779   8.641   2.091  1.00 20.00     0.197 C 
HETATM    3  C4  UNL     1     -33.353   7.142   3.693  1.00 20.00     0.169 C 
HETATM    4  C5  UNL     1     -33.638   7.366   5.172  1.00 20.00     0.080 C 
HETATM    5  O9  UNL     1     -31.934   7.026   3.495  1.00 20.00    -0.353 OA
HETATM    6  O10 UNL     1     -33.853   8.267   2.953  1.00 20.00    -0.353 OA
ENDROOT
BRANCH   3   7
HETATM    7  C7  UNL     1     -34.020   5.869   3.186  1.00 20.00     0.105 C 
HETATM    8  C6  UNL     1     -32.998   4.922   2.571  1.00 20.00     0.023 C 
BRANCH   7   9
HETATM    9  C1  UNL     1     -34.776   5.217   4.329  1.00 20.00     0.240 C 
HETATM   10  O8  UNL     1     -34.700   4.029   4.626  1.00 20.00    -0.306 OA
ENDBRANCH   7   9
ENDBRANCH   3   7
TORSDOF 2
ENDMDL
MODEL 2
REMARK VINA RESULT:      -4.3      1.332      2.314
REMARK  2 active torsions:
REMARK  status: ('A' for Active; 'I' for Inactive)
REMARK    1  A    between atoms: C1_1  and  C7_7 
REMARK    2  A    between atoms: C4_4  and  C7_7 
ROOT
HETATM    1  C2  UNL     1     -32.089   8.463   1.652  1.00 20.00     0.197 C 
HETATM    2  C3  UNL     1     -31.538   8.613   3.044  1.00 20.00     0.197 C 
HETATM    3  C4  UNL     1     -33.044   6.918   3.010  1.00 20.00     0.169 C 
HETATM    4  C5  UNL     1     -32.864   5.470   2.577  1.00 20.00     0.080 C 
HETATM    5  O9  UNL     1     -33.298   7.732   1.853  1.00 20.00    -0.353 OA
HETATM    6  O10 UNL     1     -31.838   7.359   3.655  1.00 20.00    -0.353 OA
ENDROOT
BRANCH   3   7
HETATM    7  C7  UNL     1     -34.214   7.067   3.976  1.00 20.00     0.105 C 
HETATM    8  C6  UNL     1     -35.147   5.865   3.896  1.00 20.00     0.023 C 
BRANCH   7   9
HETATM    9  C1  UNL     1     -33.676   7.268   5.380  1.00 20.00     0.240 C 
HETATM   10  O8  UNL     1     -34.224   6.867   6.401  1.00 20.00    -0.306 OA
ENDBRANCH   7   9
ENDBRANCH   3   7
TORSDOF 2
ENDMDL
MODEL 3
REMARK VINA RESULT:      -3.9      1.445      3.838
REMARK  2 active torsions:
REMARK  status: ('A' for Active; 'I' for Inactive)
REMARK    1  A    between atoms: C1_1  and  C7_7 
REMARK    2  A    between atoms: C4_4  and  C7_7 
ROOT
HETATM    1  C2  UNL     1     -33.958   3.954   4.236  1.00 20.00     0.197 C 
HETATM    2  C3  UNL     1     -34.957   4.682   5.093  1.00 20.00     0.197 C 
HETATM    3  C4  UNL     1     -34.227   6.065   3.451  1.00 20.00     0.169 C 
HETATM    4  C5  UNL     1     -34.676   6.167   2.000  1.00 20.00     0.080 C 
HETATM    5  O9  UNL     1     -33.259   5.008   3.575  1.00 20.00    -0.353 OA
HETATM    6  O10 UNL     1     -35.372   5.769   4.267  1.00 20.00    -0.353 OA
ENDROOT
BRANCH   3   7
HETATM    7  C7  UNL     1     -33.591   7.365   3.928  1.00 20.00     0.105 C 
HETATM    8  C6  UNL     1     -33.435   7.375   5.444  1.00 20.00     0.023 C 
BRANCH   7   9
HETATM    9  C1  UNL     1     -32.260   7.554   3.224  1.00 20.00     0.240 C 
HETATM   10  O8  UNL     1     -31.386   8.336   3.584  1.00 20.00    -0.306 OA
ENDBRANCH   7   9
ENDBRANCH   3   7
TORSDOF 2
ENDMDL
MODEL 4
REMARK VINA RESULT:      -3.8     11.313     12.584
REMARK  2 active torsions:
REMARK  status: ('A' for Active; 'I' for Inactive)
REMARK    1  A    between atoms: C1_1  and  C7_7 
REMARK    2  A    between atoms: C4_4  and  C7_7 
ROOT
HETATM    1  C2  UNL     1     -32.918  15.536  -5.289  1.00 20.00     0.197 C 
HETATM    2  C3  UNL     1     -33.568  14.654  -4.258  1.00 20.00     0.197 C 
HETATM    3  C4  UNL     1     -34.717  14.506  -6.208  1.00 20.00     0.169 C 
HETATM    4  C5  UNL     1     -34.425  13.666  -7.443  1.00 20.00     0.080 C 
HETATM    5  O9  UNL     1     -33.944  15.717  -6.264  1.00 20.00    -0.353 OA
HETATM    6  O10 UNL     1     -34.349  13.752  -5.041  1.00 20.00    -0.353 OA
ENDROOT
BRANCH   3   7
HETATM    7  C7  UNL     1     -36.193  14.875  -6.124  1.00 20.00     0.105 C 
HETATM    8  C6  UNL     1     -36.803  15.014  -7.514  1.00 20.00     0.023 C 
BRANCH   7   9
HETATM    9  C1  UNL     1     -36.918  13.833  -5.293  1.00 20.00     0.240 C 
HETATM   10  O8  UNL     1     -38.083  13.925  -4.920  1.00 20.00    -0.306 OA
ENDBRANCH   7   9
ENDBRANCH   3   7
TORSDOF 2
ENDMDL
MODEL 5
REMARK VINA RESULT:      -3.8     11.199     12.161
REMARK  2 active torsions:
REMARK  status: ('A' for Active; 'I' for Inactive)
REMARK    1  A    between atoms: C1_1  and  C7_7 
REMARK    2  A    between atoms: C4_4  and  C7_7 
ROOT
HETATM    1  C2  UNL     1     -33.627  17.589  -4.184  1.00 20.00     0.197 C 
HETATM    2  C3  UNL     1     -34.874  17.138  -3.473  1.00 20.00     0.197 C 
HETATM    3  C4  UNL     1     -34.063  15.429  -4.724  1.00 20.00     0.169 C 
HETATM    4  C5  UNL     1     -32.947  14.442  -4.408  1.00 20.00     0.080 C 
HETATM    5  O9  UNL     1     -33.490  16.641  -5.243  1.00 20.00    -0.353 OA
HETATM    6  O10 UNL     1     -34.781  15.714  -3.513  1.00 20.00    -0.353 OA
ENDROOT
BRANCH   3   7
HETATM    7  C7  UNL     1     -35.027  14.864  -5.760  1.00 20.00     0.105 C 
HETATM    8  C6  UNL     1     -34.273  14.231  -6.923  1.00 20.00     0.023 C 
BRANCH   7   9
HETATM    9  C1  UNL     1     -35.954  13.871  -5.084  1.00 20.00     0.240 C 
HETATM   10  O8  UNL     1     -35.902  12.655  -5.234  1.00 20.00    -0.306 OA
ENDBRANCH   7   9
ENDBRANCH   3   7
TORSDOF 2
ENDMDL
MODEL 6
REMARK VINA RESULT:      -3.8      1.344      3.448
REMARK  2 active torsions:
REMARK  status: ('A' for Active; 'I' for Inactive)
REMARK    1  A    between atoms: C1_1  and  C7_7 
REMARK    2  A    between atoms: C4_4  and  C7_7 
ROOT
HETATM    1  C2  UNL     1     -34.642   5.445   6.041  1.00 20.00     0.197 C 
HETATM    2  C3  UNL     1     -33.934   6.771   6.115  1.00 20.00     0.197 C 
HETATM    3  C4  UNL     1     -34.192   6.177   3.941  1.00 20.00     0.169 C 
HETATM    4  C5  UNL     1     -35.404   6.331   3.032  1.00 20.00     0.080 C 
HETATM    5  O9  UNL     1     -34.337   4.981   4.726  1.00 20.00    -0.353 OA
HETATM    6  O10 UNL     1     -34.121   7.319   4.811  1.00 20.00    -0.353 OA
ENDROOT
BRANCH   3   7
HETATM    7  C7  UNL     1     -32.903   6.077   3.135  1.00 20.00     0.105 C 
HETATM    8  C6  UNL     1     -32.908   4.842   2.242  1.00 20.00     0.023 C 
BRANCH   7   9
HETATM    9  C1  UNL     1     -32.720   7.351   2.332  1.00 20.00     0.240 C 
HETATM   10  O8  UNL     1     -31.830   8.173   2.521  1.00 20.00    -0.306 OA
ENDBRANCH   7   9
ENDBRANCH   3   7
TORSDOF 2
ENDMDL
MODEL 7
REMARK VINA RESULT:      -3.7     11.546     12.380
REMARK  2 active torsions:
REMARK  status: ('A' for Active; 'I' for Inactive)
REMARK    1  A    between atoms: C1_1  and  C7_7 
REMARK    2  A    between atoms: C4_4  and  C7_7 
ROOT
HETATM    1  C2  UNL     1     -34.128  14.003  -7.549  1.00 20.00     0.197 C 
HETATM    2  C3  UNL     1     -34.689  15.396  -7.454  1.00 20.00     0.197 C 
HETATM    3  C4  UNL     1     -34.391  14.562  -5.366  1.00 20.00     0.169 C 
HETATM    4  C5  UNL     1     -33.126  14.496  -4.521  1.00 20.00     0.080 C 
HETATM    5  O9  UNL     1     -34.417  13.443  -6.268  1.00 20.00    -0.353 OA
HETATM    6  O10 UNL     1     -34.379  15.787  -6.117  1.00 20.00    -0.353 OA
ENDROOT
BRANCH   3   7
HETATM    7  C7  UNL     1     -35.641  14.515  -4.497  1.00 20.00     0.105 C 
HETATM    8  C6  UNL     1     -36.002  15.903  -3.980  1.00 20.00     0.023 C 
BRANCH   7   9
HETATM    9  C1  UNL     1     -36.776  13.900  -5.295  1.00 20.00     0.240 C 
HETATM   10  O8  UNL     1     -37.944  13.848  -4.920  1.00 20.00    -0.306 OA
ENDBRANCH   7   9
ENDBRANCH   3   7
TORSDOF 2
ENDMDL
MODEL 8
REMARK VINA RESULT:      -3.7     11.412     12.495
REMARK  2 active torsions:
REMARK  status: ('A' for Active; 'I' for Inactive)
REMARK    1  A    between atoms: C1_1  and  C7_7 
REMARK    2  A    between atoms: C4_4  and  C7_7 
ROOT
HETATM    1  C2  UNL     1     -34.073  15.725  -3.673  1.00 20.00     0.197 C 
HETATM    2  C3  UNL     1     -33.070  14.888  -4.420  1.00 20.00     0.197 C 
HETATM    3  C4  UNL     1     -34.642  15.646  -5.867  1.00 20.00     0.169 C 
HETATM    4  C5  UNL     1     -34.750  16.997  -6.560  1.00 20.00     0.080 C 
HETATM    5  O9  UNL     1     -35.201  15.744  -4.546  1.00 20.00    -0.353 OA
HETATM    6  O10 UNL     1     -33.255  15.284  -5.778  1.00 20.00    -0.353 OA
ENDROOT
BRANCH   3   7
HETATM    7  C7  UNL     1     -35.396  14.567  -6.635  1.00 20.00     0.105 C 
HETATM    8  C6  UNL     1     -34.439  13.704  -7.449  1.00 20.00     0.023 C 
BRANCH   7   9
HETATM    9  C1  UNL     1     -36.208  13.738  -5.658  1.00 20.00     0.240 C 
HETATM   10  O8  UNL     1     -35.873  12.637  -5.231  1.00 20.00    -0.306 OA
ENDBRANCH   7   9
ENDBRANCH   3   7
TORSDOF 2
ENDMDL
MODEL 9
REMARK VINA RESULT:      -3.7      1.109      2.178
REMARK  2 active torsions:
REMARK  status: ('A' for Active; 'I' for Inactive)
REMARK    1  A    between atoms: C1_1  and  C7_7 
REMARK    2  A    between atoms: C4_4  and  C7_7 
ROOT
HETATM    1  C2  UNL     1     -32.801   8.359   2.560  1.00 20.00     0.197 C 
HETATM    2  C3  UNL     1     -31.887   7.165   2.570  1.00 20.00     0.197 C 
HETATM    3  C4  UNL     1     -33.824   6.637   3.623  1.00 20.00     0.169 C 
HETATM    4  C5  UNL     1     -35.162   6.211   3.035  1.00 20.00     0.080 C 
HETATM    5  O9  UNL     1     -33.732   8.071   3.603  1.00 20.00    -0.353 OA
HETATM    6  O10 UNL     1     -32.770   6.074   2.825  1.00 20.00    -0.353 OA
ENDROOT
BRANCH   3   7
HETATM    7  C7  UNL     1     -33.675   6.160   5.063  1.00 20.00     0.105 C 
HETATM    8  C6  UNL     1     -33.911   7.301   6.046  1.00 20.00     0.023 C 
BRANCH   7   9
HETATM    9  C1  UNL     1     -34.627   5.004   5.304  1.00 20.00     0.240 C 
HETATM   10  O8  UNL     1     -34.436   3.853   4.927  1.00 20.00    -0.306 OA
ENDBRANCH   7   9
ENDBRANCH   3   7
TORSDOF 2
ENDMDL
