MODEL 1
REMARK VINA RESULT:      -4.9      0.000      0.000
REMARK  1 active torsions:
REMARK  status: ('A' for Active; 'I' for Inactive)
REMARK    1  A    between atoms: C2_2  and  O6_6 
ROOT
HETATM    1  C1  UNL     1     -35.306   6.059   3.919  1.00 20.00     0.106 A 
HETATM    2  C2  UNL     1     -33.906   6.393   4.361  1.00 20.00     0.111 A 
HETATM    3  C3  UNL     1     -34.526   5.073   4.747  1.00 20.00     0.212 A 
HETATM    4  C4  UNL     1     -33.687   7.448   5.393  1.00 20.00     0.051 C 
HETATM    5  F7  UNL     1     -34.935   4.943   6.070  1.00 20.00    -0.222 F 
HETATM    6 CL8  UNL     1     -33.981   3.590   3.983  1.00 20.00    -0.079 Cl
ENDROOT
BRANCH   2   7
HETATM    7  O6  UNL     1     -32.906   6.382   3.327  1.00 20.00    -0.381 OA
HETATM    8  C5  UNL     1     -32.531   7.700   2.973  1.00 20.00     0.202 C 
ENDBRANCH   2   7
TORSDOF 1
ENDMDL
MODEL 2
REMARK VINA RESULT:      -4.5      2.412      2.916
REMARK  1 active torsions:
REMARK  status: ('A' for Active; 'I' for Inactive)
REMARK    1  A    between atoms: C2_2  and  O6_6 
ROOT
HETATM    1  C1  UNL     1     -34.753   6.128   2.669  1.00 20.00     0.106 A 
HETATM    2  C2  UNL     1     -34.234   6.075   4.082  1.00 20.00     0.111 A 
HETATM    3  C3  UNL     1     -33.274   5.998   2.921  1.00 20.00     0.212 A 
HETATM    4  C4  UNL     1     -34.494   4.869   4.921  1.00 20.00     0.051 C 
HETATM    5  F7  UNL     1     -32.727   4.748   2.651  1.00 20.00    -0.222 F 
HETATM    6 CL8  UNL     1     -32.241   7.364   2.543  1.00 20.00    -0.079 Cl
ENDROOT
BRANCH   2   7
HETATM    7  O6  UNL     1     -34.294   7.311   4.815  1.00 20.00    -0.381 OA
HETATM    8  C5  UNL     1     -33.745   7.156   6.110  1.00 20.00     0.202 C 
ENDBRANCH   2   7
TORSDOF 1
ENDMDL
MODEL 3
REMARK VINA RESULT:      -4.0      2.694      3.365
REMARK  1 active torsions:
REMARK  status: ('A' for Active; 'I' for Inactive)
REMARK    1  A    between atoms: C2_2  and  O6_6 
ROOT
HETATM    1  C1  UNL     1     -34.262   7.459   3.237  1.00 20.00     0.106 A 
HETATM    2  C2  UNL     1     -33.818   6.055   3.551  1.00 20.00     0.111 A 
HETATM    3  C3  UNL     1     -33.153   7.228   4.229  1.00 20.00     0.212 A 
HETATM    4  C4  UNL     1     -33.077   5.265   2.524  1.00 20.00     0.051 C 
HETATM    5  F7  UNL     1     -31.875   7.556   3.789  1.00 20.00    -0.222 F 
HETATM    6 CL8  UNL     1     -33.469   7.557   5.923  1.00 20.00    -0.079 Cl
ENDROOT
BRANCH   2   7
HETATM    7  O6  UNL     1     -34.737   5.270   4.330  1.00 20.00    -0.381 OA
HETATM    8  C5  UNL     1     -34.259   3.948   4.493  1.00 20.00     0.202 C 
ENDBRANCH   2   7
TORSDOF 1
ENDMDL
MODEL 4
REMARK VINA RESULT:      -4.0      1.894      2.240
REMARK  1 active torsions:
REMARK  status: ('A' for Active; 'I' for Inactive)
REMARK    1  A    between atoms: C2_2  and  O6_6 
ROOT
HETATM    1  C1  UNL     1     -33.333   5.383   3.189  1.00 20.00     0.106 A 
HETATM    2  C2  UNL     1     -33.375   6.883   3.319  1.00 20.00     0.111 A 
HETATM    3  C3  UNL     1     -34.449   6.038   3.959  1.00 20.00     0.212 A 
HETATM    4  C4  UNL     1     -33.691   7.721   2.126  1.00 20.00     0.051 C 
HETATM    5  F7  UNL     1     -35.691   6.037   3.333  1.00 20.00    -0.222 F 
HETATM    6 CL8  UNL     1     -34.488   5.840   5.701  1.00 20.00    -0.079 Cl
ENDROOT
BRANCH   2   7
HETATM    7  O6  UNL     1     -32.381   7.462   4.183  1.00 20.00    -0.381 OA
HETATM    8  C5  UNL     1     -31.484   8.272   3.448  1.00 20.00     0.202 C 
ENDBRANCH   2   7
TORSDOF 1
ENDMDL
MODEL 5
REMARK VINA RESULT:      -4.0      1.956      2.200
REMARK  1 active torsions:
REMARK  status: ('A' for Active; 'I' for Inactive)
REMARK    1  A    between atoms: C2_2  and  O6_6 
ROOT
HETATM    1  C1  UNL     1     -35.329   6.186   3.753  1.00 20.00     0.106 A 
HETATM    2  C2  UNL     1     -33.862   5.887   3.600  1.00 20.00     0.111 A 
HETATM    3  C3  UNL     1     -34.432   6.195   4.962  1.00 20.00     0.212 A 
HETATM    4  C4  UNL     1     -32.971   6.872   2.919  1.00 20.00     0.051 C 
HETATM    5  F7  UNL     1     -34.142   7.450   5.486  1.00 20.00    -0.222 F 
HETATM    6 CL8  UNL     1     -34.617   4.914   6.146  1.00 20.00    -0.079 Cl
ENDROOT
BRANCH   2   7
HETATM    7  O6  UNL     1     -33.531   4.517   3.311  1.00 20.00    -0.381 OA
HETATM    8  C5  UNL     1     -32.796   4.418   2.106  1.00 20.00     0.202 C 
ENDBRANCH   2   7
TORSDOF 1
ENDMDL
MODEL 6
REMARK VINA RESULT:      -3.7      3.181      4.019
REMARK  1 active torsions:
REMARK  status: ('A' for Active; 'I' for Inactive)
REMARK    1  A    between atoms: C2_2  and  O6_6 
ROOT
HETATM    1  C1  UNL     1     -31.483   8.206   3.435  1.00 20.00     0.106 A 
HETATM    2  C2  UNL     1     -32.178   8.489   2.130  1.00 20.00     0.111 A 
HETATM    3  C3  UNL     1     -32.600   7.310   2.971  1.00 20.00     0.212 A 
HETATM    4  C4  UNL     1     -31.455   8.272   0.843  1.00 20.00     0.051 C 
HETATM    5  F7  UNL     1     -32.212   6.054   2.516  1.00 20.00    -0.222 F 
HETATM    6 CL8  UNL     1     -34.121   7.353   3.844  1.00 20.00    -0.079 Cl
ENDROOT
BRANCH   2   7
HETATM    7  O6  UNL     1     -33.040   9.641   2.119  1.00 20.00    -0.381 OA
HETATM    8  C5  UNL     1     -32.737  10.488   1.027  1.00 20.00     0.202 C 
ENDBRANCH   2   7
TORSDOF 1
ENDMDL
MODEL 7
REMARK VINA RESULT:      -3.6      4.275      5.238
REMARK  1 active torsions:
REMARK  status: ('A' for Active; 'I' for Inactive)
REMARK    1  A    between atoms: C2_2  and  O6_6 
ROOT
HETATM    1  C1  UNL     1     -31.155   8.713   0.800  1.00 20.00     0.106 A 
HETATM    2  C2  UNL     1     -32.172   8.460   1.881  1.00 20.00     0.111 A 
HETATM    3  C3  UNL     1     -32.388   9.573   0.885  1.00 20.00     0.212 A 
HETATM    4  C4  UNL     1     -31.840   8.778   3.300  1.00 20.00     0.051 C 
HETATM    5  F7  UNL     1     -32.186  10.868   1.350  1.00 20.00    -0.222 F 
HETATM    6 CL8  UNL     1     -33.607   9.408  -0.365  1.00 20.00    -0.079 Cl
ENDROOT
BRANCH   2   7
HETATM    7  O6  UNL     1     -32.962   7.268   1.727  1.00 20.00    -0.381 OA
HETATM    8  C5  UNL     1     -33.076   6.577   2.957  1.00 20.00     0.202 C 
ENDBRANCH   2   7
TORSDOF 1
ENDMDL
MODEL 8
REMARK VINA RESULT:      -3.5      3.447      4.178
REMARK  1 active torsions:
REMARK  status: ('A' for Active; 'I' for Inactive)
REMARK    1  A    between atoms: C2_2  and  O6_6 
ROOT
HETATM    1  C1  UNL     1     -31.574   8.293   3.428  1.00 20.00     0.106 A 
HETATM    2  C2  UNL     1     -32.694   7.389   2.985  1.00 20.00     0.111 A 
HETATM    3  C3  UNL     1     -32.294   8.569   2.134  1.00 20.00     0.212 A 
HETATM    4  C4  UNL     1     -33.992   7.402   3.721  1.00 20.00     0.051 C 
HETATM    5  F7  UNL     1     -33.153   9.662   2.146  1.00 20.00    -0.222 F 
HETATM    6 CL8  UNL     1     -31.429   8.312   0.629  1.00 20.00    -0.079 Cl
ENDROOT
BRANCH   2   7
HETATM    7  O6  UNL     1     -32.299   6.080   2.537  1.00 20.00    -0.381 OA
HETATM    8  C5  UNL     1     -33.279   5.116   2.871  1.00 20.00     0.202 C 
ENDBRANCH   2   7
TORSDOF 1
ENDMDL
MODEL 9
REMARK VINA RESULT:      -3.4      2.985      3.649
REMARK  1 active torsions:
REMARK  status: ('A' for Active; 'I' for Inactive)
REMARK    1  A    between atoms: C2_2  and  O6_6 
ROOT
HETATM    1  C1  UNL     1     -32.302   6.371   3.081  1.00 20.00     0.106 A 
HETATM    2  C2  UNL     1     -33.376   7.120   3.823  1.00 20.00     0.111 A 
HETATM    3  C3  UNL     1     -32.358   7.873   3.003  1.00 20.00     0.212 A 
HETATM    4  C4  UNL     1     -33.336   7.188   5.314  1.00 20.00     0.051 C 
HETATM    5  F7  UNL     1     -31.369   8.548   3.711  1.00 20.00    -0.222 F 
HETATM    6 CL8  UNL     1     -32.828   8.612   1.483  1.00 20.00    -0.079 Cl
ENDROOT
BRANCH   2   7
HETATM    7  O6  UNL     1     -34.705   6.999   3.287  1.00 20.00    -0.381 OA
HETATM    8  C5  UNL     1     -35.365   5.869   3.825  1.00 20.00     0.202 C 
ENDBRANCH   2   7
TORSDOF 1
ENDMDL
