MODEL 1
REMARK VINA RESULT:      -5.0      0.000      0.000
REMARK  2 active torsions:
REMARK  status: ('A' for Active; 'I' for Inactive)
REMARK    1  A    between atoms: C4_4  and  C8_8 
REMARK    2  A    between atoms: C5_5  and  C9_9 
ROOT
HETATM    1  C1  UNL     1     -34.475   5.967   4.572  1.00 20.00     0.139 C 
HETATM    2  C6  UNL     1     -34.037   6.924   5.656  1.00 20.00     0.080 C 
HETATM    3  C7  UNL     1     -32.884   7.668   4.992  1.00 20.00     0.017 C 
HETATM    4  C8  UNL     1     -33.264   7.690   3.508  1.00 20.00     0.027 C 
HETATM    5  C9  UNL     1     -33.803   6.260   3.233  1.00 20.00     0.041 C 
HETATM    6  C10 UNL     1     -34.806   6.232   2.083  1.00 20.00     0.028 C 
HETATM    7  O11 UNL     1     -35.276   5.060   4.765  1.00 20.00    -0.297 OA
ENDROOT
BRANCH   5   8
HETATM    8  C5  UNL     1     -32.756   5.199   3.052  1.00 20.00    -0.019 C 
HETATM    9  C3  UNL     1     -32.896   4.136   2.253  1.00 20.00     0.008 C 
ENDBRANCH   5   8
BRANCH   4  10
HETATM   10  C4  UNL     1     -32.156   8.154   2.619  1.00 20.00    -0.031 C 
HETATM   11  C2  UNL     1     -32.317   9.023   1.615  1.00 20.00     0.007 C 
ENDBRANCH   4  10
TORSDOF 2
ENDMDL
MODEL 2
REMARK VINA RESULT:      -4.1     11.269     13.074
REMARK  2 active torsions:
REMARK  status: ('A' for Active; 'I' for Inactive)
REMARK    1  A    between atoms: C4_4  and  C8_8 
REMARK    2  A    between atoms: C5_5  and  C9_9 
ROOT
HETATM    1  C1  UNL     1     -35.414  13.483  -5.906  1.00 20.00     0.139 C 
HETATM    2  C6  UNL     1     -35.196  13.285  -7.388  1.00 20.00     0.080 C 
HETATM    3  C7  UNL     1     -34.723  14.662  -7.839  1.00 20.00     0.017 C 
HETATM    4  C8  UNL     1     -33.977  15.213  -6.619  1.00 20.00     0.027 C 
HETATM    5  C9  UNL     1     -34.878  14.826  -5.416  1.00 20.00     0.041 C 
HETATM    6  C10 UNL     1     -34.083  14.674  -4.123  1.00 20.00     0.028 C 
HETATM    7  O11 UNL     1     -35.965  12.652  -5.195  1.00 20.00    -0.297 OA
ENDROOT
BRANCH   5   8
HETATM    8  C5  UNL     1     -36.081  15.700  -5.202  1.00 20.00    -0.019 C 
HETATM    9  C3  UNL     1     -36.556  16.039  -3.999  1.00 20.00     0.008 C 
ENDBRANCH   5   8
BRANCH   4  10
HETATM   10  C4  UNL     1     -33.635  16.663  -6.740  1.00 20.00    -0.031 C 
HETATM   11  C2  UNL     1     -33.928  17.414  -7.807  1.00 20.00     0.007 C 
ENDBRANCH   4  10
TORSDOF 2
ENDMDL
MODEL 3
REMARK VINA RESULT:      -4.0     11.444     12.706
REMARK  2 active torsions:
REMARK  status: ('A' for Active; 'I' for Inactive)
REMARK    1  A    between atoms: C4_4  and  C8_8 
REMARK    2  A    between atoms: C5_5  and  C9_9 
ROOT
HETATM    1  C1  UNL     1     -33.696  16.149  -5.830  1.00 20.00     0.139 C 
HETATM    2  C6  UNL     1     -33.768  17.655  -5.736  1.00 20.00     0.080 C 
HETATM    3  C7  UNL     1     -34.395  17.871  -4.364  1.00 20.00     0.017 C 
HETATM    4  C8  UNL     1     -33.899  16.678  -3.540  1.00 20.00     0.027 C 
HETATM    5  C9  UNL     1     -34.029  15.469  -4.504  1.00 20.00     0.041 C 
HETATM    6  C10 UNL     1     -33.035  14.358  -4.178  1.00 20.00     0.028 C 
HETATM    7  O11 UNL     1     -33.408  15.556  -6.863  1.00 20.00    -0.297 OA
ENDROOT
BRANCH   5   8
HETATM    8  C5  UNL     1     -35.417  14.913  -4.660  1.00 20.00    -0.019 C 
HETATM    9  C3  UNL     1     -35.683  13.650  -5.010  1.00 20.00     0.008 C 
ENDBRANCH   5   8
BRANCH   4  10
HETATM   10  C4  UNL     1     -34.589  16.541  -2.222  1.00 20.00    -0.031 C 
HETATM   11  C2  UNL     1     -34.304  17.286  -1.148  1.00 20.00     0.007 C 
ENDBRANCH   4  10
TORSDOF 2
ENDMDL
MODEL 4
REMARK VINA RESULT:      -4.0     11.541     12.410
REMARK  2 active torsions:
REMARK  status: ('A' for Active; 'I' for Inactive)
REMARK    1  A    between atoms: C4_4  and  C8_8 
REMARK    2  A    between atoms: C5_5  and  C9_9 
ROOT
HETATM    1  C1  UNL     1     -34.200  14.370  -5.402  1.00 20.00     0.139 C 
HETATM    2  C6  UNL     1     -32.968  14.615  -4.561  1.00 20.00     0.080 C 
HETATM    3  C7  UNL     1     -33.424  15.727  -3.625  1.00 20.00     0.017 C 
HETATM    4  C8  UNL     1     -34.923  15.463  -3.441  1.00 20.00     0.027 C 
HETATM    5  C9  UNL     1     -35.424  15.108  -4.866  1.00 20.00     0.041 C 
HETATM    6  C10 UNL     1     -36.655  14.207  -4.839  1.00 20.00     0.028 C 
HETATM    7  O11 UNL     1     -34.197  13.661  -6.402  1.00 20.00    -0.297 OA
ENDROOT
BRANCH   5   8
HETATM    8  C5  UNL     1     -35.639  16.277  -5.786  1.00 20.00    -0.019 C 
HETATM    9  C3  UNL     1     -36.784  16.519  -6.433  1.00 20.00     0.008 C 
ENDBRANCH   5   8
BRANCH   4  10
HETATM   10  C4  UNL     1     -35.640  16.580  -2.754  1.00 20.00    -0.031 C 
HETATM   11  C2  UNL     1     -35.436  16.927  -1.479  1.00 20.00     0.007 C 
ENDBRANCH   4  10
TORSDOF 2
ENDMDL
MODEL 5
REMARK VINA RESULT:      -4.0     11.265     12.515
REMARK  2 active torsions:
REMARK  status: ('A' for Active; 'I' for Inactive)
REMARK    1  A    between atoms: C4_4  and  C8_8 
REMARK    2  A    between atoms: C5_5  and  C9_9 
ROOT
HETATM    1  C1  UNL     1     -34.418  14.328  -4.480  1.00 20.00     0.139 C 
HETATM    2  C6  UNL     1     -35.712  13.655  -4.875  1.00 20.00     0.080 C 
HETATM    3  C7  UNL     1     -36.729  14.780  -4.718  1.00 20.00     0.017 C 
HETATM    4  C8  UNL     1     -35.931  16.047  -5.045  1.00 20.00     0.027 C 
HETATM    5  C9  UNL     1     -34.574  15.838  -4.323  1.00 20.00     0.041 C 
HETATM    6  C10 UNL     1     -33.435  16.594  -5.002  1.00 20.00     0.028 C 
HETATM    7  O11 UNL     1     -33.372  13.714  -4.304  1.00 20.00    -0.297 OA
ENDROOT
BRANCH   5   8
HETATM    8  C5  UNL     1     -34.581  16.103  -2.844  1.00 20.00    -0.019 C 
HETATM    9  C3  UNL     1     -33.765  16.969  -2.234  1.00 20.00     0.008 C 
ENDBRANCH   5   8
BRANCH   4  10
HETATM   10  C4  UNL     1     -36.662  17.308  -4.714  1.00 20.00    -0.031 C 
HETATM   11  C2  UNL     1     -37.838  17.346  -4.078  1.00 20.00     0.007 C 
ENDBRANCH   4  10
TORSDOF 2
ENDMDL
MODEL 6
REMARK VINA RESULT:      -3.9     11.230     12.625
REMARK  2 active torsions:
REMARK  status: ('A' for Active; 'I' for Inactive)
REMARK    1  A    between atoms: C4_4  and  C8_8 
REMARK    2  A    between atoms: C5_5  and  C9_9 
ROOT
HETATM    1  C1  UNL     1     -36.109  13.828  -5.237  1.00 20.00     0.139 C 
HETATM    2  C6  UNL     1     -37.430  14.487  -4.912  1.00 20.00     0.080 C 
HETATM    3  C7  UNL     1     -37.035  15.949  -4.739  1.00 20.00     0.017 C 
HETATM    4  C8  UNL     1     -35.852  16.127  -5.697  1.00 20.00     0.027 C 
HETATM    5  C9  UNL     1     -35.001  14.846  -5.493  1.00 20.00     0.041 C 
HETATM    6  C10 UNL     1     -34.187  14.489  -6.733  1.00 20.00     0.028 C 
HETATM    7  O11 UNL     1     -35.961  12.612  -5.280  1.00 20.00    -0.297 OA
ENDROOT
BRANCH   5   8
HETATM    8  C5  UNL     1     -34.134  14.834  -4.266  1.00 20.00    -0.019 C 
HETATM    9  C3  UNL     1     -32.843  14.490  -4.264  1.00 20.00     0.008 C 
ENDBRANCH   5   8
BRANCH   4  10
HETATM   10  C4  UNL     1     -35.135  17.426  -5.516  1.00 20.00    -0.031 C 
HETATM   11  C2  UNL     1     -34.587  18.123  -6.517  1.00 20.00     0.007 C 
ENDBRANCH   4  10
TORSDOF 2
ENDMDL
MODEL 7
REMARK VINA RESULT:      -3.9     10.903     12.564
REMARK  2 active torsions:
REMARK  status: ('A' for Active; 'I' for Inactive)
REMARK    1  A    between atoms: C4_4  and  C8_8 
REMARK    2  A    between atoms: C5_5  and  C9_9 
ROOT
HETATM    1  C1  UNL     1     -35.687  13.764  -4.907  1.00 20.00     0.139 C 
HETATM    2  C6  UNL     1     -34.492  14.091  -4.040  1.00 20.00     0.080 C 
HETATM    3  C7  UNL     1     -34.613  15.600  -3.868  1.00 20.00     0.017 C 
HETATM    4  C8  UNL     1     -36.123  15.857  -3.909  1.00 20.00     0.027 C 
HETATM    5  C9  UNL     1     -36.631  14.953  -5.064  1.00 20.00     0.041 C 
HETATM    6  C10 UNL     1     -38.088  14.541  -4.877  1.00 20.00     0.028 C 
HETATM    7  O11 UNL     1     -35.859  12.665  -5.422  1.00 20.00    -0.297 OA
ENDROOT
BRANCH   5   8
HETATM    8  C5  UNL     1     -36.402  15.486  -6.450  1.00 20.00    -0.019 C 
HETATM    9  C3  UNL     1     -37.214  15.252  -7.486  1.00 20.00     0.008 C 
ENDBRANCH   5   8
BRANCH   4  10
HETATM   10  C4  UNL     1     -36.475  17.306  -4.008  1.00 20.00    -0.031 C 
HETATM   11  C2  UNL     1     -37.434  17.894  -3.285  1.00 20.00     0.007 C 
ENDBRANCH   4  10
TORSDOF 2
ENDMDL
MODEL 8
REMARK VINA RESULT:      -3.9     11.258     12.945
REMARK  2 active torsions:
REMARK  status: ('A' for Active; 'I' for Inactive)
REMARK    1  A    between atoms: C4_4  and  C8_8 
REMARK    2  A    between atoms: C5_5  and  C9_9 
ROOT
HETATM    1  C1  UNL     1     -35.948  14.929  -5.873  1.00 20.00     0.139 C 
HETATM    2  C6  UNL     1     -35.709  13.657  -5.094  1.00 20.00     0.080 C 
HETATM    3  C7  UNL     1     -34.591  14.060  -4.140  1.00 20.00     0.017 C 
HETATM    4  C8  UNL     1     -34.844  15.550  -3.884  1.00 20.00     0.027 C 
HETATM    5  C9  UNL     1     -35.200  16.121  -5.282  1.00 20.00     0.041 C 
HETATM    6  C10 UNL     1     -36.092  17.355  -5.192  1.00 20.00     0.028 C 
HETATM    7  O11 UNL     1     -36.660  14.979  -6.870  1.00 20.00    -0.297 OA
ENDROOT
BRANCH   5   8
HETATM    8  C5  UNL     1     -34.032  16.372  -6.194  1.00 20.00    -0.019 C 
HETATM    9  C3  UNL     1     -33.991  17.350  -7.105  1.00 20.00     0.008 C 
ENDBRANCH   5   8
BRANCH   4  10
HETATM   10  C4  UNL     1     -33.720  16.226  -3.167  1.00 20.00    -0.031 C 
HETATM   11  C2  UNL     1     -33.880  17.005  -2.092  1.00 20.00     0.007 C 
ENDBRANCH   4  10
TORSDOF 2
ENDMDL
MODEL 9
REMARK VINA RESULT:      -3.8     11.312     12.617
REMARK  2 active torsions:
REMARK  status: ('A' for Active; 'I' for Inactive)
REMARK    1  A    between atoms: C4_4  and  C8_8 
REMARK    2  A    between atoms: C5_5  and  C9_9 
ROOT
HETATM    1  C1  UNL     1     -33.856  14.574  -4.361  1.00 20.00     0.139 C 
HETATM    2  C6  UNL     1     -33.676  15.868  -3.602  1.00 20.00     0.080 C 
HETATM    3  C7  UNL     1     -34.603  16.820  -4.349  1.00 20.00     0.017 C 
HETATM    4  C8  UNL     1     -35.733  15.915  -4.853  1.00 20.00     0.027 C 
HETATM    5  C9  UNL     1     -35.003  14.645  -5.365  1.00 20.00     0.041 C 
HETATM    6  C10 UNL     1     -35.887  13.403  -5.296  1.00 20.00     0.028 C 
HETATM    7  O11 UNL     1     -33.147  13.590  -4.182  1.00 20.00    -0.297 OA
ENDROOT
BRANCH   5   8
HETATM    8  C5  UNL     1     -34.364  14.769  -6.719  1.00 20.00    -0.019 C 
HETATM    9  C3  UNL     1     -34.380  13.805  -7.646  1.00 20.00     0.008 C 
ENDBRANCH   5   8
BRANCH   4  10
HETATM   10  C4  UNL     1     -36.639  16.589  -5.831  1.00 20.00    -0.031 C 
HETATM   11  C2  UNL     1     -36.450  17.831  -6.293  1.00 20.00     0.007 C 
ENDBRANCH   4  10
TORSDOF 2
ENDMDL
