MODEL 1
REMARK VINA RESULT:      -5.3      0.000      0.000
REMARK  2 active torsions:
REMARK  status: ('A' for Active; 'I' for Inactive)
REMARK    1  A    between atoms: C2_2  and  C6_6 
REMARK    2  A    between atoms: C3_3  and  C6_6 
ROOT
HETATM    1  C1  UNL     1     -32.684   7.851   2.564  1.00 20.00    -0.110 C 
HETATM    2  C2  UNL     1     -33.388   7.189   3.277  1.00 20.00    -0.092 C 
HETATM    3  C4  UNL     1     -31.825   8.657   1.696  1.00 20.00     0.112 C 
ENDROOT
BRANCH   2   4
HETATM    4  C6  UNL     1     -34.255   6.377   4.150  1.00 20.00     0.162 C 
HETATM    5  C5  UNL     1     -34.008   6.728   5.613  1.00 20.00     0.035 C 
BRANCH   4   6
HETATM    6  C3  UNL     1     -34.041   4.883   3.843  1.00 20.00     0.188 C 
HETATM    7  O7  UNL     1     -34.703   4.096   4.580  1.00 20.00    -0.647 OA
HETATM    8  O8  UNL     1     -33.242   4.612   2.903  1.00 20.00    -0.647 OA
ENDBRANCH   4   6
ENDBRANCH   2   4
TORSDOF 2
ENDMDL
MODEL 2
REMARK VINA RESULT:      -4.8      1.628      2.216
REMARK  2 active torsions:
REMARK  status: ('A' for Active; 'I' for Inactive)
REMARK    1  A    between atoms: C2_2  and  C6_6 
REMARK    2  A    between atoms: C3_3  and  C6_6 
ROOT
HETATM    1  C1  UNL     1     -32.528   8.452   1.902  1.00 20.00    -0.110 C 
HETATM    2  C2  UNL     1     -32.715   7.480   2.582  1.00 20.00    -0.092 C 
HETATM    3  C4  UNL     1     -32.297   9.636   1.074  1.00 20.00     0.112 C 
ENDROOT
BRANCH   2   4
HETATM    4  C6  UNL     1     -32.948   6.286   3.415  1.00 20.00     0.162 C 
HETATM    5  C5  UNL     1     -33.091   5.048   2.536  1.00 20.00     0.035 C 
BRANCH   4   6
HETATM    6  C3  UNL     1     -34.164   6.524   4.327  1.00 20.00     0.188 C 
HETATM    7  O7  UNL     1     -35.221   5.934   3.956  1.00 20.00    -0.647 OA
HETATM    8  O8  UNL     1     -33.978   7.269   5.329  1.00 20.00    -0.647 OA
ENDBRANCH   4   6
ENDBRANCH   2   4
TORSDOF 2
ENDMDL
MODEL 3
REMARK VINA RESULT:      -4.7      1.838      2.191
REMARK  2 active torsions:
REMARK  status: ('A' for Active; 'I' for Inactive)
REMARK    1  A    between atoms: C2_2  and  C6_6 
REMARK    2  A    between atoms: C3_3  and  C6_6 
ROOT
HETATM    1  C1  UNL     1     -32.588   7.875   2.347  1.00 20.00    -0.110 C 
HETATM    2  C2  UNL     1     -33.152   7.129   3.100  1.00 20.00    -0.092 C 
HETATM    3  C4  UNL     1     -31.902   8.783   1.428  1.00 20.00     0.112 C 
ENDROOT
BRANCH   2   4
HETATM    4  C6  UNL     1     -33.845   6.215   4.027  1.00 20.00     0.162 C 
HETATM    5  C5  UNL     1     -35.252   5.915   3.522  1.00 20.00     0.035 C 
BRANCH   4   6
HETATM    6  C3  UNL     1     -33.827   6.811   5.447  1.00 20.00     0.188 C 
HETATM    7  O7  UNL     1     -34.623   6.255   6.259  1.00 20.00    -0.647 OA
HETATM    8  O8  UNL     1     -33.032   7.772   5.643  1.00 20.00    -0.647 OA
ENDBRANCH   4   6
ENDBRANCH   2   4
TORSDOF 2
ENDMDL
MODEL 4
REMARK VINA RESULT:      -4.1      3.060      4.363
REMARK  2 active torsions:
REMARK  status: ('A' for Active; 'I' for Inactive)
REMARK    1  A    between atoms: C2_2  and  C6_6 
REMARK    2  A    between atoms: C3_3  and  C6_6 
ROOT
HETATM    1  C1  UNL     1     -34.031   6.513   3.407  1.00 20.00    -0.110 C 
HETATM    2  C2  UNL     1     -33.043   7.105   3.065  1.00 20.00    -0.092 C 
HETATM    3  C4  UNL     1     -35.233   5.790   3.822  1.00 20.00     0.112 C 
ENDROOT
BRANCH   2   4
HETATM    4  C6  UNL     1     -31.831   7.833   2.649  1.00 20.00     0.162 C 
HETATM    5  C5  UNL     1     -31.204   8.543   3.843  1.00 20.00     0.035 C 
BRANCH   4   6
HETATM    6  C3  UNL     1     -32.176   8.787   1.491  1.00 20.00     0.188 C 
HETATM    7  O7  UNL     1     -31.391   8.714   0.500  1.00 20.00    -0.647 OA
HETATM    8  O8  UNL     1     -33.188   9.525   1.653  1.00 20.00    -0.647 OA
ENDBRANCH   4   6
ENDBRANCH   2   4
TORSDOF 2
ENDMDL
MODEL 5
REMARK VINA RESULT:      -4.1     11.286     11.780
REMARK  2 active torsions:
REMARK  status: ('A' for Active; 'I' for Inactive)
REMARK    1  A    between atoms: C2_2  and  C6_6 
REMARK    2  A    between atoms: C3_3  and  C6_6 
ROOT
HETATM    1  C1  UNL     1     -34.848  16.450  -2.480  1.00 20.00    -0.110 C 
HETATM    2  C2  UNL     1     -35.309  15.851  -3.414  1.00 20.00    -0.092 C 
HETATM    3  C4  UNL     1     -34.285  17.178  -1.344  1.00 20.00     0.112 C 
ENDROOT
BRANCH   2   4
HETATM    4  C6  UNL     1     -35.876  15.118  -4.561  1.00 20.00     0.162 C 
HETATM    5  C5  UNL     1     -37.396  15.065  -4.456  1.00 20.00     0.035 C 
BRANCH   4   6
HETATM    6  C3  UNL     1     -35.227  13.725  -4.653  1.00 20.00     0.188 C 
HETATM    7  O7  UNL     1     -35.950  12.845  -5.205  1.00 20.00    -0.647 OA
HETATM    8  O8  UNL     1     -34.063  13.614  -4.176  1.00 20.00    -0.647 OA
ENDBRANCH   4   6
ENDBRANCH   2   4
TORSDOF 2
ENDMDL
MODEL 6
REMARK VINA RESULT:      -4.0     11.533     12.026
REMARK  2 active torsions:
REMARK  status: ('A' for Active; 'I' for Inactive)
REMARK    1  A    between atoms: C2_2  and  C6_6 
REMARK    2  A    between atoms: C3_3  and  C6_6 
ROOT
HETATM    1  C1  UNL     1     -34.672  16.229  -2.602  1.00 20.00    -0.110 C 
HETATM    2  C2  UNL     1     -34.594  15.451  -3.513  1.00 20.00    -0.092 C 
HETATM    3  C4  UNL     1     -34.769  17.179  -1.494  1.00 20.00     0.112 C 
ENDROOT
BRANCH   2   4
HETATM    4  C6  UNL     1     -34.498  14.493  -4.630  1.00 20.00     0.162 C 
HETATM    5  C5  UNL     1     -33.909  15.173  -5.861  1.00 20.00     0.035 C 
BRANCH   4   6
HETATM    6  C3  UNL     1     -35.879  13.865  -4.889  1.00 20.00     0.188 C 
HETATM    7  O7  UNL     1     -35.843  12.659  -5.274  1.00 20.00    -0.647 OA
HETATM    8  O8  UNL     1     -36.881  14.608  -4.691  1.00 20.00    -0.647 OA
ENDBRANCH   4   6
ENDBRANCH   2   4
TORSDOF 2
ENDMDL
MODEL 7
REMARK VINA RESULT:      -3.9      3.585      5.169
REMARK  2 active torsions:
REMARK  status: ('A' for Active; 'I' for Inactive)
REMARK    1  A    between atoms: C2_2  and  C6_6 
REMARK    2  A    between atoms: C3_3  and  C6_6 
ROOT
HETATM    1  C1  UNL     1     -32.894   7.512   2.562  1.00 20.00    -0.110 C 
HETATM    2  C2  UNL     1     -32.596   8.397   1.807  1.00 20.00    -0.092 C 
HETATM    3  C4  UNL     1     -33.259   6.435   3.482  1.00 20.00     0.112 C 
ENDROOT
BRANCH   2   4
HETATM    4  C6  UNL     1     -32.229   9.481   0.878  1.00 20.00     0.162 C 
HETATM    5  C5  UNL     1     -32.568  10.837   1.488  1.00 20.00     0.035 C 
BRANCH   4   6
HETATM    6  C3  UNL     1     -32.906   9.244  -0.484  1.00 20.00     0.188 C 
HETATM    7  O7  UNL     1     -32.285   8.447  -1.246  1.00 20.00    -0.647 OA
HETATM    8  O8  UNL     1     -33.989   9.859  -0.688  1.00 20.00    -0.647 OA
ENDBRANCH   4   6
ENDBRANCH   2   4
TORSDOF 2
ENDMDL
MODEL 8
REMARK VINA RESULT:      -3.8     11.179     11.989
REMARK  2 active torsions:
REMARK  status: ('A' for Active; 'I' for Inactive)
REMARK    1  A    between atoms: C2_2  and  C6_6 
REMARK    2  A    between atoms: C3_3  and  C6_6 
ROOT
HETATM    1  C1  UNL     1     -34.721  16.656  -2.007  1.00 20.00    -0.110 C 
HETATM    2  C2  UNL     1     -34.179  16.241  -2.995  1.00 20.00    -0.092 C 
HETATM    3  C4  UNL     1     -35.378  17.163  -0.802  1.00 20.00     0.112 C 
ENDROOT
BRANCH   2   4
HETATM    4  C6  UNL     1     -33.517  15.732  -4.210  1.00 20.00     0.162 C 
HETATM    5  C5  UNL     1     -34.124  16.375  -5.452  1.00 20.00     0.035 C 
BRANCH   4   6
HETATM    6  C3  UNL     1     -33.588  14.194  -4.229  1.00 20.00     0.188 C 
HETATM    7  O7  UNL     1     -32.463  13.617  -4.175  1.00 20.00    -0.647 OA
HETATM    8  O8  UNL     1     -34.742  13.685  -4.295  1.00 20.00    -0.647 OA
ENDBRANCH   4   6
ENDBRANCH   2   4
TORSDOF 2
ENDMDL
MODEL 9
REMARK VINA RESULT:      -3.8      1.679      2.427
REMARK  2 active torsions:
REMARK  status: ('A' for Active; 'I' for Inactive)
REMARK    1  A    between atoms: C2_2  and  C6_6 
REMARK    2  A    between atoms: C3_3  and  C6_6 
ROOT
HETATM    1  C1  UNL     1     -32.872   8.988   0.733  1.00 20.00    -0.110 C 
HETATM    2  C2  UNL     1     -32.804   8.565   1.855  1.00 20.00    -0.092 C 
HETATM    3  C4  UNL     1     -32.952   9.504  -0.633  1.00 20.00     0.112 C 
ENDROOT
BRANCH   2   4
HETATM    4  C6  UNL     1     -32.721   8.043   3.232  1.00 20.00     0.162 C 
HETATM    5  C5  UNL     1     -31.279   8.081   3.726  1.00 20.00     0.035 C 
BRANCH   4   6
HETATM    6  C3  UNL     1     -33.343   6.636   3.286  1.00 20.00     0.188 C 
HETATM    7  O7  UNL     1     -34.404   6.557   3.972  1.00 20.00    -0.647 OA
HETATM    8  O8  UNL     1     -32.737   5.728   2.651  1.00 20.00    -0.647 OA
ENDBRANCH   4   6
ENDBRANCH   2   4
TORSDOF 2
ENDMDL
