MODEL 1
REMARK VINA RESULT:      -4.8      0.000      0.000
REMARK  1 active torsions:
REMARK  status: ('A' for Active; 'I' for Inactive)
REMARK    1  A    between atoms: C1_1  and  C3_3 
ROOT
HETATM    1  C1  UNL     1     -33.315   7.348   4.318  1.00 20.00     0.064 C 
HETATM    2  C2  UNL     1     -34.117   6.722   5.189  1.00 20.00     0.184 C 
HETATM    3  F4  UNL     1     -34.122   7.091   6.488  1.00 20.00    -0.193 F 
HETATM    4 CL5  UNL     1     -35.155   5.443   4.684  1.00 20.00    -0.052 Cl
ENDROOT
BRANCH   1   5
HETATM    5  C3  UNL     1     -33.242   7.010   2.863  1.00 20.00     0.205 C 
HETATM    6 CL6  UNL     1     -32.039   8.047   2.064  1.00 20.00    -0.104 Cl
HETATM    7 CL7  UNL     1     -32.797   5.298   2.667  1.00 20.00    -0.104 Cl
ENDBRANCH   1   5
TORSDOF 1
ENDMDL
MODEL 2
REMARK VINA RESULT:      -4.6      2.444      3.593
REMARK  1 active torsions:
REMARK  status: ('A' for Active; 'I' for Inactive)
REMARK    1  A    between atoms: C1_1  and  C3_3 
ROOT
HETATM    1  C1  UNL     1     -33.670   6.870   3.179  1.00 20.00     0.064 C 
HETATM    2  C2  UNL     1     -32.760   7.734   2.713  1.00 20.00     0.184 C 
HETATM    3  F4  UNL     1     -32.919   8.288   1.491  1.00 20.00    -0.193 F 
HETATM    4 CL5  UNL     1     -31.377   8.164   3.646  1.00 20.00    -0.052 Cl
ENDROOT
BRANCH   1   5
HETATM    5  C3  UNL     1     -33.579   6.208   4.518  1.00 20.00     0.205 C 
HETATM    6 CL6  UNL     1     -33.894   7.399   5.800  1.00 20.00    -0.104 Cl
HETATM    7 CL7  UNL     1     -34.762   4.882   4.613  1.00 20.00    -0.104 Cl
ENDBRANCH   1   5
TORSDOF 1
ENDMDL
MODEL 3
REMARK VINA RESULT:      -4.6      1.831      3.289
REMARK  1 active torsions:
REMARK  status: ('A' for Active; 'I' for Inactive)
REMARK    1  A    between atoms: C1_1  and  C3_3 
ROOT
HETATM    1  C1  UNL     1     -32.855   7.037   3.766  1.00 20.00     0.064 C 
HETATM    2  C2  UNL     1     -32.033   7.971   3.271  1.00 20.00     0.184 C 
HETATM    3  F4  UNL     1     -31.241   8.683   4.102  1.00 20.00    -0.193 F 
HETATM    4 CL5  UNL     1     -31.962   8.290   1.579  1.00 20.00    -0.052 Cl
ENDROOT
BRANCH   1   5
HETATM    5  C3  UNL     1     -33.766   6.200   2.925  1.00 20.00     0.205 C 
HETATM    6 CL6  UNL     1     -32.958   4.676   2.495  1.00 20.00    -0.104 Cl
HETATM    7 CL7  UNL     1     -35.267   5.864   3.819  1.00 20.00    -0.104 Cl
ENDBRANCH   1   5
TORSDOF 1
ENDMDL
MODEL 4
REMARK VINA RESULT:      -4.6      2.313      2.640
REMARK  1 active torsions:
REMARK  status: ('A' for Active; 'I' for Inactive)
REMARK    1  A    between atoms: C1_1  and  C3_3 
ROOT
HETATM    1  C1  UNL     1     -33.780   5.718   3.393  1.00 20.00     0.064 C 
HETATM    2  C2  UNL     1     -34.253   4.820   4.267  1.00 20.00     0.184 C 
HETATM    3  F4  UNL     1     -34.248   3.506   3.954  1.00 20.00    -0.193 F 
HETATM    4 CL5  UNL     1     -34.874   5.307   5.799  1.00 20.00    -0.052 Cl
ENDROOT
BRANCH   1   5
HETATM    5  C3  UNL     1     -33.745   7.191   3.651  1.00 20.00     0.205 C 
HETATM    6 CL6  UNL     1     -33.095   7.501   5.277  1.00 20.00    -0.104 Cl
HETATM    7 CL7  UNL     1     -32.732   7.991   2.427  1.00 20.00    -0.104 Cl
ENDBRANCH   1   5
TORSDOF 1
ENDMDL
MODEL 5
REMARK VINA RESULT:      -4.5      1.925      2.380
REMARK  1 active torsions:
REMARK  status: ('A' for Active; 'I' for Inactive)
REMARK    1  A    between atoms: C1_1  and  C3_3 
ROOT
HETATM    1  C1  UNL     1     -33.646   7.276   3.243  1.00 20.00     0.064 C 
HETATM    2  C2  UNL     1     -34.088   6.014   3.322  1.00 20.00     0.184 C 
HETATM    3  F4  UNL     1     -35.285   5.753   3.892  1.00 20.00    -0.193 F 
HETATM    4 CL5  UNL     1     -33.157   4.702   2.706  1.00 20.00    -0.052 Cl
ENDROOT
BRANCH   1   5
HETATM    5  C3  UNL     1     -32.337   7.661   2.630  1.00 20.00     0.205 C 
HETATM    6 CL6  UNL     1     -32.609   8.815   1.305  1.00 20.00    -0.104 Cl
HETATM    7 CL7  UNL     1     -31.287   8.390   3.867  1.00 20.00    -0.104 Cl
ENDBRANCH   1   5
TORSDOF 1
ENDMDL
MODEL 6
REMARK VINA RESULT:      -4.3      2.987      4.129
REMARK  1 active torsions:
REMARK  status: ('A' for Active; 'I' for Inactive)
REMARK    1  A    between atoms: C1_1  and  C3_3 
ROOT
HETATM    1  C1  UNL     1     -32.407   7.475   2.721  1.00 20.00     0.064 C 
HETATM    2  C2  UNL     1     -32.139   8.427   1.817  1.00 20.00     0.184 C 
HETATM    3  F4  UNL     1     -31.012   8.356   1.077  1.00 20.00    -0.193 F 
HETATM    4 CL5  UNL     1     -33.212   9.752   1.573  1.00 20.00    -0.052 Cl
ENDROOT
BRANCH   1   5
HETATM    5  C3  UNL     1     -33.628   7.469   3.585  1.00 20.00     0.205 C 
HETATM    6 CL6  UNL     1     -34.562   5.985   3.294  1.00 20.00    -0.104 Cl
HETATM    7 CL7  UNL     1     -33.153   7.564   5.297  1.00 20.00    -0.104 Cl
ENDBRANCH   1   5
TORSDOF 1
ENDMDL
MODEL 7
REMARK VINA RESULT:      -4.2      2.578      3.512
REMARK  1 active torsions:
REMARK  status: ('A' for Active; 'I' for Inactive)
REMARK    1  A    between atoms: C1_1  and  C3_3 
ROOT
HETATM    1  C1  UNL     1     -34.374   6.462   3.751  1.00 20.00     0.064 C 
HETATM    2  C2  UNL     1     -34.034   5.845   2.612  1.00 20.00     0.184 C 
HETATM    3  F4  UNL     1     -34.622   6.203   1.450  1.00 20.00    -0.193 F 
HETATM    4 CL5  UNL     1     -32.850   4.594   2.594  1.00 20.00    -0.052 Cl
ENDROOT
BRANCH   1   5
HETATM    5  C3  UNL     1     -33.778   6.134   5.083  1.00 20.00     0.205 C 
HETATM    6 CL6  UNL     1     -33.852   7.561   6.142  1.00 20.00    -0.104 Cl
HETATM    7 CL7  UNL     1     -34.665   4.781   5.821  1.00 20.00    -0.104 Cl
ENDBRANCH   1   5
TORSDOF 1
ENDMDL
MODEL 8
REMARK VINA RESULT:      -4.2      2.535      3.630
REMARK  1 active torsions:
REMARK  status: ('A' for Active; 'I' for Inactive)
REMARK    1  A    between atoms: C1_1  and  C3_3 
ROOT
HETATM    1  C1  UNL     1     -33.336   7.210   2.298  1.00 20.00     0.064 C 
HETATM    2  C2  UNL     1     -32.428   8.189   2.385  1.00 20.00     0.184 C 
HETATM    3  F4  UNL     1     -32.367   9.141   1.429  1.00 20.00    -0.193 F 
HETATM    4 CL5  UNL     1     -31.323   8.265   3.705  1.00 20.00    -0.052 Cl
ENDROOT
BRANCH   1   5
HETATM    5  C3  UNL     1     -33.479   6.114   3.307  1.00 20.00     0.205 C 
HETATM    6 CL6  UNL     1     -35.178   5.977   3.810  1.00 20.00    -0.104 Cl
HETATM    7 CL7  UNL     1     -32.925   4.576   2.604  1.00 20.00    -0.104 Cl
ENDBRANCH   1   5
TORSDOF 1
ENDMDL
MODEL 9
REMARK VINA RESULT:      -4.2      1.516      1.908
REMARK  1 active torsions:
REMARK  status: ('A' for Active; 'I' for Inactive)
REMARK    1  A    between atoms: C1_1  and  C3_3 
ROOT
HETATM    1  C1  UNL     1     -33.521   7.208   4.215  1.00 20.00     0.064 C 
HETATM    2  C2  UNL     1     -33.684   6.868   5.500  1.00 20.00     0.184 C 
HETATM    3  F4  UNL     1     -33.172   7.650   6.475  1.00 20.00    -0.193 F 
HETATM    4 CL5  UNL     1     -34.542   5.442   5.943  1.00 20.00    -0.052 Cl
ENDROOT
BRANCH   1   5
HETATM    5  C3  UNL     1     -34.052   6.406   3.069  1.00 20.00     0.205 C 
HETATM    6 CL6  UNL     1     -33.059   4.949   2.844  1.00 20.00    -0.104 Cl
HETATM    7 CL7  UNL     1     -35.742   5.950   3.388  1.00 20.00    -0.104 Cl
ENDBRANCH   1   5
TORSDOF 1
ENDMDL
