MODEL 1
REMARK VINA RESULT:      -5.9      0.000      0.000
REMARK  1 active torsions:
REMARK  status: ('A' for Active; 'I' for Inactive)
REMARK    1  A    between atoms: C1_1  and  C7_7 
ROOT
HETATM    1  C2  UNL     1     -35.412  17.331  -4.874  1.00 20.00     0.007 C 
HETATM    2  C3  UNL     1     -36.144  16.010  -5.121  1.00 20.00     0.020 C 
HETATM    3  C4  UNL     1     -34.414  14.649  -3.897  1.00 20.00     0.026 C 
HETATM    4  C5  UNL     1     -34.180  17.241  -4.023  1.00 20.00    -0.002 A 
HETATM    5  C6  UNL     1     -33.665  15.901  -3.550  1.00 20.00    -0.000 A 
HETATM    6  C7  UNL     1     -35.209  14.802  -5.196  1.00 20.00     0.045 C 
HETATM    7  C8  UNL     1     -34.163  16.929  -2.536  1.00 20.00    -0.040 A 
HETATM    8  C9  UNL     1     -34.321  14.813  -6.437  1.00 20.00     0.027 C 
HETATM    9  C10 UNL     1     -33.107  17.625  -1.707  1.00 20.00     0.015 C 
HETATM   10  C11 UNL     1     -35.450  16.730  -1.781  1.00 20.00     0.015 C 
ENDROOT
BRANCH   6  11
HETATM   11  C1  UNL     1     -36.116  13.579  -5.301  1.00 20.00     0.181 C 
HETATM   12  O12 UNL     1     -37.302  13.752  -4.909  1.00 20.00    -0.647 OA
HETATM   13  O13 UNL     1     -35.559  12.546  -5.768  1.00 20.00    -0.647 OA
ENDBRANCH   6  11
TORSDOF 1
ENDMDL
MODEL 2
REMARK VINA RESULT:      -4.7      1.400      1.881
REMARK  1 active torsions:
REMARK  status: ('A' for Active; 'I' for Inactive)
REMARK    1  A    between atoms: C1_1  and  C7_7 
ROOT
HETATM    1  C2  UNL     1     -33.766  16.160  -5.438  1.00 20.00     0.007 C 
HETATM    2  C3  UNL     1     -35.207  15.879  -5.869  1.00 20.00     0.020 C 
HETATM    3  C4  UNL     1     -36.028  15.649  -3.499  1.00 20.00     0.026 C 
HETATM    4  C5  UNL     1     -33.537  16.258  -3.959  1.00 20.00    -0.002 A 
HETATM    5  C6  UNL     1     -34.659  15.983  -2.985  1.00 20.00    -0.000 A 
HETATM    6  C7  UNL     1     -35.974  14.997  -4.883  1.00 20.00     0.045 C 
HETATM    7  C8  UNL     1     -34.044  17.378  -3.066  1.00 20.00    -0.040 A 
HETATM    8  C9  UNL     1     -35.459  13.561  -4.842  1.00 20.00     0.027 C 
HETATM    9  C10 UNL     1     -33.151  17.790  -1.918  1.00 20.00     0.015 C 
HETATM   10  C11 UNL     1     -34.802  18.540  -3.652  1.00 20.00     0.015 C 
ENDROOT
BRANCH   6  11
HETATM   11  C1  UNL     1     -37.410  14.946  -5.398  1.00 20.00     0.181 C 
HETATM   12  O12 UNL     1     -38.137  14.052  -4.884  1.00 20.00    -0.647 OA
HETATM   13  O13 UNL     1     -37.687  15.809  -6.278  1.00 20.00    -0.647 OA
ENDBRANCH   6  11
TORSDOF 1
ENDMDL
MODEL 3
REMARK VINA RESULT:      -4.6      1.515      2.272
REMARK  1 active torsions:
REMARK  status: ('A' for Active; 'I' for Inactive)
REMARK    1  A    between atoms: C1_1  and  C7_7 
ROOT
HETATM    1  C2  UNL     1     -33.087  15.082  -4.872  1.00 20.00     0.007 C 
HETATM    2  C3  UNL     1     -34.111  15.205  -6.002  1.00 20.00     0.020 C 
HETATM    3  C4  UNL     1     -35.943  15.984  -4.459  1.00 20.00     0.026 C 
HETATM    4  C5  UNL     1     -33.557  15.527  -3.518  1.00 20.00    -0.002 A 
HETATM    5  C6  UNL     1     -34.989  15.958  -3.302  1.00 20.00    -0.000 A 
HETATM    6  C7  UNL     1     -35.552  14.976  -5.544  1.00 20.00     0.045 C 
HETATM    7  C8  UNL     1     -33.854  16.963  -3.122  1.00 20.00    -0.040 A 
HETATM    8  C9  UNL     1     -35.825  13.531  -5.136  1.00 20.00     0.027 C 
HETATM    9  C10 UNL     1     -33.523  17.358  -1.701  1.00 20.00     0.015 C 
HETATM   10  C11 UNL     1     -33.636  18.088  -4.099  1.00 20.00     0.015 C 
ENDROOT
BRANCH   6  11
HETATM   11  C1  UNL     1     -36.428  15.277  -6.757  1.00 20.00     0.181 C 
HETATM   12  O12 UNL     1     -36.720  16.493  -6.923  1.00 20.00    -0.647 OA
HETATM   13  O13 UNL     1     -36.751  14.265  -7.440  1.00 20.00    -0.647 OA
ENDBRANCH   6  11
TORSDOF 1
ENDMDL
MODEL 4
REMARK VINA RESULT:      -4.6      3.190      4.839
REMARK  1 active torsions:
REMARK  status: ('A' for Active; 'I' for Inactive)
REMARK    1  A    between atoms: C1_1  and  C7_7 
ROOT
HETATM    1  C2  UNL     1     -34.016  17.401  -4.937  1.00 20.00     0.007 C 
HETATM    2  C3  UNL     1     -33.322  17.872  -3.658  1.00 20.00     0.020 C 
HETATM    3  C4  UNL     1     -34.745  16.417  -2.173  1.00 20.00     0.026 C 
HETATM    4  C5  UNL     1     -35.050  16.329  -4.759  1.00 20.00    -0.002 A 
HETATM    5  C6  UNL     1     -35.433  15.849  -3.378  1.00 20.00    -0.000 A 
HETATM    6  C7  UNL     1     -34.230  17.837  -2.427  1.00 20.00     0.045 C 
HETATM    7  C8  UNL     1     -34.762  14.891  -4.360  1.00 20.00    -0.040 A 
HETATM    8  C9  UNL     1     -35.349  18.872  -2.481  1.00 20.00     0.027 C 
HETATM    9  C10 UNL     1     -35.643  13.827  -4.973  1.00 20.00     0.015 C 
HETATM   10  C11 UNL     1     -33.346  14.422  -4.159  1.00 20.00     0.015 C 
ENDROOT
BRANCH   6  11
HETATM   11  C1  UNL     1     -33.339  18.197  -1.241  1.00 20.00     0.181 C 
HETATM   12  O12 UNL     1     -32.191  18.628  -1.540  1.00 20.00    -0.647 OA
HETATM   13  O13 UNL     1     -33.866  18.016  -0.108  1.00 20.00    -0.647 OA
ENDBRANCH   6  11
TORSDOF 1
ENDMDL
MODEL 5
REMARK VINA RESULT:      -4.5      2.159      3.203
REMARK  1 active torsions:
REMARK  status: ('A' for Active; 'I' for Inactive)
REMARK    1  A    between atoms: C1_1  and  C7_7 
ROOT
HETATM    1  C2  UNL     1     -33.098  18.017  -2.152  1.00 20.00     0.007 C 
HETATM    2  C3  UNL     1     -33.575  17.991  -3.605  1.00 20.00     0.020 C 
HETATM    3  C4  UNL     1     -35.593  16.581  -3.074  1.00 20.00     0.026 C 
HETATM    4  C5  UNL     1     -34.002  17.347  -1.159  1.00 20.00    -0.002 A 
HETATM    5  C6  UNL     1     -35.239  16.610  -1.617  1.00 20.00    -0.000 A 
HETATM    6  C7  UNL     1     -34.357  16.727  -3.965  1.00 20.00     0.045 C 
HETATM    7  C8  UNL     1     -35.373  17.854  -0.741  1.00 20.00    -0.040 A 
HETATM    8  C9  UNL     1     -33.487  15.473  -3.981  1.00 20.00     0.027 C 
HETATM    9  C10 UNL     1     -35.771  17.625   0.699  1.00 20.00     0.015 C 
HETATM   10  C11 UNL     1     -35.910  19.149  -1.289  1.00 20.00     0.015 C 
ENDROOT
BRANCH   6  11
HETATM   11  C1  UNL     1     -34.866  16.941  -5.388  1.00 20.00     0.181 C 
HETATM   12  O12 UNL     1     -36.110  16.803  -5.542  1.00 20.00    -0.647 OA
HETATM   13  O13 UNL     1     -33.971  17.231  -6.232  1.00 20.00    -0.647 OA
ENDBRANCH   6  11
TORSDOF 1
ENDMDL
MODEL 6
REMARK VINA RESULT:      -4.5      1.648      2.684
REMARK  1 active torsions:
REMARK  status: ('A' for Active; 'I' for Inactive)
REMARK    1  A    between atoms: C1_1  and  C7_7 
ROOT
HETATM    1  C2  UNL     1     -37.330  14.813  -4.587  1.00 20.00     0.007 C 
HETATM    2  C3  UNL     1     -36.435  13.838  -5.353  1.00 20.00     0.020 C 
HETATM    3  C4  UNL     1     -34.948  15.667  -6.241  1.00 20.00     0.026 C 
HETATM    4  C5  UNL     1     -36.907  16.252  -4.626  1.00 20.00    -0.002 A 
HETATM    5  C6  UNL     1     -35.730  16.687  -5.468  1.00 20.00    -0.000 A 
HETATM    6  C7  UNL     1     -35.802  14.449  -6.604  1.00 20.00     0.045 C 
HETATM    7  C8  UNL     1     -35.672  16.820  -3.948  1.00 20.00    -0.040 A 
HETATM    8  C9  UNL     1     -36.820  14.745  -7.703  1.00 20.00     0.027 C 
HETATM    9  C10 UNL     1     -35.787  18.220  -3.388  1.00 20.00     0.015 C 
HETATM   10  C11 UNL     1     -34.782  15.938  -3.114  1.00 20.00     0.015 C 
ENDROOT
BRANCH   6  11
HETATM   11  C1  UNL     1     -34.846  13.391  -7.148  1.00 20.00     0.181 C 
HETATM   12  O12 UNL     1     -33.944  13.824  -7.918  1.00 20.00    -0.647 OA
HETATM   13  O13 UNL     1     -35.082  12.214  -6.757  1.00 20.00    -0.647 OA
ENDBRANCH   6  11
TORSDOF 1
ENDMDL
MODEL 7
REMARK VINA RESULT:      -4.4      1.680      2.790
REMARK  1 active torsions:
REMARK  status: ('A' for Active; 'I' for Inactive)
REMARK    1  A    between atoms: C1_1  and  C7_7 
ROOT
HETATM    1  C2  UNL     1     -34.705  15.452  -3.460  1.00 20.00     0.007 C 
HETATM    2  C3  UNL     1     -34.315  14.509  -4.600  1.00 20.00     0.020 C 
HETATM    3  C4  UNL     1     -35.583  15.832  -6.328  1.00 20.00     0.026 C 
HETATM    4  C5  UNL     1     -35.498  16.661  -3.859  1.00 20.00    -0.002 A 
HETATM    5  C6  UNL     1     -35.957  16.846  -5.287  1.00 20.00    -0.000 A 
HETATM    6  C7  UNL     1     -35.356  14.446  -5.719  1.00 20.00     0.045 C 
HETATM    7  C8  UNL     1     -34.964  17.829  -4.672  1.00 20.00    -0.040 A 
HETATM    8  C9  UNL     1     -36.655  13.769  -5.288  1.00 20.00     0.027 C 
HETATM    9  C10 UNL     1     -35.500  19.200  -4.325  1.00 20.00     0.015 C 
HETATM   10  C11 UNL     1     -33.522  17.867  -5.103  1.00 20.00     0.015 C 
ENDROOT
BRANCH   6  11
HETATM   11  C1  UNL     1     -34.739  13.582  -6.815  1.00 20.00     0.181 C 
HETATM   12  O12 UNL     1     -34.023  14.200  -7.650  1.00 20.00    -0.647 OA
HETATM   13  O13 UNL     1     -35.026  12.354  -6.746  1.00 20.00    -0.647 OA
ENDBRANCH   6  11
TORSDOF 1
ENDMDL
MODEL 8
REMARK VINA RESULT:      -4.3     11.345     12.379
REMARK  1 active torsions:
REMARK  status: ('A' for Active; 'I' for Inactive)
REMARK    1  A    between atoms: C1_1  and  C7_7 
ROOT
HETATM    1  C2  UNL     1     -33.951   8.327   4.399  1.00 20.00     0.007 C 
HETATM    2  C3  UNL     1     -33.992   6.945   5.053  1.00 20.00     0.020 C 
HETATM    3  C4  UNL     1     -33.397   5.751   2.917  1.00 20.00     0.026 C 
HETATM    4  C5  UNL     1     -33.525   8.353   2.961  1.00 20.00    -0.002 A 
HETATM    5  C6  UNL     1     -33.267   7.067   2.209  1.00 20.00    -0.000 A 
HETATM    6  C7  UNL     1     -34.383   5.826   4.086  1.00 20.00     0.045 C 
HETATM    7  C8  UNL     1     -32.124   8.049   2.457  1.00 20.00    -0.040 A 
HETATM    8  C9  UNL     1     -35.837   5.913   3.630  1.00 20.00     0.027 C 
HETATM    9  C10 UNL     1     -31.645   8.841   1.262  1.00 20.00     0.015 C 
HETATM   10  C11 UNL     1     -31.013   7.736   3.424  1.00 20.00     0.015 C 
ENDROOT
BRANCH   6  11
HETATM   11  C1  UNL     1     -34.233   4.525   4.869  1.00 20.00     0.181 C 
HETATM   12  O12 UNL     1     -34.044   3.493   4.168  1.00 20.00    -0.647 OA
HETATM   13  O13 UNL     1     -34.318   4.649   6.123  1.00 20.00    -0.647 OA
ENDBRANCH   6  11
TORSDOF 1
ENDMDL
MODEL 9
REMARK VINA RESULT:      -4.3      2.170      4.049
REMARK  1 active torsions:
REMARK  status: ('A' for Active; 'I' for Inactive)
REMARK    1  A    between atoms: C1_1  and  C7_7 
ROOT
HETATM    1  C2  UNL     1     -36.179  17.346  -5.293  1.00 20.00     0.007 C 
HETATM    2  C3  UNL     1     -34.813  16.669  -5.413  1.00 20.00     0.020 C 
HETATM    3  C4  UNL     1     -35.657  14.469  -4.524  1.00 20.00     0.026 C 
HETATM    4  C5  UNL     1     -37.305  16.462  -4.842  1.00 20.00    -0.002 A 
HETATM    5  C6  UNL     1     -37.046  15.029  -4.437  1.00 20.00    -0.000 A 
HETATM    6  C7  UNL     1     -34.592  15.560  -4.383  1.00 20.00     0.045 C 
HETATM    7  C8  UNL     1     -37.912  15.332  -5.657  1.00 20.00    -0.040 A 
HETATM    8  C9  UNL     1     -34.468  16.087  -2.956  1.00 20.00     0.027 C 
HETATM    9  C10 UNL     1     -39.398  15.105  -5.503  1.00 20.00     0.015 C 
HETATM   10  C11 UNL     1     -37.428  15.051  -7.055  1.00 20.00     0.015 C 
ENDROOT
BRANCH   6  11
HETATM   11  C1  UNL     1     -33.256  14.915  -4.744  1.00 20.00     0.181 C 
HETATM   12  O12 UNL     1     -33.070  13.760  -4.273  1.00 20.00    -0.647 OA
HETATM   13  O13 UNL     1     -32.505  15.625  -5.469  1.00 20.00    -0.647 OA
ENDBRANCH   6  11
TORSDOF 1
ENDMDL
