MODEL 1
REMARK VINA RESULT:      -5.3      0.000      0.000
REMARK  0 active torsions:
REMARK  status: ('A' for Active; 'I' for Inactive)
ROOT
HETATM    1  C1  UNL     1     -32.651   9.788   1.988  1.00 20.00    -0.024 C 
HETATM    2  C2  UNL     1     -32.254   9.120   0.881  1.00 20.00    -0.024 C 
HETATM    3  C3  UNL     1     -33.375   7.268   4.626  1.00 20.00     0.272 C 
HETATM    4  C4  UNL     1     -33.228   5.771   2.900  1.00 20.00     0.272 C 
HETATM    5  C5  UNL     1     -31.808   8.932   2.903  1.00 20.00     0.031 C 
HETATM    6  C6  UNL     1     -31.750   7.924   1.679  1.00 20.00     0.031 C 
HETATM    7  C7  UNL     1     -32.298   7.738   3.672  1.00 20.00     0.108 C 
HETATM    8  C8  UNL     1     -32.891   7.151   2.344  1.00 20.00     0.108 C 
HETATM    9  O9  UNL     1     -33.854   7.813   5.610  1.00 20.00    -0.264 OA
HETATM   10  O10 UNL     1     -33.163   4.671   2.370  1.00 20.00    -0.264 OA
HETATM   11  O11 UNL     1     -33.723   5.981   4.196  1.00 20.00    -0.244 OA
ENDROOT
TORSDOF 0
ENDMDL
MODEL 2
REMARK VINA RESULT:      -5.2      1.554      3.205
REMARK  0 active torsions:
REMARK  status: ('A' for Active; 'I' for Inactive)
ROOT
HETATM    1  C1  UNL     1     -32.289   6.679   2.199  1.00 20.00    -0.024 C 
HETATM    2  C2  UNL     1     -32.187   7.954   2.641  1.00 20.00    -0.024 C 
HETATM    3  C3  UNL     1     -34.439   4.824   4.601  1.00 20.00     0.272 C 
HETATM    4  C4  UNL     1     -34.153   6.674   5.919  1.00 20.00     0.272 C 
HETATM    5  C5  UNL     1     -33.773   6.619   2.474  1.00 20.00     0.031 C 
HETATM    6  C6  UNL     1     -33.515   7.893   3.385  1.00 20.00     0.031 C 
HETATM    7  C7  UNL     1     -34.406   6.048   3.711  1.00 20.00     0.108 C 
HETATM    8  C8  UNL     1     -33.462   6.946   4.585  1.00 20.00     0.108 C 
HETATM    9  O9  UNL     1     -34.465   3.636   4.313  1.00 20.00    -0.264 OA
HETATM   10  O10 UNL     1     -34.351   7.418   6.868  1.00 20.00    -0.264 OA
HETATM   11  O11 UNL     1     -34.495   5.313   5.912  1.00 20.00    -0.244 OA
ENDROOT
TORSDOF 0
ENDMDL
MODEL 3
REMARK VINA RESULT:      -5.2      2.047      3.518
REMARK  0 active torsions:
REMARK  status: ('A' for Active; 'I' for Inactive)
ROOT
HETATM    1  C1  UNL     1     -34.043   4.204   4.082  1.00 20.00    -0.024 C 
HETATM    2  C2  UNL     1     -33.676   4.140   2.781  1.00 20.00    -0.024 C 
HETATM    3  C3  UNL     1     -33.293   7.638   5.297  1.00 20.00     0.272 C 
HETATM    4  C4  UNL     1     -32.134   7.823   3.331  1.00 20.00     0.272 C 
HETATM    5  C5  UNL     1     -34.691   5.557   3.915  1.00 20.00     0.031 C 
HETATM    6  C6  UNL     1     -33.854   5.638   2.569  1.00 20.00     0.031 C 
HETATM    7  C7  UNL     1     -34.042   6.877   4.224  1.00 20.00     0.108 C 
HETATM    8  C8  UNL     1     -32.816   6.458   3.338  1.00 20.00     0.108 C 
HETATM    9  O9  UNL     1     -33.494   7.713   6.501  1.00 20.00    -0.264 OA
HETATM   10  O10 UNL     1     -31.514   8.388   2.442  1.00 20.00    -0.264 OA
HETATM   11  O11 UNL     1     -32.287   8.344   4.625  1.00 20.00    -0.244 OA
ENDROOT
TORSDOF 0
ENDMDL
MODEL 4
REMARK VINA RESULT:      -4.8     10.136     10.944
REMARK  0 active torsions:
REMARK  status: ('A' for Active; 'I' for Inactive)
ROOT
HETATM    1  C1  UNL     1     -34.631  16.701  -1.908  1.00 20.00    -0.024 C 
HETATM    2  C2  UNL     1     -35.919  17.067  -2.103  1.00 20.00    -0.024 C 
HETATM    3  C3  UNL     1     -33.796  14.121  -4.454  1.00 20.00     0.272 C 
HETATM    4  C4  UNL     1     -36.056  14.091  -4.817  1.00 20.00     0.272 C 
HETATM    5  C5  UNL     1     -34.318  16.725  -3.385  1.00 20.00     0.031 C 
HETATM    6  C6  UNL     1     -35.892  16.690  -3.579  1.00 20.00     0.031 C 
HETATM    7  C7  UNL     1     -34.327  15.530  -4.296  1.00 20.00     0.108 C 
HETATM    8  C8  UNL     1     -35.769  15.179  -3.786  1.00 20.00     0.108 C 
HETATM    9  O9  UNL     1     -32.679  13.668  -4.245  1.00 20.00    -0.264 OA
HETATM   10  O10 UNL     1     -37.097  13.804  -5.389  1.00 20.00    -0.264 OA
HETATM   11  O11 UNL     1     -34.860  13.373  -4.973  1.00 20.00    -0.244 OA
ENDROOT
TORSDOF 0
ENDMDL
MODEL 5
REMARK VINA RESULT:      -4.7     10.648     11.476
REMARK  0 active torsions:
REMARK  status: ('A' for Active; 'I' for Inactive)
ROOT
HETATM    1  C1  UNL     1     -34.563  16.656  -3.778  1.00 20.00    -0.024 C 
HETATM    2  C2  UNL     1     -33.378  16.816  -4.410  1.00 20.00    -0.024 C 
HETATM    3  C3  UNL     1     -36.291  13.758  -5.341  1.00 20.00     0.272 C 
HETATM    4  C4  UNL     1     -34.666  13.957  -6.941  1.00 20.00     0.272 C 
HETATM    5  C5  UNL     1     -34.409  15.156  -3.700  1.00 20.00     0.031 C 
HETATM    6  C6  UNL     1     -33.300  15.351  -4.819  1.00 20.00     0.031 C 
HETATM    7  C7  UNL     1     -35.000  14.170  -4.667  1.00 20.00     0.108 C 
HETATM    8  C8  UNL     1     -34.368  14.982  -5.850  1.00 20.00     0.108 C 
HETATM    9  O9  UNL     1     -37.421  13.644  -4.887  1.00 20.00    -0.264 OA
HETATM   10  O10 UNL     1     -34.006  13.633  -7.918  1.00 20.00    -0.264 OA
HETATM   11  O11 UNL     1     -35.944  13.448  -6.662  1.00 20.00    -0.244 OA
ENDROOT
TORSDOF 0
ENDMDL
MODEL 6
REMARK VINA RESULT:      -4.7     10.707     11.505
REMARK  0 active torsions:
REMARK  status: ('A' for Active; 'I' for Inactive)
ROOT
HETATM    1  C1  UNL     1     -33.417  15.473  -3.753  1.00 20.00    -0.024 C 
HETATM    2  C2  UNL     1     -34.069  16.509  -3.175  1.00 20.00    -0.024 C 
HETATM    3  C3  UNL     1     -35.910  13.522  -5.705  1.00 20.00     0.272 C 
HETATM    4  C4  UNL     1     -37.439  14.800  -4.577  1.00 20.00     0.272 C 
HETATM    5  C5  UNL     1     -34.120  15.666  -5.075  1.00 20.00     0.031 C 
HETATM    6  C6  UNL     1     -35.157  16.530  -4.242  1.00 20.00     0.031 C 
HETATM    7  C7  UNL     1     -35.339  14.913  -5.530  1.00 20.00     0.108 C 
HETATM    8  C8  UNL     1     -36.048  15.288  -4.182  1.00 20.00     0.108 C 
HETATM    9  O9  UNL     1     -35.396  12.506  -6.150  1.00 20.00    -0.264 OA
HETATM   10  O10 UNL     1     -38.539  15.261  -4.312  1.00 20.00    -0.264 OA
HETATM   11  O11 UNL     1     -37.246  13.610  -5.296  1.00 20.00    -0.244 OA
ENDROOT
TORSDOF 0
ENDMDL
MODEL 7
REMARK VINA RESULT:      -4.6     10.805     11.162
REMARK  0 active torsions:
REMARK  status: ('A' for Active; 'I' for Inactive)
ROOT
HETATM    1  C1  UNL     1     -34.082  16.737  -4.488  1.00 20.00    -0.024 C 
HETATM    2  C2  UNL     1     -33.012  16.155  -5.078  1.00 20.00    -0.024 C 
HETATM    3  C3  UNL     1     -36.924  14.348  -4.702  1.00 20.00     0.272 C 
HETATM    4  C4  UNL     1     -35.561  13.227  -6.161  1.00 20.00     0.272 C 
HETATM    5  C5  UNL     1     -34.467  15.472  -3.758  1.00 20.00     0.031 C 
HETATM    6  C6  UNL     1     -33.520  14.744  -4.803  1.00 20.00     0.031 C 
HETATM    7  C7  UNL     1     -35.495  14.479  -4.222  1.00 20.00     0.108 C 
HETATM    8  C8  UNL     1     -34.775  14.415  -5.614  1.00 20.00     0.108 C 
HETATM    9  O9  UNL     1     -37.949  14.873  -4.291  1.00 20.00    -0.264 OA
HETATM   10  O10 UNL     1     -35.196  12.302  -6.871  1.00 20.00    -0.264 OA
HETATM   11  O11 UNL     1     -36.888  13.409  -5.741  1.00 20.00    -0.244 OA
ENDROOT
TORSDOF 0
ENDMDL
MODEL 8
REMARK VINA RESULT:      -4.6     10.534     11.648
REMARK  0 active torsions:
REMARK  status: ('A' for Active; 'I' for Inactive)
ROOT
HETATM    1  C1  UNL     1     -34.037  17.076  -2.904  1.00 20.00    -0.024 C 
HETATM    2  C2  UNL     1     -34.947  16.443  -2.129  1.00 20.00    -0.024 C 
HETATM    3  C3  UNL     1     -34.047  15.421  -6.235  1.00 20.00     0.272 C 
HETATM    4  C4  UNL     1     -35.288  13.819  -5.169  1.00 20.00     0.272 C 
HETATM    5  C5  UNL     1     -34.956  17.100  -4.102  1.00 20.00     0.031 C 
HETATM    6  C6  UNL     1     -35.771  15.982  -3.325  1.00 20.00     0.031 C 
HETATM    7  C7  UNL     1     -34.946  16.102  -5.225  1.00 20.00     0.108 C 
HETATM    8  C8  UNL     1     -35.031  14.944  -4.170  1.00 20.00     0.108 C 
HETATM    9  O9  UNL     1     -33.155  15.877  -6.936  1.00 20.00    -0.264 OA
HETATM   10  O10 UNL     1     -35.996  12.827  -5.072  1.00 20.00    -0.264 OA
HETATM   11  O11 UNL     1     -34.473  14.087  -6.280  1.00 20.00    -0.244 OA
ENDROOT
TORSDOF 0
ENDMDL
MODEL 9
REMARK VINA RESULT:      -4.5      1.923      3.600
REMARK  0 active torsions:
REMARK  status: ('A' for Active; 'I' for Inactive)
ROOT
HETATM    1  C1  UNL     1     -34.047   6.770   6.195  1.00 20.00    -0.024 C 
HETATM    2  C2  UNL     1     -34.690   5.584   6.092  1.00 20.00    -0.024 C 
HETATM    3  C3  UNL     1     -32.405   7.447   2.927  1.00 20.00     0.272 C 
HETATM    4  C4  UNL     1     -32.922   5.261   2.485  1.00 20.00     0.272 C 
HETATM    5  C5  UNL     1     -34.524   7.236   4.840  1.00 20.00     0.031 C 
HETATM    6  C6  UNL     1     -34.850   5.704   4.582  1.00 20.00     0.031 C 
HETATM    7  C7  UNL     1     -33.744   7.131   3.560  1.00 20.00     0.108 C 
HETATM    8  C8  UNL     1     -33.510   5.608   3.850  1.00 20.00     0.108 C 
HETATM    9  O9  UNL     1     -31.710   8.450   3.004  1.00 20.00    -0.264 OA
HETATM   10  O10 UNL     1     -33.050   4.252   1.806  1.00 20.00    -0.264 OA
HETATM   11  O11 UNL     1     -32.095   6.338   2.130  1.00 20.00    -0.244 OA
ENDROOT
TORSDOF 0
ENDMDL
