MODEL 1
REMARK VINA RESULT:      -3.3      0.000      0.000
REMARK  0 active torsions:
REMARK  status: ('A' for Active; 'I' for Inactive)
ROOT
HETATM    1  C1  UNL     1     -34.043   6.599   5.466  1.00 20.00     0.200 C 
HETATM    2  C2  UNL     1     -34.532   5.373   5.623  1.00 20.00     0.113 C 
HETATM    3  F3  UNL     1     -34.143   7.526   6.436  1.00 20.00    -0.219 F 
HETATM    4 CL4  UNL     1     -34.428   4.167   4.413  1.00 20.00    -0.095 Cl
ENDROOT
TORSDOF 0
ENDMDL
MODEL 2
REMARK VINA RESULT:      -3.1      2.837      2.916
REMARK  0 active torsions:
REMARK  status: ('A' for Active; 'I' for Inactive)
ROOT
HETATM    1  C1  UNL     1     -34.455   5.185   4.515  1.00 20.00     0.200 C 
HETATM    2  C2  UNL     1     -34.398   5.765   5.709  1.00 20.00     0.113 C 
HETATM    3  F3  UNL     1     -34.896   3.922   4.366  1.00 20.00    -0.219 F 
HETATM    4 CL4  UNL     1     -33.842   7.367   5.940  1.00 20.00    -0.095 Cl
ENDROOT
TORSDOF 0
ENDMDL
MODEL 3
REMARK VINA RESULT:      -3.0      1.447      1.716
REMARK  0 active torsions:
REMARK  status: ('A' for Active; 'I' for Inactive)
ROOT
HETATM    1  C1  UNL     1     -34.103   6.597   5.330  1.00 20.00     0.200 C 
HETATM    2  C2  UNL     1     -33.735   6.970   4.109  1.00 20.00     0.113 C 
HETATM    3  F3  UNL     1     -34.001   7.432   6.381  1.00 20.00    -0.219 F 
HETATM    4 CL4  UNL     1     -33.846   5.938   2.748  1.00 20.00    -0.095 Cl
ENDROOT
TORSDOF 0
ENDMDL
MODEL 4
REMARK VINA RESULT:      -3.0      2.408      2.450
REMARK  0 active torsions:
REMARK  status: ('A' for Active; 'I' for Inactive)
ROOT
HETATM    1  C1  UNL     1     -33.528   7.302   5.502  1.00 20.00     0.200 C 
HETATM    2  C2  UNL     1     -33.661   7.045   4.205  1.00 20.00     0.113 C 
HETATM    3  F3  UNL     1     -34.425   6.862   6.402  1.00 20.00    -0.219 F 
HETATM    4 CL4  UNL     1     -32.544   7.588   3.028  1.00 20.00    -0.095 Cl
ENDROOT
TORSDOF 0
ENDMDL
MODEL 5
REMARK VINA RESULT:      -2.9      3.083      3.194
REMARK  0 active torsions:
REMARK  status: ('A' for Active; 'I' for Inactive)
ROOT
HETATM    1  C1  UNL     1     -34.411   6.093   3.659  1.00 20.00     0.200 C 
HETATM    2  C2  UNL     1     -33.718   7.031   4.295  1.00 20.00     0.113 C 
HETATM    3  F3  UNL     1     -34.316   5.928   2.327  1.00 20.00    -0.219 F 
HETATM    4 CL4  UNL     1     -33.813   7.273   5.986  1.00 20.00    -0.095 Cl
ENDROOT
TORSDOF 0
ENDMDL
MODEL 6
REMARK VINA RESULT:      -2.8      3.279      3.432
REMARK  0 active torsions:
REMARK  status: ('A' for Active; 'I' for Inactive)
ROOT
HETATM    1  C1  UNL     1     -32.540   7.637   3.482  1.00 20.00     0.200 C 
HETATM    2  C2  UNL     1     -33.591   7.208   4.173  1.00 20.00     0.113 C 
HETATM    3  F3  UNL     1     -32.509   7.578   2.138  1.00 20.00    -0.219 F 
HETATM    4 CL4  UNL     1     -33.668   7.264   5.881  1.00 20.00    -0.095 Cl
ENDROOT
TORSDOF 0
ENDMDL
MODEL 7
REMARK VINA RESULT:      -2.8      2.996      3.125
REMARK  0 active torsions:
REMARK  status: ('A' for Active; 'I' for Inactive)
ROOT
HETATM    1  C1  UNL     1     -34.487   5.998   3.494  1.00 20.00     0.200 C 
HETATM    2  C2  UNL     1     -33.749   7.038   3.868  1.00 20.00     0.113 C 
HETATM    3  F3  UNL     1     -35.636   5.689   4.121  1.00 20.00    -0.219 F 
HETATM    4 CL4  UNL     1     -32.281   7.462   3.099  1.00 20.00    -0.095 Cl
ENDROOT
TORSDOF 0
ENDMDL
MODEL 8
REMARK VINA RESULT:      -2.7      2.718      2.849
REMARK  0 active torsions:
REMARK  status: ('A' for Active; 'I' for Inactive)
ROOT
HETATM    1  C1  UNL     1     -32.945   6.765   3.014  1.00 20.00     0.200 C 
HETATM    2  C2  UNL     1     -33.820   6.798   4.014  1.00 20.00     0.113 C 
HETATM    3  F3  UNL     1     -31.917   7.630   2.951  1.00 20.00    -0.219 F 
HETATM    4 CL4  UNL     1     -35.142   5.718   4.130  1.00 20.00    -0.095 Cl
ENDROOT
TORSDOF 0
ENDMDL
MODEL 9
REMARK VINA RESULT:      -2.7      5.122      5.364
REMARK  0 active torsions:
REMARK  status: ('A' for Active; 'I' for Inactive)
ROOT
HETATM    1  C1  UNL     1     -32.687   8.006   2.491  1.00 20.00     0.200 C 
HETATM    2  C2  UNL     1     -32.050   8.732   1.578  1.00 20.00     0.113 C 
HETATM    3  F3  UNL     1     -32.226   6.804   2.881  1.00 20.00    -0.219 F 
HETATM    4 CL4  UNL     1     -32.605  10.264   1.054  1.00 20.00    -0.095 Cl
ENDROOT
TORSDOF 0
ENDMDL
