MODEL 1
REMARK VINA RESULT:      -3.8      0.000      0.000
REMARK  1 active torsions:
REMARK  status: ('A' for Active; 'I' for Inactive)
REMARK    1  A    between atoms: C1_1  and  C3_3 
ROOT
HETATM    1  C1  UNL     1     -33.748   7.217   3.872  1.00 20.00     0.181 A 
HETATM    2  C2  UNL     1     -32.406   7.463   3.246  1.00 20.00     0.247 A 
HETATM    3  O4  UNL     1     -33.077   6.203   3.114  1.00 20.00    -0.358 OA
HETATM    4 CL5  UNL     1     -32.275   8.497   1.850  1.00 20.00    -0.092 Cl
ENDROOT
BRANCH   1   5
HETATM    5  C3  UNL     1     -33.873   6.920   5.324  1.00 20.00     0.150 C 
HETATM    6 CL6  UNL     1     -34.647   5.333   5.598  1.00 20.00    -0.128 Cl
ENDBRANCH   1   5
TORSDOF 1
ENDMDL
MODEL 2
REMARK VINA RESULT:      -3.7      1.638      1.834
REMARK  1 active torsions:
REMARK  status: ('A' for Active; 'I' for Inactive)
REMARK    1  A    between atoms: C1_1  and  C3_3 
ROOT
HETATM    1  C1  UNL     1     -32.542   7.221   2.985  1.00 20.00     0.181 A 
HETATM    2  C2  UNL     1     -32.303   8.535   2.298  1.00 20.00     0.247 A 
HETATM    3  O4  UNL     1     -31.642   8.197   3.525  1.00 20.00    -0.358 OA
HETATM    4 CL5  UNL     1     -31.373   8.590   0.827  1.00 20.00    -0.092 Cl
ENDROOT
BRANCH   1   5
HETATM    5  C3  UNL     1     -33.764   6.995   3.800  1.00 20.00     0.150 C 
HETATM    6 CL6  UNL     1     -33.471   7.356   5.525  1.00 20.00    -0.128 Cl
ENDBRANCH   1   5
TORSDOF 1
ENDMDL
MODEL 3
REMARK VINA RESULT:      -3.6      1.271      3.481
REMARK  1 active torsions:
REMARK  status: ('A' for Active; 'I' for Inactive)
REMARK    1  A    between atoms: C1_1  and  C3_3 
ROOT
HETATM    1  C1  UNL     1     -33.338   6.276   3.371  1.00 20.00     0.181 A 
HETATM    2  C2  UNL     1     -34.479   6.311   4.346  1.00 20.00     0.247 A 
HETATM    3  O4  UNL     1     -34.654   5.844   3.002  1.00 20.00    -0.358 OA
HETATM    4 CL5  UNL     1     -34.543   5.161   5.652  1.00 20.00    -0.092 Cl
ENDROOT
BRANCH   1   5
HETATM    5  C3  UNL     1     -32.880   7.511   2.684  1.00 20.00     0.150 C 
HETATM    6 CL6  UNL     1     -31.458   8.220   3.502  1.00 20.00    -0.128 Cl
ENDBRANCH   1   5
TORSDOF 1
ENDMDL
MODEL 4
REMARK VINA RESULT:      -3.6      2.327      4.240
REMARK  1 active torsions:
REMARK  status: ('A' for Active; 'I' for Inactive)
REMARK    1  A    between atoms: C1_1  and  C3_3 
ROOT
HETATM    1  C1  UNL     1     -32.429   8.762   2.098  1.00 20.00     0.181 A 
HETATM    2  C2  UNL     1     -32.540   7.399   2.717  1.00 20.00     0.247 A 
HETATM    3  O4  UNL     1     -31.503   8.313   3.096  1.00 20.00    -0.358 OA
HETATM    4 CL5  UNL     1     -33.819   7.060   3.849  1.00 20.00    -0.092 Cl
ENDROOT
BRANCH   1   5
HETATM    5  C3  UNL     1     -31.837   8.943   0.747  1.00 20.00     0.150 C 
HETATM    6 CL6  UNL     1     -33.078   9.423  -0.446  1.00 20.00    -0.128 Cl
ENDBRANCH   1   5
TORSDOF 1
ENDMDL
MODEL 5
REMARK VINA RESULT:      -3.4      1.261      1.279
REMARK  1 active torsions:
REMARK  status: ('A' for Active; 'I' for Inactive)
REMARK    1  A    between atoms: C1_1  and  C3_3 
ROOT
HETATM    1  C1  UNL     1     -33.192   6.287   3.486  1.00 20.00     0.181 A 
HETATM    2  C2  UNL     1     -33.172   7.684   2.937  1.00 20.00     0.247 A 
HETATM    3  O4  UNL     1     -32.922   7.418   4.324  1.00 20.00    -0.358 OA
HETATM    4 CL5  UNL     1     -31.851   8.204   1.929  1.00 20.00    -0.092 Cl
ENDROOT
BRANCH   1   5
HETATM    5  C3  UNL     1     -34.476   5.597   3.776  1.00 20.00     0.150 C 
HETATM    6 CL6  UNL     1     -34.711   5.376   5.534  1.00 20.00    -0.128 Cl
ENDBRANCH   1   5
TORSDOF 1
ENDMDL
MODEL 6
REMARK VINA RESULT:      -3.4      2.780      2.780
REMARK  1 active torsions:
REMARK  status: ('A' for Active; 'I' for Inactive)
REMARK    1  A    between atoms: C1_1  and  C3_3 
ROOT
HETATM    1  C1  UNL     1     -34.636   5.413   4.440  1.00 20.00     0.181 A 
HETATM    2  C2  UNL     1     -33.493   4.594   3.915  1.00 20.00     0.247 A 
HETATM    3  O4  UNL     1     -34.724   3.987   4.329  1.00 20.00    -0.358 OA
HETATM    4 CL5  UNL     1     -33.102   4.633   2.218  1.00 20.00    -0.092 Cl
ENDROOT
BRANCH   1   5
HETATM    5  C3  UNL     1     -34.635   5.923   5.836  1.00 20.00     0.150 C 
HETATM    6 CL6  UNL     1     -33.672   7.421   5.979  1.00 20.00    -0.128 Cl
ENDBRANCH   1   5
TORSDOF 1
ENDMDL
MODEL 7
REMARK VINA RESULT:      -3.3      2.767      3.098
REMARK  1 active torsions:
REMARK  status: ('A' for Active; 'I' for Inactive)
REMARK    1  A    between atoms: C1_1  and  C3_3 
ROOT
HETATM    1  C1  UNL     1     -32.205   8.188   1.736  1.00 20.00     0.181 A 
HETATM    2  C2  UNL     1     -32.237   9.490   0.989  1.00 20.00     0.247 A 
HETATM    3  O4  UNL     1     -31.123   8.593   0.888  1.00 20.00    -0.358 OA
HETATM    4 CL5  UNL     1     -33.293   9.680  -0.382  1.00 20.00    -0.092 Cl
ENDROOT
BRANCH   1   5
HETATM    5  C3  UNL     1     -31.870   8.143   3.183  1.00 20.00     0.150 C 
HETATM    6 CL6  UNL     1     -33.172   7.366   4.128  1.00 20.00    -0.128 Cl
ENDBRANCH   1   5
TORSDOF 1
ENDMDL
MODEL 8
REMARK VINA RESULT:      -3.0     11.180     11.945
REMARK  1 active torsions:
REMARK  status: ('A' for Active; 'I' for Inactive)
REMARK    1  A    between atoms: C1_1  and  C3_3 
ROOT
HETATM    1  C1  UNL     1     -35.589  14.095  -4.994  1.00 20.00     0.181 A 
HETATM    2  C2  UNL     1     -35.421  13.536  -6.377  1.00 20.00     0.247 A 
HETATM    3  O4  UNL     1     -35.920  12.734  -5.299  1.00 20.00    -0.358 OA
HETATM    4 CL5  UNL     1     -36.515  14.015  -7.646  1.00 20.00    -0.092 Cl
ENDROOT
BRANCH   1   5
HETATM    5  C3  UNL     1     -34.423  14.256  -4.087  1.00 20.00     0.150 C 
HETATM    6 CL6  UNL     1     -34.536  15.771  -3.146  1.00 20.00    -0.128 Cl
ENDBRANCH   1   5
TORSDOF 1
ENDMDL
MODEL 9
REMARK VINA RESULT:      -3.0     11.378     11.960
REMARK  1 active torsions:
REMARK  status: ('A' for Active; 'I' for Inactive)
REMARK    1  A    between atoms: C1_1  and  C3_3 
ROOT
HETATM    1  C1  UNL     1     -35.407  14.051  -4.867  1.00 20.00     0.181 A 
HETATM    2  C2  UNL     1     -36.655  13.959  -5.697  1.00 20.00     0.247 A 
HETATM    3  O4  UNL     1     -35.976  12.786  -5.228  1.00 20.00    -0.358 OA
HETATM    4 CL5  UNL     1     -38.195  14.376  -5.001  1.00 20.00    -0.092 Cl
ENDROOT
BRANCH   1   5
HETATM    5  C3  UNL     1     -34.090  14.335  -5.494  1.00 20.00     0.150 C 
HETATM    6 CL6  UNL     1     -32.781  14.349  -4.277  1.00 20.00    -0.128 Cl
ENDBRANCH   1   5
TORSDOF 1
ENDMDL
