MODEL 1
REMARK VINA RESULT:      -6.4      0.000      0.000
REMARK  1 active torsions:
REMARK  status: ('A' for Active; 'I' for Inactive)
REMARK    1  A    between atoms: C5_5  and  C10_10 
ROOT
HETATM    1  C1  UNL     1     -33.332   6.400   2.731  1.00 20.00     0.027 A 
HETATM    2  C2  UNL     1     -33.091   7.777   4.689  1.00 20.00     0.027 A 
HETATM    3  C3  UNL     1     -34.111   5.546   3.494  1.00 20.00     0.116 A 
HETATM    4  C4  UNL     1     -33.882   6.861   5.364  1.00 20.00     0.116 A 
HETATM    5  C5  UNL     1     -32.815   7.535   3.347  1.00 20.00    -0.051 A 
HETATM    6  N11 UNL     1     -34.401   5.747   4.799  1.00 20.00    -0.273 NA
ENDROOT
BRANCH   5   7
HETATM    7  C10 UNL     1     -31.905   8.562   2.513  1.00 20.00     0.026 C 
HETATM    8  C8  UNL     1     -31.503   8.191   1.051  1.00 20.00     0.043 C 
HETATM    9  C6  UNL     1     -32.519   9.228   0.642  1.00 20.00    -0.088 C 
HETATM   10  C7  UNL     1     -33.152   9.476  -0.505  1.00 20.00     0.014 C 
HETATM   11  C9  UNL     1     -32.553   9.887   1.997  1.00 20.00     0.043 C 
ENDBRANCH   5   7
TORSDOF 1
ENDMDL
MODEL 2
REMARK VINA RESULT:      -6.4      0.067      1.418
REMARK  1 active torsions:
REMARK  status: ('A' for Active; 'I' for Inactive)
REMARK    1  A    between atoms: C5_5  and  C10_10 
ROOT
HETATM    1  C1  UNL     1     -33.181   7.758   4.648  1.00 20.00     0.027 A 
HETATM    2  C2  UNL     1     -33.287   6.331   2.715  1.00 20.00     0.027 A 
HETATM    3  C3  UNL     1     -33.972   6.831   5.307  1.00 20.00     0.116 A 
HETATM    4  C4  UNL     1     -34.073   5.468   3.461  1.00 20.00     0.116 A 
HETATM    5  C5  UNL     1     -32.836   7.496   3.326  1.00 20.00    -0.051 A 
HETATM    6  N11 UNL     1     -34.429   5.690   4.747  1.00 20.00    -0.273 NA
ENDROOT
BRANCH   5   7
HETATM    7  C10 UNL     1     -31.920   8.533   2.511  1.00 20.00     0.026 C 
HETATM    8  C8  UNL     1     -31.515   8.183   1.044  1.00 20.00     0.043 C 
HETATM    9  C6  UNL     1     -32.526   9.231   0.649  1.00 20.00    -0.088 C 
HETATM   10  C7  UNL     1     -33.155   9.499  -0.495  1.00 20.00     0.014 C 
HETATM   11  C9  UNL     1     -32.561   9.868   2.014  1.00 20.00     0.043 C 
ENDBRANCH   5   7
TORSDOF 1
ENDMDL
MODEL 3
REMARK VINA RESULT:      -5.1      1.996      4.732
REMARK  1 active torsions:
REMARK  status: ('A' for Active; 'I' for Inactive)
REMARK    1  A    between atoms: C5_5  and  C10_10 
ROOT
HETATM    1  C1  UNL     1     -32.261   7.427   3.603  1.00 20.00     0.027 A 
HETATM    2  C2  UNL     1     -33.219   7.883   1.445  1.00 20.00     0.027 A 
HETATM    3  C3  UNL     1     -31.436   8.522   3.408  1.00 20.00     0.116 A 
HETATM    4  C4  UNL     1     -32.350   8.958   1.346  1.00 20.00     0.116 A 
HETATM    5  C5  UNL     1     -33.168   7.107   2.598  1.00 20.00    -0.051 A 
HETATM    6  N11 UNL     1     -31.457   9.299   2.302  1.00 20.00    -0.273 NA
ENDROOT
BRANCH   5   7
HETATM    7  C10 UNL     1     -34.151   5.849   2.768  1.00 20.00     0.026 C 
HETATM    8  C8  UNL     1     -33.651   4.611   3.578  1.00 20.00     0.043 C 
HETATM    9  C6  UNL     1     -34.581   5.101   4.659  1.00 20.00    -0.088 C 
HETATM   10  C7  UNL     1     -34.671   4.843   5.964  1.00 20.00     0.014 C 
HETATM   11  C9  UNL     1     -35.376   5.981   3.729  1.00 20.00     0.043 C 
ENDBRANCH   5   7
TORSDOF 1
ENDMDL
MODEL 4
REMARK VINA RESULT:      -4.9      2.226      4.499
REMARK  1 active torsions:
REMARK  status: ('A' for Active; 'I' for Inactive)
REMARK    1  A    between atoms: C5_5  and  C10_10 
ROOT
HETATM    1  C1  UNL     1     -32.795   8.001   0.632  1.00 20.00     0.027 A 
HETATM    2  C2  UNL     1     -32.354   9.708   2.267  1.00 20.00     0.027 A 
HETATM    3  C3  UNL     1     -32.899   9.009  -0.312  1.00 20.00     0.116 A 
HETATM    4  C4  UNL     1     -32.478  10.640   1.249  1.00 20.00     0.116 A 
HETATM    5  C5  UNL     1     -32.517   8.366   1.945  1.00 20.00    -0.051 A 
HETATM    6  N11 UNL     1     -32.748  10.323  -0.038  1.00 20.00    -0.273 NA
ENDROOT
BRANCH   5   7
HETATM    7  C10 UNL     1     -32.383   7.241   3.084  1.00 20.00     0.026 C 
HETATM    8  C8  UNL     1     -33.270   7.360   4.364  1.00 20.00     0.043 C 
HETATM    9  C6  UNL     1     -34.067   6.230   3.764  1.00 20.00    -0.088 C 
HETATM   10  C7  UNL     1     -35.292   5.758   4.000  1.00 20.00     0.014 C 
HETATM   11  C9  UNL     1     -32.977   5.822   2.807  1.00 20.00     0.043 C 
ENDBRANCH   5   7
TORSDOF 1
ENDMDL
MODEL 5
REMARK VINA RESULT:      -4.5     10.055     10.693
REMARK  1 active torsions:
REMARK  status: ('A' for Active; 'I' for Inactive)
REMARK    1  A    between atoms: C5_5  and  C10_10 
ROOT
HETATM    1  C1  UNL     1     -35.257  16.681  -1.866  1.00 20.00     0.027 A 
HETATM    2  C2  UNL     1     -33.062  17.660  -1.764  1.00 20.00     0.027 A 
HETATM    3  C3  UNL     1     -35.499  17.228  -0.616  1.00 20.00     0.116 A 
HETATM    4  C4  UNL     1     -33.403  18.163  -0.518  1.00 20.00     0.116 A 
HETATM    5  C5  UNL     1     -34.012  16.906  -2.444  1.00 20.00    -0.051 A 
HETATM    6  N11 UNL     1     -34.602  17.965   0.075  1.00 20.00    -0.273 NA
ENDROOT
BRANCH   5   7
HETATM    7  C10 UNL     1     -33.674  16.299  -3.892  1.00 20.00     0.026 C 
HETATM    8  C8  UNL     1     -33.404  14.766  -4.018  1.00 20.00     0.043 C 
HETATM    9  C6  UNL     1     -34.774  14.704  -4.645  1.00 20.00    -0.088 C 
HETATM   10  C7  UNL     1     -35.628  13.704  -4.864  1.00 20.00     0.014 C 
HETATM   11  C9  UNL     1     -34.826  16.181  -4.942  1.00 20.00     0.043 C 
ENDBRANCH   5   7
TORSDOF 1
ENDMDL
MODEL 6
REMARK VINA RESULT:      -4.5     10.053     10.725
REMARK  1 active torsions:
REMARK  status: ('A' for Active; 'I' for Inactive)
REMARK    1  A    between atoms: C5_5  and  C10_10 
ROOT
HETATM    1  C1  UNL     1     -33.047  17.654  -1.769  1.00 20.00     0.027 A 
HETATM    2  C2  UNL     1     -35.249  16.694  -1.861  1.00 20.00     0.027 A 
HETATM    3  C3  UNL     1     -33.379  18.159  -0.522  1.00 20.00     0.116 A 
HETATM    4  C4  UNL     1     -35.483  17.242  -0.610  1.00 20.00     0.116 A 
HETATM    5  C5  UNL     1     -34.006  16.908  -2.445  1.00 20.00    -0.051 A 
HETATM    6  N11 UNL     1     -34.576  17.972   0.077  1.00 20.00    -0.273 NA
ENDROOT
BRANCH   5   7
HETATM    7  C10 UNL     1     -33.678  16.296  -3.893  1.00 20.00     0.026 C 
HETATM    8  C8  UNL     1     -33.406  14.763  -4.016  1.00 20.00     0.043 C 
HETATM    9  C6  UNL     1     -34.781  14.697  -4.632  1.00 20.00    -0.088 C 
HETATM   10  C7  UNL     1     -35.634  13.694  -4.840  1.00 20.00     0.014 C 
HETATM   11  C9  UNL     1     -34.838  16.172  -4.934  1.00 20.00     0.043 C 
ENDBRANCH   5   7
TORSDOF 1
ENDMDL
MODEL 7
REMARK VINA RESULT:      -4.5     10.126     10.920
REMARK  1 active torsions:
REMARK  status: ('A' for Active; 'I' for Inactive)
REMARK    1  A    between atoms: C5_5  and  C10_10 
ROOT
HETATM    1  C1  UNL     1     -35.965  15.129  -4.078  1.00 20.00     0.027 A 
HETATM    2  C2  UNL     1     -33.613  15.529  -3.776  1.00 20.00     0.027 A 
HETATM    3  C3  UNL     1     -35.624  14.054  -4.883  1.00 20.00     0.116 A 
HETATM    4  C4  UNL     1     -33.377  14.436  -4.594  1.00 20.00     0.116 A 
HETATM    5  C5  UNL     1     -34.935  15.876  -3.517  1.00 20.00    -0.051 A 
HETATM    6  N11 UNL     1     -34.352  13.687  -5.157  1.00 20.00    -0.273 NA
ENDROOT
BRANCH   5   7
HETATM    7  C10 UNL     1     -35.269  17.132  -2.575  1.00 20.00     0.026 C 
HETATM    8  C8  UNL     1     -34.904  17.052  -1.059  1.00 20.00     0.043 C 
HETATM    9  C6  UNL     1     -33.782  17.996  -1.409  1.00 20.00    -0.088 C 
HETATM   10  C7  UNL     1     -32.653  18.335  -0.785  1.00 20.00     0.014 C 
HETATM   11  C9  UNL     1     -34.402  18.425  -2.714  1.00 20.00     0.043 C 
ENDBRANCH   5   7
TORSDOF 1
ENDMDL
MODEL 8
REMARK VINA RESULT:      -4.5     10.134     10.951
REMARK  1 active torsions:
REMARK  status: ('A' for Active; 'I' for Inactive)
REMARK    1  A    between atoms: C5_5  and  C10_10 
ROOT
HETATM    1  C1  UNL     1     -33.655  15.509  -3.787  1.00 20.00     0.027 A 
HETATM    2  C2  UNL     1     -36.021  15.177  -4.061  1.00 20.00     0.027 A 
HETATM    3  C3  UNL     1     -33.461  14.419  -4.619  1.00 20.00     0.116 A 
HETATM    4  C4  UNL     1     -35.720  14.101  -4.881  1.00 20.00     0.116 A 
HETATM    5  C5  UNL     1     -34.963  15.890  -3.508  1.00 20.00    -0.051 A 
HETATM    6  N11 UNL     1     -34.462  13.702  -5.175  1.00 20.00    -0.273 NA
ENDROOT
BRANCH   5   7
HETATM    7  C10 UNL     1     -35.250  17.147  -2.551  1.00 20.00     0.026 C 
HETATM    8  C8  UNL     1     -34.839  17.055  -1.047  1.00 20.00     0.043 C 
HETATM    9  C6  UNL     1     -33.715  17.985  -1.428  1.00 20.00    -0.088 C 
HETATM   10  C7  UNL     1     -32.562  18.306  -0.839  1.00 20.00     0.014 C 
HETATM   11  C9  UNL     1     -34.369  18.428  -2.712  1.00 20.00     0.043 C 
ENDBRANCH   5   7
TORSDOF 1
ENDMDL
MODEL 9
REMARK VINA RESULT:      -4.5     10.336     11.248
REMARK  1 active torsions:
REMARK  status: ('A' for Active; 'I' for Inactive)
REMARK    1  A    between atoms: C5_5  and  C10_10 
ROOT
HETATM    1  C1  UNL     1     -35.638  14.465  -4.554  1.00 20.00     0.027 A 
HETATM    2  C2  UNL     1     -34.002  14.917  -6.258  1.00 20.00     0.027 A 
HETATM    3  C3  UNL     1     -35.940  13.295  -5.231  1.00 20.00     0.116 A 
HETATM    4  C4  UNL     1     -34.378  13.726  -6.859  1.00 20.00     0.116 A 
HETATM    5  C5  UNL     1     -34.649  15.287  -5.084  1.00 20.00    -0.051 A 
HETATM    6  N11 UNL     1     -35.334  12.902  -6.373  1.00 20.00    -0.273 NA
ENDROOT
BRANCH   5   7
HETATM    7  C10 UNL     1     -34.255  16.656  -4.342  1.00 20.00     0.026 C 
HETATM    8  C8  UNL     1     -35.389  17.512  -3.696  1.00 20.00     0.043 C 
HETATM    9  C6  UNL     1     -34.854  16.999  -2.382  1.00 20.00    -0.088 C 
HETATM   10  C7  UNL     1     -35.367  16.945  -1.153  1.00 20.00     0.014 C 
HETATM   11  C9  UNL     1     -33.529  16.577  -2.961  1.00 20.00     0.043 C 
ENDBRANCH   5   7
TORSDOF 1
ENDMDL
