MODEL 1
REMARK VINA RESULT:      -3.9      0.000      0.000
REMARK  1 active torsions:
REMARK  status: ('A' for Active; 'I' for Inactive)
REMARK    1  A    between atoms: N3_3  and  P4_4 
ROOT
HETATM    1  C1  UNL     1     -33.612   7.379   5.781  1.00 20.00     0.117 C 
HETATM    2  C2  UNL     1     -32.472   7.666   3.699  1.00 20.00     0.117 C 
HETATM    3  N3  UNL     1     -33.741   7.285   4.323  1.00 20.00    -0.274 NA
ENDROOT
BRANCH   3   4
HETATM    4  P4  UNL     1     -34.411   5.812   3.754  1.00 20.00     0.158 P 
HETATM    5 CL5  UNL     1     -33.014   4.755   2.592  1.00 20.00    -0.059 Cl
HETATM    6 CL6  UNL     1     -34.585   4.417   5.316  1.00 20.00    -0.059 Cl
ENDBRANCH   3   4
TORSDOF 1
ENDMDL
MODEL 2
REMARK VINA RESULT:      -3.8      1.790      2.432
REMARK  1 active torsions:
REMARK  status: ('A' for Active; 'I' for Inactive)
REMARK    1  A    between atoms: N3_3  and  P4_4 
ROOT
HETATM    1  C1  UNL     1     -34.537   4.994   5.410  1.00 20.00     0.117 C 
HETATM    2  C2  UNL     1     -33.777   7.210   5.889  1.00 20.00     0.117 C 
HETATM    3  N3  UNL     1     -34.450   6.366   4.899  1.00 20.00    -0.274 NA
ENDROOT
BRANCH   3   4
HETATM    4  P4  UNL     1     -33.839   6.501   3.302  1.00 20.00     0.158 P 
HETATM    5 CL5  UNL     1     -32.089   7.665   3.267  1.00 20.00    -0.059 Cl
HETATM    6 CL6  UNL     1     -32.980   4.688   2.675  1.00 20.00    -0.059 Cl
ENDBRANCH   3   4
TORSDOF 1
ENDMDL
MODEL 3
REMARK VINA RESULT:      -3.8      1.978      2.628
REMARK  1 active torsions:
REMARK  status: ('A' for Active; 'I' for Inactive)
REMARK    1  A    between atoms: N3_3  and  P4_4 
ROOT
HETATM    1  C1  UNL     1     -32.523   7.268   2.927  1.00 20.00     0.117 C 
HETATM    2  C2  UNL     1     -32.988   4.942   2.622  1.00 20.00     0.117 C 
HETATM    3  N3  UNL     1     -33.573   6.244   2.952  1.00 20.00    -0.274 NA
ENDROOT
BRANCH   3   4
HETATM    4  P4  UNL     1     -34.557   6.258   4.356  1.00 20.00     0.158 P 
HETATM    5 CL5  UNL     1     -34.533   4.381   5.304  1.00 20.00    -0.059 Cl
HETATM    6 CL6  UNL     1     -33.646   7.360   5.897  1.00 20.00    -0.059 Cl
ENDBRANCH   3   4
TORSDOF 1
ENDMDL
MODEL 4
REMARK VINA RESULT:      -3.7      2.759      3.581
REMARK  1 active torsions:
REMARK  status: ('A' for Active; 'I' for Inactive)
REMARK    1  A    between atoms: N3_3  and  P4_4 
ROOT
HETATM    1  C1  UNL     1     -33.035   4.813   2.726  1.00 20.00     0.117 C 
HETATM    2  C2  UNL     1     -34.499   4.523   4.594  1.00 20.00     0.117 C 
HETATM    3  N3  UNL     1     -34.139   5.409   3.484  1.00 20.00    -0.274 NA
ENDROOT
BRANCH   3   4
HETATM    4  P4  UNL     1     -33.907   7.052   3.919  1.00 20.00     0.158 P 
HETATM    5 CL5  UNL     1     -33.634   7.245   5.995  1.00 20.00    -0.059 Cl
HETATM    6 CL6  UNL     1     -32.005   7.721   3.325  1.00 20.00    -0.059 Cl
ENDBRANCH   3   4
TORSDOF 1
ENDMDL
MODEL 5
REMARK VINA RESULT:      -3.5      2.148      2.694
REMARK  1 active torsions:
REMARK  status: ('A' for Active; 'I' for Inactive)
REMARK    1  A    between atoms: N3_3  and  P4_4 
ROOT
HETATM    1  C1  UNL     1     -33.039   5.064   2.477  1.00 20.00     0.117 C 
HETATM    2  C2  UNL     1     -32.779   7.441   2.439  1.00 20.00     0.117 C 
HETATM    3  N3  UNL     1     -32.984   6.275   3.302  1.00 20.00    -0.274 NA
ENDROOT
BRANCH   3   4
HETATM    4  P4  UNL     1     -34.263   6.432   4.434  1.00 20.00     0.158 P 
HETATM    5 CL5  UNL     1     -34.633   4.603   5.403  1.00 20.00    -0.059 Cl
HETATM    6 CL6  UNL     1     -33.640   7.520   6.121  1.00 20.00    -0.059 Cl
ENDBRANCH   3   4
TORSDOF 1
ENDMDL
MODEL 6
REMARK VINA RESULT:      -3.3      2.079      2.484
REMARK  1 active torsions:
REMARK  status: ('A' for Active; 'I' for Inactive)
REMARK    1  A    between atoms: N3_3  and  P4_4 
ROOT
HETATM    1  C1  UNL     1     -32.477   8.726   1.624  1.00 20.00     0.117 C 
HETATM    2  C2  UNL     1     -31.392   8.284   3.709  1.00 20.00     0.117 C 
HETATM    3  N3  UNL     1     -32.228   7.710   2.652  1.00 20.00    -0.274 NA
ENDROOT
BRANCH   3   4
HETATM    4  P4  UNL     1     -33.629   6.891   3.206  1.00 20.00     0.158 P 
HETATM    5 CL5  UNL     1     -33.378   4.807   3.074  1.00 20.00    -0.059 Cl
HETATM    6 CL6  UNL     1     -33.792   7.020   5.298  1.00 20.00    -0.059 Cl
ENDBRANCH   3   4
TORSDOF 1
ENDMDL
MODEL 7
REMARK VINA RESULT:      -3.1      0.691      1.535
REMARK  1 active torsions:
REMARK  status: ('A' for Active; 'I' for Inactive)
REMARK    1  A    between atoms: N3_3  and  P4_4 
ROOT
HETATM    1  C1  UNL     1     -32.529   8.034   2.959  1.00 20.00     0.117 C 
HETATM    2  C2  UNL     1     -33.303   7.690   5.195  1.00 20.00     0.117 C 
HETATM    3  N3  UNL     1     -32.899   7.023   3.955  1.00 20.00    -0.274 NA
ENDROOT
BRANCH   3   4
HETATM    4  P4  UNL     1     -33.991   5.826   3.392  1.00 20.00     0.158 P 
HETATM    5 CL5  UNL     1     -32.972   4.325   2.329  1.00 20.00    -0.059 Cl
HETATM    6 CL6  UNL     1     -34.671   4.629   4.980  1.00 20.00    -0.059 Cl
ENDBRANCH   3   4
TORSDOF 1
ENDMDL
MODEL 8
REMARK VINA RESULT:      -2.9      3.082      3.287
REMARK  1 active torsions:
REMARK  status: ('A' for Active; 'I' for Inactive)
REMARK    1  A    between atoms: N3_3  and  P4_4 
ROOT
HETATM    1  C1  UNL     1     -34.835   5.894   3.695  1.00 20.00     0.117 C 
HETATM    2  C2  UNL     1     -33.764   7.218   5.373  1.00 20.00     0.117 C 
HETATM    3  N3  UNL     1     -34.039   7.101   3.939  1.00 20.00    -0.274 NA
ENDROOT
BRANCH   3   4
HETATM    4  P4  UNL     1     -32.667   7.274   2.925  1.00 20.00     0.158 P 
HETATM    5 CL5  UNL     1     -33.045   8.652   1.383  1.00 20.00    -0.059 Cl
HETATM    6 CL6  UNL     1     -31.150   8.355   3.899  1.00 20.00    -0.059 Cl
ENDBRANCH   3   4
TORSDOF 1
ENDMDL
MODEL 9
REMARK VINA RESULT:      -2.9      1.966      2.757
REMARK  1 active torsions:
REMARK  status: ('A' for Active; 'I' for Inactive)
REMARK    1  A    between atoms: N3_3  and  P4_4 
ROOT
HETATM    1  C1  UNL     1     -34.990   5.748   4.526  1.00 20.00     0.117 C 
HETATM    2  C2  UNL     1     -33.761   7.297   5.871  1.00 20.00     0.117 C 
HETATM    3  N3  UNL     1     -34.100   6.913   4.498  1.00 20.00    -0.274 NA
ENDROOT
BRANCH   3   4
HETATM    4  P4  UNL     1     -32.759   6.768   3.438  1.00 20.00     0.158 P 
HETATM    5 CL5  UNL     1     -32.910   5.023   2.276  1.00 20.00    -0.059 Cl
HETATM    6 CL6  UNL     1     -32.893   8.160   1.869  1.00 20.00    -0.059 Cl
ENDBRANCH   3   4
TORSDOF 1
ENDMDL
