MODEL 1
REMARK VINA RESULT:      -3.7      0.000      0.000
REMARK  1 active torsions:
REMARK  status: ('A' for Active; 'I' for Inactive)
REMARK    1  A    between atoms: C4_4  and  S6_6 
ROOT
HETATM    1  C1  UNL     1     -34.690   6.287   1.913  1.00 20.00     0.030 C 
HETATM    2  C2  UNL     1     -32.859   7.176   3.385  1.00 20.00     0.030 C 
HETATM    3  C3  UNL     1     -32.925   4.732   2.800  1.00 20.00     0.030 C 
HETATM    4  C4  UNL     1     -33.766   5.977   3.094  1.00 20.00     0.042 C 
ENDROOT
BRANCH   4   5
HETATM    5  S6  UNL     1     -34.814   5.666   4.586  1.00 20.00     0.120 S 
HETATM    6  O5  UNL     1     -34.367   4.356   5.133  1.00 20.00    -0.240 OA
HETATM    7 CL7  UNL     1     -33.926   6.915   5.876  1.00 20.00    -0.010 Cl
ENDBRANCH   4   5
TORSDOF 1
ENDMDL
MODEL 2
REMARK VINA RESULT:      -3.7      0.049      1.640
REMARK  1 active torsions:
REMARK  status: ('A' for Active; 'I' for Inactive)
REMARK    1  A    between atoms: C4_4  and  S6_6 
ROOT
HETATM    1  C1  UNL     1     -32.926   4.742   2.831  1.00 20.00     0.030 C 
HETATM    2  C2  UNL     1     -34.660   6.325   1.938  1.00 20.00     0.030 C 
HETATM    3  C3  UNL     1     -32.804   7.188   3.399  1.00 20.00     0.030 C 
HETATM    4  C4  UNL     1     -33.738   6.007   3.119  1.00 20.00     0.042 C 
ENDROOT
BRANCH   4   5
HETATM    5  S6  UNL     1     -34.790   5.696   4.609  1.00 20.00     0.120 S 
HETATM    6  O5  UNL     1     -34.337   4.391   5.163  1.00 20.00    -0.240 OA
HETATM    7 CL7  UNL     1     -33.913   6.955   5.897  1.00 20.00    -0.010 Cl
ENDBRANCH   4   5
TORSDOF 1
ENDMDL
MODEL 3
REMARK VINA RESULT:      -3.7      2.304      2.683
REMARK  1 active torsions:
REMARK  status: ('A' for Active; 'I' for Inactive)
REMARK    1  A    between atoms: C4_4  and  S6_6 
ROOT
HETATM    1  C1  UNL     1     -34.434   4.921   5.369  1.00 20.00     0.030 C 
HETATM    2  C2  UNL     1     -35.752   5.961   3.500  1.00 20.00     0.030 C 
HETATM    3  C3  UNL     1     -33.391   5.196   3.098  1.00 20.00     0.030 C 
HETATM    4  C4  UNL     1     -34.360   5.801   4.118  1.00 20.00     0.042 C 
ENDROOT
BRANCH   4   5
HETATM    5  S6  UNL     1     -33.751   7.474   4.620  1.00 20.00     0.120 S 
HETATM    6  O5  UNL     1     -33.140   7.299   5.966  1.00 20.00    -0.240 OA
HETATM    7 CL7  UNL     1     -32.103   7.575   3.487  1.00 20.00    -0.010 Cl
ENDBRANCH   4   5
TORSDOF 1
ENDMDL
MODEL 4
REMARK VINA RESULT:      -3.7      2.310      2.486
REMARK  1 active torsions:
REMARK  status: ('A' for Active; 'I' for Inactive)
REMARK    1  A    between atoms: C4_4  and  S6_6 
ROOT
HETATM    1  C1  UNL     1     -35.770   6.001   3.489  1.00 20.00     0.030 C 
HETATM    2  C2  UNL     1     -33.415   5.218   3.099  1.00 20.00     0.030 C 
HETATM    3  C3  UNL     1     -34.479   4.924   5.358  1.00 20.00     0.030 C 
HETATM    4  C4  UNL     1     -34.386   5.820   4.119  1.00 20.00     0.042 C 
ENDROOT
BRANCH   4   5
HETATM    5  S6  UNL     1     -33.751   7.484   4.615  1.00 20.00     0.120 S 
HETATM    6  O5  UNL     1     -33.120   7.299   5.951  1.00 20.00    -0.240 OA
HETATM    7 CL7  UNL     1     -32.119   7.570   3.457  1.00 20.00    -0.010 Cl
ENDBRANCH   4   5
TORSDOF 1
ENDMDL
MODEL 5
REMARK VINA RESULT:      -3.7      0.054      1.653
REMARK  1 active torsions:
REMARK  status: ('A' for Active; 'I' for Inactive)
REMARK    1  A    between atoms: C4_4  and  S6_6 
ROOT
HETATM    1  C1  UNL     1     -32.817   7.178   3.401  1.00 20.00     0.030 C 
HETATM    2  C2  UNL     1     -32.940   4.733   2.834  1.00 20.00     0.030 C 
HETATM    3  C3  UNL     1     -34.668   6.320   1.931  1.00 20.00     0.030 C 
HETATM    4  C4  UNL     1     -33.753   6.000   3.117  1.00 20.00     0.042 C 
ENDROOT
BRANCH   4   5
HETATM    5  S6  UNL     1     -34.786   5.703   4.622  1.00 20.00     0.120 S 
HETATM    6  O5  UNL     1     -34.328   4.401   5.181  1.00 20.00    -0.240 OA
HETATM    7 CL7  UNL     1     -33.891   6.971   5.888  1.00 20.00    -0.010 Cl
ENDBRANCH   4   5
TORSDOF 1
ENDMDL
MODEL 6
REMARK VINA RESULT:      -3.6      2.287      2.704
REMARK  1 active torsions:
REMARK  status: ('A' for Active; 'I' for Inactive)
REMARK    1  A    between atoms: C4_4  and  S6_6 
ROOT
HETATM    1  C1  UNL     1     -33.419   5.324   3.035  1.00 20.00     0.030 C 
HETATM    2  C2  UNL     1     -34.421   4.915   5.302  1.00 20.00     0.030 C 
HETATM    3  C3  UNL     1     -35.794   6.004   3.500  1.00 20.00     0.030 C 
HETATM    4  C4  UNL     1     -34.390   5.854   4.093  1.00 20.00     0.042 C 
ENDROOT
BRANCH   4   5
HETATM    5  S6  UNL     1     -33.787   7.509   4.658  1.00 20.00     0.120 S 
HETATM    6  O5  UNL     1     -33.188   7.288   6.002  1.00 20.00    -0.240 OA
HETATM    7 CL7  UNL     1     -32.127   7.649   3.545  1.00 20.00    -0.010 Cl
ENDBRANCH   4   5
TORSDOF 1
ENDMDL
MODEL 7
REMARK VINA RESULT:      -3.6      2.587      2.946
REMARK  1 active torsions:
REMARK  status: ('A' for Active; 'I' for Inactive)
REMARK    1  A    between atoms: C4_4  and  S6_6 
ROOT
HETATM    1  C1  UNL     1     -35.523   6.160   3.671  1.00 20.00     0.030 C 
HETATM    2  C2  UNL     1     -34.455   4.536   5.262  1.00 20.00     0.030 C 
HETATM    3  C3  UNL     1     -34.026   7.001   5.508  1.00 20.00     0.030 C 
HETATM    4  C4  UNL     1     -34.282   5.862   4.516  1.00 20.00     0.042 C 
ENDROOT
BRANCH   4   5
HETATM    5  S6  UNL     1     -32.830   5.705   3.381  1.00 20.00     0.120 S 
HETATM    6  O5  UNL     1     -33.262   4.788   2.290  1.00 20.00    -0.240 OA
HETATM    7 CL7  UNL     1     -32.960   7.468   2.439  1.00 20.00    -0.010 Cl
ENDBRANCH   4   5
TORSDOF 1
ENDMDL
MODEL 8
REMARK VINA RESULT:      -3.6      2.588      2.948
REMARK  1 active torsions:
REMARK  status: ('A' for Active; 'I' for Inactive)
REMARK    1  A    between atoms: C4_4  and  S6_6 
ROOT
HETATM    1  C1  UNL     1     -34.024   6.993   5.511  1.00 20.00     0.030 C 
HETATM    2  C2  UNL     1     -35.524   6.163   3.675  1.00 20.00     0.030 C 
HETATM    3  C3  UNL     1     -34.467   4.530   5.268  1.00 20.00     0.030 C 
HETATM    4  C4  UNL     1     -34.285   5.855   4.521  1.00 20.00     0.042 C 
ENDROOT
BRANCH   4   5
HETATM    5  S6  UNL     1     -32.828   5.723   3.390  1.00 20.00     0.120 S 
HETATM    6  O5  UNL     1     -33.231   4.778   2.313  1.00 20.00    -0.240 OA
HETATM    7 CL7  UNL     1     -33.006   7.467   2.422  1.00 20.00    -0.010 Cl
ENDBRANCH   4   5
TORSDOF 1
ENDMDL
MODEL 9
REMARK VINA RESULT:      -3.4      2.869      3.170
REMARK  1 active torsions:
REMARK  status: ('A' for Active; 'I' for Inactive)
REMARK    1  A    between atoms: C4_4  and  S6_6 
ROOT
HETATM    1  C1  UNL     1     -35.963   6.165   3.742  1.00 20.00     0.030 C 
HETATM    2  C2  UNL     1     -34.364   4.380   4.494  1.00 20.00     0.030 C 
HETATM    3  C3  UNL     1     -34.098   6.738   5.327  1.00 20.00     0.030 C 
HETATM    4  C4  UNL     1     -34.517   5.862   4.142  1.00 20.00     0.042 C 
ENDROOT
BRANCH   4   5
HETATM    5  S6  UNL     1     -33.425   6.232   2.695  1.00 20.00     0.120 S 
HETATM    6  O5  UNL     1     -32.239   6.941   3.249  1.00 20.00    -0.240 OA
HETATM    7 CL7  UNL     1     -32.646   4.410   2.400  1.00 20.00    -0.010 Cl
ENDBRANCH   4   5
TORSDOF 1
ENDMDL
