MODEL 1
REMARK VINA RESULT:      -5.1      0.000      0.000
REMARK  2 active torsions:
REMARK  status: ('A' for Active; 'I' for Inactive)
REMARK    1  A    between atoms: C3_3  and  C4_4 
REMARK    2  A    between atoms: C4_4  and  S7_7 
ROOT
HETATM    1  C4  UNL     1     -33.265   5.970   3.014  1.00 20.00     0.162 C 
ENDROOT
BRANCH   1   2
HETATM    2  C3  UNL     1     -33.068   7.446   3.076  1.00 20.00     0.001 A 
HETATM    3  C1  UNL     1     -31.744   8.016   3.506  1.00 20.00     0.006 A 
HETATM    4  C2  UNL     1     -32.184   8.133   2.073  1.00 20.00     0.006 A 
ENDBRANCH   1   2
BRANCH   1   5
HETATM    5  S7  UNL     1     -34.540   5.419   4.113  1.00 20.00     0.230 S 
HETATM    6  O5  UNL     1     -34.348   4.006   4.371  1.00 20.00    -0.211 OA
HETATM    7  O6  UNL     1     -35.807   5.950   3.655  1.00 20.00    -0.211 OA
HETATM    8 CL8  UNL     1     -34.195   6.339   5.908  1.00 20.00     0.018 Cl
ENDBRANCH   1   5
TORSDOF 2
ENDMDL
MODEL 2
REMARK VINA RESULT:      -4.7      1.359      1.630
REMARK  2 active torsions:
REMARK  status: ('A' for Active; 'I' for Inactive)
REMARK    1  A    between atoms: C3_3  and  C4_4 
REMARK    2  A    between atoms: C4_4  and  S7_7 
ROOT
HETATM    1  C4  UNL     1     -33.191   6.322   3.003  1.00 20.00     0.162 C 
ENDROOT
BRANCH   1   2
HETATM    2  C3  UNL     1     -32.880   7.779   2.970  1.00 20.00     0.001 A 
HETATM    3  C1  UNL     1     -31.508   8.269   3.343  1.00 20.00     0.006 A 
HETATM    4  C2  UNL     1     -31.967   8.333   1.913  1.00 20.00     0.006 A 
ENDBRANCH   1   2
BRANCH   1   5
HETATM    5  S7  UNL     1     -34.411   5.926   4.225  1.00 20.00     0.230 S 
HETATM    6  O5  UNL     1     -35.721   6.015   3.613  1.00 20.00    -0.211 OA
HETATM    7  O6  UNL     1     -34.086   6.628   5.448  1.00 20.00    -0.211 OA
HETATM    8 CL8  UNL     1     -34.165   3.942   4.666  1.00 20.00     0.018 Cl
ENDBRANCH   1   5
TORSDOF 2
ENDMDL
MODEL 3
REMARK VINA RESULT:      -4.7      0.956      1.221
REMARK  2 active torsions:
REMARK  status: ('A' for Active; 'I' for Inactive)
REMARK    1  A    between atoms: C3_3  and  C4_4 
REMARK    2  A    between atoms: C4_4  and  S7_7 
ROOT
HETATM    1  C4  UNL     1     -33.655   7.258   3.982  1.00 20.00     0.162 C 
ENDROOT
BRANCH   1   2
HETATM    2  C3  UNL     1     -32.479   7.292   3.068  1.00 20.00     0.001 A 
HETATM    3  C1  UNL     1     -32.344   8.391   2.049  1.00 20.00     0.006 A 
HETATM    4  C2  UNL     1     -31.422   8.347   3.236  1.00 20.00     0.006 A 
ENDBRANCH   1   2
BRANCH   1   5
HETATM    5  S7  UNL     1     -34.474   5.687   3.962  1.00 20.00     0.230 S 
HETATM    6  O5  UNL     1     -33.632   4.738   3.262  1.00 20.00    -0.211 OA
HETATM    7  O6  UNL     1     -35.861   5.893   3.602  1.00 20.00    -0.211 OA
HETATM    8 CL8  UNL     1     -34.517   5.032   5.900  1.00 20.00     0.018 Cl
ENDBRANCH   1   5
TORSDOF 2
ENDMDL
MODEL 4
REMARK VINA RESULT:      -4.1      2.780      3.254
REMARK  2 active torsions:
REMARK  status: ('A' for Active; 'I' for Inactive)
REMARK    1  A    between atoms: C3_3  and  C4_4 
REMARK    2  A    between atoms: C4_4  and  S7_7 
ROOT
HETATM    1  C4  UNL     1     -33.386   8.333   2.069  1.00 20.00     0.162 C 
ENDROOT
BRANCH   1   2
HETATM    2  C3  UNL     1     -32.432   8.984   1.127  1.00 20.00     0.001 A 
HETATM    3  C1  UNL     1     -32.910   9.483  -0.210  1.00 20.00     0.006 A 
HETATM    4  C2  UNL     1     -32.521  10.461   0.864  1.00 20.00     0.006 A 
ENDBRANCH   1   2
BRANCH   1   5
HETATM    5  S7  UNL     1     -32.557   7.339   3.279  1.00 20.00     0.230 S 
HETATM    6  O5  UNL     1     -31.339   8.015   3.675  1.00 20.00    -0.211 OA
HETATM    7  O6  UNL     1     -32.558   5.963   2.827  1.00 20.00    -0.211 OA
HETATM    8 CL8  UNL     1     -33.741   7.352   4.948  1.00 20.00     0.018 Cl
ENDBRANCH   1   5
TORSDOF 2
ENDMDL
MODEL 5
REMARK VINA RESULT:      -4.0     11.968     12.306
REMARK  2 active torsions:
REMARK  status: ('A' for Active; 'I' for Inactive)
REMARK    1  A    between atoms: C3_3  and  C4_4 
REMARK    2  A    between atoms: C4_4  and  S7_7 
ROOT
HETATM    1  C4  UNL     1     -35.900  15.296  -4.569  1.00 20.00     0.162 C 
ENDROOT
BRANCH   1   2
HETATM    2  C3  UNL     1     -34.581  14.934  -3.979  1.00 20.00     0.001 A 
HETATM    3  C1  UNL     1     -33.306  15.365  -4.652  1.00 20.00     0.006 A 
HETATM    4  C2  UNL     1     -33.719  15.992  -3.349  1.00 20.00     0.006 A 
ENDBRANCH   1   2
BRANCH   1   5
HETATM    5  S7  UNL     1     -36.686  13.913  -5.349  1.00 20.00     0.230 S 
HETATM    6  O5  UNL     1     -38.085  13.905  -4.973  1.00 20.00    -0.211 OA
HETATM    7  O6  UNL     1     -35.841  12.748  -5.186  1.00 20.00    -0.211 OA
HETATM    8 CL8  UNL     1     -36.677  14.301  -7.359  1.00 20.00     0.018 Cl
ENDBRANCH   1   5
TORSDOF 2
ENDMDL
MODEL 6
REMARK VINA RESULT:      -3.8      3.316      3.872
REMARK  2 active torsions:
REMARK  status: ('A' for Active; 'I' for Inactive)
REMARK    1  A    between atoms: C3_3  and  C4_4 
REMARK    2  A    between atoms: C4_4  and  S7_7 
ROOT
HETATM    1  C4  UNL     1     -33.053   6.041   2.939  1.00 20.00     0.162 C 
ENDROOT
BRANCH   1   2
HETATM    2  C3  UNL     1     -34.347   5.696   3.591  1.00 20.00     0.001 A 
HETATM    3  C1  UNL     1     -34.459   4.465   4.448  1.00 20.00     0.006 A 
HETATM    4  C2  UNL     1     -34.502   5.829   5.080  1.00 20.00     0.006 A 
ENDBRANCH   1   2
BRANCH   1   5
HETATM    5  S7  UNL     1     -32.696   7.774   3.035  1.00 20.00     0.230 S 
HETATM    6  O5  UNL     1     -31.756   7.991   4.115  1.00 20.00    -0.211 OA
HETATM    7  O6  UNL     1     -33.941   8.508   2.941  1.00 20.00    -0.211 OA
HETATM    8 CL8  UNL     1     -31.667   8.248   1.330  1.00 20.00     0.018 Cl
ENDBRANCH   1   5
TORSDOF 2
ENDMDL
MODEL 7
REMARK VINA RESULT:      -3.8      4.049      4.478
REMARK  2 active torsions:
REMARK  status: ('A' for Active; 'I' for Inactive)
REMARK    1  A    between atoms: C3_3  and  C4_4 
REMARK    2  A    between atoms: C4_4  and  S7_7 
ROOT
HETATM    1  C4  UNL     1     -33.305   7.557   1.914  1.00 20.00     0.162 C 
ENDROOT
BRANCH   1   2
HETATM    2  C3  UNL     1     -33.149   6.627   3.068  1.00 20.00     0.001 A 
HETATM    3  C1  UNL     1     -34.352   5.936   3.651  1.00 20.00     0.006 A 
HETATM    4  C2  UNL     1     -33.331   5.148   2.877  1.00 20.00     0.006 A 
ENDBRANCH   1   2
BRANCH   1   5
HETATM    5  S7  UNL     1     -31.996   8.748   1.834  1.00 20.00     0.230 S 
HETATM    6  O5  UNL     1     -31.181   8.461   0.671  1.00 20.00    -0.211 OA
HETATM    7  O6  UNL     1     -31.422   8.895   3.155  1.00 20.00    -0.211 OA
HETATM    8 CL8  UNL     1     -32.878  10.551   1.432  1.00 20.00     0.018 Cl
ENDBRANCH   1   5
TORSDOF 2
ENDMDL
MODEL 8
REMARK VINA RESULT:      -3.6      4.601      4.844
REMARK  2 active torsions:
REMARK  status: ('A' for Active; 'I' for Inactive)
REMARK    1  A    between atoms: C3_3  and  C4_4 
REMARK    2  A    between atoms: C4_4  and  S7_7 
ROOT
HETATM    1  C4  UNL     1     -33.411   8.545   2.145  1.00 20.00     0.162 C 
ENDROOT
BRANCH   1   2
HETATM    2  C3  UNL     1     -32.685   7.501   2.921  1.00 20.00     0.001 A 
HETATM    3  C1  UNL     1     -33.290   6.933   4.175  1.00 20.00     0.006 A 
HETATM    4  C2  UNL     1     -33.189   6.085   2.938  1.00 20.00     0.006 A 
ENDBRANCH   1   2
BRANCH   1   5
HETATM    5  S7  UNL     1     -32.347   9.400   1.015  1.00 20.00     0.230 S 
HETATM    6  O5  UNL     1     -31.116   8.648   0.883  1.00 20.00    -0.211 OA
HETATM    7  O6  UNL     1     -32.353  10.808   1.349  1.00 20.00    -0.211 OA
HETATM    8 CL8  UNL     1     -33.241   9.284  -0.822  1.00 20.00     0.018 Cl
ENDBRANCH   1   5
TORSDOF 2
ENDMDL
MODEL 9
REMARK VINA RESULT:      -3.6     11.936     12.262
REMARK  2 active torsions:
REMARK  status: ('A' for Active; 'I' for Inactive)
REMARK    1  A    between atoms: C3_3  and  C4_4 
REMARK    2  A    between atoms: C4_4  and  S7_7 
ROOT
HETATM    1  C4  UNL     1     -34.782  14.257  -4.195  1.00 20.00     0.162 C 
ENDROOT
BRANCH   1   2
HETATM    2  C3  UNL     1     -34.932  15.710  -3.904  1.00 20.00     0.001 A 
HETATM    3  C1  UNL     1     -34.215  16.326  -2.734  1.00 20.00     0.006 A 
HETATM    4  C2  UNL     1     -33.782  16.650  -4.136  1.00 20.00     0.006 A 
ENDBRANCH   1   2
BRANCH   1   5
HETATM    5  S7  UNL     1     -35.924  13.701  -5.431  1.00 20.00     0.230 S 
HETATM    6  O5  UNL     1     -37.253  13.686  -4.856  1.00 20.00    -0.211 OA
HETATM    7  O6  UNL     1     -35.361  12.543  -6.094  1.00 20.00    -0.211 OA
HETATM    8 CL8  UNL     1     -35.981  15.161  -6.864  1.00 20.00     0.018 Cl
ENDBRANCH   1   5
TORSDOF 2
ENDMDL
