MODEL 1
REMARK VINA RESULT:      -5.3      0.000      0.000
REMARK  3 active torsions:
REMARK  status: ('A' for Active; 'I' for Inactive)
REMARK    1  A    between atoms: C3_3  and  C4_4 
REMARK    2  A    between atoms: C4_4  and  C5_5 
REMARK    3  A    between atoms: C7_7  and  O10_10 
ROOT
HETATM    1  C1  UNL     1     -32.950   7.637   4.915  1.00 20.00     0.006 C 
HETATM    2  C2  UNL     1     -33.953   7.090   5.606  1.00 20.00    -0.023 C 
HETATM    3  C3  UNL     1     -32.954   7.172   3.553  1.00 20.00    -0.027 C 
HETATM    4  C6  UNL     1     -34.791   6.184   4.760  1.00 20.00     0.064 C 
HETATM    5  C7  UNL     1     -34.044   6.143   3.418  1.00 20.00     0.157 C 
ENDROOT
BRANCH   3   6
HETATM    6  C4  UNL     1     -32.140   7.599   2.583  1.00 20.00     0.051 C 
BRANCH   6   7
HETATM    7  C5  UNL     1     -32.543   8.801   1.829  1.00 20.00     0.259 C 
HETATM    8  O9  UNL     1     -31.982   9.141   0.794  1.00 20.00    -0.302 OA
ENDBRANCH   6   7
ENDBRANCH   3   6
BRANCH   5   9
HETATM    9  O10 UNL     1     -33.454   4.862   3.229  1.00 20.00    -0.386 OA
HETATM   10  C8  UNL     1     -34.041   3.889   4.082  1.00 20.00     0.202 C 
ENDBRANCH   5   9
TORSDOF 3
ENDMDL
MODEL 2
REMARK VINA RESULT:      -4.9      1.114      4.011
REMARK  3 active torsions:
REMARK  status: ('A' for Active; 'I' for Inactive)
REMARK    1  A    between atoms: C3_3  and  C4_4 
REMARK    2  A    between atoms: C4_4  and  C5_5 
REMARK    3  A    between atoms: C7_7  and  O10_10 
ROOT
HETATM    1  C1  UNL     1     -33.398   7.478   4.915  1.00 20.00     0.006 C 
HETATM    2  C2  UNL     1     -32.332   8.281   4.929  1.00 20.00    -0.023 C 
HETATM    3  C3  UNL     1     -33.523   6.817   3.642  1.00 20.00    -0.027 C 
HETATM    4  C6  UNL     1     -31.575   8.238   3.639  1.00 20.00     0.064 C 
HETATM    5  C7  UNL     1     -32.448   7.353   2.734  1.00 20.00     0.157 C 
ENDROOT
BRANCH   3   6
HETATM    6  C4  UNL     1     -34.428   5.883   3.336  1.00 20.00     0.051 C 
BRANCH   6   7
HETATM    7  C5  UNL     1     -34.782   4.904   4.381  1.00 20.00     0.259 C 
HETATM    8  O9  UNL     1     -34.371   3.751   4.362  1.00 20.00    -0.302 OA
ENDBRANCH   6   7
ENDBRANCH   3   6
BRANCH   5   9
HETATM    9  O10 UNL     1     -33.050   8.143   1.716  1.00 20.00    -0.386 OA
HETATM   10  C8  UNL     1     -32.169   9.161   1.260  1.00 20.00     0.202 C 
ENDBRANCH   5   9
TORSDOF 3
ENDMDL
MODEL 3
REMARK VINA RESULT:      -4.0     11.003     12.226
REMARK  3 active torsions:
REMARK  status: ('A' for Active; 'I' for Inactive)
REMARK    1  A    between atoms: C3_3  and  C4_4 
REMARK    2  A    between atoms: C4_4  and  C5_5 
REMARK    3  A    between atoms: C7_7  and  O10_10 
ROOT
HETATM    1  C1  UNL     1     -35.488  16.582  -1.863  1.00 20.00     0.006 C 
HETATM    2  C2  UNL     1     -34.582  17.317  -1.213  1.00 20.00    -0.023 C 
HETATM    3  C3  UNL     1     -34.951  16.092  -3.106  1.00 20.00    -0.027 C 
HETATM    4  C6  UNL     1     -33.283  17.392  -1.951  1.00 20.00     0.064 C 
HETATM    5  C7  UNL     1     -33.575  16.675  -3.279  1.00 20.00     0.157 C 
ENDROOT
BRANCH   3   6
HETATM    6  C4  UNL     1     -35.569  15.254  -3.943  1.00 20.00     0.051 C 
BRANCH   6   7
HETATM    7  C5  UNL     1     -34.811  14.084  -4.427  1.00 20.00     0.259 C 
HETATM    8  O9  UNL     1     -35.364  13.082  -4.862  1.00 20.00    -0.302 OA
ENDBRANCH   6   7
ENDBRANCH   3   6
BRANCH   5   9
HETATM    9  O10 UNL     1     -33.600  17.618  -4.344  1.00 20.00    -0.386 OA
HETATM   10  C8  UNL     1     -33.114  18.887  -3.927  1.00 20.00     0.202 C 
ENDBRANCH   5   9
TORSDOF 3
ENDMDL
MODEL 4
REMARK VINA RESULT:      -4.0     10.947     12.510
REMARK  3 active torsions:
REMARK  status: ('A' for Active; 'I' for Inactive)
REMARK    1  A    between atoms: C3_3  and  C4_4 
REMARK    2  A    between atoms: C4_4  and  C5_5 
REMARK    3  A    between atoms: C7_7  and  O10_10 
ROOT
HETATM    1  C1  UNL     1     -34.761  16.171  -2.628  1.00 20.00     0.006 C 
HETATM    2  C2  UNL     1     -34.351  17.440  -2.570  1.00 20.00    -0.023 C 
HETATM    3  C3  UNL     1     -34.299  15.540  -3.837  1.00 20.00    -0.027 C 
HETATM    4  C6  UNL     1     -33.521  17.820  -3.756  1.00 20.00     0.064 C 
HETATM    5  C7  UNL     1     -33.594  16.582  -4.664  1.00 20.00     0.157 C 
ENDROOT
BRANCH   3   6
HETATM    6  C4  UNL     1     -34.460  14.251  -4.152  1.00 20.00     0.051 C 
BRANCH   6   7
HETATM    7  C5  UNL     1     -35.700  13.867  -4.853  1.00 20.00     0.259 C 
HETATM    8  O9  UNL     1     -35.901  12.724  -5.245  1.00 20.00    -0.302 OA
ENDBRANCH   6   7
ENDBRANCH   3   6
BRANCH   5   9
HETATM    9  O10 UNL     1     -34.378  16.870  -5.816  1.00 20.00    -0.386 OA
HETATM   10  C8  UNL     1     -33.731  16.439  -7.005  1.00 20.00     0.202 C 
ENDBRANCH   5   9
TORSDOF 3
ENDMDL
MODEL 5
REMARK VINA RESULT:      -3.9      1.847      4.110
REMARK  3 active torsions:
REMARK  status: ('A' for Active; 'I' for Inactive)
REMARK    1  A    between atoms: C3_3  and  C4_4 
REMARK    2  A    between atoms: C4_4  and  C5_5 
REMARK    3  A    between atoms: C7_7  and  O10_10 
ROOT
HETATM    1  C1  UNL     1     -33.377   5.940   2.318  1.00 20.00     0.006 C 
HETATM    2  C2  UNL     1     -32.523   6.901   1.960  1.00 20.00    -0.023 C 
HETATM    3  C3  UNL     1     -34.123   6.327   3.487  1.00 20.00    -0.027 C 
HETATM    4  C6  UNL     1     -32.611   8.095   2.858  1.00 20.00     0.064 C 
HETATM    5  C7  UNL     1     -33.593   7.656   3.955  1.00 20.00     0.157 C 
ENDROOT
BRANCH   3   6
HETATM    6  C4  UNL     1     -35.119   5.629   4.041  1.00 20.00     0.051 C 
BRANCH   6   7
HETATM    7  C5  UNL     1     -34.758   4.483   4.897  1.00 20.00     0.259 C 
HETATM    8  O9  UNL     1     -34.077   3.551   4.487  1.00 20.00    -0.302 OA
ENDBRANCH   6   7
ENDBRANCH   3   6
BRANCH   5   9
HETATM    9  O10 UNL     1     -32.900   7.474   5.184  1.00 20.00    -0.386 OA
HETATM   10  C8  UNL     1     -33.773   7.607   6.297  1.00 20.00     0.202 C 
ENDBRANCH   5   9
TORSDOF 3
ENDMDL
MODEL 6
REMARK VINA RESULT:      -3.9     11.438     12.252
REMARK  3 active torsions:
REMARK  status: ('A' for Active; 'I' for Inactive)
REMARK    1  A    between atoms: C3_3  and  C4_4 
REMARK    2  A    between atoms: C4_4  and  C5_5 
REMARK    3  A    between atoms: C7_7  and  O10_10 
ROOT
HETATM    1  C1  UNL     1     -35.854  16.250  -2.661  1.00 20.00     0.006 C 
HETATM    2  C2  UNL     1     -34.697  16.729  -2.196  1.00 20.00    -0.023 C 
HETATM    3  C3  UNL     1     -35.660  15.578  -3.919  1.00 20.00    -0.027 C 
HETATM    4  C6  UNL     1     -33.549  16.405  -3.100  1.00 20.00     0.064 C 
HETATM    5  C7  UNL     1     -34.217  15.744  -4.316  1.00 20.00     0.157 C 
ENDROOT
BRANCH   3   6
HETATM    6  C4  UNL     1     -36.599  14.912  -4.598  1.00 20.00     0.051 C 
BRANCH   6   7
HETATM    7  C5  UNL     1     -36.156  13.838  -5.507  1.00 20.00     0.259 C 
HETATM    8  O9  UNL     1     -35.904  12.708  -5.106  1.00 20.00    -0.302 OA
ENDBRANCH   6   7
ENDBRANCH   3   6
BRANCH   5   9
HETATM    9  O10 UNL     1     -34.142  16.610  -5.442  1.00 20.00    -0.386 OA
HETATM   10  C8  UNL     1     -33.437  16.004  -6.517  1.00 20.00     0.202 C 
ENDBRANCH   5   9
TORSDOF 3
ENDMDL
MODEL 7
REMARK VINA RESULT:      -3.9      1.662      3.678
REMARK  3 active torsions:
REMARK  status: ('A' for Active; 'I' for Inactive)
REMARK    1  A    between atoms: C3_3  and  C4_4 
REMARK    2  A    between atoms: C4_4  and  C5_5 
REMARK    3  A    between atoms: C7_7  and  O10_10 
ROOT
HETATM    1  C1  UNL     1     -34.160   4.354   4.479  1.00 20.00     0.006 C 
HETATM    2  C2  UNL     1     -33.641   3.658   3.465  1.00 20.00    -0.023 C 
HETATM    3  C3  UNL     1     -34.218   5.756   4.161  1.00 20.00    -0.027 C 
HETATM    4  C6  UNL     1     -33.299   4.532   2.299  1.00 20.00     0.064 C 
HETATM    5  C7  UNL     1     -33.569   5.954   2.817  1.00 20.00     0.157 C 
ENDROOT
BRANCH   3   6
HETATM    6  C4  UNL     1     -34.767   6.705   4.925  1.00 20.00     0.051 C 
BRANCH   6   7
HETATM    7  C5  UNL     1     -33.971   7.221   6.055  1.00 20.00     0.259 C 
HETATM    8  O9  UNL     1     -32.895   7.782   5.893  1.00 20.00    -0.302 OA
ENDBRANCH   6   7
ENDBRANCH   3   6
BRANCH   5   9
HETATM    9  O10 UNL     1     -32.340   6.649   2.991  1.00 20.00    -0.386 OA
HETATM   10  C8  UNL     1     -32.367   7.919   2.353  1.00 20.00     0.202 C 
ENDBRANCH   5   9
TORSDOF 3
ENDMDL
MODEL 8
REMARK VINA RESULT:      -3.9     11.565     12.844
REMARK  3 active torsions:
REMARK  status: ('A' for Active; 'I' for Inactive)
REMARK    1  A    between atoms: C3_3  and  C4_4 
REMARK    2  A    between atoms: C4_4  and  C5_5 
REMARK    3  A    between atoms: C7_7  and  O10_10 
ROOT
HETATM    1  C1  UNL     1     -34.609  13.580  -7.348  1.00 20.00     0.006 C 
HETATM    2  C2  UNL     1     -33.766  14.445  -7.918  1.00 20.00    -0.023 C 
HETATM    3  C3  UNL     1     -35.057  14.069  -6.070  1.00 20.00    -0.027 C 
HETATM    4  C6  UNL     1     -33.559  15.666  -7.078  1.00 20.00     0.064 C 
HETATM    5  C7  UNL     1     -34.326  15.354  -5.784  1.00 20.00     0.157 C 
ENDROOT
BRANCH   3   6
HETATM    6  C4  UNL     1     -35.972  13.485  -5.292  1.00 20.00     0.051 C 
BRANCH   6   7
HETATM    7  C5  UNL     1     -37.147  14.286  -4.896  1.00 20.00     0.259 C 
HETATM    8  O9  UNL     1     -38.293  13.875  -5.034  1.00 20.00    -0.302 OA
ENDBRANCH   6   7
ENDBRANCH   3   6
BRANCH   5   9
HETATM    9  O10 UNL     1     -33.410  15.139  -4.716  1.00 20.00    -0.386 OA
HETATM   10  C8  UNL     1     -33.696  15.984  -3.609  1.00 20.00     0.202 C 
ENDBRANCH   5   9
TORSDOF 3
ENDMDL
MODEL 9
REMARK VINA RESULT:      -3.8     11.504     12.749
REMARK  3 active torsions:
REMARK  status: ('A' for Active; 'I' for Inactive)
REMARK    1  A    between atoms: C3_3  and  C4_4 
REMARK    2  A    between atoms: C4_4  and  C5_5 
REMARK    3  A    between atoms: C7_7  and  O10_10 
ROOT
HETATM    1  C1  UNL     1     -34.724  15.065  -3.761  1.00 20.00     0.006 C 
HETATM    2  C2  UNL     1     -33.576  15.737  -3.872  1.00 20.00    -0.023 C 
HETATM    3  C3  UNL     1     -35.072  14.438  -5.010  1.00 20.00    -0.027 C 
HETATM    4  C6  UNL     1     -32.985  15.621  -5.242  1.00 20.00     0.064 C 
HETATM    5  C7  UNL     1     -34.054  14.855  -6.037  1.00 20.00     0.157 C 
ENDROOT
BRANCH   3   6
HETATM    6  C4  UNL     1     -36.110  13.620  -5.207  1.00 20.00     0.051 C 
BRANCH   6   7
HETATM    7  C5  UNL     1     -37.407  14.230  -5.557  1.00 20.00     0.259 C 
HETATM    8  O9  UNL     1     -38.444  13.937  -4.975  1.00 20.00    -0.302 OA
ENDBRANCH   6   7
ENDBRANCH   3   6
BRANCH   5   9
HETATM    9  O10 UNL     1     -34.672  15.723  -6.980  1.00 20.00    -0.386 OA
HETATM   10  C8  UNL     1     -33.855  16.851  -7.262  1.00 20.00     0.202 C 
ENDBRANCH   5   9
TORSDOF 3
ENDMDL
