MODEL 1
REMARK VINA RESULT:      -6.4      0.000      0.000
REMARK  0 active torsions:
REMARK  status: ('A' for Active; 'I' for Inactive)
ROOT
HETATM    1  C1  UNL     1     -31.721   8.498   1.627  1.00 20.00     0.012 C 
HETATM    2  C2  UNL     1     -32.534   8.075   2.404  1.00 20.00    -0.113 C 
HETATM    3  C3  UNL     1     -34.475   5.668   5.358  1.00 20.00     0.127 C 
HETATM    4  C4  UNL     1     -33.962   7.021   5.792  1.00 20.00     0.079 C 
HETATM    5  C5  UNL     1     -34.974   5.559   3.936  1.00 20.00     0.079 C 
HETATM    6  C6  UNL     1     -32.962   7.567   4.780  1.00 20.00     0.024 C 
HETATM    7  C7  UNL     1     -33.954   6.135   2.963  1.00 20.00     0.024 C 
HETATM    8  C8  UNL     1     -33.531   7.558   3.355  1.00 20.00     0.065 C 
HETATM    9  O9  UNL     1     -34.578   4.732   6.151  1.00 20.00    -0.298 OA
ENDROOT
TORSDOF 0
ENDMDL
MODEL 2
REMARK VINA RESULT:      -5.8      1.072      1.900
REMARK  0 active torsions:
REMARK  status: ('A' for Active; 'I' for Inactive)
ROOT
HETATM    1  C1  UNL     1     -32.366   9.170   1.461  1.00 20.00     0.012 C 
HETATM    2  C2  UNL     1     -32.532   8.257   2.222  1.00 20.00    -0.113 C 
HETATM    3  C3  UNL     1     -34.344   5.067   4.421  1.00 20.00     0.127 C 
HETATM    4  C4  UNL     1     -33.370   4.692   3.327  1.00 20.00     0.079 C 
HETATM    5  C5  UNL     1     -34.060   6.350   5.166  1.00 20.00     0.079 C 
HETATM    6  C6  UNL     1     -33.135   5.870   2.389  1.00 20.00     0.024 C 
HETATM    7  C7  UNL     1     -33.811   7.494   4.191  1.00 20.00     0.024 C 
HETATM    8  C8  UNL     1     -32.734   7.137   3.157  1.00 20.00     0.065 C 
HETATM    9  O9  UNL     1     -35.258   4.315   4.756  1.00 20.00    -0.298 OA
ENDROOT
TORSDOF 0
ENDMDL
MODEL 3
REMARK VINA RESULT:      -4.7     11.662     12.026
REMARK  0 active torsions:
REMARK  status: ('A' for Active; 'I' for Inactive)
ROOT
HETATM    1  C1  UNL     1     -33.249  17.544  -1.611  1.00 20.00     0.012 C 
HETATM    2  C2  UNL     1     -33.738  16.960  -2.540  1.00 20.00    -0.113 C 
HETATM    3  C3  UNL     1     -35.480  13.894  -4.959  1.00 20.00     0.127 C 
HETATM    4  C4  UNL     1     -36.393  14.994  -4.469  1.00 20.00     0.079 C 
HETATM    5  C5  UNL     1     -34.051  14.283  -5.255  1.00 20.00     0.079 C 
HETATM    6  C6  UNL     1     -35.746  15.755  -3.318  1.00 20.00     0.024 C 
HETATM    7  C7  UNL     1     -33.453  15.059  -4.088  1.00 20.00     0.024 C 
HETATM    8  C8  UNL     1     -34.337  16.245  -3.679  1.00 20.00     0.065 C 
HETATM    9  O9  UNL     1     -35.905  12.765  -5.204  1.00 20.00    -0.298 OA
ENDROOT
TORSDOF 0
ENDMDL
MODEL 4
REMARK VINA RESULT:      -4.2      2.408      4.345
REMARK  0 active torsions:
REMARK  status: ('A' for Active; 'I' for Inactive)
ROOT
HETATM    1  C1  UNL     1     -34.669   4.947   5.936  1.00 20.00     0.012 C 
HETATM    2  C2  UNL     1     -34.371   5.794   5.138  1.00 20.00    -0.113 C 
HETATM    3  C3  UNL     1     -32.225   8.052   2.208  1.00 20.00     0.127 C 
HETATM    4  C4  UNL     1     -33.419   7.257   1.734  1.00 20.00     0.079 C 
HETATM    5  C5  UNL     1     -32.306   8.625   3.603  1.00 20.00     0.079 C 
HETATM    6  C6  UNL     1     -33.815   6.212   2.770  1.00 20.00     0.024 C 
HETATM    7  C7  UNL     1     -32.724   7.552   4.601  1.00 20.00     0.024 C 
HETATM    8  C8  UNL     1     -34.007   6.833   4.161  1.00 20.00     0.065 C 
HETATM    9  O9  UNL     1     -31.282   8.307   1.459  1.00 20.00    -0.298 OA
ENDROOT
TORSDOF 0
ENDMDL
MODEL 5
REMARK VINA RESULT:      -4.2      2.523      4.087
REMARK  0 active torsions:
REMARK  status: ('A' for Active; 'I' for Inactive)
ROOT
HETATM    1  C1  UNL     1     -34.931   5.114   5.568  1.00 20.00     0.012 C 
HETATM    2  C2  UNL     1     -34.137   5.657   4.849  1.00 20.00    -0.113 C 
HETATM    3  C3  UNL     1     -32.270   8.508   2.265  1.00 20.00     0.127 C 
HETATM    4  C4  UNL     1     -31.736   8.393   3.674  1.00 20.00     0.079 C 
HETATM    5  C5  UNL     1     -32.791   7.237   1.635  1.00 20.00     0.079 C 
HETATM    6  C6  UNL     1     -32.733   7.667   4.569  1.00 20.00     0.024 C 
HETATM    7  C7  UNL     1     -33.766   6.534   2.572  1.00 20.00     0.024 C 
HETATM    8  C8  UNL     1     -33.163   6.322   3.968  1.00 20.00     0.065 C 
HETATM    9  O9  UNL     1     -32.187   9.556   1.626  1.00 20.00    -0.298 OA
ENDROOT
TORSDOF 0
ENDMDL
MODEL 6
REMARK VINA RESULT:      -4.1     11.658     12.172
REMARK  0 active torsions:
REMARK  status: ('A' for Active; 'I' for Inactive)
ROOT
HETATM    1  C1  UNL     1     -34.301  15.433  -3.778  1.00 20.00     0.012 C 
HETATM    2  C2  UNL     1     -34.331  16.314  -2.962  1.00 20.00    -0.113 C 
HETATM    3  C3  UNL     1     -33.920  18.489   0.697  1.00 20.00     0.127 C 
HETATM    4  C4  UNL     1     -32.951  18.813  -0.416  1.00 20.00     0.079 C 
HETATM    5  C5  UNL     1     -35.316  18.087   0.281  1.00 20.00     0.079 C 
HETATM    6  C6  UNL     1     -32.950  17.709  -1.467  1.00 20.00     0.024 C 
HETATM    7  C7  UNL     1     -35.267  16.998  -0.783  1.00 20.00     0.024 C 
HETATM    8  C8  UNL     1     -34.368  17.394  -1.963  1.00 20.00     0.065 C 
HETATM    9  O9  UNL     1     -33.620  18.646   1.880  1.00 20.00    -0.298 OA
ENDROOT
TORSDOF 0
ENDMDL
MODEL 7
REMARK VINA RESULT:      -4.1     12.067     12.896
REMARK  0 active torsions:
REMARK  status: ('A' for Active; 'I' for Inactive)
ROOT
HETATM    1  C1  UNL     1     -33.667  17.435  -1.616  1.00 20.00     0.012 C 
HETATM    2  C2  UNL     1     -33.646  16.706  -2.570  1.00 20.00    -0.113 C 
HETATM    3  C3  UNL     1     -34.600  14.870  -6.313  1.00 20.00     0.127 C 
HETATM    4  C4  UNL     1     -33.356  15.727  -6.256  1.00 20.00     0.079 C 
HETATM    5  C5  UNL     1     -34.953  14.109  -5.056  1.00 20.00     0.079 C 
HETATM    6  C6  UNL     1     -33.374  16.619  -5.021  1.00 20.00     0.024 C 
HETATM    7  C7  UNL     1     -34.938  15.035  -3.846  1.00 20.00     0.024 C 
HETATM    8  C8  UNL     1     -33.619  15.812  -3.739  1.00 20.00     0.065 C 
HETATM    9  O9  UNL     1     -35.232  14.718  -7.358  1.00 20.00    -0.298 OA
ENDROOT
TORSDOF 0
ENDMDL
MODEL 8
REMARK VINA RESULT:      -4.0     11.713     12.351
REMARK  0 active torsions:
REMARK  status: ('A' for Active; 'I' for Inactive)
ROOT
HETATM    1  C1  UNL     1     -33.542  18.871   2.059  1.00 20.00     0.012 C 
HETATM    2  C2  UNL     1     -33.844  18.604   0.928  1.00 20.00    -0.113 C 
HETATM    3  C3  UNL     1     -34.461  16.467  -2.725  1.00 20.00     0.127 C 
HETATM    4  C4  UNL     1     -35.683  16.804  -1.902  1.00 20.00     0.079 C 
HETATM    5  C5  UNL     1     -33.326  17.463  -2.687  1.00 20.00     0.079 C 
HETATM    6  C6  UNL     1     -35.287  17.181  -0.480  1.00 20.00     0.024 C 
HETATM    7  C7  UNL     1     -32.978  17.826  -1.248  1.00 20.00     0.024 C 
HETATM    8  C8  UNL     1     -34.214  18.279  -0.459  1.00 20.00     0.065 C 
HETATM    9  O9  UNL     1     -34.434  15.487  -3.468  1.00 20.00    -0.298 OA
ENDROOT
TORSDOF 0
ENDMDL
MODEL 9
REMARK VINA RESULT:      -4.0     11.823     12.398
REMARK  0 active torsions:
REMARK  status: ('A' for Active; 'I' for Inactive)
ROOT
HETATM    1  C1  UNL     1     -32.874  18.051  -1.475  1.00 20.00     0.012 C 
HETATM    2  C2  UNL     1     -33.609  17.239  -1.968  1.00 20.00    -0.113 C 
HETATM    3  C3  UNL     1     -35.983  15.084  -4.798  1.00 20.00     0.127 C 
HETATM    4  C4  UNL     1     -34.693  14.442  -4.341  1.00 20.00     0.079 C 
HETATM    5  C5  UNL     1     -36.713  15.931  -3.781  1.00 20.00     0.079 C 
HETATM    6  C6  UNL     1     -33.784  15.472  -3.681  1.00 20.00     0.024 C 
HETATM    7  C7  UNL     1     -35.762  16.930  -3.133  1.00 20.00     0.024 C 
HETATM    8  C8  UNL     1     -34.510  16.243  -2.570  1.00 20.00     0.065 C 
HETATM    9  O9  UNL     1     -36.466  14.845  -5.904  1.00 20.00    -0.298 OA
ENDROOT
TORSDOF 0
ENDMDL
