MODEL 1
REMARK VINA RESULT:      -5.0      0.000      0.000
REMARK  0 active torsions:
REMARK  status: ('A' for Active; 'I' for Inactive)
ROOT
HETATM    1  C1  UNL     1     -34.495  14.250  -4.255  1.00 20.00     0.099 A 
HETATM    2  C2  UNL     1     -35.620  16.303  -3.623  1.00 20.00     0.063 A 
HETATM    3  C3  UNL     1     -38.982  15.078  -4.962  1.00 20.00     0.167 A 
HETATM    4  C4  UNL     1     -36.868  14.498  -4.712  1.00 20.00     0.124 A 
HETATM    5  C5  UNL     1     -35.686  13.729  -4.768  1.00 20.00     0.204 A 
HETATM    6  C6  UNL     1     -34.464  15.520  -3.690  1.00 20.00     0.121 A 
HETATM    7  C7  UNL     1     -36.813  15.773  -4.140  1.00 20.00     0.042 A 
HETATM    8  N8  UNL     1     -38.118  14.115  -5.178  1.00 20.00    -0.249 NA
HETATM    9  O9  UNL     1     -35.808  12.578  -5.301  1.00 20.00    -0.286 OA
HETATM   10  F10 UNL     1     -33.312  16.001  -3.204  1.00 20.00    -0.206 F 
HETATM   11  S11 UNL     1     -38.381  16.486  -4.201  1.00 20.00    -0.080 SA
ENDROOT
TORSDOF 0
ENDMDL
MODEL 2
REMARK VINA RESULT:      -4.5      2.723      3.564
REMARK  0 active torsions:
REMARK  status: ('A' for Active; 'I' for Inactive)
ROOT
HETATM    1  C1  UNL     1     -37.336  13.991  -5.174  1.00 20.00     0.099 A 
HETATM    2  C2  UNL     1     -36.624  15.897  -3.855  1.00 20.00     0.063 A 
HETATM    3  C3  UNL     1     -32.931  14.985  -4.212  1.00 20.00     0.167 A 
HETATM    4  C4  UNL     1     -34.965  14.346  -4.776  1.00 20.00     0.124 A 
HETATM    5  C5  UNL     1     -36.009  13.590  -5.351  1.00 20.00     0.204 A 
HETATM    6  C6  UNL     1     -37.638  15.130  -4.436  1.00 20.00     0.121 A 
HETATM    7  C7  UNL     1     -35.293  15.488  -4.038  1.00 20.00     0.042 A 
HETATM    8  N8  UNL     1     -33.608  14.072  -4.867  1.00 20.00    -0.249 NA
HETATM    9  O9  UNL     1     -35.640  12.563  -6.010  1.00 20.00    -0.286 OA
HETATM   10  F10 UNL     1     -38.916  15.498  -4.277  1.00 20.00    -0.206 F 
HETATM   11  S11 UNL     1     -33.844  16.217  -3.454  1.00 20.00    -0.080 SA
ENDROOT
TORSDOF 0
ENDMDL
MODEL 3
REMARK VINA RESULT:      -4.5     11.679     12.285
REMARK  0 active torsions:
REMARK  status: ('A' for Active; 'I' for Inactive)
ROOT
HETATM    1  C1  UNL     1     -34.779   5.557   4.219  1.00 20.00     0.099 A 
HETATM    2  C2  UNL     1     -33.476   7.114   5.545  1.00 20.00     0.063 A 
HETATM    3  C3  UNL     1     -31.698   8.516   2.467  1.00 20.00     0.167 A 
HETATM    4  C4  UNL     1     -33.204   7.039   3.111  1.00 20.00     0.124 A 
HETATM    5  C5  UNL     1     -34.174   6.016   3.046  1.00 20.00     0.204 A 
HETATM    6  C6  UNL     1     -34.434   6.100   5.452  1.00 20.00     0.121 A 
HETATM    7  C7  UNL     1     -32.872   7.570   4.361  1.00 20.00     0.042 A 
HETATM    8  N8  UNL     1     -32.522   7.592   2.036  1.00 20.00    -0.249 NA
HETATM    9  O9  UNL     1     -34.428   5.579   1.876  1.00 20.00    -0.286 OA
HETATM   10  F10 UNL     1     -35.024   5.647   6.565  1.00 20.00    -0.206 F 
HETATM   11  S11 UNL     1     -31.673   8.792   4.155  1.00 20.00    -0.080 SA
ENDROOT
TORSDOF 0
ENDMDL
MODEL 4
REMARK VINA RESULT:      -4.4     12.097     12.761
REMARK  0 active torsions:
REMARK  status: ('A' for Active; 'I' for Inactive)
ROOT
HETATM    1  C1  UNL     1     -34.363   5.864   5.474  1.00 20.00     0.099 A 
HETATM    2  C2  UNL     1     -33.864   5.484   3.132  1.00 20.00     0.063 A 
HETATM    3  C3  UNL     1     -31.731   8.645   2.893  1.00 20.00     0.167 A 
HETATM    4  C4  UNL     1     -32.954   7.446   4.283  1.00 20.00     0.124 A 
HETATM    5  C5  UNL     1     -33.600   7.035   5.470  1.00 20.00     0.204 A 
HETATM    6  C6  UNL     1     -34.493   5.099   4.320  1.00 20.00     0.121 A 
HETATM    7  C7  UNL     1     -33.099   6.661   3.135  1.00 20.00     0.042 A 
HETATM    8  N8  UNL     1     -32.167   8.578   4.129  1.00 20.00    -0.249 NA
HETATM    9  O9  UNL     1     -33.425   7.795   6.478  1.00 20.00    -0.286 OA
HETATM   10  F10 UNL     1     -35.229   3.981   4.345  1.00 20.00    -0.206 F 
HETATM   11  S11 UNL     1     -32.216   7.385   1.843  1.00 20.00    -0.080 SA
ENDROOT
TORSDOF 0
ENDMDL
MODEL 5
REMARK VINA RESULT:      -4.3      1.725      1.725
REMARK  0 active torsions:
REMARK  status: ('A' for Active; 'I' for Inactive)
ROOT
HETATM    1  C1  UNL     1     -34.562  14.272  -4.096  1.00 20.00     0.099 A 
HETATM    2  C2  UNL     1     -34.820  16.579  -4.796  1.00 20.00     0.063 A 
HETATM    3  C3  UNL     1     -37.378  15.660  -7.481  1.00 20.00     0.167 A 
HETATM    4  C4  UNL     1     -36.098  14.805  -5.902  1.00 20.00     0.124 A 
HETATM    5  C5  UNL     1     -35.490  13.854  -5.054  1.00 20.00     0.204 A 
HETATM    6  C6  UNL     1     -34.233  15.617  -3.969  1.00 20.00     0.121 A 
HETATM    7  C7  UNL     1     -35.752  16.152  -5.757  1.00 20.00     0.042 A 
HETATM    8  N8  UNL     1     -37.032  14.540  -6.894  1.00 20.00    -0.249 NA
HETATM    9  O9  UNL     1     -35.852  12.647  -5.240  1.00 20.00    -0.286 OA
HETATM   10  F10 UNL     1     -33.342  15.998  -3.045  1.00 20.00    -0.206 F 
HETATM   11  S11 UNL     1     -36.633  17.088  -6.906  1.00 20.00    -0.080 SA
ENDROOT
TORSDOF 0
ENDMDL
MODEL 6
REMARK VINA RESULT:      -4.2      2.628      3.261
REMARK  0 active torsions:
REMARK  status: ('A' for Active; 'I' for Inactive)
ROOT
HETATM    1  C1  UNL     1     -35.951  13.571  -6.315  1.00 20.00     0.099 A 
HETATM    2  C2  UNL     1     -33.927  14.819  -5.837  1.00 20.00     0.063 A 
HETATM    3  C3  UNL     1     -35.516  16.587  -2.846  1.00 20.00     0.167 A 
HETATM    4  C4  UNL     1     -35.917  15.116  -4.440  1.00 20.00     0.124 A 
HETATM    5  C5  UNL     1     -36.604  14.175  -5.237  1.00 20.00     0.204 A 
HETATM    6  C6  UNL     1     -34.629  13.890  -6.610  1.00 20.00     0.121 A 
HETATM    7  C7  UNL     1     -34.590  15.421  -4.755  1.00 20.00     0.042 A 
HETATM    8  N8  UNL     1     -36.433  15.792  -3.343  1.00 20.00    -0.249 NA
HETATM    9  O9  UNL     1     -37.809  13.944  -4.894  1.00 20.00    -0.286 OA
HETATM   10  F10 UNL     1     -34.021  13.301  -7.648  1.00 20.00    -0.206 F 
HETATM   11  S11 UNL     1     -33.997  16.588  -3.632  1.00 20.00    -0.080 SA
ENDROOT
TORSDOF 0
ENDMDL
MODEL 7
REMARK VINA RESULT:      -4.2      7.037      8.057
REMARK  0 active torsions:
REMARK  status: ('A' for Active; 'I' for Inactive)
ROOT
HETATM    1  C1  UNL     1     -34.229  18.029  -0.455  1.00 20.00     0.099 A 
HETATM    2  C2  UNL     1     -34.451  18.314   1.943  1.00 20.00     0.063 A 
HETATM    3  C3  UNL     1     -30.772  19.262   2.345  1.00 20.00     0.167 A 
HETATM    4  C4  UNL     1     -32.289  18.684   0.852  1.00 20.00     0.124 A 
HETATM    5  C5  UNL     1     -32.875  18.366  -0.392  1.00 20.00     0.204 A 
HETATM    6  C6  UNL     1     -35.006  18.003   0.698  1.00 20.00     0.121 A 
HETATM    7  C7  UNL     1     -33.089  18.652   1.998  1.00 20.00     0.042 A 
HETATM    8  N8  UNL     1     -30.964  19.036   1.068  1.00 20.00    -0.249 NA
HETATM    9  O9  UNL     1     -32.089  18.416  -1.394  1.00 20.00    -0.286 OA
HETATM   10  F10 UNL     1     -36.303  17.677   0.617  1.00 20.00    -0.206 F 
HETATM   11  S11 UNL     1     -32.131  19.078   3.367  1.00 20.00    -0.080 SA
ENDROOT
TORSDOF 0
ENDMDL
MODEL 8
REMARK VINA RESULT:      -4.2      2.688      3.014
REMARK  0 active torsions:
REMARK  status: ('A' for Active; 'I' for Inactive)
ROOT
HETATM    1  C1  UNL     1     -33.726  15.740  -3.810  1.00 20.00     0.099 A 
HETATM    2  C2  UNL     1     -35.512  16.461  -5.284  1.00 20.00     0.063 A 
HETATM    3  C3  UNL     1     -35.284  13.286  -7.398  1.00 20.00     0.167 A 
HETATM    4  C4  UNL     1     -34.407  14.305  -5.649  1.00 20.00     0.124 A 
HETATM    5  C5  UNL     1     -33.580  14.552  -4.533  1.00 20.00     0.204 A 
HETATM    6  C6  UNL     1     -34.680  16.681  -4.182  1.00 20.00     0.121 A 
HETATM    7  C7  UNL     1     -35.359  15.265  -6.005  1.00 20.00     0.042 A 
HETATM    8  N8  UNL     1     -34.377  13.177  -6.457  1.00 20.00    -0.249 NA
HETATM    9  O9  UNL     1     -32.735  13.635  -4.265  1.00 20.00    -0.286 OA
HETATM   10  F10 UNL     1     -34.804  17.813  -3.478  1.00 20.00    -0.206 F 
HETATM   11  S11 UNL     1     -36.224  14.715  -7.390  1.00 20.00    -0.080 SA
ENDROOT
TORSDOF 0
ENDMDL
MODEL 9
REMARK VINA RESULT:      -4.1      1.638      1.943
REMARK  0 active torsions:
REMARK  status: ('A' for Active; 'I' for Inactive)
ROOT
HETATM    1  C1  UNL     1     -35.405  13.724  -4.761  1.00 20.00     0.099 A 
HETATM    2  C2  UNL     1     -34.506  15.640  -3.577  1.00 20.00     0.063 A 
HETATM    3  C3  UNL     1     -37.880  17.433  -3.562  1.00 20.00     0.167 A 
HETATM    4  C4  UNL     1     -36.870  15.585  -4.217  1.00 20.00     0.124 A 
HETATM    5  C5  UNL     1     -36.671  14.313  -4.797  1.00 20.00     0.204 A 
HETATM    6  C6  UNL     1     -34.336  14.380  -4.158  1.00 20.00     0.121 A 
HETATM    7  C7  UNL     1     -35.782  16.226  -3.617  1.00 20.00     0.042 A 
HETATM    8  N8  UNL     1     -38.065  16.289  -4.177  1.00 20.00    -0.249 NA
HETATM    9  O9  UNL     1     -37.705  13.786  -5.325  1.00 20.00    -0.286 OA
HETATM   10  F10 UNL     1     -33.130  13.799  -4.134  1.00 20.00    -0.206 F 
HETATM   11  S11 UNL     1     -36.298  17.748  -2.995  1.00 20.00    -0.080 SA
ENDROOT
TORSDOF 0
ENDMDL
