MODEL 1
REMARK VINA RESULT:      -3.4      0.000      0.000
REMARK  1 active torsions:
REMARK  status: ('A' for Active; 'I' for Inactive)
REMARK    1  A    between atoms: C5_5  and  P6_6 
ROOT
HETATM    1  C1  UNL     1     -32.880   4.755   2.757  1.00 20.00     0.021 C 
HETATM    2  C2  UNL     1     -34.391   6.436   1.660  1.00 20.00     0.021 C 
HETATM    3  C3  UNL     1     -32.583   7.205   3.227  1.00 20.00     0.021 C 
HETATM    4  C5  UNL     1     -33.604   6.096   2.935  1.00 20.00    -0.015 C 
ENDROOT
BRANCH   4   5
HETATM    5  P6  UNL     1     -34.808   5.955   4.376  1.00 20.00    -0.013 P 
HETATM    6  C4  UNL     1     -34.370   4.262   4.911  1.00 20.00     0.062 C 
HETATM    7 CL7  UNL     1     -33.762   7.093   5.788  1.00 20.00    -0.096 Cl
ENDBRANCH   4   5
TORSDOF 1
ENDMDL
MODEL 2
REMARK VINA RESULT:      -3.4      0.017      1.649
REMARK  1 active torsions:
REMARK  status: ('A' for Active; 'I' for Inactive)
REMARK    1  A    between atoms: C5_5  and  P6_6 
ROOT
HETATM    1  C1  UNL     1     -34.399   6.455   1.675  1.00 20.00     0.021 C 
HETATM    2  C2  UNL     1     -32.585   7.202   3.245  1.00 20.00     0.021 C 
HETATM    3  C3  UNL     1     -32.888   4.757   2.747  1.00 20.00     0.021 C 
HETATM    4  C5  UNL     1     -33.611   6.098   2.943  1.00 20.00    -0.015 C 
ENDROOT
BRANCH   4   5
HETATM    5  P6  UNL     1     -34.807   5.962   4.390  1.00 20.00    -0.013 P 
HETATM    6  C4  UNL     1     -34.370   4.270   4.926  1.00 20.00     0.062 C 
HETATM    7 CL7  UNL     1     -33.750   7.101   5.794  1.00 20.00    -0.096 Cl
ENDBRANCH   4   5
TORSDOF 1
ENDMDL
MODEL 3
REMARK VINA RESULT:      -2.9      2.076      2.797
REMARK  1 active torsions:
REMARK  status: ('A' for Active; 'I' for Inactive)
REMARK    1  A    between atoms: C5_5  and  P6_6 
ROOT
HETATM    1  C1  UNL     1     -35.840   5.897   3.387  1.00 20.00     0.021 C 
HETATM    2  C2  UNL     1     -33.474   5.138   3.015  1.00 20.00     0.021 C 
HETATM    3  C3  UNL     1     -34.455   5.108   5.329  1.00 20.00     0.021 C 
HETATM    4  C5  UNL     1     -34.428   5.852   3.985  1.00 20.00    -0.015 C 
ENDROOT
BRANCH   4   5
HETATM    5  P6  UNL     1     -33.820   7.613   4.254  1.00 20.00    -0.013 P 
HETATM    6  C4  UNL     1     -33.307   7.444   6.001  1.00 20.00     0.062 C 
HETATM    7 CL7  UNL     1     -31.968   7.470   3.289  1.00 20.00    -0.096 Cl
ENDBRANCH   4   5
TORSDOF 1
ENDMDL
MODEL 4
REMARK VINA RESULT:      -2.8     12.374     13.156
REMARK  1 active torsions:
REMARK  status: ('A' for Active; 'I' for Inactive)
REMARK    1  A    between atoms: C5_5  and  P6_6 
ROOT
HETATM    1  C1  UNL     1     -36.131  13.331  -5.326  1.00 20.00     0.021 C 
HETATM    2  C2  UNL     1     -34.202  14.305  -4.044  1.00 20.00     0.021 C 
HETATM    3  C3  UNL     1     -36.396  15.527  -4.135  1.00 20.00     0.021 C 
HETATM    4  C5  UNL     1     -35.424  14.630  -4.916  1.00 20.00    -0.015 C 
ENDROOT
BRANCH   4   5
HETATM    5  P6  UNL     1     -34.847  15.528  -6.467  1.00 20.00    -0.013 P 
HETATM    6  C4  UNL     1     -33.231  16.110  -5.839  1.00 20.00     0.062 C 
HETATM    7 CL7  UNL     1     -34.252  13.872  -7.600  1.00 20.00    -0.096 Cl
ENDBRANCH   4   5
TORSDOF 1
ENDMDL
MODEL 5
REMARK VINA RESULT:      -2.8     11.965     13.027
REMARK  1 active torsions:
REMARK  status: ('A' for Active; 'I' for Inactive)
REMARK    1  A    between atoms: C5_5  and  P6_6 
ROOT
HETATM    1  C1  UNL     1     -33.573  16.690  -5.453  1.00 20.00     0.021 C 
HETATM    2  C2  UNL     1     -33.744  16.472  -2.956  1.00 20.00     0.021 C 
HETATM    3  C3  UNL     1     -33.248  14.450  -4.363  1.00 20.00     0.021 C 
HETATM    4  C5  UNL     1     -34.015  15.779  -4.300  1.00 20.00    -0.015 C 
ENDROOT
BRANCH   4   5
HETATM    5  P6  UNL     1     -35.862  15.447  -4.455  1.00 20.00    -0.013 P 
HETATM    6  C4  UNL     1     -36.133  16.258  -6.071  1.00 20.00     0.062 C 
HETATM    7 CL7  UNL     1     -35.784  13.437  -5.035  1.00 20.00    -0.096 Cl
ENDBRANCH   4   5
TORSDOF 1
ENDMDL
MODEL 6
REMARK VINA RESULT:      -2.8     11.978     13.146
REMARK  1 active torsions:
REMARK  status: ('A' for Active; 'I' for Inactive)
REMARK    1  A    between atoms: C5_5  and  P6_6 
ROOT
HETATM    1  C1  UNL     1     -35.910  15.532  -6.542  1.00 20.00     0.021 C 
HETATM    2  C2  UNL     1     -34.490  13.566  -7.197  1.00 20.00     0.021 C 
HETATM    3  C3  UNL     1     -35.913  13.454  -5.129  1.00 20.00     0.021 C 
HETATM    4  C5  UNL     1     -35.057  14.369  -6.017  1.00 20.00    -0.015 C 
ENDROOT
BRANCH   4   5
HETATM    5  P6  UNL     1     -33.627  15.065  -5.009  1.00 20.00    -0.013 P 
HETATM    6  C4  UNL     1     -33.507  16.696  -5.827  1.00 20.00     0.062 C 
HETATM    7 CL7  UNL     1     -34.675  15.578  -3.270  1.00 20.00    -0.096 Cl
ENDBRANCH   4   5
TORSDOF 1
ENDMDL
MODEL 7
REMARK VINA RESULT:      -2.8      1.993      3.026
REMARK  1 active torsions:
REMARK  status: ('A' for Active; 'I' for Inactive)
REMARK    1  A    between atoms: C5_5  and  P6_6 
ROOT
HETATM    1  C1  UNL     1     -35.681   6.127   3.792  1.00 20.00     0.021 C 
HETATM    2  C2  UNL     1     -34.387   4.395   5.072  1.00 20.00     0.021 C 
HETATM    3  C3  UNL     1     -34.021   6.837   5.538  1.00 20.00     0.021 C 
HETATM    4  C5  UNL     1     -34.335   5.799   4.451  1.00 20.00    -0.015 C 
ENDROOT
BRANCH   4   5
HETATM    5  P6  UNL     1     -32.986   5.836   3.138  1.00 20.00    -0.013 P 
HETATM    6  C4  UNL     1     -34.046   6.191   1.691  1.00 20.00     0.062 C 
HETATM    7 CL7  UNL     1     -32.205   7.739   3.526  1.00 20.00    -0.096 Cl
ENDBRANCH   4   5
TORSDOF 1
ENDMDL
MODEL 8
REMARK VINA RESULT:      -2.8     11.973     12.536
REMARK  1 active torsions:
REMARK  status: ('A' for Active; 'I' for Inactive)
REMARK    1  A    between atoms: C5_5  and  P6_6 
ROOT
HETATM    1  C1  UNL     1     -35.655  13.575  -5.086  1.00 20.00     0.021 C 
HETATM    2  C2  UNL     1     -34.252  14.962  -6.641  1.00 20.00     0.021 C 
HETATM    3  C3  UNL     1     -33.401  14.400  -4.345  1.00 20.00     0.021 C 
HETATM    4  C5  UNL     1     -34.649  14.730  -5.175  1.00 20.00    -0.015 C 
ENDROOT
BRANCH   4   5
HETATM    5  P6  UNL     1     -35.453  16.295  -4.506  1.00 20.00    -0.013 P 
HETATM    6  C4  UNL     1     -37.112  15.605  -4.163  1.00 20.00     0.062 C 
HETATM    7 CL7  UNL     1     -34.624  16.291  -2.583  1.00 20.00    -0.096 Cl
ENDBRANCH   4   5
TORSDOF 1
ENDMDL
MODEL 9
REMARK VINA RESULT:      -2.8     12.017     13.181
REMARK  1 active torsions:
REMARK  status: ('A' for Active; 'I' for Inactive)
REMARK    1  A    between atoms: C5_5  and  P6_6 
ROOT
HETATM    1  C1  UNL     1     -34.478  13.600  -7.278  1.00 20.00     0.021 C 
HETATM    2  C2  UNL     1     -35.833  13.474  -5.166  1.00 20.00     0.021 C 
HETATM    3  C3  UNL     1     -35.963  15.517  -6.622  1.00 20.00     0.021 C 
HETATM    4  C5  UNL     1     -35.044  14.404  -6.099  1.00 20.00    -0.015 C 
ENDROOT
BRANCH   4   5
HETATM    5  P6  UNL     1     -33.616  15.167  -5.137  1.00 20.00    -0.013 P 
HETATM    6  C4  UNL     1     -33.675  16.839  -5.875  1.00 20.00     0.062 C 
HETATM    7 CL7  UNL     1     -34.595  15.509  -3.319  1.00 20.00    -0.096 Cl
ENDBRANCH   4   5
TORSDOF 1
ENDMDL
