MODEL 1
REMARK VINA RESULT:      -5.0      0.000      0.000
REMARK  2 active torsions:
REMARK  status: ('A' for Active; 'I' for Inactive)
REMARK    1  A    between atoms: C1_1  and  C5_5 
REMARK    2  A    between atoms: C4_4  and  C5_5 
ROOT
HETATM    1  C2  UNL     1     -35.560   6.109   3.656  1.00 20.00     0.032 C 
HETATM    2  C3  UNL     1     -33.334   5.338   2.818  1.00 20.00     0.032 C 
HETATM    3  C5  UNL     1     -34.107   5.823   4.050  1.00 20.00     0.100 C 
ENDROOT
BRANCH   3   4
HETATM    4  C1  UNL     1     -33.439   7.095   4.650  1.00 20.00     0.186 C 
HETATM    5  O6  UNL     1     -33.859   7.452   5.789  1.00 20.00    -0.647 OA
HETATM    6  O7  UNL     1     -32.534   7.626   3.945  1.00 20.00    -0.647 OA
ENDBRANCH   3   4
BRANCH   3   7
HETATM    7  C4  UNL     1     -34.061   4.760   5.150  1.00 20.00     0.371 C 
HETATM    8  F8  UNL     1     -34.014   3.516   4.611  1.00 20.00    -0.213 F 
HETATM    9  F9  UNL     1     -35.182   4.811   5.913  1.00 20.00    -0.213 F 
ENDBRANCH   3   7
TORSDOF 2
ENDMDL
MODEL 2
REMARK VINA RESULT:      -5.0      2.130      2.694
REMARK  2 active torsions:
REMARK  status: ('A' for Active; 'I' for Inactive)
REMARK    1  A    between atoms: C1_1  and  C5_5 
REMARK    2  A    between atoms: C4_4  and  C5_5 
ROOT
HETATM    1  C2  UNL     1     -33.384   7.179   3.400  1.00 20.00     0.032 C 
HETATM    2  C3  UNL     1     -35.687   6.233   3.632  1.00 20.00     0.032 C 
HETATM    3  C5  UNL     1     -34.218   6.060   4.033  1.00 20.00     0.100 C 
ENDROOT
BRANCH   3   4
HETATM    4  C1  UNL     1     -33.689   4.663   3.592  1.00 20.00     0.186 C 
HETATM    5  O6  UNL     1     -34.171   3.672   4.212  1.00 20.00    -0.647 OA
HETATM    6  O7  UNL     1     -32.849   4.667   2.647  1.00 20.00    -0.647 OA
ENDBRANCH   3   4
BRANCH   3   7
HETATM    7  C4  UNL     1     -34.081   6.103   5.558  1.00 20.00     0.371 C 
HETATM    8  F8  UNL     1     -35.167   5.545   6.150  1.00 20.00    -0.213 F 
HETATM    9  F9  UNL     1     -34.013   7.384   5.997  1.00 20.00    -0.213 F 
ENDBRANCH   3   7
TORSDOF 2
ENDMDL
MODEL 3
REMARK VINA RESULT:      -5.0      0.141      1.077
REMARK  2 active torsions:
REMARK  status: ('A' for Active; 'I' for Inactive)
REMARK    1  A    between atoms: C1_1  and  C5_5 
REMARK    2  A    between atoms: C4_4  and  C5_5 
ROOT
HETATM    1  C2  UNL     1     -35.544   6.019   3.689  1.00 20.00     0.032 C 
HETATM    2  C3  UNL     1     -33.333   5.192   2.866  1.00 20.00     0.032 C 
HETATM    3  C5  UNL     1     -34.086   5.754   4.077  1.00 20.00     0.100 C 
ENDROOT
BRANCH   3   4
HETATM    4  C1  UNL     1     -33.406   7.059   4.587  1.00 20.00     0.186 C 
HETATM    5  O6  UNL     1     -32.650   7.645   3.759  1.00 20.00    -0.647 OA
HETATM    6  O7  UNL     1     -33.695   7.405   5.768  1.00 20.00    -0.647 OA
ENDBRANCH   3   4
BRANCH   3   7
HETATM    7  C4  UNL     1     -34.025   4.761   5.241  1.00 20.00     0.371 C 
HETATM    8  F8  UNL     1     -33.890   3.493   4.780  1.00 20.00    -0.213 F 
HETATM    9  F9  UNL     1     -35.175   4.795   5.960  1.00 20.00    -0.213 F 
ENDBRANCH   3   7
TORSDOF 2
ENDMDL
MODEL 4
REMARK VINA RESULT:      -5.0      1.553      2.579
REMARK  2 active torsions:
REMARK  status: ('A' for Active; 'I' for Inactive)
REMARK    1  A    between atoms: C1_1  and  C5_5 
REMARK    2  A    between atoms: C4_4  and  C5_5 
ROOT
HETATM    1  C2  UNL     1     -34.344   4.438   4.899  1.00 20.00     0.032 C 
HETATM    2  C3  UNL     1     -35.710   6.133   3.669  1.00 20.00     0.032 C 
HETATM    3  C5  UNL     1     -34.295   5.757   4.120  1.00 20.00     0.100 C 
ENDROOT
BRANCH   3   4
HETATM    4  C1  UNL     1     -33.679   6.890   4.994  1.00 20.00     0.186 C 
HETATM    5  O6  UNL     1     -32.783   7.587   4.438  1.00 20.00    -0.647 OA
HETATM    6  O7  UNL     1     -34.155   7.005   6.160  1.00 20.00    -0.647 OA
ENDBRANCH   3   4
BRANCH   3   7
HETATM    7  C4  UNL     1     -33.376   5.613   2.903  1.00 20.00     0.371 C 
HETATM    8  F8  UNL     1     -33.997   6.058   1.782  1.00 20.00    -0.213 F 
HETATM    9  F9  UNL     1     -33.068   4.310   2.687  1.00 20.00    -0.213 F 
ENDBRANCH   3   7
TORSDOF 2
ENDMDL
MODEL 5
REMARK VINA RESULT:      -4.9      1.784      2.516
REMARK  2 active torsions:
REMARK  status: ('A' for Active; 'I' for Inactive)
REMARK    1  A    between atoms: C1_1  and  C5_5 
REMARK    2  A    between atoms: C4_4  and  C5_5 
ROOT
HETATM    1  C2  UNL     1     -35.650   6.158   3.571  1.00 20.00     0.032 C 
HETATM    2  C3  UNL     1     -34.436   4.224   4.591  1.00 20.00     0.032 C 
HETATM    3  C5  UNL     1     -34.298   5.671   4.105  1.00 20.00     0.100 C 
ENDROOT
BRANCH   3   4
HETATM    4  C1  UNL     1     -33.201   5.778   3.005  1.00 20.00     0.186 C 
HETATM    5  O6  UNL     1     -32.805   4.682   2.516  1.00 20.00    -0.647 OA
HETATM    6  O7  UNL     1     -32.836   6.951   2.705  1.00 20.00    -0.647 OA
ENDBRANCH   3   4
BRANCH   3   7
HETATM    7  C4  UNL     1     -33.835   6.570   5.256  1.00 20.00     0.371 C 
HETATM    8  F8  UNL     1     -34.449   6.217   6.413  1.00 20.00    -0.213 F 
HETATM    9  F9  UNL     1     -34.166   7.863   5.017  1.00 20.00    -0.213 F 
ENDBRANCH   3   7
TORSDOF 2
ENDMDL
MODEL 6
REMARK VINA RESULT:      -4.9      1.271      2.036
REMARK  2 active torsions:
REMARK  status: ('A' for Active; 'I' for Inactive)
REMARK    1  A    between atoms: C1_1  and  C5_5 
REMARK    2  A    between atoms: C4_4  and  C5_5 
ROOT
HETATM    1  C2  UNL     1     -33.892   7.081   5.280  1.00 20.00     0.032 C 
HETATM    2  C3  UNL     1     -35.559   6.148   3.667  1.00 20.00     0.032 C 
HETATM    3  C5  UNL     1     -34.147   5.985   4.241  1.00 20.00     0.100 C 
ENDROOT
BRANCH   3   4
HETATM    4  C1  UNL     1     -33.084   6.045   3.104  1.00 20.00     0.186 C 
HETATM    5  O6  UNL     1     -32.824   4.946   2.535  1.00 20.00    -0.647 OA
HETATM    6  O7  UNL     1     -32.607   7.190   2.858  1.00 20.00    -0.647 OA
ENDBRANCH   3   4
BRANCH   3   7
HETATM    7  C4  UNL     1     -33.999   4.605   4.887  1.00 20.00     0.371 C 
HETATM    8  F8  UNL     1     -34.806   3.702   4.275  1.00 20.00    -0.213 F 
HETATM    9  F9  UNL     1     -34.376   4.643   6.190  1.00 20.00    -0.213 F 
ENDBRANCH   3   7
TORSDOF 2
ENDMDL
MODEL 7
REMARK VINA RESULT:      -4.8      2.662      3.168
REMARK  2 active torsions:
REMARK  status: ('A' for Active; 'I' for Inactive)
REMARK    1  A    between atoms: C1_1  and  C5_5 
REMARK    2  A    between atoms: C4_4  and  C5_5 
ROOT
HETATM    1  C2  UNL     1     -35.632   6.262   3.601  1.00 20.00     0.032 C 
HETATM    2  C3  UNL     1     -34.591   5.656   5.792  1.00 20.00     0.032 C 
HETATM    3  C5  UNL     1     -34.326   5.864   4.297  1.00 20.00     0.100 C 
ENDROOT
BRANCH   3   4
HETATM    4  C1  UNL     1     -33.734   4.571   3.661  1.00 20.00     0.186 C 
HETATM    5  O6  UNL     1     -34.102   3.482   4.186  1.00 20.00    -0.647 OA
HETATM    6  O7  UNL     1     -32.964   4.747   2.673  1.00 20.00    -0.647 OA
ENDBRANCH   3   4
BRANCH   3   7
HETATM    7  C4  UNL     1     -33.272   6.956   4.097  1.00 20.00     0.371 C 
HETATM    8  F8  UNL     1     -33.048   7.623   5.257  1.00 20.00    -0.213 F 
HETATM    9  F9  UNL     1     -33.699   7.875   3.196  1.00 20.00    -0.213 F 
ENDBRANCH   3   7
TORSDOF 2
ENDMDL
MODEL 8
REMARK VINA RESULT:      -4.8      1.347      1.893
REMARK  2 active torsions:
REMARK  status: ('A' for Active; 'I' for Inactive)
REMARK    1  A    between atoms: C1_1  and  C5_5 
REMARK    2  A    between atoms: C4_4  and  C5_5 
ROOT
HETATM    1  C2  UNL     1     -35.536   6.131   3.438  1.00 20.00     0.032 C 
HETATM    2  C3  UNL     1     -33.288   7.155   3.052  1.00 20.00     0.032 C 
HETATM    3  C5  UNL     1     -34.074   6.147   3.897  1.00 20.00     0.100 C 
ENDROOT
BRANCH   3   4
HETATM    4  C1  UNL     1     -33.975   6.505   5.409  1.00 20.00     0.186 C 
HETATM    5  O6  UNL     1     -33.242   7.495   5.693  1.00 20.00    -0.647 OA
HETATM    6  O7  UNL     1     -34.654   5.779   6.191  1.00 20.00    -0.647 OA
ENDBRANCH   3   4
BRANCH   3   7
HETATM    7  C4  UNL     1     -33.463   4.750   3.750  1.00 20.00     0.371 C 
HETATM    8  F8  UNL     1     -33.037   4.546   2.478  1.00 20.00    -0.213 F 
HETATM    9  F9  UNL     1     -34.389   3.793   4.009  1.00 20.00    -0.213 F 
ENDBRANCH   3   7
TORSDOF 2
ENDMDL
MODEL 9
REMARK VINA RESULT:      -4.7      2.541      3.197
REMARK  2 active torsions:
REMARK  status: ('A' for Active; 'I' for Inactive)
REMARK    1  A    between atoms: C1_1  and  C5_5 
REMARK    2  A    between atoms: C4_4  and  C5_5 
ROOT
HETATM    1  C2  UNL     1     -35.643   6.355   3.482  1.00 20.00     0.032 C 
HETATM    2  C3  UNL     1     -33.855   7.123   5.051  1.00 20.00     0.032 C 
HETATM    3  C5  UNL     1     -34.302   5.987   4.126  1.00 20.00     0.100 C 
ENDROOT
BRANCH   3   4
HETATM    4  C1  UNL     1     -34.420   4.650   4.917  1.00 20.00     0.186 C 
HETATM    5  O6  UNL     1     -34.283   3.594   4.235  1.00 20.00    -0.647 OA
HETATM    6  O7  UNL     1     -34.621   4.763   6.160  1.00 20.00    -0.647 OA
ENDBRANCH   3   4
BRANCH   3   7
HETATM    7  C4  UNL     1     -33.248   5.746   3.041  1.00 20.00     0.371 C 
HETATM    8  F8  UNL     1     -32.372   6.781   2.990  1.00 20.00    -0.213 F 
HETATM    9  F9  UNL     1     -33.829   5.667   1.818  1.00 20.00    -0.213 F 
ENDBRANCH   3   7
TORSDOF 2
ENDMDL
