REMARK  0 active torsions:
REMARK  status: ('A' for Active; 'I' for Inactive)
ROOT
HETATM    1  C1  UNL     1     -34.216   5.027   6.413  1.00 20.00     0.019 A 
HETATM    2  C2  UNL     1     -34.628   4.844   5.070  1.00 20.00     0.019 A 
HETATM    3  C3  UNL     1     -33.776   6.326   6.535  1.00 20.00     0.090 A 
HETATM    4  C4  UNL     1     -34.428   6.038   4.412  1.00 20.00     0.090 A 
HETATM    5  C5  UNL     1     -33.555   8.301   5.018  1.00 20.00     0.154 C 
HETATM    6  N6  UNL     1     -33.909   6.931   5.313  1.00 20.00    -0.371 N 
ENDROOT
TORSDOF 0
