REMARK  1 active torsions:
REMARK  status: ('A' for Active; 'I' for Inactive)
REMARK    1  A    between atoms: C6_6  and  C9_9 
ROOT
HETATM    1  C1  UNL     1     -33.203   8.424   4.033  1.00 20.00     0.007 A 
HETATM    2  C2  UNL     1     -32.552   6.498   2.728  1.00 20.00     0.007 A 
HETATM    3  C3  UNL     1     -33.952   7.601   4.874  1.00 20.00     0.007 A 
HETATM    4  C4  UNL     1     -33.300   5.675   3.569  1.00 20.00     0.007 A 
HETATM    5  C5  UNL     1     -32.503   7.872   2.960  1.00 20.00    -0.062 A 
HETATM    6  C6  UNL     1     -34.000   6.226   4.642  1.00 20.00    -0.059 A 
HETATM    7  C7  UNL     1     -31.702   8.752   2.060  1.00 20.00     0.048 C 
ENDROOT
BRANCH   6   8
HETATM    8  C9  UNL     1     -34.800   5.347   5.543  1.00 20.00     0.034 C 
HETATM    9  C8  UNL     1     -33.982   4.826   6.722  1.00 20.00     0.010 C 
ENDBRANCH   6   8
TORSDOF 1
