REMARK  0 active torsions:
REMARK  status: ('A' for Active; 'I' for Inactive)
ROOT
HETATM    1  C1  UNL     1     -34.938   5.359   6.106  1.00 20.00     0.001 A 
HETATM    2  C2  UNL     1     -34.504   4.692   4.969  1.00 20.00     0.001 A 
HETATM    3  C3  UNL     1     -34.608   6.702   6.306  1.00 20.00     0.013 A 
HETATM    4  C4  UNL     1     -33.733   5.350   4.009  1.00 20.00     0.019 A 
HETATM    5  C5  UNL     1     -33.366   8.756   5.334  1.00 20.00     0.020 A 
HETATM    6  C6  UNL     1     -32.623   9.055   4.216  1.00 20.00     0.051 A 
HETATM    7  C7  UNL     1     -33.827   7.397   5.351  1.00 20.00    -0.019 A 
HETATM    8  C8  UNL     1     -33.402   6.704   4.214  1.00 20.00     0.015 A 
HETATM    9  S9  UNL     1     -32.468   7.715   3.175  1.00 20.00    -0.101 SA
ENDROOT
TORSDOF 0
