REMARK  2 active torsions:
REMARK  status: ('A' for Active; 'I' for Inactive)
REMARK    1  A    between atoms: C5_5  and  N8_8 
REMARK    2  A    between atoms: C6_6  and  S11_11 
ROOT
HETATM    1  C1  UNL     1     -33.117   5.634   3.508  1.00 20.00     0.037 A 
HETATM    2  C2  UNL     1     -33.524   7.906   4.221  1.00 20.00     0.037 A 
HETATM    3  C3  UNL     1     -32.535   6.107   2.332  1.00 20.00     0.021 A 
HETATM    4  C4  UNL     1     -32.943   8.379   3.045  1.00 20.00     0.021 A 
HETATM    5  C5  UNL     1     -33.611   6.534   4.453  1.00 20.00     0.102 A 
HETATM    6  C6  UNL     1     -32.448   7.480   2.101  1.00 20.00    -0.000 A 
ENDROOT
BRANCH   5   7
HETATM    7  N8  UNL     1     -34.203   6.052   5.650  1.00 20.00    -0.116 N 
HETATM    8  O9  UNL     1     -34.271   4.813   5.840  1.00 20.00    -0.532 OA
HETATM    9  O10 UNL     1     -34.642   6.878   6.487  1.00 20.00    -0.532 OA
ENDBRANCH   5   7
BRANCH   6  10
HETATM   10  S11 UNL     1     -31.705   8.084   0.598  1.00 20.00    -0.134 SA
HETATM   11  C7  UNL     1     -32.634   9.620   0.398  1.00 20.00     0.095 C 
ENDBRANCH   6  10
TORSDOF 2
