REMARK  1 active torsions:
REMARK  status: ('A' for Active; 'I' for Inactive)
REMARK    1  A    between atoms: C6_6  and  C9_9 
ROOT
HETATM    1  C1  UNL     1     -33.072   9.060   5.288  1.00 20.00     0.001 A 
HETATM    2  C2  UNL     1     -32.552   8.859   4.009  1.00 20.00     0.007 A 
HETATM    3  C3  UNL     1     -33.913   8.104   5.857  1.00 20.00     0.007 A 
HETATM    4  C4  UNL     1     -33.714   6.746   3.869  1.00 20.00     0.013 A 
HETATM    5  C5  UNL     1     -32.873   7.702   3.300  1.00 20.00    -0.061 A 
HETATM    6  C6  UNL     1     -34.234   6.947   5.148  1.00 20.00    -0.058 A 
HETATM    7  C7  UNL     1     -32.315   7.487   1.933  1.00 20.00     0.048 C 
ENDROOT
BRANCH   6   8
HETATM    8  C9  UNL     1     -35.134   5.925   5.756  1.00 20.00     0.034 C 
HETATM    9  C8  UNL     1     -34.364   4.873   6.551  1.00 20.00     0.010 C 
ENDBRANCH   6   8
TORSDOF 1
