REMARK  1 active torsions:
REMARK  status: ('A' for Active; 'I' for Inactive)
REMARK    1  A    between atoms: C6_6  and  N9_9 
ROOT
HETATM    1  N8  UNL     1     -32.804   9.512   0.395  1.00 20.00     0.068 N 
HETATM    2  N9  UNL     1     -32.083   7.553   1.562  1.00 20.00    -0.073 NA
HETATM    3  N10 UNL     1     -32.462   8.578   0.955  1.00 20.00    -0.162 NA
ENDROOT
BRANCH   2   4
HETATM    4  C6  UNL     1     -32.740   7.371   2.783  1.00 20.00     0.093 A 
HETATM    5  C3  UNL     1     -32.944   6.083   3.280  1.00 20.00     0.035 A 
HETATM    6  C1  UNL     1     -33.598   5.902   4.498  1.00 20.00     0.009 A 
HETATM    7  C5  UNL     1     -34.049   7.007   5.220  1.00 20.00    -0.062 A 
HETATM    8  C2  UNL     1     -33.845   8.295   4.723  1.00 20.00     0.009 A 
HETATM    9  C7  UNL     1     -34.749   6.813   6.522  1.00 20.00     0.048 C 
HETATM   10  C4  UNL     1     -33.191   8.476   3.504  1.00 20.00     0.035 A 
ENDBRANCH   2   4
TORSDOF 1
