REMARK  4 active torsions:
REMARK  status: ('A' for Active; 'I' for Inactive)
REMARK    1  A    between atoms: C6_6  and  C7_7 
REMARK    2  A    between atoms: C7_7  and  C8_8 
REMARK    3  A    between atoms: C8_8  and  C9_9 
REMARK    4  A    between atoms: C9_9  and  O10_10 
ROOT
HETATM    1  C1  UNL     1     -35.007   5.443   5.803  1.00 20.00     0.000 C 
HETATM    2  C2  UNL     1     -35.056   5.296   4.285  1.00 20.00     0.000 C 
HETATM    3  C3  UNL     1     -34.679   6.874   6.218  1.00 20.00     0.000 C 
HETATM    4  C4  UNL     1     -33.768   5.788   3.630  1.00 20.00     0.004 C 
HETATM    5  C5  UNL     1     -33.390   7.369   5.565  1.00 20.00     0.004 C 
HETATM    6  C6  UNL     1     -33.439   7.231   4.038  1.00 20.00    -0.014 C 
ENDROOT
BRANCH   6   7
HETATM    7  C7  UNL     1     -32.120   7.681   3.413  1.00 20.00     0.007 C 
BRANCH   7   8
HETATM    8  C8  UNL     1     -32.170   7.590   1.893  1.00 20.00     0.026 C 
BRANCH   8   9
HETATM    9  C9  UNL     1     -33.300   8.436   1.322  1.00 20.00     0.164 C 
BRANCH   9  10
HETATM   10  O10 UNL     1     -33.083   9.794   1.681  1.00 20.00    -0.401 OA
HETATM   11  H28 UNL     1     -33.817  10.304   1.304  1.00 20.00     0.209 HD
ENDBRANCH   9  10
ENDBRANCH   8   9
ENDBRANCH   7   8
ENDBRANCH   6   7
TORSDOF 4
