REMARK  0 active torsions:
REMARK  status: ('A' for Active; 'I' for Inactive)
ROOT
HETATM    1  C1  UNL     1     -33.986   4.910   4.442  1.00 20.00     0.091 A 
HETATM    2  C2  UNL     1     -33.235   5.475   3.411  1.00 20.00     0.161 A 
HETATM    3  C3  UNL     1     -34.219   5.632   5.612  1.00 20.00     0.161 A 
HETATM    4  C4  UNL     1     -32.717   6.762   3.550  1.00 20.00     0.196 A 
HETATM    5  C5  UNL     1     -33.701   6.920   5.751  1.00 20.00     0.196 A 
HETATM    6  C6  UNL     1     -32.950   7.485   4.720  1.00 20.00     0.199 A 
HETATM    7  F7  UNL     1     -33.012   4.781   2.287  1.00 20.00    -0.203 F 
HETATM    8  F8  UNL     1     -34.940   5.089   6.602  1.00 20.00    -0.203 F 
HETATM    9  F9  UNL     1     -31.996   7.305   2.561  1.00 20.00    -0.199 F 
HETATM   10  F10 UNL     1     -33.925   7.613   6.875  1.00 20.00    -0.199 F 
HETATM   11  F11 UNL     1     -32.453   8.721   4.854  1.00 20.00    -0.199 F 
ENDROOT
TORSDOF 0
