REMARK  0 active torsions:
REMARK  status: ('A' for Active; 'I' for Inactive)
ROOT
HETATM    1  C1  UNL     1     -33.256   6.156   3.421  1.00 20.00     0.199 A 
HETATM    2  C2  UNL     1     -33.989   5.667   4.503  1.00 20.00     0.198 A 
HETATM    3  C3  UNL     1     -32.692   7.430   3.479  1.00 20.00     0.198 A 
HETATM    4  C4  UNL     1     -34.157   6.453   5.642  1.00 20.00     0.182 A 
HETATM    5  C5  UNL     1     -32.860   8.216   4.619  1.00 20.00     0.182 A 
HETATM    6  C6  UNL     1     -33.593   7.728   5.701  1.00 20.00     0.117 A 
HETATM    7  F7  UNL     1     -33.095   5.401   2.326  1.00 20.00    -0.199 F 
HETATM    8  F8  UNL     1     -34.531   4.444   4.447  1.00 20.00    -0.199 F 
HETATM    9  F9  UNL     1     -31.989   7.898   2.440  1.00 20.00    -0.199 F 
HETATM   10  F10 UNL     1     -34.864   5.970   6.674  1.00 20.00    -0.201 F 
HETATM   11  F11 UNL     1     -32.312   9.439   4.660  1.00 20.00    -0.201 F 
HETATM   12 CL12 UNL     1     -33.800   8.698   7.108  1.00 20.00    -0.077 Cl
ENDROOT
TORSDOF 0
