REMARK  0 active torsions:
REMARK  status: ('A' for Active; 'I' for Inactive)
ROOT
HETATM    1  C1  UNL     1     -34.776   5.053   6.290  1.00 20.00     0.000 A 
HETATM    2  C2  UNL     1     -34.465   4.769   4.960  1.00 20.00     0.001 A 
HETATM    3  C3  UNL     1     -34.562   6.335   6.797  1.00 20.00     0.001 A 
HETATM    4  C4  UNL     1     -33.941   5.766   4.137  1.00 20.00     0.018 A 
HETATM    5  C5  UNL     1     -34.039   7.332   5.974  1.00 20.00     0.018 A 
HETATM    6  C6  UNL     1     -33.728   7.048   4.645  1.00 20.00     0.006 A 
HETATM    7  I7  UNL     1     -32.948   8.533   3.420  1.00 20.00    -0.045 I 
ENDROOT
TORSDOF 0
