REMARK  0 active torsions:
REMARK  status: ('A' for Active; 'I' for Inactive)
ROOT
HETATM    1  C1  UNL     1     -34.656   5.408   6.433  1.00 20.00     0.000 A 
HETATM    2  C2  UNL     1     -34.617   4.994   5.102  1.00 20.00     0.001 A 
HETATM    3  C3  UNL     1     -33.997   6.575   6.820  1.00 20.00     0.001 A 
HETATM    4  C4  UNL     1     -33.918   5.746   4.158  1.00 20.00     0.019 A 
HETATM    5  C5  UNL     1     -33.298   7.327   5.876  1.00 20.00     0.019 A 
HETATM    6  C6  UNL     1     -33.259   6.913   4.545  1.00 20.00     0.011 A 
HETATM    7  S7  UNL     1     -32.357   7.885   3.327  1.00 20.00    -0.053 SA
ENDROOT
TORSDOF 0
