REMARK  2 active torsions:
REMARK  status: ('A' for Active; 'I' for Inactive)
REMARK    1  A    between atoms: C6_6  and  C10_10 
REMARK    2  A    between atoms: C9_9  and  C10_10 
ROOT
HETATM    1  C1  UNL     1     -35.000   4.904   5.381  1.00 20.00     0.000 A 
HETATM    2  C2  UNL     1     -34.420   4.564   4.159  1.00 20.00     0.001 A 
HETATM    3  C3  UNL     1     -34.736   6.148   5.956  1.00 20.00     0.001 A 
HETATM    4  C4  UNL     1     -33.576   5.467   3.511  1.00 20.00     0.007 A 
HETATM    5  C5  UNL     1     -33.892   7.050   5.309  1.00 20.00     0.007 A 
HETATM    6  C6  UNL     1     -33.312   6.710   4.086  1.00 20.00    -0.054 A 
ENDROOT
BRANCH   6   7
HETATM    7  C10 UNL     1     -32.393   7.693   3.382  1.00 20.00     0.014 C 
HETATM    8  C8  UNL     1     -32.794   9.136   3.713  1.00 20.00     0.015 C 
BRANCH   7   9
HETATM    9  C9  UNL     1     -32.348   7.498   1.853  1.00 20.00     0.004 C 
HETATM   10  C7  UNL     1     -31.424   8.486   1.151  1.00 20.00     0.006 C 
ENDBRANCH   7   9
ENDBRANCH   6   7
TORSDOF 2
