REMARK  2 active torsions:
REMARK  status: ('A' for Active; 'I' for Inactive)
REMARK    1  A    between atoms: C6_6  and  C8_8 
REMARK    2  A    between atoms: C8_8  and  N10_10 
ROOT
HETATM    1  N9  UNL     1     -32.812   9.118   0.017  1.00 20.00     0.068 N 
HETATM    2  N10 UNL     1     -32.923   9.306   2.390  1.00 20.00    -0.111 NA
HETATM    3  N11 UNL     1     -32.861   9.204   1.153  1.00 20.00    -0.167 NA
ENDROOT
BRANCH   2   4
HETATM    4  C8  UNL     1     -32.076   8.375   3.147  1.00 20.00     0.227 C 
BRANCH   4   5
HETATM    5  C6  UNL     1     -32.756   7.072   3.402  1.00 20.00    -0.035 A 
HETATM    6  C3  UNL     1     -32.418   5.950   2.647  1.00 20.00     0.009 A 
HETATM    7  C1  UNL     1     -33.055   4.731   2.885  1.00 20.00     0.001 A 
HETATM    8  C2  UNL     1     -34.029   4.636   3.879  1.00 20.00     0.007 A 
HETATM    9  C5  UNL     1     -34.367   5.759   4.634  1.00 20.00    -0.061 A 
HETATM   10  C4  UNL     1     -33.731   6.977   4.396  1.00 20.00     0.015 A 
HETATM   11  C7  UNL     1     -35.408   5.656   5.698  1.00 20.00     0.048 C 
ENDBRANCH   4   5
ENDBRANCH   2   4
TORSDOF 2
