REMARK  1 active torsions:
REMARK  status: ('A' for Active; 'I' for Inactive)
REMARK    1  A    between atoms: C2_2  and  C8_8 
ROOT
HETATM    1  C1  UNL     1     -33.239   6.753   3.702  1.00 20.00    -0.081 C 
HETATM    2  C2  UNL     1     -33.993   6.743   4.813  1.00 20.00    -0.078 C 
HETATM    3  C3  UNL     1     -32.486   8.042   3.563  1.00 20.00     0.034 C 
HETATM    4  C4  UNL     1     -33.854   8.025   5.579  1.00 20.00     0.034 C 
HETATM    5  C5  UNL     1     -32.630   8.677   4.942  1.00 20.00     0.009 C 
HETATM    6  C6  UNL     1     -33.103   5.710   2.649  1.00 20.00     0.043 C 
ENDROOT
BRANCH   2   7
HETATM    7  C8  UNL     1     -34.913   5.688   5.318  1.00 20.00     0.030 C 
HETATM    8  C7  UNL     1     -34.173   4.720   6.220  1.00 20.00     0.010 C 
ENDBRANCH   2   7
TORSDOF 1
