REMARK  3 active torsions:
REMARK  status: ('A' for Active; 'I' for Inactive)
REMARK    1  A    between atoms: C6_6  and  O9_9 
REMARK    2  A    between atoms: C7_7  and  C8_8 
REMARK    3  A    between atoms: C7_7  and  O9_9 
ROOT
HETATM    1  C1  UNL     1     -34.485   4.462   5.531  1.00 20.00     0.000 A 
HETATM    2  C2  UNL     1     -34.352   4.861   4.201  1.00 20.00     0.003 A 
HETATM    3  C3  UNL     1     -34.225   5.368   6.559  1.00 20.00     0.003 A 
HETATM    4  C4  UNL     1     -33.960   6.165   3.899  1.00 20.00     0.037 A 
HETATM    5  C5  UNL     1     -33.833   6.673   6.257  1.00 20.00     0.037 A 
HETATM    6  C6  UNL     1     -33.701   7.071   4.927  1.00 20.00     0.068 A 
ENDROOT
BRANCH   6   7
HETATM    7  O9  UNL     1     -33.317   8.343   4.633  1.00 20.00    -0.350 OA
BRANCH   7   8
HETATM    8  C7  UNL     1     -32.582   8.537   3.425  1.00 20.00     0.190 C 
BRANCH   8   9
HETATM    9  C8  UNL     1     -33.536   8.877   2.295  1.00 20.00     0.141 C 
HETATM   10 CL10 UNL     1     -32.650   9.099   0.765  1.00 20.00    -0.128 Cl
ENDBRANCH   8   9
ENDBRANCH   7   8
ENDBRANCH   6   7
TORSDOF 3
