REMARK  3 active torsions:
REMARK  status: ('A' for Active; 'I' for Inactive)
REMARK    1  A    between atoms: C5_5  and  O9_9 
REMARK    2  A    between atoms: C6_6  and  O10_10 
REMARK    3  A    between atoms: C8_8  and  O10_10 
ROOT
HETATM    1  C1  UNL     1     -34.315   5.565   6.007  1.00 20.00     0.003 A 
HETATM    2  C2  UNL     1     -34.410   4.883   4.794  1.00 20.00     0.003 A 
HETATM    3  C3  UNL     1     -33.561   6.735   6.091  1.00 20.00     0.039 A 
HETATM    4  C4  UNL     1     -33.751   5.370   3.666  1.00 20.00     0.039 A 
HETATM    5  C5  UNL     1     -32.902   7.223   4.963  1.00 20.00     0.099 A 
HETATM    6  C6  UNL     1     -32.997   6.541   3.750  1.00 20.00     0.101 A 
ENDROOT
BRANCH   6   7
HETATM    7  O10 UNL     1     -32.357   7.006   2.641  1.00 20.00    -0.349 OA
BRANCH   7   8
HETATM    8  C8  UNL     1     -33.168   7.331   1.513  1.00 20.00     0.171 C 
HETATM    9  C7  UNL     1     -32.511   8.455   0.741  1.00 20.00     0.034 C 
ENDBRANCH   7   8
ENDBRANCH   6   7
BRANCH   5  10
HETATM   10  O9  UNL     1     -32.168   8.367   5.058  1.00 20.00    -0.358 OA
HETATM   11  H20 UNL     1     -32.204   8.714   5.964  1.00 20.00     0.217 HD
ENDBRANCH   5  10
TORSDOF 3
