REMARK  1 active torsions:
REMARK  status: ('A' for Active; 'I' for Inactive)
REMARK    1  A    between atoms: C6_6  and  S8_8 
ROOT
HETATM    1  C1  UNL     1     -34.459   5.142   5.586  1.00 20.00     0.001 A 
HETATM    2  C2  UNL     1     -34.360   6.013   6.670  1.00 20.00     0.001 A 
HETATM    3  C3  UNL     1     -33.900   5.491   4.357  1.00 20.00     0.021 A 
HETATM    4  C4  UNL     1     -33.700   7.234   6.526  1.00 20.00     0.019 A 
HETATM    5  C5  UNL     1     -33.241   6.712   4.212  1.00 20.00     0.028 A 
HETATM    6  C6  UNL     1     -33.141   7.583   5.297  1.00 20.00     0.015 A 
HETATM    7  S7  UNL     1     -32.547   7.073   2.573  1.00 20.00    -0.051 SA
ENDROOT
BRANCH   6   8
HETATM    8  S8  UNL     1     -32.320   9.182   5.242  1.00 20.00    -0.142 SA
HETATM    9  H13 UNL     1     -32.549   9.518   6.519  1.00 20.00     0.107 HD
ENDBRANCH   6   8
TORSDOF 1
