REMARK  0 active torsions:
REMARK  status: ('A' for Active; 'I' for Inactive)
ROOT
HETATM    1  C1  UNL     1     -34.372   6.253   6.890  1.00 20.00     0.002 A 
HETATM    2  C2  UNL     1     -34.772   5.056   6.298  1.00 20.00     0.002 A 
HETATM    3  C3  UNL     1     -33.672   7.201   6.143  1.00 20.00     0.025 A 
HETATM    4  C4  UNL     1     -34.472   4.805   4.958  1.00 20.00     0.025 A 
HETATM    5  C5  UNL     1     -33.372   6.951   4.804  1.00 20.00     0.055 A 
HETATM    6  C6  UNL     1     -33.772   5.753   4.211  1.00 20.00     0.055 A 
HETATM    7 CL7  UNL     1     -32.504   8.164   3.930  1.00 20.00    -0.083 Cl
HETATM    8 CL8  UNL     1     -33.431   5.385   2.557  1.00 20.00    -0.083 Cl
ENDROOT
TORSDOF 0
