REMARK  3 active torsions:
REMARK  status: ('A' for Active; 'I' for Inactive)
REMARK    1  A    between atoms: C2_2  and  C4_4 
REMARK    2  A    between atoms: C4_4  and  S6_6 
REMARK    3  A    between atoms: C5_5  and  S6_6 
ROOT
HETATM    1  C4  UNL     1     -33.144   8.432   3.734  1.00 20.00     0.100 C 
ENDROOT
BRANCH   1   2
HETATM    2  C2  UNL     1     -32.193   7.610   2.924  1.00 20.00    -0.027 C 
HETATM    3  C1  UNL     1     -32.149   7.624   1.586  1.00 20.00     0.007 C 
ENDBRANCH   1   2
BRANCH   1   4
HETATM    4  S6  UNL     1     -33.520   7.592   5.296  1.00 20.00    -0.166 SA
BRANCH   4   5
HETATM    5  C5  UNL     1     -34.747   6.418   4.678  1.00 20.00     0.069 C 
HETATM    6  C3  UNL     1     -34.139   5.520   3.618  1.00 20.00     0.016 C 
ENDBRANCH   4   5
ENDBRANCH   1   4
TORSDOF 3
