REMARK  1 active torsions:
REMARK  status: ('A' for Active; 'I' for Inactive)
REMARK    1  A    between atoms: C4_4  and  C7_7 
ROOT
HETATM    1  C1  UNL     1     -34.996   4.999   5.378  1.00 20.00     0.006 A 
HETATM    2  C2  UNL     1     -34.466   4.919   4.090  1.00 20.00     0.043 A 
HETATM    3  C3  UNL     1     -34.585   6.016   6.240  1.00 20.00     0.043 A 
HETATM    4  C4  UNL     1     -33.114   6.874   4.526  1.00 20.00     0.029 A 
HETATM    5  C5  UNL     1     -33.525   5.857   3.664  1.00 20.00     0.126 A 
HETATM    6  C6  UNL     1     -33.644   6.954   5.813  1.00 20.00     0.126 A 
HETATM    7  F8  UNL     1     -33.021   5.772   2.425  1.00 20.00    -0.205 F 
HETATM    8  F9  UNL     1     -33.256   7.927   6.649  1.00 20.00    -0.205 F 
ENDROOT
BRANCH   4   9
HETATM    9  C7  UNL     1     -32.109   7.877   4.070  1.00 20.00     0.130 C 
HETATM   10 BR10 UNL     1     -32.943   9.113   2.821  1.00 20.00    -0.091 Br
ENDBRANCH   4   9
TORSDOF 1
