REMARK  2 active torsions:
REMARK  status: ('A' for Active; 'I' for Inactive)
REMARK    1  A    between atoms: C6_6  and  C7_7 
REMARK    2  A    between atoms: C7_7  and  S8_8 
ROOT
HETATM    1  C1  UNL     1     -34.428   4.889   6.074  1.00 20.00     0.000 A 
HETATM    2  C2  UNL     1     -34.609   4.956   4.692  1.00 20.00     0.001 A 
HETATM    3  C3  UNL     1     -33.906   5.984   6.763  1.00 20.00     0.001 A 
HETATM    4  C4  UNL     1     -34.268   6.117   4.000  1.00 20.00     0.008 A 
HETATM    5  C5  UNL     1     -33.564   7.146   6.070  1.00 20.00     0.008 A 
HETATM    6  C6  UNL     1     -33.745   7.212   4.688  1.00 20.00    -0.049 A 
ENDROOT
BRANCH   6   7
HETATM    7  C7  UNL     1     -33.380   8.455   3.948  1.00 20.00     0.109 C 
BRANCH   7   8
HETATM    8  S8  UNL     1     -32.371   9.590   4.948  1.00 20.00    -0.178 SA
HETATM    9  H16 UNL     1     -32.247  10.533   4.004  1.00 20.00     0.101 HD
ENDBRANCH   7   8
ENDBRANCH   6   7
TORSDOF 2
