REMARK  1 active torsions:
REMARK  status: ('A' for Active; 'I' for Inactive)
REMARK    1  A    between atoms: C6_6  and  N8_8 
ROOT
HETATM    1  C1  UNL     1     -35.396   5.396   5.301  1.00 20.00     0.000 A 
HETATM    2  C2  UNL     1     -34.573   5.306   6.424  1.00 20.00     0.002 A 
HETATM    3  C3  UNL     1     -35.139   6.357   4.323  1.00 20.00     0.002 A 
HETATM    4  C4  UNL     1     -33.493   6.177   6.569  1.00 20.00     0.029 A 
HETATM    5  C5  UNL     1     -34.059   7.227   4.468  1.00 20.00     0.029 A 
HETATM    6  C6  UNL     1     -33.236   7.138   5.590  1.00 20.00     0.027 A 
ENDROOT
BRANCH   6   7
HETATM    7  N8  UNL     1     -32.144   8.019   5.736  1.00 20.00    -0.394 N 
HETATM    8  C7  UNL     1     -32.139   9.345   5.200  1.00 20.00     0.146 C 
HETATM    9  H17 UNL     1     -31.348   7.676   6.240  1.00 20.00     0.159 HD
ENDBRANCH   6   7
TORSDOF 1
