REMARK  0 active torsions:
REMARK  status: ('A' for Active; 'I' for Inactive)
ROOT
HETATM    1  C1  UNL     1     -34.891   5.378   6.433  1.00 20.00     0.001 A 
HETATM    2  C2  UNL     1     -34.563   6.738   6.577  1.00 20.00     0.001 A 
HETATM    3  C3  UNL     1     -34.490   4.661   5.303  1.00 20.00     0.012 A 
HETATM    4  C4  UNL     1     -33.829   7.403   5.593  1.00 20.00     0.008 A 
HETATM    5  C5  UNL     1     -33.763   5.328   4.333  1.00 20.00    -0.030 A 
HETATM    6  C6  UNL     1     -33.437   6.685   4.478  1.00 20.00    -0.044 A 
HETATM    7  C7  UNL     1     -33.224   4.844   3.074  1.00 20.00     0.008 A 
HETATM    8  C8  UNL     1     -32.594   5.868   2.477  1.00 20.00    -0.021 A 
HETATM    9  C9  UNL     1     -32.654   7.142   3.287  1.00 20.00     0.066 A 
ENDROOT
TORSDOF 0
