REMARK  0 active torsions:
REMARK  status: ('A' for Active; 'I' for Inactive)
ROOT
HETATM    1  C1  UNL     1     -32.596   6.929   3.098  1.00 20.00     0.001 A 
HETATM    2  C2  UNL     1     -33.355   5.814   2.747  1.00 20.00     0.002 A 
HETATM    3  C3  UNL     1     -32.775   7.556   4.336  1.00 20.00     0.014 A 
HETATM    4  C4  UNL     1     -34.315   5.292   3.619  1.00 20.00     0.030 A 
HETATM    5  C5  UNL     1     -34.173   7.420   6.534  1.00 20.00     0.030 A 
HETATM    6  C6  UNL     1     -35.158   6.538   6.913  1.00 20.00     0.089 A 
HETATM    7  C7  UNL     1     -33.736   7.048   5.232  1.00 20.00    -0.008 A 
HETATM    8  C8  UNL     1     -34.482   5.930   4.853  1.00 20.00     0.042 A 
HETATM    9  N9  UNL     1     -35.337   5.642   5.893  1.00 20.00    -0.365 N 
HETATM   10  H16 UNL     1     -36.001   4.880   5.902  1.00 20.00     0.165 HD
ENDROOT
TORSDOF 0
