REMARK  2 active torsions:
REMARK  status: ('A' for Active; 'I' for Inactive)
REMARK    1  A    between atoms: C6_6  and  C10_10 
REMARK    2  A    between atoms: C9_9  and  C10_10 
ROOT
HETATM    1  C1  UNL     1     -34.750   4.928   6.122  1.00 20.00     0.000 A 
HETATM    2  C2  UNL     1     -34.658   4.888   4.731  1.00 20.00     0.001 A 
HETATM    3  C3  UNL     1     -34.317   6.056   6.818  1.00 20.00     0.001 A 
HETATM    4  C4  UNL     1     -34.132   5.977   4.035  1.00 20.00     0.007 A 
HETATM    5  C5  UNL     1     -33.790   7.145   6.122  1.00 20.00     0.007 A 
HETATM    6  C6  UNL     1     -33.698   7.105   4.731  1.00 20.00    -0.054 A 
ENDROOT
BRANCH   6   7
HETATM    7  C10 UNL     1     -33.124   8.291   3.975  1.00 20.00     0.014 C 
HETATM    8  C8  UNL     1     -32.089   9.026   4.834  1.00 20.00     0.015 C 
BRANCH   7   9
HETATM    9  C9  UNL     1     -32.512   7.903   2.613  1.00 20.00     0.004 C 
HETATM   10  C7  UNL     1     -31.941   9.094   1.853  1.00 20.00     0.006 C 
ENDBRANCH   7   9
ENDBRANCH   6   7
TORSDOF 2
