REMARK  0 active torsions:
REMARK  status: ('A' for Active; 'I' for Inactive)
ROOT
HETATM    1  C1  UNL     1     -34.896   5.643   6.145  1.00 20.00     0.001 A 
HETATM    2  C2  UNL     1     -34.070   6.704   6.522  1.00 20.00     0.003 A 
HETATM    3  C3  UNL     1     -34.819   5.089   4.859  1.00 20.00     0.014 A 
HETATM    4  C4  UNL     1     -33.140   7.251   5.633  1.00 20.00     0.038 A 
HETATM    5  C5  UNL     1     -33.516   5.357   2.606  1.00 20.00     0.039 A 
HETATM    6  C6  UNL     1     -32.522   6.256   2.295  1.00 20.00     0.143 A 
HETATM    7  C7  UNL     1     -33.891   5.623   3.949  1.00 20.00    -0.001 A 
HETATM    8  C8  UNL     1     -33.087   6.680   4.363  1.00 20.00     0.085 A 
HETATM    9  O9  UNL     1     -32.255   7.063   3.354  1.00 20.00    -0.322 OA
ENDROOT
TORSDOF 0
