REMARK  1 active torsions:
REMARK  status: ('A' for Active; 'I' for Inactive)
REMARK    1  A    between atoms: C6_6  and  N8_8 
ROOT
HETATM    1  N7  UNL     1     -32.197   9.555   5.344  1.00 20.00     0.068 N 
HETATM    2  N8  UNL     1     -33.396   8.115   3.859  1.00 20.00    -0.073 NA
HETATM    3  N9  UNL     1     -32.769   8.865   4.638  1.00 20.00    -0.162 NA
ENDROOT
BRANCH   2   4
HETATM    4  C6  UNL     1     -33.719   6.882   4.435  1.00 20.00     0.093 A 
HETATM    5  C4  UNL     1     -33.935   6.789   5.810  1.00 20.00     0.034 A 
HETATM    6  C2  UNL     1     -34.258   5.560   6.384  1.00 20.00     0.002 A 
HETATM    7  C1  UNL     1     -34.365   4.423   5.583  1.00 20.00     0.000 A 
HETATM    8  C3  UNL     1     -34.149   4.515   4.208  1.00 20.00     0.002 A 
HETATM    9  C5  UNL     1     -33.826   5.745   3.634  1.00 20.00     0.034 A 
ENDBRANCH   2   4
TORSDOF 1
