MODEL 1
REMARK VINA RESULT:      -6.7      0.000      0.000
REMARK  0 active torsions:
REMARK  status: ('A' for Active; 'I' for Inactive)
ROOT
HETATM    1  C1  UNL     1     -31.608   8.675   3.203  1.00 20.00     0.001 A 
HETATM    2  C2  UNL     1     -31.986   7.962   2.069  1.00 20.00     0.001 A 
HETATM    3  C3  UNL     1     -34.612   5.969   5.909  1.00 20.00     0.001 A 
HETATM    4  C4  UNL     1     -34.990   5.255   4.775  1.00 20.00     0.001 A 
HETATM    5  C5  UNL     1     -32.164   8.362   4.443  1.00 20.00     0.012 A 
HETATM    6  C6  UNL     1     -32.922   6.932   2.172  1.00 20.00     0.012 A 
HETATM    7  C7  UNL     1     -33.676   6.999   5.806  1.00 20.00     0.012 A 
HETATM    8  C8  UNL     1     -34.434   5.569   3.534  1.00 20.00     0.012 A 
HETATM    9  C9  UNL     1     -33.107   7.329   4.565  1.00 20.00    -0.026 A 
HETATM   10  C10 UNL     1     -33.492   6.603   3.413  1.00 20.00    -0.026 A 
ENDROOT
TORSDOF 0
ENDMDL
MODEL 2
REMARK VINA RESULT:      -6.7      0.031      2.071
REMARK  0 active torsions:
REMARK  status: ('A' for Active; 'I' for Inactive)
ROOT
HETATM    1  C1  UNL     1     -32.000   7.981   2.040  1.00 20.00     0.001 A 
HETATM    2  C2  UNL     1     -31.603   8.688   3.171  1.00 20.00     0.001 A 
HETATM    3  C3  UNL     1     -34.980   5.276   4.774  1.00 20.00     0.001 A 
HETATM    4  C4  UNL     1     -34.584   5.983   5.905  1.00 20.00     0.001 A 
HETATM    5  C5  UNL     1     -32.938   6.954   2.151  1.00 20.00     0.012 A 
HETATM    6  C6  UNL     1     -32.144   8.371   4.418  1.00 20.00     0.012 A 
HETATM    7  C7  UNL     1     -34.439   5.593   3.527  1.00 20.00     0.012 A 
HETATM    8  C8  UNL     1     -33.645   7.009   5.795  1.00 20.00     0.012 A 
HETATM    9  C9  UNL     1     -33.493   6.623   3.397  1.00 20.00    -0.026 A 
HETATM   10  C10 UNL     1     -33.090   7.341   4.548  1.00 20.00    -0.026 A 
ENDROOT
TORSDOF 0
ENDMDL
MODEL 3
REMARK VINA RESULT:      -6.7      0.029      3.445
REMARK  0 active torsions:
REMARK  status: ('A' for Active; 'I' for Inactive)
ROOT
HETATM    1  C1  UNL     1     -34.621   5.936   5.881  1.00 20.00     0.001 A 
HETATM    2  C2  UNL     1     -34.984   5.226   4.740  1.00 20.00     0.001 A 
HETATM    3  C3  UNL     1     -31.612   8.680   3.220  1.00 20.00     0.001 A 
HETATM    4  C4  UNL     1     -31.975   7.972   2.078  1.00 20.00     0.001 A 
HETATM    5  C5  UNL     1     -33.692   6.973   5.793  1.00 20.00     0.012 A 
HETATM    6  C6  UNL     1     -34.419   5.551   3.506  1.00 20.00     0.012 A 
HETATM    7  C7  UNL     1     -32.178   8.355   4.453  1.00 20.00     0.012 A 
HETATM    8  C8  UNL     1     -32.904   6.934   2.166  1.00 20.00     0.012 A 
HETATM    9  C9  UNL     1     -33.114   7.314   4.560  1.00 20.00    -0.026 A 
HETATM   10  C10 UNL     1     -33.482   6.593   3.399  1.00 20.00    -0.026 A 
ENDROOT
TORSDOF 0
ENDMDL
MODEL 4
REMARK VINA RESULT:      -6.7      0.076      4.020
REMARK  0 active torsions:
REMARK  status: ('A' for Active; 'I' for Inactive)
ROOT
HETATM    1  C1  UNL     1     -35.005   5.178   4.775  1.00 20.00     0.001 A 
HETATM    2  C2  UNL     1     -34.665   5.901   5.916  1.00 20.00     0.001 A 
HETATM    3  C3  UNL     1     -31.998   7.937   2.126  1.00 20.00     0.001 A 
HETATM    4  C4  UNL     1     -31.657   8.660   3.266  1.00 20.00     0.001 A 
HETATM    5  C5  UNL     1     -34.430   5.500   3.546  1.00 20.00     0.012 A 
HETATM    6  C6  UNL     1     -33.748   6.950   5.830  1.00 20.00     0.012 A 
HETATM    7  C7  UNL     1     -32.915   6.889   2.212  1.00 20.00     0.012 A 
HETATM    8  C8  UNL     1     -32.233   8.338   4.496  1.00 20.00     0.012 A 
HETATM    9  C9  UNL     1     -33.505   6.551   3.442  1.00 20.00    -0.026 A 
HETATM   10  C10 UNL     1     -33.158   7.287   4.600  1.00 20.00    -0.026 A 
ENDROOT
TORSDOF 0
ENDMDL
MODEL 5
REMARK VINA RESULT:      -5.0     11.628     12.208
REMARK  0 active torsions:
REMARK  status: ('A' for Active; 'I' for Inactive)
ROOT
HETATM    1  C1  UNL     1     -34.311  16.761  -2.622  1.00 20.00     0.001 A 
HETATM    2  C2  UNL     1     -35.479  16.696  -1.867  1.00 20.00     0.001 A 
HETATM    3  C3  UNL     1     -32.099  19.138   1.002  1.00 20.00     0.001 A 
HETATM    4  C4  UNL     1     -33.266  19.073   1.757  1.00 20.00     0.001 A 
HETATM    5  C5  UNL     1     -33.176  17.383  -2.101  1.00 20.00     0.012 A 
HETATM    6  C6  UNL     1     -35.516  17.254  -0.588  1.00 20.00     0.012 A 
HETATM    7  C7  UNL     1     -32.062  18.580  -0.277  1.00 20.00     0.012 A 
HETATM    8  C8  UNL     1     -34.402  18.451   1.236  1.00 20.00     0.012 A 
HETATM    9  C9  UNL     1     -33.196  17.950  -0.817  1.00 20.00    -0.026 A 
HETATM   10  C10 UNL     1     -34.383  17.884  -0.048  1.00 20.00    -0.026 A 
ENDROOT
TORSDOF 0
ENDMDL
MODEL 6
REMARK VINA RESULT:      -5.0     11.658     12.172
REMARK  0 active torsions:
REMARK  status: ('A' for Active; 'I' for Inactive)
ROOT
HETATM    1  C1  UNL     1     -35.553  16.643  -2.018  1.00 20.00     0.001 A 
HETATM    2  C2  UNL     1     -34.397  16.676  -2.792  1.00 20.00     0.001 A 
HETATM    3  C3  UNL     1     -33.231  18.991   1.555  1.00 20.00     0.001 A 
HETATM    4  C4  UNL     1     -32.075  19.026   0.780  1.00 20.00     0.001 A 
HETATM    5  C5  UNL     1     -35.557  17.208  -0.742  1.00 20.00     0.012 A 
HETATM    6  C6  UNL     1     -33.240  17.276  -2.294  1.00 20.00     0.012 A 
HETATM    7  C7  UNL     1     -34.388  18.391   1.056  1.00 20.00     0.012 A 
HETATM    8  C8  UNL     1     -32.071  18.459  -0.495  1.00 20.00     0.012 A 
HETATM    9  C9  UNL     1     -34.402  17.816  -0.225  1.00 20.00    -0.026 A 
HETATM   10  C10 UNL     1     -33.226  17.851  -1.012  1.00 20.00    -0.026 A 
ENDROOT
TORSDOF 0
ENDMDL
MODEL 7
REMARK VINA RESULT:      -5.0     11.661     12.088
REMARK  0 active torsions:
REMARK  status: ('A' for Active; 'I' for Inactive)
ROOT
HETATM    1  C1  UNL     1     -33.319  18.945   1.609  1.00 20.00     0.001 A 
HETATM    2  C2  UNL     1     -32.147  18.998   0.859  1.00 20.00     0.001 A 
HETATM    3  C3  UNL     1     -35.558  16.649  -2.050  1.00 20.00     0.001 A 
HETATM    4  C4  UNL     1     -34.386  16.701  -2.800  1.00 20.00     0.001 A 
HETATM    5  C5  UNL     1     -34.463  18.349   1.077  1.00 20.00     0.012 A 
HETATM    6  C6  UNL     1     -32.115  18.455  -0.426  1.00 20.00     0.012 A 
HETATM    7  C7  UNL     1     -35.590  17.192  -0.765  1.00 20.00     0.012 A 
HETATM    8  C8  UNL     1     -33.242  17.298  -2.268  1.00 20.00     0.012 A 
HETATM    9  C9  UNL     1     -34.448  17.797  -0.214  1.00 20.00    -0.026 A 
HETATM   10  C10 UNL     1     -33.257  17.850  -0.977  1.00 20.00    -0.026 A 
ENDROOT
TORSDOF 0
ENDMDL
MODEL 8
REMARK VINA RESULT:      -5.0     11.656     12.129
REMARK  0 active torsions:
REMARK  status: ('A' for Active; 'I' for Inactive)
ROOT
HETATM    1  C1  UNL     1     -32.155  19.037   0.873  1.00 20.00     0.001 A 
HETATM    2  C2  UNL     1     -33.330  18.985   1.617  1.00 20.00     0.001 A 
HETATM    3  C3  UNL     1     -34.358  16.692  -2.777  1.00 20.00     0.001 A 
HETATM    4  C4  UNL     1     -35.534  16.641  -2.034  1.00 20.00     0.001 A 
HETATM    5  C5  UNL     1     -32.112  18.481  -0.406  1.00 20.00     0.012 A 
HETATM    6  C6  UNL     1     -34.467  18.376   1.083  1.00 20.00     0.012 A 
HETATM    7  C7  UNL     1     -33.221  17.301  -2.244  1.00 20.00     0.012 A 
HETATM    8  C8  UNL     1     -35.577  17.196  -0.755  1.00 20.00     0.012 A 
HETATM    9  C9  UNL     1     -33.246  17.866  -0.958  1.00 20.00    -0.026 A 
HETATM   10  C10 UNL     1     -34.442  17.812  -0.203  1.00 20.00    -0.026 A 
ENDROOT
TORSDOF 0
ENDMDL
MODEL 9
REMARK VINA RESULT:      -4.7     11.553     12.106
REMARK  0 active torsions:
REMARK  status: ('A' for Active; 'I' for Inactive)
ROOT
HETATM    1  C1  UNL     1     -34.079  18.961   2.595  1.00 20.00     0.001 A 
HETATM    2  C2  UNL     1     -32.812  19.249   2.094  1.00 20.00     0.001 A 
HETATM    3  C3  UNL     1     -35.280  16.875  -1.634  1.00 20.00     0.001 A 
HETATM    4  C4  UNL     1     -34.013  17.161  -2.134  1.00 20.00     0.001 A 
HETATM    5  C5  UNL     1     -35.013  18.300   1.797  1.00 20.00     0.012 A 
HETATM    6  C6  UNL     1     -32.475  18.875   0.793  1.00 20.00     0.012 A 
HETATM    7  C7  UNL     1     -35.617  17.249  -0.332  1.00 20.00     0.012 A 
HETATM    8  C8  UNL     1     -33.080  17.823  -1.336  1.00 20.00     0.012 A 
HETATM    9  C9  UNL     1     -34.690  17.916   0.485  1.00 20.00    -0.026 A 
HETATM   10  C10 UNL     1     -33.402  18.207  -0.025  1.00 20.00    -0.026 A 
ENDROOT
TORSDOF 0
ENDMDL
