MODEL 1
REMARK VINA RESULT:      -4.0      0.000      0.000
REMARK  1 active torsions:
REMARK  status: ('A' for Active; 'I' for Inactive)
REMARK    1  A    between atoms: C4_4  and  S6_6 
ROOT
HETATM    1  C1  UNL     1     -34.702   5.061   4.457  1.00 20.00     0.009 A 
HETATM    2  C2  UNL     1     -34.022   5.674   3.365  1.00 20.00     0.026 A 
HETATM    3  C3  UNL     1     -34.570   5.786   5.621  1.00 20.00     0.051 A 
HETATM    4  C4  UNL     1     -33.397   6.845   3.737  1.00 20.00     0.038 A 
HETATM    5  S5  UNL     1     -33.631   7.199   5.395  1.00 20.00    -0.095 SA
ENDROOT
BRANCH   4   6
HETATM    6  S6  UNL     1     -32.461   7.892   2.685  1.00 20.00    -0.136 SA
HETATM    7  H10 UNL     1     -32.354   7.067   1.627  1.00 20.00     0.107 HD
ENDBRANCH   4   6
TORSDOF 1
ENDMDL
MODEL 2
REMARK VINA RESULT:      -3.9      1.320      1.712
REMARK  1 active torsions:
REMARK  status: ('A' for Active; 'I' for Inactive)
REMARK    1  A    between atoms: C4_4  and  S6_6 
ROOT
HETATM    1  C1  UNL     1     -34.320   6.320   5.779  1.00 20.00     0.009 A 
HETATM    2  C2  UNL     1     -33.482   7.310   5.188  1.00 20.00     0.026 A 
HETATM    3  C3  UNL     1     -34.703   5.357   4.872  1.00 20.00     0.051 A 
HETATM    4  C4  UNL     1     -33.257   7.064   3.851  1.00 20.00     0.038 A 
HETATM    5  S5  UNL     1     -34.054   5.647   3.315  1.00 20.00    -0.095 SA
ENDROOT
BRANCH   4   6
HETATM    6  S6  UNL     1     -32.280   8.045   2.773  1.00 20.00    -0.136 SA
HETATM    7  H10 UNL     1     -31.082   7.844   3.354  1.00 20.00     0.107 HD
ENDBRANCH   4   6
TORSDOF 1
ENDMDL
MODEL 3
REMARK VINA RESULT:      -3.0      1.528      2.818
REMARK  1 active torsions:
REMARK  status: ('A' for Active; 'I' for Inactive)
REMARK    1  A    between atoms: C4_4  and  S6_6 
ROOT
HETATM    1  C1  UNL     1     -32.531   7.153   2.653  1.00 20.00     0.009 A 
HETATM    2  C2  UNL     1     -33.325   5.991   2.875  1.00 20.00     0.026 A 
HETATM    3  C3  UNL     1     -32.473   7.961   3.768  1.00 20.00     0.051 A 
HETATM    4  C4  UNL     1     -33.842   5.954   4.152  1.00 20.00     0.038 A 
HETATM    5  S5  UNL     1     -33.372   7.317   5.075  1.00 20.00    -0.095 SA
ENDROOT
BRANCH   4   6
HETATM    6  S6  UNL     1     -34.865   4.691   4.814  1.00 20.00    -0.136 SA
HETATM    7  H10 UNL     1     -34.760   5.014   6.116  1.00 20.00     0.107 HD
ENDBRANCH   4   6
TORSDOF 1
ENDMDL
MODEL 4
REMARK VINA RESULT:      -3.0      1.737      3.290
REMARK  1 active torsions:
REMARK  status: ('A' for Active; 'I' for Inactive)
REMARK    1  A    between atoms: C4_4  and  S6_6 
ROOT
HETATM    1  C1  UNL     1     -32.574   7.977   3.789  1.00 20.00     0.009 A 
HETATM    2  C2  UNL     1     -33.266   7.323   4.849  1.00 20.00     0.026 A 
HETATM    3  C3  UNL     1     -32.623   7.255   2.616  1.00 20.00     0.051 A 
HETATM    4  C4  UNL     1     -33.818   6.127   4.446  1.00 20.00     0.038 A 
HETATM    5  S5  UNL     1     -33.501   5.796   2.796  1.00 20.00    -0.095 SA
ENDROOT
BRANCH   4   6
HETATM    6  S6  UNL     1     -34.747   5.029   5.452  1.00 20.00    -0.136 SA
HETATM    7  H10 UNL     1     -35.838   4.919   4.671  1.00 20.00     0.107 HD
ENDBRANCH   4   6
TORSDOF 1
ENDMDL
MODEL 5
REMARK VINA RESULT:      -3.0      1.499      1.826
REMARK  1 active torsions:
REMARK  status: ('A' for Active; 'I' for Inactive)
REMARK    1  A    between atoms: C4_4  and  S6_6 
ROOT
HETATM    1  C1  UNL     1     -34.655   5.786   5.930  1.00 20.00     0.009 A 
HETATM    2  C2  UNL     1     -34.457   4.959   4.787  1.00 20.00     0.026 A 
HETATM    3  C3  UNL     1     -34.058   7.020   5.786  1.00 20.00     0.051 A 
HETATM    4  C4  UNL     1     -33.716   5.592   3.813  1.00 20.00     0.038 A 
HETATM    5  S5  UNL     1     -33.263   7.176   4.278  1.00 20.00    -0.095 SA
ENDROOT
BRANCH   4   6
HETATM    6  S6  UNL     1     -33.260   4.912   2.261  1.00 20.00    -0.136 SA
HETATM    7  H10 UNL     1     -34.175   3.927   2.199  1.00 20.00     0.107 HD
ENDBRANCH   4   6
TORSDOF 1
ENDMDL
MODEL 6
REMARK VINA RESULT:      -2.8      1.230      2.371
REMARK  1 active torsions:
REMARK  status: ('A' for Active; 'I' for Inactive)
REMARK    1  A    between atoms: C4_4  and  S6_6 
ROOT
HETATM    1  C1  UNL     1     -34.332   4.130   4.236  1.00 20.00     0.009 A 
HETATM    2  C2  UNL     1     -34.383   5.042   5.329  1.00 20.00     0.026 A 
HETATM    3  C3  UNL     1     -33.800   4.707   3.104  1.00 20.00     0.051 A 
HETATM    4  C4  UNL     1     -33.886   6.282   4.991  1.00 20.00     0.038 A 
HETATM    5  S5  UNL     1     -33.364   6.343   3.361  1.00 20.00    -0.095 SA
ENDROOT
BRANCH   4   6
HETATM    6  S6  UNL     1     -33.774   7.673   6.055  1.00 20.00    -0.136 SA
HETATM    7  H10 UNL     1     -32.864   8.381   5.360  1.00 20.00     0.107 HD
ENDBRANCH   4   6
TORSDOF 1
ENDMDL
MODEL 7
REMARK VINA RESULT:      -2.6     12.490     12.993
REMARK  1 active torsions:
REMARK  status: ('A' for Active; 'I' for Inactive)
REMARK    1  A    between atoms: C4_4  and  S6_6 
ROOT
HETATM    1  C1  UNL     1     -34.175  15.305  -3.737  1.00 20.00     0.009 A 
HETATM    2  C2  UNL     1     -34.740  14.278  -4.548  1.00 20.00     0.026 A 
HETATM    3  C3  UNL     1     -33.434  16.200  -4.478  1.00 20.00     0.051 A 
HETATM    4  C4  UNL     1     -34.409  14.427  -5.877  1.00 20.00     0.038 A 
HETATM    5  S5  UNL     1     -33.421  15.800  -6.143  1.00 20.00    -0.095 SA
ENDROOT
BRANCH   4   6
HETATM    6  S6  UNL     1     -34.908  13.373  -7.188  1.00 20.00    -0.136 SA
HETATM    7  H10 UNL     1     -35.828  14.180  -7.751  1.00 20.00     0.107 HD
ENDBRANCH   4   6
TORSDOF 1
ENDMDL
MODEL 8
REMARK VINA RESULT:      -2.6     12.210     12.443
REMARK  1 active torsions:
REMARK  status: ('A' for Active; 'I' for Inactive)
REMARK    1  A    between atoms: C4_4  and  S6_6 
ROOT
HETATM    1  C1  UNL     1     -35.173  17.615  -0.199  1.00 20.00     0.009 A 
HETATM    2  C2  UNL     1     -35.231  16.828  -1.385  1.00 20.00     0.026 A 
HETATM    3  C3  UNL     1     -33.986  18.309  -0.096  1.00 20.00     0.051 A 
HETATM    4  C4  UNL     1     -34.087  16.950  -2.143  1.00 20.00     0.038 A 
HETATM    5  S5  UNL     1     -32.950  18.009  -1.425  1.00 20.00    -0.095 SA
ENDROOT
BRANCH   4   6
HETATM    6  S6  UNL     1     -33.772  16.146  -3.671  1.00 20.00    -0.136 SA
HETATM    7  H10 UNL     1     -32.469  16.461  -3.796  1.00 20.00     0.107 HD
ENDBRANCH   4   6
TORSDOF 1
ENDMDL
MODEL 9
REMARK VINA RESULT:      -2.6     12.191     12.557
REMARK  1 active torsions:
REMARK  status: ('A' for Active; 'I' for Inactive)
REMARK    1  A    between atoms: C4_4  and  S6_6 
ROOT
HETATM    1  C1  UNL     1     -34.888  16.536  -2.328  1.00 20.00     0.009 A 
HETATM    2  C2  UNL     1     -35.319  17.002  -1.053  1.00 20.00     0.026 A 
HETATM    3  C3  UNL     1     -33.635  17.006  -2.656  1.00 20.00     0.051 A 
HETATM    4  C4  UNL     1     -34.378  17.812  -0.454  1.00 20.00     0.038 A 
HETATM    5  S5  UNL     1     -32.983  18.006  -1.428  1.00 20.00    -0.095 SA
ENDROOT
BRANCH   4   6
HETATM    6  S6  UNL     1     -34.529  18.579   1.117  1.00 20.00    -0.136 SA
HETATM    7  H10 UNL     1     -33.713  17.767   1.814  1.00 20.00     0.107 HD
ENDBRANCH   4   6
TORSDOF 1
ENDMDL
