MODEL 1
REMARK VINA RESULT:      -5.8      0.000      0.000
REMARK  2 active torsions:
REMARK  status: ('A' for Active; 'I' for Inactive)
REMARK    1  A    between atoms: C6_6  and  C7_7 
REMARK    2  A    between atoms: C7_7  and  S8_8 
ROOT
HETATM    1  C1  UNL     1     -34.634   4.977   5.615  1.00 20.00     0.000 A 
HETATM    2  C2  UNL     1     -34.316   6.307   5.889  1.00 20.00     0.001 A 
HETATM    3  C3  UNL     1     -34.418   4.456   4.339  1.00 20.00     0.001 A 
HETATM    4  C4  UNL     1     -33.782   7.118   4.887  1.00 20.00     0.008 A 
HETATM    5  C5  UNL     1     -33.884   5.267   3.337  1.00 20.00     0.008 A 
HETATM    6  C6  UNL     1     -33.566   6.596   3.610  1.00 20.00    -0.049 A 
ENDROOT
BRANCH   6   7
HETATM    7  C7  UNL     1     -32.995   7.463   2.539  1.00 20.00     0.109 C 
BRANCH   7   8
HETATM    8  S8  UNL     1     -31.515   8.365   3.088  1.00 20.00    -0.178 SA
HETATM    9  H16 UNL     1     -31.892   8.483   4.369  1.00 20.00     0.101 HD
ENDBRANCH   7   8
ENDBRANCH   6   7
TORSDOF 2
ENDMDL
MODEL 2
REMARK VINA RESULT:      -5.8      0.005      1.709
REMARK  2 active torsions:
REMARK  status: ('A' for Active; 'I' for Inactive)
REMARK    1  A    between atoms: C6_6  and  C7_7 
REMARK    2  A    between atoms: C7_7  and  S8_8 
ROOT
HETATM    1  C1  UNL     1     -34.635   4.980   5.617  1.00 20.00     0.000 A 
HETATM    2  C2  UNL     1     -34.416   4.457   4.342  1.00 20.00     0.001 A 
HETATM    3  C3  UNL     1     -34.318   6.311   5.889  1.00 20.00     0.001 A 
HETATM    4  C4  UNL     1     -33.880   5.265   3.339  1.00 20.00     0.008 A 
HETATM    5  C5  UNL     1     -33.781   7.118   4.886  1.00 20.00     0.008 A 
HETATM    6  C6  UNL     1     -33.563   6.596   3.612  1.00 20.00    -0.049 A 
ENDROOT
BRANCH   6   7
HETATM    7  C7  UNL     1     -32.990   7.460   2.539  1.00 20.00     0.109 C 
BRANCH   7   8
HETATM    8  S8  UNL     1     -31.516   8.371   3.093  1.00 20.00    -0.178 SA
HETATM    9  H16 UNL     1     -30.812   8.193   1.967  1.00 20.00     0.101 HD
ENDBRANCH   7   8
ENDBRANCH   6   7
TORSDOF 2
ENDMDL
MODEL 3
REMARK VINA RESULT:      -5.7      1.072      1.199
REMARK  2 active torsions:
REMARK  status: ('A' for Active; 'I' for Inactive)
REMARK    1  A    between atoms: C6_6  and  C7_7 
REMARK    2  A    between atoms: C7_7  and  S8_8 
ROOT
HETATM    1  C1  UNL     1     -34.699   5.621   4.915  1.00 20.00     0.000 A 
HETATM    2  C2  UNL     1     -34.152   6.646   5.688  1.00 20.00     0.001 A 
HETATM    3  C3  UNL     1     -34.293   5.452   3.592  1.00 20.00     0.001 A 
HETATM    4  C4  UNL     1     -33.198   7.502   5.137  1.00 20.00     0.008 A 
HETATM    5  C5  UNL     1     -33.339   6.308   3.041  1.00 20.00     0.008 A 
HETATM    6  C6  UNL     1     -32.792   7.332   3.812  1.00 20.00    -0.049 A 
ENDROOT
BRANCH   6   7
HETATM    7  C7  UNL     1     -31.772   8.247   3.222  1.00 20.00     0.109 C 
BRANCH   7   8
HETATM    8  S8  UNL     1     -32.230   8.818   1.557  1.00 20.00    -0.178 SA
HETATM    9  H16 UNL     1     -33.227   9.619   1.955  1.00 20.00     0.101 HD
ENDBRANCH   7   8
ENDBRANCH   6   7
TORSDOF 2
ENDMDL
MODEL 4
REMARK VINA RESULT:      -4.4      1.495      2.461
REMARK  2 active torsions:
REMARK  status: ('A' for Active; 'I' for Inactive)
REMARK    1  A    between atoms: C6_6  and  C7_7 
REMARK    2  A    between atoms: C7_7  and  S8_8 
ROOT
HETATM    1  C1  UNL     1     -34.007   6.936   5.513  1.00 20.00     0.000 A 
HETATM    2  C2  UNL     1     -34.329   6.396   4.268  1.00 20.00     0.001 A 
HETATM    3  C3  UNL     1     -32.968   7.859   5.626  1.00 20.00     0.001 A 
HETATM    4  C4  UNL     1     -33.610   6.779   3.135  1.00 20.00     0.008 A 
HETATM    5  C5  UNL     1     -32.250   8.242   4.493  1.00 20.00     0.008 A 
HETATM    6  C6  UNL     1     -32.570   7.702   3.249  1.00 20.00    -0.049 A 
ENDROOT
BRANCH   6   7
HETATM    7  C7  UNL     1     -31.802   8.112   2.037  1.00 20.00     0.109 C 
BRANCH   7   8
HETATM    8  S8  UNL     1     -32.447   9.637   1.286  1.00 20.00    -0.178 SA
HETATM    9  H16 UNL     1     -31.383   9.868   0.506  1.00 20.00     0.101 HD
ENDBRANCH   7   8
ENDBRANCH   6   7
TORSDOF 2
ENDMDL
MODEL 5
REMARK VINA RESULT:      -4.2      2.246      3.493
REMARK  2 active torsions:
REMARK  status: ('A' for Active; 'I' for Inactive)
REMARK    1  A    between atoms: C6_6  and  C7_7 
REMARK    2  A    between atoms: C7_7  and  S8_8 
ROOT
HETATM    1  C1  UNL     1     -31.627   8.430   3.326  1.00 20.00     0.000 A 
HETATM    2  C2  UNL     1     -32.147   8.309   4.615  1.00 20.00     0.001 A 
HETATM    3  C3  UNL     1     -32.190   7.704   2.277  1.00 20.00     0.001 A 
HETATM    4  C4  UNL     1     -33.228   7.461   4.855  1.00 20.00     0.008 A 
HETATM    5  C5  UNL     1     -33.271   6.855   2.517  1.00 20.00     0.008 A 
HETATM    6  C6  UNL     1     -33.790   6.734   3.805  1.00 20.00    -0.049 A 
ENDROOT
BRANCH   6   7
HETATM    7  C7  UNL     1     -34.946   5.827   4.061  1.00 20.00     0.109 C 
BRANCH   7   8
HETATM    8  S8  UNL     1     -34.425   4.185   4.646  1.00 20.00    -0.178 SA
HETATM    9  H16 UNL     1     -35.658   3.663   4.706  1.00 20.00     0.101 HD
ENDBRANCH   7   8
ENDBRANCH   6   7
TORSDOF 2
ENDMDL
MODEL 6
REMARK VINA RESULT:      -4.2      2.245      3.814
REMARK  2 active torsions:
REMARK  status: ('A' for Active; 'I' for Inactive)
REMARK    1  A    between atoms: C6_6  and  C7_7 
REMARK    2  A    between atoms: C7_7  and  S8_8 
ROOT
HETATM    1  C1  UNL     1     -31.633   8.444   3.356  1.00 20.00     0.000 A 
HETATM    2  C2  UNL     1     -32.180   7.722   2.294  1.00 20.00     0.001 A 
HETATM    3  C3  UNL     1     -32.165   8.311   4.638  1.00 20.00     0.001 A 
HETATM    4  C4  UNL     1     -33.260   6.867   2.515  1.00 20.00     0.008 A 
HETATM    5  C5  UNL     1     -33.245   7.456   4.859  1.00 20.00     0.008 A 
HETATM    6  C6  UNL     1     -33.792   6.735   3.799  1.00 20.00    -0.049 A 
ENDROOT
BRANCH   6   7
HETATM    7  C7  UNL     1     -34.947   5.821   4.035  1.00 20.00     0.109 C 
BRANCH   7   8
HETATM    8  S8  UNL     1     -34.430   4.191   4.655  1.00 20.00    -0.178 SA
HETATM    9  H16 UNL     1     -35.368   3.491   4.003  1.00 20.00     0.101 HD
ENDBRANCH   7   8
ENDBRANCH   6   7
TORSDOF 2
ENDMDL
MODEL 7
REMARK VINA RESULT:      -4.1      2.247      3.620
REMARK  2 active torsions:
REMARK  status: ('A' for Active; 'I' for Inactive)
REMARK    1  A    between atoms: C6_6  and  C7_7 
REMARK    2  A    between atoms: C7_7  and  S8_8 
ROOT
HETATM    1  C1  UNL     1     -31.994   8.011   2.245  1.00 20.00     0.000 A 
HETATM    2  C2  UNL     1     -31.650   8.517   3.499  1.00 20.00     0.001 A 
HETATM    3  C3  UNL     1     -33.028   7.083   2.127  1.00 20.00     0.001 A 
HETATM    4  C4  UNL     1     -32.341   8.094   4.635  1.00 20.00     0.008 A 
HETATM    5  C5  UNL     1     -33.719   6.661   3.263  1.00 20.00     0.008 A 
HETATM    6  C6  UNL     1     -33.376   7.166   4.516  1.00 20.00    -0.049 A 
ENDROOT
BRANCH   6   7
HETATM    7  C7  UNL     1     -34.114   6.713   5.731  1.00 20.00     0.109 C 
BRANCH   7   8
HETATM    8  S8  UNL     1     -34.612   4.967   5.632  1.00 20.00    -0.178 SA
HETATM    9  H16 UNL     1     -33.462   4.468   6.107  1.00 20.00     0.101 HD
ENDBRANCH   7   8
ENDBRANCH   6   7
TORSDOF 2
ENDMDL
MODEL 8
REMARK VINA RESULT:      -3.8     12.157     12.557
REMARK  2 active torsions:
REMARK  status: ('A' for Active; 'I' for Inactive)
REMARK    1  A    between atoms: C6_6  and  C7_7 
REMARK    2  A    between atoms: C7_7  and  S8_8 
ROOT
HETATM    1  C1  UNL     1     -33.599  18.189  -0.328  1.00 20.00     0.000 A 
HETATM    2  C2  UNL     1     -32.891  17.887  -1.492  1.00 20.00     0.001 A 
HETATM    3  C3  UNL     1     -34.904  17.724  -0.164  1.00 20.00     0.001 A 
HETATM    4  C4  UNL     1     -33.488  17.120  -2.492  1.00 20.00     0.008 A 
HETATM    5  C5  UNL     1     -35.501  16.958  -1.165  1.00 20.00     0.008 A 
HETATM    6  C6  UNL     1     -34.794  16.655  -2.328  1.00 20.00    -0.049 A 
ENDROOT
BRANCH   6   7
HETATM    7  C7  UNL     1     -35.433  15.835  -3.398  1.00 20.00     0.109 C 
BRANCH   7   8
HETATM    8  S8  UNL     1     -34.273  14.661  -4.161  1.00 20.00    -0.178 SA
HETATM    9  H16 UNL     1     -33.865  15.484  -5.137  1.00 20.00     0.101 HD
ENDBRANCH   7   8
ENDBRANCH   6   7
TORSDOF 2
ENDMDL
MODEL 9
REMARK VINA RESULT:      -3.8     12.155     12.526
REMARK  2 active torsions:
REMARK  status: ('A' for Active; 'I' for Inactive)
REMARK    1  A    between atoms: C6_6  and  C7_7 
REMARK    2  A    between atoms: C7_7  and  S8_8 
ROOT
HETATM    1  C1  UNL     1     -33.592  18.188  -0.337  1.00 20.00     0.000 A 
HETATM    2  C2  UNL     1     -34.897  17.722  -0.173  1.00 20.00     0.001 A 
HETATM    3  C3  UNL     1     -32.885  17.885  -1.501  1.00 20.00     0.001 A 
HETATM    4  C4  UNL     1     -35.495  16.953  -1.172  1.00 20.00     0.008 A 
HETATM    5  C5  UNL     1     -33.483  17.116  -2.500  1.00 20.00     0.008 A 
HETATM    6  C6  UNL     1     -34.786  16.651  -2.336  1.00 20.00    -0.049 A 
ENDROOT
BRANCH   6   7
HETATM    7  C7  UNL     1     -35.425  15.829  -3.404  1.00 20.00     0.109 C 
BRANCH   7   8
HETATM    8  S8  UNL     1     -34.263  14.655  -4.167  1.00 20.00    -0.178 SA
HETATM    9  H16 UNL     1     -33.875  15.469  -5.158  1.00 20.00     0.101 HD
ENDBRANCH   7   8
ENDBRANCH   6   7
TORSDOF 2
ENDMDL
