MODEL 1
REMARK VINA RESULT:      -4.6      0.000      0.000
REMARK  5 active torsions:
REMARK  status: ('A' for Active; 'I' for Inactive)
REMARK    1  A    between atoms: C3_3  and  C5_5 
REMARK    2  A    between atoms: C4_4  and  C6_6 
REMARK    3  A    between atoms: C5_5  and  S7_7 
REMARK    4  A    between atoms: C6_6  and  S8_8 
REMARK    5  A    between atoms: S7_7  and  S8_8 
ROOT
HETATM    1  S7  UNL     1     -33.380   6.960   3.480  1.00 20.00    -0.098 SA
ENDROOT
BRANCH   1   2
HETATM    2  C5  UNL     1     -33.767   7.111   5.247  1.00 20.00     0.086 C 
BRANCH   2   3
HETATM    3  C3  UNL     1     -34.464   5.853   5.751  1.00 20.00     0.006 C 
HETATM    4  C1  UNL     1     -34.624   4.831   4.634  1.00 20.00     0.006 C 
ENDBRANCH   2   3
ENDBRANCH   1   2
BRANCH   1   5
HETATM    5  S8  UNL     1     -31.782   8.239   3.296  1.00 20.00    -0.098 SA
BRANCH   5   6
HETATM    6  C6  UNL     1     -31.704   8.477   1.505  1.00 20.00     0.086 C 
BRANCH   6   7
HETATM    7  C4  UNL     1     -32.506   9.708   1.094  1.00 20.00     0.006 C 
HETATM    8  C2  UNL     1     -33.094   9.540  -0.299  1.00 20.00     0.006 C 
ENDBRANCH   6   7
ENDBRANCH   5   6
ENDBRANCH   1   5
TORSDOF 5
ENDMDL
MODEL 2
REMARK VINA RESULT:      -4.6      0.073      5.339
REMARK  5 active torsions:
REMARK  status: ('A' for Active; 'I' for Inactive)
REMARK    1  A    between atoms: C3_3  and  C5_5 
REMARK    2  A    between atoms: C4_4  and  C6_6 
REMARK    3  A    between atoms: C5_5  and  S7_7 
REMARK    4  A    between atoms: C6_6  and  S8_8 
REMARK    5  A    between atoms: S7_7  and  S8_8 
ROOT
HETATM    1  S7  UNL     1     -31.776   8.277   3.250  1.00 20.00    -0.098 SA
ENDROOT
BRANCH   1   2
HETATM    2  C5  UNL     1     -31.732   8.475   1.446  1.00 20.00     0.086 C 
BRANCH   2   3
HETATM    3  C3  UNL     1     -32.436   9.762   1.033  1.00 20.00     0.006 C 
HETATM    4  C1  UNL     1     -33.168   9.586  -0.290  1.00 20.00     0.006 C 
ENDBRANCH   2   3
ENDBRANCH   1   2
BRANCH   1   5
HETATM    5  S8  UNL     1     -33.350   6.977   3.485  1.00 20.00    -0.098 SA
BRANCH   5   6
HETATM    6  C6  UNL     1     -33.696   7.133   5.254  1.00 20.00     0.086 C 
BRANCH   6   7
HETATM    7  C4  UNL     1     -34.488   5.929   5.751  1.00 20.00     0.006 C 
HETATM    8  C2  UNL     1     -34.607   4.866   4.669  1.00 20.00     0.006 C 
ENDBRANCH   6   7
ENDBRANCH   5   6
ENDBRANCH   1   5
TORSDOF 5
ENDMDL
MODEL 3
REMARK VINA RESULT:      -4.4      0.807      5.346
REMARK  5 active torsions:
REMARK  status: ('A' for Active; 'I' for Inactive)
REMARK    1  A    between atoms: C3_3  and  C5_5 
REMARK    2  A    between atoms: C4_4  and  C6_6 
REMARK    3  A    between atoms: C5_5  and  S7_7 
REMARK    4  A    between atoms: C6_6  and  S8_8 
REMARK    5  A    between atoms: S7_7  and  S8_8 
ROOT
HETATM    1  S7  UNL     1     -32.498   7.908   3.135  1.00 20.00    -0.098 SA
ENDROOT
BRANCH   1   2
HETATM    2  C5  UNL     1     -31.774   8.425   1.553  1.00 20.00     0.086 C 
BRANCH   2   3
HETATM    3  C3  UNL     1     -32.441   9.700   1.052  1.00 20.00     0.006 C 
HETATM    4  C1  UNL     1     -33.082   9.485  -0.312  1.00 20.00     0.006 C 
ENDBRANCH   2   3
ENDBRANCH   1   2
BRANCH   1   5
HETATM    5  S8  UNL     1     -33.147   6.009   2.692  1.00 20.00    -0.098 SA
BRANCH   5   6
HETATM    6  C6  UNL     1     -34.768   5.977   3.493  1.00 20.00     0.086 C 
BRANCH   6   7
HETATM    7  C4  UNL     1     -34.699   5.211   4.810  1.00 20.00     0.006 C 
HETATM    8  C2  UNL     1     -34.362   6.140   5.967  1.00 20.00     0.006 C 
ENDBRANCH   6   7
ENDBRANCH   5   6
ENDBRANCH   1   5
TORSDOF 5
ENDMDL
MODEL 4
REMARK VINA RESULT:      -4.3      0.928      1.221
REMARK  5 active torsions:
REMARK  status: ('A' for Active; 'I' for Inactive)
REMARK    1  A    between atoms: C3_3  and  C5_5 
REMARK    2  A    between atoms: C4_4  and  C6_6 
REMARK    3  A    between atoms: C5_5  and  S7_7 
REMARK    4  A    between atoms: C6_6  and  S8_8 
REMARK    5  A    between atoms: S7_7  and  S8_8 
ROOT
HETATM    1  S7  UNL     1     -33.545   7.273   4.263  1.00 20.00    -0.098 SA
ENDROOT
BRANCH   1   2
HETATM    2  C5  UNL     1     -33.722   5.734   3.317  1.00 20.00     0.086 C 
BRANCH   2   3
HETATM    3  C3  UNL     1     -34.376   4.654   4.170  1.00 20.00     0.006 C 
HETATM    4  C1  UNL     1     -34.597   5.141   5.595  1.00 20.00     0.006 C 
ENDBRANCH   2   3
ENDBRANCH   1   2
BRANCH   1   5
HETATM    5  S8  UNL     1     -31.832   8.064   3.449  1.00 20.00    -0.098 SA
BRANCH   5   6
HETATM    6  C6  UNL     1     -32.264   8.151   1.694  1.00 20.00     0.086 C 
BRANCH   6   7
HETATM    7  C4  UNL     1     -32.490   9.598   1.271  1.00 20.00     0.006 C 
HETATM    8  C2  UNL     1     -32.966   9.679  -0.173  1.00 20.00     0.006 C 
ENDBRANCH   6   7
ENDBRANCH   5   6
ENDBRANCH   1   5
TORSDOF 5
ENDMDL
MODEL 5
REMARK VINA RESULT:      -3.9      1.388      5.223
REMARK  5 active torsions:
REMARK  status: ('A' for Active; 'I' for Inactive)
REMARK    1  A    between atoms: C3_3  and  C5_5 
REMARK    2  A    between atoms: C4_4  and  C6_6 
REMARK    3  A    between atoms: C5_5  and  S7_7 
REMARK    4  A    between atoms: C6_6  and  S8_8 
REMARK    5  A    between atoms: S7_7  and  S8_8 
ROOT
HETATM    1  S7  UNL     1     -32.792   6.141   2.536  1.00 20.00    -0.098 SA
ENDROOT
BRANCH   1   2
HETATM    2  C5  UNL     1     -32.256   7.828   2.941  1.00 20.00     0.086 C 
BRANCH   2   3
HETATM    3  C3  UNL     1     -32.597   8.784   1.804  1.00 20.00     0.006 C 
HETATM    4  C1  UNL     1     -31.484   8.819   0.766  1.00 20.00     0.006 C 
ENDBRANCH   2   3
ENDBRANCH   1   2
BRANCH   1   5
HETATM    5  S8  UNL     1     -34.689   6.110   3.326  1.00 20.00    -0.098 SA
BRANCH   5   6
HETATM    6  C6  UNL     1     -34.570   4.756   4.519  1.00 20.00     0.086 C 
BRANCH   6   7
HETATM    7  C4  UNL     1     -34.584   5.297   5.945  1.00 20.00     0.006 C 
HETATM    8  C2  UNL     1     -34.096   6.738   5.989  1.00 20.00     0.006 C 
ENDBRANCH   6   7
ENDBRANCH   5   6
ENDBRANCH   1   5
TORSDOF 5
ENDMDL
MODEL 6
REMARK VINA RESULT:      -3.1     10.907     11.454
REMARK  5 active torsions:
REMARK  status: ('A' for Active; 'I' for Inactive)
REMARK    1  A    between atoms: C3_3  and  C5_5 
REMARK    2  A    between atoms: C4_4  and  C6_6 
REMARK    3  A    between atoms: C5_5  and  S7_7 
REMARK    4  A    between atoms: C6_6  and  S8_8 
REMARK    5  A    between atoms: S7_7  and  S8_8 
ROOT
HETATM    1  S7  UNL     1     -34.711  17.216  -4.504  1.00 20.00    -0.098 SA
ENDROOT
BRANCH   1   2
HETATM    2  C5  UNL     1     -33.681  17.972  -3.214  1.00 20.00     0.086 C 
BRANCH   2   3
HETATM    3  C3  UNL     1     -33.697  17.120  -1.950  1.00 20.00     0.006 C 
HETATM    4  C1  UNL     1     -35.120  16.897  -1.457  1.00 20.00     0.006 C 
ENDBRANCH   2   3
ENDBRANCH   1   2
BRANCH   1   5
HETATM    5  S8  UNL     1     -33.334  16.073  -5.514  1.00 20.00    -0.098 SA
BRANCH   5   6
HETATM    6  C6  UNL     1     -33.473  14.486  -4.658  1.00 20.00     0.086 C 
BRANCH   6   7
HETATM    7  C4  UNL     1     -34.893  14.282  -4.138  1.00 20.00     0.006 C 
HETATM    8  C2  UNL     1     -35.753  13.559  -5.165  1.00 20.00     0.006 C 
ENDBRANCH   6   7
ENDBRANCH   5   6
ENDBRANCH   1   5
TORSDOF 5
ENDMDL
MODEL 7
REMARK VINA RESULT:      -3.1     11.019     11.634
REMARK  5 active torsions:
REMARK  status: ('A' for Active; 'I' for Inactive)
REMARK    1  A    between atoms: C3_3  and  C5_5 
REMARK    2  A    between atoms: C4_4  and  C6_6 
REMARK    3  A    between atoms: C5_5  and  S7_7 
REMARK    4  A    between atoms: C6_6  and  S8_8 
REMARK    5  A    between atoms: S7_7  and  S8_8 
ROOT
HETATM    1  S7  UNL     1     -34.900  18.048  -4.059  1.00 20.00    -0.098 SA
ENDROOT
BRANCH   1   2
HETATM    2  C5  UNL     1     -35.974  17.294  -2.804  1.00 20.00     0.086 C 
BRANCH   2   3
HETATM    3  C3  UNL     1     -35.149  16.803  -1.620  1.00 20.00     0.006 C 
HETATM    4  C1  UNL     1     -33.706  17.279  -1.722  1.00 20.00     0.006 C 
ENDBRANCH   2   3
ENDBRANCH   1   2
BRANCH   1   5
HETATM    5  S8  UNL     1     -34.863  16.587  -5.503  1.00 20.00    -0.098 SA
BRANCH   5   6
HETATM    6  C6  UNL     1     -33.178  15.949  -5.338  1.00 20.00     0.086 C 
BRANCH   6   7
HETATM    7  C4  UNL     1     -33.154  14.734  -4.417  1.00 20.00     0.006 C 
HETATM    8  C2  UNL     1     -34.551  14.158  -4.234  1.00 20.00     0.006 C 
ENDBRANCH   6   7
ENDBRANCH   5   6
ENDBRANCH   1   5
TORSDOF 5
ENDMDL
MODEL 8
REMARK VINA RESULT:      -3.0     11.069     11.799
REMARK  5 active torsions:
REMARK  status: ('A' for Active; 'I' for Inactive)
REMARK    1  A    between atoms: C3_3  and  C5_5 
REMARK    2  A    between atoms: C4_4  and  C6_6 
REMARK    3  A    between atoms: C5_5  and  S7_7 
REMARK    4  A    between atoms: C6_6  and  S8_8 
REMARK    5  A    between atoms: S7_7  and  S8_8 
ROOT
HETATM    1  S7  UNL     1     -34.889  16.664  -5.477  1.00 20.00    -0.098 SA
ENDROOT
BRANCH   1   2
HETATM    2  C5  UNL     1     -33.191  16.065  -5.245  1.00 20.00     0.086 C 
BRANCH   2   3
HETATM    3  C3  UNL     1     -33.177  14.836  -4.344  1.00 20.00     0.006 C 
HETATM    4  C1  UNL     1     -34.547  14.175  -4.296  1.00 20.00     0.006 C 
ENDBRANCH   2   3
ENDBRANCH   1   2
BRANCH   1   5
HETATM    5  S8  UNL     1     -35.069  18.003  -3.929  1.00 20.00    -0.098 SA
BRANCH   5   6
HETATM    6  C6  UNL     1     -36.001  17.039  -2.714  1.00 20.00     0.086 C 
BRANCH   6   7
HETATM    7  C4  UNL     1     -35.195  16.876  -1.429  1.00 20.00     0.006 C 
HETATM    8  C2  UNL     1     -33.746  17.291  -1.635  1.00 20.00     0.006 C 
ENDBRANCH   6   7
ENDBRANCH   5   6
ENDBRANCH   1   5
TORSDOF 5
ENDMDL
MODEL 9
REMARK VINA RESULT:      -3.0     10.655     11.203
REMARK  5 active torsions:
REMARK  status: ('A' for Active; 'I' for Inactive)
REMARK    1  A    between atoms: C3_3  and  C5_5 
REMARK    2  A    between atoms: C4_4  and  C6_6 
REMARK    3  A    between atoms: C5_5  and  S7_7 
REMARK    4  A    between atoms: C6_6  and  S8_8 
REMARK    5  A    between atoms: S7_7  and  S8_8 
ROOT
HETATM    1  S7  UNL     1     -35.324  15.888  -3.480  1.00 20.00    -0.098 SA
ENDROOT
BRANCH   1   2
HETATM    2  C5  UNL     1     -33.823  16.758  -2.944  1.00 20.00     0.086 C 
BRANCH   2   3
HETATM    3  C3  UNL     1     -33.963  17.225  -1.500  1.00 20.00     0.006 C 
HETATM    4  C1  UNL     1     -35.392  17.055  -1.005  1.00 20.00     0.006 C 
ENDBRANCH   2   3
ENDBRANCH   1   2
BRANCH   1   5
HETATM    5  S8  UNL     1     -34.533  14.231  -4.402  1.00 20.00    -0.098 SA
BRANCH   5   6
HETATM    6  C6  UNL     1     -35.993  13.521  -5.200  1.00 20.00     0.086 C 
BRANCH   6   7
HETATM    7  C4  UNL     1     -35.971  13.801  -6.700  1.00 20.00     0.006 C 
HETATM    8  C2  UNL     1     -34.602  13.503  -7.293  1.00 20.00     0.006 C 
ENDBRANCH   6   7
ENDBRANCH   5   6
ENDBRANCH   1   5
TORSDOF 5
ENDMDL
