MODEL 1
REMARK VINA RESULT:      -6.6      0.000      0.000
REMARK  2 active torsions:
REMARK  status: ('A' for Active; 'I' for Inactive)
REMARK    1  A    between atoms: C6_6  and  C10_10 
REMARK    2  A    between atoms: C9_9  and  C10_10 
ROOT
HETATM    1  C1  UNL     1     -34.666   4.996   5.275  1.00 20.00     0.000 A 
HETATM    2  C2  UNL     1     -34.326   4.821   3.933  1.00 20.00     0.001 A 
HETATM    3  C3  UNL     1     -34.360   6.194   5.921  1.00 20.00     0.001 A 
HETATM    4  C4  UNL     1     -33.679   5.842   3.238  1.00 20.00     0.007 A 
HETATM    5  C5  UNL     1     -33.713   7.215   5.226  1.00 20.00     0.007 A 
HETATM    6  C6  UNL     1     -33.373   7.041   3.885  1.00 20.00    -0.054 A 
ENDROOT
BRANCH   6   7
HETATM    7  C10 UNL     1     -32.668   8.154   3.129  1.00 20.00     0.014 C 
HETATM    8  C8  UNL     1     -31.250   8.359   3.674  1.00 20.00     0.015 C 
BRANCH   7   9
HETATM    9  C9  UNL     1     -32.629   7.922   1.605  1.00 20.00     0.004 C 
HETATM   10  C7  UNL     1     -32.159   9.145   0.826  1.00 20.00     0.006 C 
ENDBRANCH   7   9
ENDBRANCH   6   7
TORSDOF 2
ENDMDL
MODEL 2
REMARK VINA RESULT:      -6.6      0.060      1.528
REMARK  2 active torsions:
REMARK  status: ('A' for Active; 'I' for Inactive)
REMARK    1  A    between atoms: C6_6  and  C10_10 
REMARK    2  A    between atoms: C9_9  and  C10_10 
ROOT
HETATM    1  C1  UNL     1     -34.710   5.057   5.300  1.00 20.00     0.000 A 
HETATM    2  C2  UNL     1     -34.339   6.233   5.952  1.00 20.00     0.001 A 
HETATM    3  C3  UNL     1     -34.412   4.886   3.948  1.00 20.00     0.001 A 
HETATM    4  C4  UNL     1     -33.671   7.238   5.253  1.00 20.00     0.007 A 
HETATM    5  C5  UNL     1     -33.744   5.892   3.249  1.00 20.00     0.007 A 
HETATM    6  C6  UNL     1     -33.373   7.067   3.901  1.00 20.00    -0.054 A 
ENDROOT
BRANCH   6   7
HETATM    7  C10 UNL     1     -32.646   8.161   3.138  1.00 20.00     0.014 C 
HETATM    8  C8  UNL     1     -31.222   8.337   3.677  1.00 20.00     0.015 C 
BRANCH   7   9
HETATM    9  C9  UNL     1     -32.616   7.920   1.614  1.00 20.00     0.004 C 
HETATM   10  C7  UNL     1     -32.203   9.155   0.822  1.00 20.00     0.006 C 
ENDBRANCH   7   9
ENDBRANCH   6   7
TORSDOF 2
ENDMDL
MODEL 3
REMARK VINA RESULT:      -5.6      0.996      2.022
REMARK  2 active torsions:
REMARK  status: ('A' for Active; 'I' for Inactive)
REMARK    1  A    between atoms: C6_6  and  C10_10 
REMARK    2  A    between atoms: C9_9  and  C10_10 
ROOT
HETATM    1  C1  UNL     1     -34.440   5.946   5.098  1.00 20.00     0.000 A 
HETATM    2  C2  UNL     1     -33.743   7.029   5.633  1.00 20.00     0.001 A 
HETATM    3  C3  UNL     1     -34.333   5.652   3.738  1.00 20.00     0.001 A 
HETATM    4  C4  UNL     1     -32.941   7.820   4.810  1.00 20.00     0.007 A 
HETATM    5  C5  UNL     1     -33.532   6.443   2.915  1.00 20.00     0.007 A 
HETATM    6  C6  UNL     1     -32.835   7.526   3.450  1.00 20.00    -0.054 A 
ENDROOT
BRANCH   6   7
HETATM    7  C10 UNL     1     -31.963   8.387   2.552  1.00 20.00     0.014 C 
HETATM    8  C8  UNL     1     -31.741   7.699   1.200  1.00 20.00     0.015 C 
BRANCH   7   9
HETATM    9  C9  UNL     1     -32.524   9.809   2.343  1.00 20.00     0.004 C 
HETATM   10  C7  UNL     1     -32.652  10.192   0.874  1.00 20.00     0.006 C 
ENDBRANCH   7   9
ENDBRANCH   6   7
TORSDOF 2
ENDMDL
MODEL 4
REMARK VINA RESULT:      -5.2      0.951      4.076
REMARK  2 active torsions:
REMARK  status: ('A' for Active; 'I' for Inactive)
REMARK    1  A    between atoms: C6_6  and  C10_10 
REMARK    2  A    between atoms: C9_9  and  C10_10 
ROOT
HETATM    1  C1  UNL     1     -31.864   8.576   1.638  1.00 20.00     0.000 A 
HETATM    2  C2  UNL     1     -32.920   7.684   1.453  1.00 20.00     0.001 A 
HETATM    3  C3  UNL     1     -31.348   8.789   2.917  1.00 20.00     0.001 A 
HETATM    4  C4  UNL     1     -33.462   7.007   2.546  1.00 20.00     0.007 A 
HETATM    5  C5  UNL     1     -31.891   8.113   4.010  1.00 20.00     0.007 A 
HETATM    6  C6  UNL     1     -32.947   7.221   3.825  1.00 20.00    -0.054 A 
ENDROOT
BRANCH   6   7
HETATM    7  C10 UNL     1     -33.536   6.485   5.016  1.00 20.00     0.014 C 
HETATM    8  C8  UNL     1     -33.884   7.470   6.137  1.00 20.00     0.015 C 
BRANCH   7   9
HETATM    9  C9  UNL     1     -34.767   5.630   4.651  1.00 20.00     0.004 C 
HETATM   10  C7  UNL     1     -34.437   4.154   4.468  1.00 20.00     0.006 C 
ENDBRANCH   7   9
ENDBRANCH   6   7
TORSDOF 2
ENDMDL
MODEL 5
REMARK VINA RESULT:      -5.1      1.053      4.431
REMARK  2 active torsions:
REMARK  status: ('A' for Active; 'I' for Inactive)
REMARK    1  A    between atoms: C6_6  and  C10_10 
REMARK    2  A    between atoms: C9_9  and  C10_10 
ROOT
HETATM    1  C1  UNL     1     -31.497   9.148   2.499  1.00 20.00     0.000 A 
HETATM    2  C2  UNL     1     -31.579   8.503   3.733  1.00 20.00     0.001 A 
HETATM    3  C3  UNL     1     -32.275   8.706   1.429  1.00 20.00     0.001 A 
HETATM    4  C4  UNL     1     -32.436   7.416   3.898  1.00 20.00     0.007 A 
HETATM    5  C5  UNL     1     -33.132   7.617   1.593  1.00 20.00     0.007 A 
HETATM    6  C6  UNL     1     -33.213   6.972   2.827  1.00 20.00    -0.054 A 
ENDROOT
BRANCH   6   7
HETATM    7  C10 UNL     1     -34.147   5.787   3.003  1.00 20.00     0.014 C 
HETATM    8  C8  UNL     1     -33.361   4.472   2.955  1.00 20.00     0.015 C 
BRANCH   7   9
HETATM    9  C9  UNL     1     -34.985   5.864   4.296  1.00 20.00     0.004 C 
HETATM   10  C7  UNL     1     -34.618   4.788   5.311  1.00 20.00     0.006 C 
ENDBRANCH   7   9
ENDBRANCH   6   7
TORSDOF 2
ENDMDL
MODEL 6
REMARK VINA RESULT:      -4.9      1.123      4.362
REMARK  2 active torsions:
REMARK  status: ('A' for Active; 'I' for Inactive)
REMARK    1  A    between atoms: C6_6  and  C10_10 
REMARK    2  A    between atoms: C9_9  and  C10_10 
ROOT
HETATM    1  C1  UNL     1     -31.495   8.407   3.161  1.00 20.00     0.000 A 
HETATM    2  C2  UNL     1     -31.832   8.501   4.511  1.00 20.00     0.001 A 
HETATM    3  C3  UNL     1     -32.248   7.597   2.310  1.00 20.00     0.001 A 
HETATM    4  C4  UNL     1     -32.919   7.785   5.012  1.00 20.00     0.007 A 
HETATM    5  C5  UNL     1     -33.335   6.880   2.811  1.00 20.00     0.007 A 
HETATM    6  C6  UNL     1     -33.671   6.974   4.161  1.00 20.00    -0.054 A 
ENDROOT
BRANCH   6   7
HETATM    7  C10 UNL     1     -34.855   6.193   4.704  1.00 20.00     0.014 C 
HETATM    8  C8  UNL     1     -35.863   5.898   3.587  1.00 20.00     0.015 C 
BRANCH   7   9
HETATM    9  C9  UNL     1     -34.445   4.887   5.414  1.00 20.00     0.004 C 
HETATM   10  C7  UNL     1     -34.030   3.785   4.447  1.00 20.00     0.006 C 
ENDBRANCH   7   9
ENDBRANCH   6   7
TORSDOF 2
ENDMDL
MODEL 7
REMARK VINA RESULT:      -4.8     11.499     12.042
REMARK  2 active torsions:
REMARK  status: ('A' for Active; 'I' for Inactive)
REMARK    1  A    between atoms: C6_6  and  C10_10 
REMARK    2  A    between atoms: C9_9  and  C10_10 
ROOT
HETATM    1  C1  UNL     1     -34.878  16.603  -2.298  1.00 20.00     0.000 A 
HETATM    2  C2  UNL     1     -33.561  17.016  -2.499  1.00 20.00     0.001 A 
HETATM    3  C3  UNL     1     -35.548  16.954  -1.126  1.00 20.00     0.001 A 
HETATM    4  C4  UNL     1     -32.912  17.779  -1.528  1.00 20.00     0.007 A 
HETATM    5  C5  UNL     1     -34.899  17.716  -0.154  1.00 20.00     0.007 A 
HETATM    6  C6  UNL     1     -33.582  18.129  -0.355  1.00 20.00    -0.054 A 
ENDROOT
BRANCH   6   7
HETATM    7  C10 UNL     1     -32.877  18.959   0.705  1.00 20.00     0.014 C 
HETATM    8  C8  UNL     1     -33.475  18.683   2.089  1.00 20.00     0.015 C 
BRANCH   7   9
HETATM    9  C9  UNL     1     -31.350  18.742   0.728  1.00 20.00     0.004 C 
HETATM   10  C7  UNL     1     -30.759  18.796   2.131  1.00 20.00     0.006 C 
ENDBRANCH   7   9
ENDBRANCH   6   7
TORSDOF 2
ENDMDL
MODEL 8
REMARK VINA RESULT:      -4.7      1.257      4.511
REMARK  2 active torsions:
REMARK  status: ('A' for Active; 'I' for Inactive)
REMARK    1  A    between atoms: C6_6  and  C10_10 
REMARK    2  A    between atoms: C9_9  and  C10_10 
ROOT
HETATM    1  C1  UNL     1     -32.336  10.242   0.481  1.00 20.00     0.000 A 
HETATM    2  C2  UNL     1     -31.522   9.114   0.384  1.00 20.00     0.001 A 
HETATM    3  C3  UNL     1     -33.285  10.332   1.499  1.00 20.00     0.001 A 
HETATM    4  C4  UNL     1     -31.659   8.073   1.302  1.00 20.00     0.007 A 
HETATM    5  C5  UNL     1     -33.422   9.291   2.418  1.00 20.00     0.007 A 
HETATM    6  C6  UNL     1     -32.609   8.162   2.320  1.00 20.00    -0.054 A 
ENDROOT
BRANCH   6   7
HETATM    7  C10 UNL     1     -32.760   7.029   3.321  1.00 20.00     0.014 C 
HETATM    8  C8  UNL     1     -33.124   7.580   4.705  1.00 20.00     0.015 C 
BRANCH   7   9
HETATM    9  C9  UNL     1     -33.785   5.964   2.882  1.00 20.00     0.004 C 
HETATM   10  C7  UNL     1     -34.930   5.791   3.872  1.00 20.00     0.006 C 
ENDBRANCH   7   9
ENDBRANCH   6   7
TORSDOF 2
ENDMDL
MODEL 9
REMARK VINA RESULT:      -4.7      1.247      4.684
REMARK  2 active torsions:
REMARK  status: ('A' for Active; 'I' for Inactive)
REMARK    1  A    between atoms: C6_6  and  C10_10 
REMARK    2  A    between atoms: C9_9  and  C10_10 
ROOT
HETATM    1  C1  UNL     1     -32.334  10.238   0.481  1.00 20.00     0.000 A 
HETATM    2  C2  UNL     1     -33.287  10.328   1.495  1.00 20.00     0.001 A 
HETATM    3  C3  UNL     1     -31.519   9.110   0.387  1.00 20.00     0.001 A 
HETATM    4  C4  UNL     1     -33.426   9.290   2.416  1.00 20.00     0.007 A 
HETATM    5  C5  UNL     1     -31.657   8.072   1.309  1.00 20.00     0.007 A 
HETATM    6  C6  UNL     1     -32.611   8.161   2.323  1.00 20.00    -0.054 A 
ENDROOT
BRANCH   6   7
HETATM    7  C10 UNL     1     -32.759   7.030   3.326  1.00 20.00     0.014 C 
HETATM    8  C8  UNL     1     -33.126   7.582   4.708  1.00 20.00     0.015 C 
BRANCH   7   9
HETATM    9  C9  UNL     1     -33.782   5.961   2.887  1.00 20.00     0.004 C 
HETATM   10  C7  UNL     1     -34.912   5.767   3.890  1.00 20.00     0.006 C 
ENDBRANCH   7   9
ENDBRANCH   6   7
TORSDOF 2
ENDMDL
