MODEL 1
REMARK VINA RESULT:      -7.0      0.000      0.000
REMARK  0 active torsions:
REMARK  status: ('A' for Active; 'I' for Inactive)
ROOT
HETATM    1  C1  UNL     1     -33.271   7.458   4.294  1.00 20.00     0.091 A 
HETATM    2  C2  UNL     1     -33.974   6.868   5.346  1.00 20.00     0.161 A 
HETATM    3  C3  UNL     1     -32.967   6.712   3.155  1.00 20.00     0.161 A 
HETATM    4  C4  UNL     1     -34.372   5.535   5.259  1.00 20.00     0.196 A 
HETATM    5  C5  UNL     1     -33.365   5.379   3.067  1.00 20.00     0.196 A 
HETATM    6  C6  UNL     1     -34.067   4.790   4.119  1.00 20.00     0.199 A 
HETATM    7  F7  UNL     1     -34.266   7.584   6.440  1.00 20.00    -0.203 F 
HETATM    8  F8  UNL     1     -32.293   7.278   2.145  1.00 20.00    -0.203 F 
HETATM    9  F9  UNL     1     -35.046   4.969   6.268  1.00 20.00    -0.199 F 
HETATM   10  F10 UNL     1     -33.074   4.664   1.973  1.00 20.00    -0.199 F 
HETATM   11  F11 UNL     1     -34.450   3.508   4.035  1.00 20.00    -0.199 F 
ENDROOT
TORSDOF 0
ENDMDL
MODEL 2
REMARK VINA RESULT:      -7.0      0.002      3.206
REMARK  0 active torsions:
REMARK  status: ('A' for Active; 'I' for Inactive)
ROOT
HETATM    1  C1  UNL     1     -33.273   7.456   4.294  1.00 20.00     0.091 A 
HETATM    2  C2  UNL     1     -32.968   6.710   3.155  1.00 20.00     0.161 A 
HETATM    3  C3  UNL     1     -33.975   6.867   5.346  1.00 20.00     0.161 A 
HETATM    4  C4  UNL     1     -33.365   5.377   3.067  1.00 20.00     0.196 A 
HETATM    5  C5  UNL     1     -34.372   5.533   5.258  1.00 20.00     0.196 A 
HETATM    6  C6  UNL     1     -34.068   4.788   4.119  1.00 20.00     0.199 A 
HETATM    7  F7  UNL     1     -32.294   7.276   2.146  1.00 20.00    -0.203 F 
HETATM    8  F8  UNL     1     -34.267   7.582   6.440  1.00 20.00    -0.203 F 
HETATM    9  F9  UNL     1     -33.073   4.662   1.974  1.00 20.00    -0.199 F 
HETATM   10  F10 UNL     1     -35.047   4.968   6.268  1.00 20.00    -0.199 F 
HETATM   11  F11 UNL     1     -34.450   3.507   4.034  1.00 20.00    -0.199 F 
ENDROOT
TORSDOF 0
ENDMDL
MODEL 3
REMARK VINA RESULT:      -6.6      0.755      2.414
REMARK  0 active torsions:
REMARK  status: ('A' for Active; 'I' for Inactive)
ROOT
HETATM    1  C1  UNL     1     -32.713   6.417   2.805  1.00 20.00     0.091 A 
HETATM    2  C2  UNL     1     -32.954   7.361   3.805  1.00 20.00     0.161 A 
HETATM    3  C3  UNL     1     -33.252   5.135   2.915  1.00 20.00     0.161 A 
HETATM    4  C4  UNL     1     -33.731   7.024   4.911  1.00 20.00     0.196 A 
HETATM    5  C5  UNL     1     -34.030   4.797   4.021  1.00 20.00     0.196 A 
HETATM    6  C6  UNL     1     -34.269   5.741   5.020  1.00 20.00     0.199 A 
HETATM    7  F7  UNL     1     -32.436   8.592   3.700  1.00 20.00    -0.203 F 
HETATM    8  F8  UNL     1     -33.022   4.229   1.956  1.00 20.00    -0.203 F 
HETATM    9  F9  UNL     1     -33.961   7.930   5.870  1.00 20.00    -0.199 F 
HETATM   10  F10 UNL     1     -34.547   3.566   4.126  1.00 20.00    -0.199 F 
HETATM   11  F11 UNL     1     -35.016   5.417   6.084  1.00 20.00    -0.199 F 
ENDROOT
TORSDOF 0
ENDMDL
MODEL 4
REMARK VINA RESULT:      -6.6      0.757      3.056
REMARK  0 active torsions:
REMARK  status: ('A' for Active; 'I' for Inactive)
ROOT
HETATM    1  C1  UNL     1     -32.717   6.424   2.803  1.00 20.00     0.091 A 
HETATM    2  C2  UNL     1     -33.261   5.144   2.916  1.00 20.00     0.161 A 
HETATM    3  C3  UNL     1     -32.948   7.369   3.802  1.00 20.00     0.161 A 
HETATM    4  C4  UNL     1     -34.035   4.810   4.026  1.00 20.00     0.196 A 
HETATM    5  C5  UNL     1     -33.721   7.036   4.913  1.00 20.00     0.196 A 
HETATM    6  C6  UNL     1     -34.265   5.757   5.026  1.00 20.00     0.199 A 
HETATM    7  F7  UNL     1     -33.040   4.236   1.957  1.00 20.00    -0.203 F 
HETATM    8  F8  UNL     1     -32.425   8.598   3.694  1.00 20.00    -0.203 F 
HETATM    9  F9  UNL     1     -34.557   3.582   4.135  1.00 20.00    -0.199 F 
HETATM   10  F10 UNL     1     -33.942   7.944   5.873  1.00 20.00    -0.199 F 
HETATM   11  F11 UNL     1     -35.009   5.436   6.093  1.00 20.00    -0.199 F 
ENDROOT
TORSDOF 0
ENDMDL
MODEL 5
REMARK VINA RESULT:      -6.2      1.364      3.399
REMARK  0 active torsions:
REMARK  status: ('A' for Active; 'I' for Inactive)
ROOT
HETATM    1  C1  UNL     1     -33.017   7.623   5.359  1.00 20.00     0.091 A 
HETATM    2  C2  UNL     1     -32.355   7.894   4.161  1.00 20.00     0.161 A 
HETATM    3  C3  UNL     1     -34.083   6.724   5.378  1.00 20.00     0.161 A 
HETATM    4  C4  UNL     1     -32.760   7.268   2.983  1.00 20.00     0.196 A 
HETATM    5  C5  UNL     1     -34.489   6.097   4.200  1.00 20.00     0.196 A 
HETATM    6  C6  UNL     1     -33.828   6.369   3.002  1.00 20.00     0.199 A 
HETATM    7  F7  UNL     1     -31.331   8.757   4.142  1.00 20.00    -0.203 F 
HETATM    8  F8  UNL     1     -34.719   6.463   6.528  1.00 20.00    -0.203 F 
HETATM    9  F9  UNL     1     -32.125   7.528   1.833  1.00 20.00    -0.199 F 
HETATM   10  F10 UNL     1     -35.513   5.234   4.219  1.00 20.00    -0.199 F 
HETATM   11  F11 UNL     1     -34.217   5.768   1.870  1.00 20.00    -0.199 F 
ENDROOT
TORSDOF 0
ENDMDL
MODEL 6
REMARK VINA RESULT:      -6.2      1.366      2.026
REMARK  0 active torsions:
REMARK  status: ('A' for Active; 'I' for Inactive)
ROOT
HETATM    1  C1  UNL     1     -33.020   7.623   5.362  1.00 20.00     0.091 A 
HETATM    2  C2  UNL     1     -34.093   6.731   5.379  1.00 20.00     0.161 A 
HETATM    3  C3  UNL     1     -32.353   7.887   4.165  1.00 20.00     0.161 A 
HETATM    4  C4  UNL     1     -34.499   6.105   4.202  1.00 20.00     0.196 A 
HETATM    5  C5  UNL     1     -32.759   7.261   2.987  1.00 20.00     0.196 A 
HETATM    6  C6  UNL     1     -33.832   6.369   3.005  1.00 20.00     0.199 A 
HETATM    7  F7  UNL     1     -34.733   6.478   6.528  1.00 20.00    -0.203 F 
HETATM    8  F8  UNL     1     -31.323   8.743   4.148  1.00 20.00    -0.203 F 
HETATM    9  F9  UNL     1     -35.529   5.249   4.219  1.00 20.00    -0.199 F 
HETATM   10  F10 UNL     1     -32.119   7.514   1.839  1.00 20.00    -0.199 F 
HETATM   11  F11 UNL     1     -34.222   5.766   1.874  1.00 20.00    -0.199 F 
ENDROOT
TORSDOF 0
ENDMDL
MODEL 7
REMARK VINA RESULT:      -6.2      0.950      2.762
REMARK  0 active torsions:
REMARK  status: ('A' for Active; 'I' for Inactive)
ROOT
HETATM    1  C1  UNL     1     -34.419   5.177   3.994  1.00 20.00     0.091 A 
HETATM    2  C2  UNL     1     -34.459   5.842   5.220  1.00 20.00     0.161 A 
HETATM    3  C3  UNL     1     -33.615   5.664   2.964  1.00 20.00     0.161 A 
HETATM    4  C4  UNL     1     -33.696   6.992   5.416  1.00 20.00     0.196 A 
HETATM    5  C5  UNL     1     -32.851   6.814   3.159  1.00 20.00     0.196 A 
HETATM    6  C6  UNL     1     -32.891   7.479   4.385  1.00 20.00     0.199 A 
HETATM    7  F7  UNL     1     -35.232   5.375   6.210  1.00 20.00    -0.203 F 
HETATM    8  F8  UNL     1     -33.576   5.026   1.786  1.00 20.00    -0.203 F 
HETATM    9  F9  UNL     1     -33.734   7.630   6.592  1.00 20.00    -0.199 F 
HETATM   10  F10 UNL     1     -32.078   7.281   2.169  1.00 20.00    -0.199 F 
HETATM   11  F11 UNL     1     -32.158   8.584   4.573  1.00 20.00    -0.199 F 
ENDROOT
TORSDOF 0
ENDMDL
MODEL 8
REMARK VINA RESULT:      -6.2      0.954      4.228
REMARK  0 active torsions:
REMARK  status: ('A' for Active; 'I' for Inactive)
ROOT
HETATM    1  C1  UNL     1     -34.414   5.179   3.984  1.00 20.00     0.091 A 
HETATM    2  C2  UNL     1     -33.608   5.666   2.955  1.00 20.00     0.161 A 
HETATM    3  C3  UNL     1     -34.454   5.842   5.210  1.00 20.00     0.161 A 
HETATM    4  C4  UNL     1     -32.843   6.814   3.151  1.00 20.00     0.196 A 
HETATM    5  C5  UNL     1     -33.690   6.991   5.408  1.00 20.00     0.196 A 
HETATM    6  C6  UNL     1     -32.884   7.478   4.378  1.00 20.00     0.199 A 
HETATM    7  F7  UNL     1     -33.569   5.029   1.777  1.00 20.00    -0.203 F 
HETATM    8  F8  UNL     1     -35.229   5.376   6.199  1.00 20.00    -0.203 F 
HETATM    9  F9  UNL     1     -32.069   7.282   2.163  1.00 20.00    -0.199 F 
HETATM   10  F10 UNL     1     -33.729   7.628   6.585  1.00 20.00    -0.199 F 
HETATM   11  F11 UNL     1     -32.148   8.582   4.567  1.00 20.00    -0.199 F 
ENDROOT
TORSDOF 0
ENDMDL
MODEL 9
REMARK VINA RESULT:      -6.2      0.860      2.902
REMARK  0 active torsions:
REMARK  status: ('A' for Active; 'I' for Inactive)
ROOT
HETATM    1  C1  UNL     1     -34.425   5.831   5.395  1.00 20.00     0.091 A 
HETATM    2  C2  UNL     1     -33.759   7.057   5.425  1.00 20.00     0.161 A 
HETATM    3  C3  UNL     1     -34.312   5.004   4.277  1.00 20.00     0.161 A 
HETATM    4  C4  UNL     1     -32.982   7.456   4.338  1.00 20.00     0.196 A 
HETATM    5  C5  UNL     1     -33.534   5.402   3.190  1.00 20.00     0.196 A 
HETATM    6  C6  UNL     1     -32.869   6.628   3.220  1.00 20.00     0.199 A 
HETATM    7  F7  UNL     1     -33.867   7.851   6.498  1.00 20.00    -0.203 F 
HETATM    8  F8  UNL     1     -34.950   3.826   4.248  1.00 20.00    -0.203 F 
HETATM    9  F9  UNL     1     -32.343   8.632   4.367  1.00 20.00    -0.199 F 
HETATM   10  F10 UNL     1     -33.426   4.608   2.117  1.00 20.00    -0.199 F 
HETATM   11  F11 UNL     1     -32.123   7.012   2.176  1.00 20.00    -0.199 F 
ENDROOT
TORSDOF 0
ENDMDL
