MODEL 1
REMARK VINA RESULT:      -4.2      0.000      0.000
REMARK  1 active torsions:
REMARK  status: ('A' for Active; 'I' for Inactive)
REMARK    1  A    between atoms: C6_6  and  S8_8 
ROOT
HETATM    1  C1  UNL     1     -34.375   6.524   6.028  1.00 20.00     0.001 A 
HETATM    2  C2  UNL     1     -34.693   5.201   5.726  1.00 20.00     0.001 A 
HETATM    3  C3  UNL     1     -33.679   7.303   5.104  1.00 20.00     0.021 A 
HETATM    4  C4  UNL     1     -34.314   4.654   4.500  1.00 20.00     0.019 A 
HETATM    5  C5  UNL     1     -33.300   6.757   3.877  1.00 20.00     0.028 A 
HETATM    6  C6  UNL     1     -33.617   5.433   3.575  1.00 20.00     0.015 A 
HETATM    7  S7  UNL     1     -32.398   7.851   2.743  1.00 20.00    -0.051 SA
ENDROOT
BRANCH   6   8
HETATM    8  S8  UNL     1     -33.188   4.611   2.035  1.00 20.00    -0.142 SA
HETATM    9  H13 UNL     1     -34.330   4.884   1.390  1.00 20.00     0.107 HD
ENDBRANCH   6   8
TORSDOF 1
ENDMDL
MODEL 2
REMARK VINA RESULT:      -4.2      0.038      2.413
REMARK  1 active torsions:
REMARK  status: ('A' for Active; 'I' for Inactive)
REMARK    1  A    between atoms: C6_6  and  S8_8 
ROOT
HETATM    1  C1  UNL     1     -34.692   5.243   5.766  1.00 20.00     0.001 A 
HETATM    2  C2  UNL     1     -34.365   6.571   6.038  1.00 20.00     0.001 A 
HETATM    3  C3  UNL     1     -34.325   4.670   4.548  1.00 20.00     0.021 A 
HETATM    4  C4  UNL     1     -33.671   7.327   5.093  1.00 20.00     0.019 A 
HETATM    5  C5  UNL     1     -33.630   5.425   3.603  1.00 20.00     0.028 A 
HETATM    6  C6  UNL     1     -33.304   6.753   3.875  1.00 20.00     0.015 A 
HETATM    7  S7  UNL     1     -33.198   4.588   2.052  1.00 20.00    -0.051 SA
ENDROOT
BRANCH   6   8
HETATM    8  S8  UNL     1     -32.414   7.832   2.745  1.00 20.00    -0.142 SA
HETATM    9  H13 UNL     1     -31.754   6.865   2.095  1.00 20.00     0.107 HD
ENDBRANCH   6   8
TORSDOF 1
ENDMDL
MODEL 3
REMARK VINA RESULT:      -3.7      1.370      2.621
REMARK  1 active torsions:
REMARK  status: ('A' for Active; 'I' for Inactive)
REMARK    1  A    between atoms: C6_6  and  S8_8 
ROOT
HETATM    1  C1  UNL     1     -34.082   4.204   3.465  1.00 20.00     0.001 A 
HETATM    2  C2  UNL     1     -34.557   4.283   4.773  1.00 20.00     0.001 A 
HETATM    3  C3  UNL     1     -33.436   5.299   2.890  1.00 20.00     0.021 A 
HETATM    4  C4  UNL     1     -34.388   5.457   5.508  1.00 20.00     0.019 A 
HETATM    5  C5  UNL     1     -33.265   6.473   3.625  1.00 20.00     0.028 A 
HETATM    6  C6  UNL     1     -33.742   6.551   4.933  1.00 20.00     0.015 A 
HETATM    7  S7  UNL     1     -32.412   7.839   2.788  1.00 20.00    -0.051 SA
ENDROOT
BRANCH   6   8
HETATM    8  S8  UNL     1     -33.587   8.002   5.984  1.00 20.00    -0.142 SA
HETATM    9  H13 UNL     1     -33.274   7.345   7.109  1.00 20.00     0.107 HD
ENDBRANCH   6   8
TORSDOF 1
ENDMDL
MODEL 4
REMARK VINA RESULT:      -3.7      1.443      2.559
REMARK  1 active torsions:
REMARK  status: ('A' for Active; 'I' for Inactive)
REMARK    1  A    between atoms: C6_6  and  S8_8 
ROOT
HETATM    1  C1  UNL     1     -34.469   4.228   4.474  1.00 20.00     0.001 A 
HETATM    2  C2  UNL     1     -33.904   4.264   3.199  1.00 20.00     0.001 A 
HETATM    3  C3  UNL     1     -34.377   5.342   5.309  1.00 20.00     0.021 A 
HETATM    4  C4  UNL     1     -33.248   5.413   2.759  1.00 20.00     0.019 A 
HETATM    5  C5  UNL     1     -33.722   6.492   4.868  1.00 20.00     0.028 A 
HETATM    6  C6  UNL     1     -33.156   6.527   3.594  1.00 20.00     0.015 A 
HETATM    7  S7  UNL     1     -33.658   7.886   6.029  1.00 20.00    -0.051 SA
ENDROOT
BRANCH   6   8
HETATM    8  S8  UNL     1     -32.286   7.943   2.908  1.00 20.00    -0.142 SA
HETATM    9  H13 UNL     1     -33.062   8.884   3.461  1.00 20.00     0.107 HD
ENDBRANCH   6   8
TORSDOF 1
ENDMDL
MODEL 5
REMARK VINA RESULT:      -3.5     12.589     13.037
REMARK  1 active torsions:
REMARK  status: ('A' for Active; 'I' for Inactive)
REMARK    1  A    between atoms: C6_6  and  S8_8 
ROOT
HETATM    1  C1  UNL     1     -33.636  17.011  -2.485  1.00 20.00     0.001 A 
HETATM    2  C2  UNL     1     -34.933  16.601  -2.177  1.00 20.00     0.001 A 
HETATM    3  C3  UNL     1     -32.929  17.818  -1.593  1.00 20.00     0.021 A 
HETATM    4  C4  UNL     1     -35.524  16.998  -0.978  1.00 20.00     0.019 A 
HETATM    5  C5  UNL     1     -33.520  18.215  -0.393  1.00 20.00     0.028 A 
HETATM    6  C6  UNL     1     -34.817  17.805  -0.086  1.00 20.00     0.015 A 
HETATM    7  S7  UNL     1     -32.518  19.263   0.700  1.00 20.00    -0.051 SA
ENDROOT
BRANCH   6   8
HETATM    8  S8  UNL     1     -35.691  18.246   1.423  1.00 20.00    -0.142 SA
HETATM    9  H13 UNL     1     -36.588  19.060   0.851  1.00 20.00     0.107 HD
ENDBRANCH   6   8
TORSDOF 1
ENDMDL
MODEL 6
REMARK VINA RESULT:      -3.5     12.615     13.146
REMARK  1 active torsions:
REMARK  status: ('A' for Active; 'I' for Inactive)
REMARK    1  A    between atoms: C6_6  and  S8_8 
ROOT
HETATM    1  C1  UNL     1     -34.929  16.617  -2.199  1.00 20.00     0.001 A 
HETATM    2  C2  UNL     1     -33.625  17.026  -2.479  1.00 20.00     0.001 A 
HETATM    3  C3  UNL     1     -35.542  17.008  -1.009  1.00 20.00     0.021 A 
HETATM    4  C4  UNL     1     -32.934  17.825  -1.569  1.00 20.00     0.019 A 
HETATM    5  C5  UNL     1     -34.851  17.808  -0.099  1.00 20.00     0.028 A 
HETATM    6  C6  UNL     1     -33.548  18.217  -0.379  1.00 20.00     0.015 A 
HETATM    7  S7  UNL     1     -35.737  18.264   1.419  1.00 20.00    -0.051 SA
ENDROOT
BRANCH   6   8
HETATM    8  S8  UNL     1     -32.551  19.246   0.707  1.00 20.00    -0.142 SA
HETATM    9  H13 UNL     1     -32.294  18.302   1.623  1.00 20.00     0.107 HD
ENDBRANCH   6   8
TORSDOF 1
ENDMDL
MODEL 7
REMARK VINA RESULT:      -3.2     12.982     13.352
REMARK  1 active torsions:
REMARK  status: ('A' for Active; 'I' for Inactive)
REMARK    1  A    between atoms: C6_6  and  S8_8 
ROOT
HETATM    1  C1  UNL     1     -34.152  17.972  -0.673  1.00 20.00     0.001 A 
HETATM    2  C2  UNL     1     -32.808  18.128  -1.010  1.00 20.00     0.001 A 
HETATM    3  C3  UNL     1     -34.577  18.211   0.634  1.00 20.00     0.021 A 
HETATM    4  C4  UNL     1     -31.887  18.522  -0.039  1.00 20.00     0.019 A 
HETATM    5  C5  UNL     1     -33.656  18.606   1.605  1.00 20.00     0.028 A 
HETATM    6  C6  UNL     1     -32.311  18.761   1.269  1.00 20.00     0.015 A 
HETATM    7  S7  UNL     1     -34.307  18.892   3.275  1.00 20.00    -0.051 SA
ENDROOT
BRANCH   6   8
HETATM    8  S8  UNL     1     -31.027  19.262   2.423  1.00 20.00    -0.142 SA
HETATM    9  H13 UNL     1     -31.195  20.583   2.277  1.00 20.00     0.107 HD
ENDBRANCH   6   8
TORSDOF 1
ENDMDL
MODEL 8
REMARK VINA RESULT:      -3.2     12.685     12.946
REMARK  1 active torsions:
REMARK  status: ('A' for Active; 'I' for Inactive)
REMARK    1  A    between atoms: C6_6  and  S8_8 
ROOT
HETATM    1  C1  UNL     1     -33.466  15.426  -3.960  1.00 20.00     0.001 A 
HETATM    2  C2  UNL     1     -34.555  15.907  -3.233  1.00 20.00     0.001 A 
HETATM    3  C3  UNL     1     -33.676  14.654  -5.103  1.00 20.00     0.021 A 
HETATM    4  C4  UNL     1     -35.855  15.616  -3.649  1.00 20.00     0.019 A 
HETATM    5  C5  UNL     1     -34.976  14.364  -5.519  1.00 20.00     0.028 A 
HETATM    6  C6  UNL     1     -36.065  14.844  -4.791  1.00 20.00     0.015 A 
HETATM    7  S7  UNL     1     -35.143  13.353  -7.018  1.00 20.00    -0.051 SA
ENDROOT
BRANCH   6   8
HETATM    8  S8  UNL     1     -37.784  14.542  -5.219  1.00 20.00    -0.142 SA
HETATM    9  H13 UNL     1     -37.925  15.587  -6.045  1.00 20.00     0.107 HD
ENDBRANCH   6   8
TORSDOF 1
ENDMDL
MODEL 9
REMARK VINA RESULT:      -3.2     12.663     12.874
REMARK  1 active torsions:
REMARK  status: ('A' for Active; 'I' for Inactive)
REMARK    1  A    between atoms: C6_6  and  S8_8 
ROOT
HETATM    1  C1  UNL     1     -34.490  15.867  -3.243  1.00 20.00     0.001 A 
HETATM    2  C2  UNL     1     -33.437  15.347  -3.996  1.00 20.00     0.001 A 
HETATM    3  C3  UNL     1     -35.809  15.624  -3.628  1.00 20.00     0.021 A 
HETATM    4  C4  UNL     1     -33.703  14.583  -5.133  1.00 20.00     0.019 A 
HETATM    5  C5  UNL     1     -36.075  14.860  -4.764  1.00 20.00     0.028 A 
HETATM    6  C6  UNL     1     -35.022  14.340  -5.517  1.00 20.00     0.015 A 
HETATM    7  S7  UNL     1     -37.823  14.601  -5.179  1.00 20.00    -0.051 SA
ENDROOT
BRANCH   6   8
HETATM    8  S8  UNL     1     -35.228  13.343  -6.998  1.00 20.00    -0.142 SA
HETATM    9  H13 UNL     1     -34.016  13.583  -7.516  1.00 20.00     0.107 HD
ENDBRANCH   6   8
TORSDOF 1
ENDMDL
