MODEL 1
REMARK VINA RESULT:      -5.6      0.000      0.000
REMARK  0 active torsions:
REMARK  status: ('A' for Active; 'I' for Inactive)
ROOT
HETATM    1  C1  UNL     1     -34.914   5.415   4.860  1.00 20.00     0.001 A 
HETATM    2  C2  UNL     1     -34.445   6.183   5.917  1.00 20.00     0.001 A 
HETATM    3  C3  UNL     1     -34.441   5.635   3.564  1.00 20.00     0.013 A 
HETATM    4  C4  UNL     1     -33.496   7.184   5.703  1.00 20.00     0.019 A 
HETATM    5  C5  UNL     1     -32.850   7.050   2.089  1.00 20.00     0.020 A 
HETATM    6  C6  UNL     1     -31.957   8.080   2.262  1.00 20.00     0.051 A 
HETATM    7  C7  UNL     1     -33.479   6.642   3.313  1.00 20.00    -0.019 A 
HETATM    8  C8  UNL     1     -33.021   7.402   4.394  1.00 20.00     0.015 A 
HETATM    9  S9  UNL     1     -31.859   8.573   3.891  1.00 20.00    -0.101 SA
ENDROOT
TORSDOF 0
ENDMDL
MODEL 2
REMARK VINA RESULT:      -5.5      0.976      2.038
REMARK  0 active torsions:
REMARK  status: ('A' for Active; 'I' for Inactive)
ROOT
HETATM    1  C1  UNL     1     -34.623   5.930   5.688  1.00 20.00     0.001 A 
HETATM    2  C2  UNL     1     -34.993   5.392   4.464  1.00 20.00     0.001 A 
HETATM    3  C3  UNL     1     -33.647   6.928   5.755  1.00 20.00     0.013 A 
HETATM    4  C4  UNL     1     -34.398   5.839   3.282  1.00 20.00     0.019 A 
HETATM    5  C5  UNL     1     -32.015   8.405   4.391  1.00 20.00     0.020 A 
HETATM    6  C6  UNL     1     -31.669   8.581   3.072  1.00 20.00     0.051 A 
HETATM    7  C7  UNL     1     -33.026   7.403   4.575  1.00 20.00    -0.019 A 
HETATM    8  C8  UNL     1     -33.415   6.846   3.353  1.00 20.00     0.015 A 
HETATM    9  S9  UNL     1     -32.550   7.549   2.038  1.00 20.00    -0.101 SA
ENDROOT
TORSDOF 0
ENDMDL
MODEL 3
REMARK VINA RESULT:      -5.2      1.599      3.837
REMARK  0 active torsions:
REMARK  status: ('A' for Active; 'I' for Inactive)
ROOT
HETATM    1  C1  UNL     1     -31.733   8.426   2.944  1.00 20.00     0.001 A 
HETATM    2  C2  UNL     1     -32.306   7.605   1.982  1.00 20.00     0.001 A 
HETATM    3  C3  UNL     1     -32.129   8.330   4.280  1.00 20.00     0.013 A 
HETATM    4  C4  UNL     1     -33.283   6.673   2.333  1.00 20.00     0.019 A 
HETATM    5  C5  UNL     1     -33.681   7.112   5.959  1.00 20.00     0.020 A 
HETATM    6  C6  UNL     1     -34.631   6.119   5.923  1.00 20.00     0.051 A 
HETATM    7  C7  UNL     1     -33.118   7.394   4.669  1.00 20.00    -0.019 A 
HETATM    8  C8  UNL     1     -33.680   6.578   3.682  1.00 20.00     0.015 A 
HETATM    9  S9  UNL     1     -34.860   5.511   4.347  1.00 20.00    -0.101 SA
ENDROOT
TORSDOF 0
ENDMDL
MODEL 4
REMARK VINA RESULT:      -4.7      1.310      3.271
REMARK  0 active torsions:
REMARK  status: ('A' for Active; 'I' for Inactive)
ROOT
HETATM    1  C1  UNL     1     -32.001   7.948   2.098  1.00 20.00     0.001 A 
HETATM    2  C2  UNL     1     -31.602   8.593   3.260  1.00 20.00     0.001 A 
HETATM    3  C3  UNL     1     -32.986   6.957   2.143  1.00 20.00     0.013 A 
HETATM    4  C4  UNL     1     -32.177   8.264   4.489  1.00 20.00     0.019 A 
HETATM    5  C5  UNL     1     -34.605   5.632   3.669  1.00 20.00     0.020 A 
HETATM    6  C6  UNL     1     -34.925   5.583   5.005  1.00 20.00     0.051 A 
HETATM    7  C7  UNL     1     -33.588   6.601   3.373  1.00 20.00    -0.019 A 
HETATM    8  C8  UNL     1     -33.171   7.265   4.531  1.00 20.00     0.015 A 
HETATM    9  S9  UNL     1     -34.015   6.695   5.921  1.00 20.00    -0.101 SA
ENDROOT
TORSDOF 0
ENDMDL
MODEL 5
REMARK VINA RESULT:      -4.1     11.629     12.250
REMARK  0 active torsions:
REMARK  status: ('A' for Active; 'I' for Inactive)
ROOT
HETATM    1  C1  UNL     1     -33.641  17.030  -2.449  1.00 20.00     0.001 A 
HETATM    2  C2  UNL     1     -34.934  16.653  -2.115  1.00 20.00     0.001 A 
HETATM    3  C3  UNL     1     -32.884  17.811  -1.571  1.00 20.00     0.013 A 
HETATM    4  C4  UNL     1     -35.498  17.045  -0.899  1.00 20.00     0.019 A 
HETATM    5  C5  UNL     1     -32.855  19.015   0.722  1.00 20.00     0.020 A 
HETATM    6  C6  UNL     1     -33.713  19.199   1.780  1.00 20.00     0.051 A 
HETATM    7  C7  UNL     1     -33.427  18.224  -0.330  1.00 20.00    -0.019 A 
HETATM    8  C8  UNL     1     -34.731  17.830  -0.016  1.00 20.00     0.015 A 
HETATM    9  S9  UNL     1     -35.213  18.429   1.528  1.00 20.00    -0.101 SA
ENDROOT
TORSDOF 0
ENDMDL
MODEL 6
REMARK VINA RESULT:      -4.1     11.662     12.186
REMARK  0 active torsions:
REMARK  status: ('A' for Active; 'I' for Inactive)
ROOT
HETATM    1  C1  UNL     1     -34.947  16.638  -2.192  1.00 20.00     0.001 A 
HETATM    2  C2  UNL     1     -33.660  17.041  -2.523  1.00 20.00     0.001 A 
HETATM    3  C3  UNL     1     -35.506  16.999  -0.964  1.00 20.00     0.013 A 
HETATM    4  C4  UNL     1     -32.907  17.813  -1.635  1.00 20.00     0.019 A 
HETATM    5  C5  UNL     1     -35.121  18.270   1.260  1.00 20.00     0.020 A 
HETATM    6  C6  UNL     1     -34.117  19.003   1.847  1.00 20.00     0.051 A 
HETATM    7  C7  UNL     1     -34.768  17.780  -0.043  1.00 20.00    -0.019 A 
HETATM    8  C8  UNL     1     -33.475  18.175  -0.398  1.00 20.00     0.015 A 
HETATM    9  S9  UNL     1     -32.740  19.115   0.848  1.00 20.00    -0.101 SA
ENDROOT
TORSDOF 0
ENDMDL
MODEL 7
REMARK VINA RESULT:      -4.0     11.728     12.225
REMARK  0 active torsions:
REMARK  status: ('A' for Active; 'I' for Inactive)
ROOT
HETATM    1  C1  UNL     1     -33.247  18.866   1.261  1.00 20.00     0.001 A 
HETATM    2  C2  UNL     1     -32.135  18.899   0.431  1.00 20.00     0.001 A 
HETATM    3  C3  UNL     1     -34.431  18.262   0.831  1.00 20.00     0.013 A 
HETATM    4  C4  UNL     1     -32.181  18.330  -0.843  1.00 20.00     0.019 A 
HETATM    5  C5  UNL     1     -35.597  17.006  -1.111  1.00 20.00     0.020 A 
HETATM    6  C6  UNL     1     -35.275  16.572  -2.375  1.00 20.00     0.051 A 
HETATM    7  C7  UNL     1     -34.510  17.676  -0.455  1.00 20.00    -0.019 A 
HETATM    8  C8  UNL     1     -33.377  17.720  -1.273  1.00 20.00     0.015 A 
HETATM    9  S9  UNL     1     -33.668  16.960  -2.793  1.00 20.00    -0.101 SA
ENDROOT
TORSDOF 0
ENDMDL
MODEL 8
REMARK VINA RESULT:      -4.0     11.758     12.100
REMARK  0 active torsions:
REMARK  status: ('A' for Active; 'I' for Inactive)
ROOT
HETATM    1  C1  UNL     1     -34.619  17.894  -0.094  1.00 20.00     0.001 A 
HETATM    2  C2  UNL     1     -33.350  18.189  -0.572  1.00 20.00     0.001 A 
HETATM    3  C3  UNL     1     -35.510  17.147  -0.870  1.00 20.00     0.013 A 
HETATM    4  C4  UNL     1     -32.943  17.744  -1.832  1.00 20.00     0.019 A 
HETATM    5  C5  UNL     1     -35.853  15.908  -3.118  1.00 20.00     0.020 A 
HETATM    6  C6  UNL     1     -35.125  15.656  -4.257  1.00 20.00     0.051 A 
HETATM    7  C7  UNL     1     -35.127  16.681  -2.151  1.00 20.00    -0.019 A 
HETATM    8  C8  UNL     1     -33.844  16.990  -2.611  1.00 20.00     0.015 A 
HETATM    9  S9  UNL     1     -33.566  16.340  -4.183  1.00 20.00    -0.101 SA
ENDROOT
TORSDOF 0
ENDMDL
MODEL 9
REMARK VINA RESULT:      -3.9     11.784     12.162
REMARK  0 active torsions:
REMARK  status: ('A' for Active; 'I' for Inactive)
ROOT
HETATM    1  C1  UNL     1     -33.468  18.105  -0.552  1.00 20.00     0.001 A 
HETATM    2  C2  UNL     1     -34.769  17.796  -0.178  1.00 20.00     0.001 A 
HETATM    3  C3  UNL     1     -32.978  17.706  -1.798  1.00 20.00     0.013 A 
HETATM    4  C4  UNL     1     -35.606  17.085  -1.039  1.00 20.00     0.019 A 
HETATM    5  C5  UNL     1     -33.531  16.473  -4.008  1.00 20.00     0.020 A 
HETATM    6  C6  UNL     1     -34.605  15.817  -4.561  1.00 20.00     0.051 A 
HETATM    7  C7  UNL     1     -33.802  16.983  -2.694  1.00 20.00    -0.019 A 
HETATM    8  C8  UNL     1     -35.109  16.685  -2.296  1.00 20.00     0.015 A 
HETATM    9  S9  UNL     1     -35.952  15.804  -3.515  1.00 20.00    -0.101 SA
ENDROOT
TORSDOF 0
ENDMDL
