MODEL 1
REMARK VINA RESULT:      -3.9      0.000      0.000
REMARK  3 active torsions:
REMARK  status: ('A' for Active; 'I' for Inactive)
REMARK    1  A    between atoms: C2_2  and  C4_4 
REMARK    2  A    between atoms: C4_4  and  S6_6 
REMARK    3  A    between atoms: C5_5  and  S6_6 
ROOT
HETATM    1  C4  UNL     1     -33.722   7.218   5.166  1.00 20.00     0.100 C 
ENDROOT
BRANCH   1   2
HETATM    2  C2  UNL     1     -34.383   6.050   5.822  1.00 20.00    -0.027 C 
HETATM    3  C1  UNL     1     -34.619   4.885   5.209  1.00 20.00     0.007 C 
ENDBRANCH   1   2
BRANCH   1   4
HETATM    4  S6  UNL     1     -33.433   6.868   3.410  1.00 20.00    -0.166 SA
BRANCH   4   5
HETATM    5  C5  UNL     1     -31.979   7.915   3.168  1.00 20.00     0.069 C 
HETATM    6  C3  UNL     1     -32.047   8.619   1.826  1.00 20.00     0.016 C 
ENDBRANCH   4   5
ENDBRANCH   1   4
TORSDOF 3
ENDMDL
MODEL 2
REMARK VINA RESULT:      -3.9      1.078      1.603
REMARK  3 active torsions:
REMARK  status: ('A' for Active; 'I' for Inactive)
REMARK    1  A    between atoms: C2_2  and  C4_4 
REMARK    2  A    between atoms: C4_4  and  S6_6 
REMARK    3  A    between atoms: C5_5  and  S6_6 
ROOT
HETATM    1  C4  UNL     1     -34.778   5.983   3.871  1.00 20.00     0.100 C 
ENDROOT
BRANCH   1   2
HETATM    2  C2  UNL     1     -34.466   6.002   5.333  1.00 20.00    -0.027 C 
HETATM    3  C1  UNL     1     -33.921   7.048   5.966  1.00 20.00     0.007 C 
ENDBRANCH   1   2
BRANCH   1   4
HETATM    4  S6  UNL     1     -33.248   5.834   2.908  1.00 20.00    -0.166 SA
BRANCH   4   5
HETATM    5  C5  UNL     1     -32.997   7.586   2.539  1.00 20.00     0.069 C 
HETATM    6  C3  UNL     1     -31.713   8.085   3.174  1.00 20.00     0.016 C 
ENDBRANCH   4   5
ENDBRANCH   1   4
TORSDOF 3
ENDMDL
MODEL 3
REMARK VINA RESULT:      -3.9      1.168      3.963
REMARK  3 active torsions:
REMARK  status: ('A' for Active; 'I' for Inactive)
REMARK    1  A    between atoms: C2_2  and  C4_4 
REMARK    2  A    between atoms: C4_4  and  S6_6 
REMARK    3  A    between atoms: C5_5  and  S6_6 
ROOT
HETATM    1  C4  UNL     1     -33.658   7.174   3.736  1.00 20.00     0.100 C 
ENDROOT
BRANCH   1   2
HETATM    2  C2  UNL     1     -32.292   7.581   3.287  1.00 20.00    -0.027 C 
HETATM    3  C1  UNL     1     -32.054   8.316   2.195  1.00 20.00     0.007 C 
ENDBRANCH   1   2
BRANCH   1   4
HETATM    4  S6  UNL     1     -33.729   7.115   5.547  1.00 20.00    -0.166 SA
BRANCH   4   5
HETATM    5  C5  UNL     1     -34.571   5.525   5.727  1.00 20.00     0.069 C 
HETATM    6  C3  UNL     1     -34.551   4.760   4.418  1.00 20.00     0.016 C 
ENDBRANCH   4   5
ENDBRANCH   1   4
TORSDOF 3
ENDMDL
MODEL 4
REMARK VINA RESULT:      -3.8      0.884      3.991
REMARK  3 active torsions:
REMARK  status: ('A' for Active; 'I' for Inactive)
REMARK    1  A    between atoms: C2_2  and  C4_4 
REMARK    2  A    between atoms: C4_4  and  S6_6 
REMARK    3  A    between atoms: C5_5  and  S6_6 
ROOT
HETATM    1  C4  UNL     1     -33.296   7.255   3.750  1.00 20.00     0.100 C 
ENDROOT
BRANCH   1   2
HETATM    2  C2  UNL     1     -32.059   7.817   3.129  1.00 20.00    -0.027 C 
HETATM    3  C1  UNL     1     -32.055   8.570   2.023  1.00 20.00     0.007 C 
ENDBRANCH   1   2
BRANCH   1   4
HETATM    4  S6  UNL     1     -33.674   5.633   3.033  1.00 20.00    -0.166 SA
BRANCH   4   5
HETATM    5  C5  UNL     1     -34.607   4.942   4.419  1.00 20.00     0.069 C 
HETATM    6  C3  UNL     1     -34.475   5.826   5.644  1.00 20.00     0.016 C 
ENDBRANCH   4   5
ENDBRANCH   1   4
TORSDOF 3
ENDMDL
MODEL 5
REMARK VINA RESULT:      -3.7      0.819      4.451
REMARK  3 active torsions:
REMARK  status: ('A' for Active; 'I' for Inactive)
REMARK    1  A    between atoms: C2_2  and  C4_4 
REMARK    2  A    between atoms: C4_4  and  S6_6 
REMARK    3  A    between atoms: C5_5  and  S6_6 
ROOT
HETATM    1  C4  UNL     1     -31.925   8.217   2.807  1.00 20.00     0.100 C 
ENDROOT
BRANCH   1   2
HETATM    2  C2  UNL     1     -31.940   8.771   1.419  1.00 20.00    -0.027 C 
HETATM    3  C1  UNL     1     -32.570   9.899   1.072  1.00 20.00     0.007 C 
ENDBRANCH   1   2
BRANCH   1   4
HETATM    4  S6  UNL     1     -33.096   6.840   2.944  1.00 20.00    -0.166 SA
BRANCH   4   5
HETATM    5  C5  UNL     1     -33.659   7.139   4.635  1.00 20.00     0.069 C 
HETATM    6  C3  UNL     1     -34.495   5.974   5.132  1.00 20.00     0.016 C 
ENDBRANCH   4   5
ENDBRANCH   1   4
TORSDOF 3
ENDMDL
MODEL 6
REMARK VINA RESULT:      -3.7      1.601      2.146
REMARK  3 active torsions:
REMARK  status: ('A' for Active; 'I' for Inactive)
REMARK    1  A    between atoms: C2_2  and  C4_4 
REMARK    2  A    between atoms: C4_4  and  S6_6 
REMARK    3  A    between atoms: C5_5  and  S6_6 
ROOT
HETATM    1  C4  UNL     1     -32.889   6.888   3.148  1.00 20.00     0.100 C 
ENDROOT
BRANCH   1   2
HETATM    2  C2  UNL     1     -33.944   7.157   4.172  1.00 20.00    -0.027 C 
HETATM    3  C1  UNL     1     -33.715   7.191   5.489  1.00 20.00     0.007 C 
ENDBRANCH   1   2
BRANCH   1   4
HETATM    4  S6  UNL     1     -31.774   8.312   3.010  1.00 20.00    -0.166 SA
BRANCH   4   5
HETATM    5  C5  UNL     1     -32.119   8.753   1.291  1.00 20.00     0.069 C 
HETATM    6  C3  UNL     1     -32.632  10.177   1.199  1.00 20.00     0.016 C 
ENDBRANCH   4   5
ENDBRANCH   1   4
TORSDOF 3
ENDMDL
MODEL 7
REMARK VINA RESULT:      -3.4      1.985      3.414
REMARK  3 active torsions:
REMARK  status: ('A' for Active; 'I' for Inactive)
REMARK    1  A    between atoms: C2_2  and  C4_4 
REMARK    2  A    between atoms: C4_4  and  S6_6 
REMARK    3  A    between atoms: C5_5  and  S6_6 
ROOT
HETATM    1  C4  UNL     1     -33.846   6.824   3.340  1.00 20.00     0.100 C 
ENDROOT
BRANCH   1   2
HETATM    2  C2  UNL     1     -32.893   5.985   2.551  1.00 20.00    -0.027 C 
HETATM    3  C1  UNL     1     -32.890   4.648   2.564  1.00 20.00     0.007 C 
ENDBRANCH   1   2
BRANCH   1   4
HETATM    4  S6  UNL     1     -35.060   5.770   4.179  1.00 20.00    -0.166 SA
BRANCH   4   5
HETATM    5  C5  UNL     1     -34.493   6.015   5.878  1.00 20.00     0.069 C 
HETATM    6  C3  UNL     1     -33.675   7.287   5.989  1.00 20.00     0.016 C 
ENDBRANCH   4   5
ENDBRANCH   1   4
TORSDOF 3
ENDMDL
MODEL 8
REMARK VINA RESULT:      -3.4      1.788      2.013
REMARK  3 active torsions:
REMARK  status: ('A' for Active; 'I' for Inactive)
REMARK    1  A    between atoms: C2_2  and  C4_4 
REMARK    2  A    between atoms: C4_4  and  S6_6 
REMARK    3  A    between atoms: C5_5  and  S6_6 
ROOT
HETATM    1  C4  UNL     1     -33.565   7.164   5.187  1.00 20.00     0.100 C 
ENDROOT
BRANCH   1   2
HETATM    2  C2  UNL     1     -34.632   6.118   5.191  1.00 20.00    -0.027 C 
HETATM    3  C1  UNL     1     -34.575   4.996   5.917  1.00 20.00     0.007 C 
ENDBRANCH   1   2
BRANCH   1   4
HETATM    4  S6  UNL     1     -32.900   7.371   3.512  1.00 20.00    -0.166 SA
BRANCH   4   5
HETATM    5  C5  UNL     1     -33.827   6.053   2.694  1.00 20.00     0.069 C 
HETATM    6  C3  UNL     1     -32.954   4.827   2.502  1.00 20.00     0.016 C 
ENDBRANCH   4   5
ENDBRANCH   1   4
TORSDOF 3
ENDMDL
MODEL 9
REMARK VINA RESULT:      -3.2      1.391      2.085
REMARK  3 active torsions:
REMARK  status: ('A' for Active; 'I' for Inactive)
REMARK    1  A    between atoms: C2_2  and  C4_4 
REMARK    2  A    between atoms: C4_4  and  S6_6 
REMARK    3  A    between atoms: C5_5  and  S6_6 
ROOT
HETATM    1  C4  UNL     1     -34.969   6.088   3.771  1.00 20.00     0.100 C 
ENDROOT
BRANCH   1   2
HETATM    2  C2  UNL     1     -34.989   4.837   4.589  1.00 20.00    -0.027 C 
HETATM    3  C1  UNL     1     -34.041   3.895   4.534  1.00 20.00     0.007 C 
ENDBRANCH   1   2
BRANCH   1   4
HETATM    4  S6  UNL     1     -33.380   6.248   2.912  1.00 20.00    -0.166 SA
BRANCH   4   5
HETATM    5  C5  UNL     1     -32.698   7.620   3.871  1.00 20.00     0.069 C 
HETATM    6  C3  UNL     1     -33.231   7.595   5.291  1.00 20.00     0.016 C 
ENDBRANCH   4   5
ENDBRANCH   1   4
TORSDOF 3
ENDMDL
