MODEL 1
REMARK VINA RESULT:      -6.1      0.000      0.000
REMARK  2 active torsions:
REMARK  status: ('A' for Active; 'I' for Inactive)
REMARK    1  A    between atoms: C6_6  and  C8_8 
REMARK    2  A    between atoms: C8_8  and  N10_10 
ROOT
HETATM    1  N9  UNL     1     -33.126   9.515  -0.406  1.00 20.00     0.068 N 
HETATM    2  N10 UNL     1     -32.388   9.224   1.842  1.00 20.00    -0.111 NA
HETATM    3  N11 UNL     1     -32.772   9.370   0.669  1.00 20.00    -0.167 NA
ENDROOT
BRANCH   2   4
HETATM    4  C8  UNL     1     -32.001   7.859   2.218  1.00 20.00     0.227 C 
BRANCH   4   5
HETATM    5  C6  UNL     1     -32.741   7.373   3.419  1.00 20.00    -0.035 A 
HETATM    6  C3  UNL     1     -32.696   8.101   4.608  1.00 20.00     0.009 A 
HETATM    7  C1  UNL     1     -33.388   7.646   5.731  1.00 20.00     0.001 A 
HETATM    8  C2  UNL     1     -34.124   6.464   5.665  1.00 20.00     0.007 A 
HETATM    9  C5  UNL     1     -34.170   5.736   4.476  1.00 20.00    -0.061 A 
HETATM   10  C4  UNL     1     -33.478   6.190   3.353  1.00 20.00     0.015 A 
HETATM   11  C7  UNL     1     -34.957   4.471   4.406  1.00 20.00     0.048 C 
ENDBRANCH   4   5
ENDBRANCH   2   4
TORSDOF 2
ENDMDL
MODEL 2
REMARK VINA RESULT:      -6.0      0.741      1.959
REMARK  2 active torsions:
REMARK  status: ('A' for Active; 'I' for Inactive)
REMARK    1  A    between atoms: C6_6  and  C8_8 
REMARK    2  A    between atoms: C8_8  and  N10_10 
ROOT
HETATM    1  N9  UNL     1     -33.241   9.549  -0.503  1.00 20.00     0.068 N 
HETATM    2  N10 UNL     1     -32.254   9.444   1.664  1.00 20.00    -0.111 NA
HETATM    3  N11 UNL     1     -32.767   9.493   0.533  1.00 20.00    -0.167 NA
ENDROOT
BRANCH   2   4
HETATM    4  C8  UNL     1     -31.690   8.145   2.050  1.00 20.00     0.227 C 
BRANCH   4   5
HETATM    5  C6  UNL     1     -32.626   7.350   2.896  1.00 20.00    -0.035 A 
HETATM    6  C3  UNL     1     -33.266   6.230   2.366  1.00 20.00     0.009 A 
HETATM    7  C1  UNL     1     -34.142   5.487   3.158  1.00 20.00     0.001 A 
HETATM    8  C2  UNL     1     -34.379   5.865   4.480  1.00 20.00     0.007 A 
HETATM    9  C5  UNL     1     -33.739   6.986   5.010  1.00 20.00    -0.061 A 
HETATM   10  C4  UNL     1     -32.863   7.728   4.218  1.00 20.00     0.015 A 
HETATM   11  C7  UNL     1     -33.992   7.389   6.423  1.00 20.00     0.048 C 
ENDBRANCH   4   5
ENDBRANCH   2   4
TORSDOF 2
ENDMDL
MODEL 3
REMARK VINA RESULT:      -5.8      0.907      2.127
REMARK  2 active torsions:
REMARK  status: ('A' for Active; 'I' for Inactive)
REMARK    1  A    between atoms: C6_6  and  C8_8 
REMARK    2  A    between atoms: C8_8  and  N10_10 
ROOT
HETATM    1  N9  UNL     1     -32.545  10.310   0.714  1.00 20.00     0.068 N 
HETATM    2  N10 UNL     1     -31.986   8.526   2.193  1.00 20.00    -0.111 NA
HETATM    3  N11 UNL     1     -32.281   9.453   1.419  1.00 20.00    -0.167 NA
ENDROOT
BRANCH   2   4
HETATM    4  C8  UNL     1     -32.622   7.234   1.908  1.00 20.00     0.227 C 
BRANCH   4   5
HETATM    5  C6  UNL     1     -33.269   6.644   3.116  1.00 20.00    -0.035 A 
HETATM    6  C3  UNL     1     -33.815   5.362   3.058  1.00 20.00     0.009 A 
HETATM    7  C1  UNL     1     -34.421   4.811   4.188  1.00 20.00     0.001 A 
HETATM    8  C2  UNL     1     -34.480   5.541   5.375  1.00 20.00     0.007 A 
HETATM    9  C5  UNL     1     -33.932   6.824   5.432  1.00 20.00    -0.061 A 
HETATM   10  C4  UNL     1     -33.328   7.375   4.303  1.00 20.00     0.015 A 
HETATM   11  C7  UNL     1     -33.995   7.604   6.701  1.00 20.00     0.048 C 
ENDBRANCH   4   5
ENDBRANCH   2   4
TORSDOF 2
ENDMDL
MODEL 4
REMARK VINA RESULT:      -5.3      1.035      1.317
REMARK  2 active torsions:
REMARK  status: ('A' for Active; 'I' for Inactive)
REMARK    1  A    between atoms: C6_6  and  C8_8 
REMARK    2  A    between atoms: C8_8  and  N10_10 
ROOT
HETATM    1  N9  UNL     1     -32.877  10.308   0.769  1.00 20.00     0.068 N 
HETATM    2  N10 UNL     1     -31.691   8.593   1.924  1.00 20.00    -0.111 NA
HETATM    3  N11 UNL     1     -32.312   9.489   1.327  1.00 20.00    -0.167 NA
ENDROOT
BRANCH   2   4
HETATM    4  C8  UNL     1     -31.879   8.553   3.380  1.00 20.00     0.227 C 
BRANCH   4   5
HETATM    5  C6  UNL     1     -32.742   7.415   3.807  1.00 20.00    -0.035 A 
HETATM    6  C3  UNL     1     -33.482   7.505   4.986  1.00 20.00     0.009 A 
HETATM    7  C1  UNL     1     -34.290   6.440   5.386  1.00 20.00     0.001 A 
HETATM    8  C2  UNL     1     -34.358   5.285   4.607  1.00 20.00     0.007 A 
HETATM    9  C5  UNL     1     -33.618   5.195   3.428  1.00 20.00    -0.061 A 
HETATM   10  C4  UNL     1     -32.810   6.259   3.029  1.00 20.00     0.015 A 
HETATM   11  C7  UNL     1     -33.691   3.960   2.595  1.00 20.00     0.048 C 
ENDBRANCH   4   5
ENDBRANCH   2   4
TORSDOF 2
ENDMDL
MODEL 5
REMARK VINA RESULT:      -5.1     11.222     11.690
REMARK  2 active torsions:
REMARK  status: ('A' for Active; 'I' for Inactive)
REMARK    1  A    between atoms: C6_6  and  C8_8 
REMARK    2  A    between atoms: C8_8  and  N10_10 
ROOT
HETATM    1  N9  UNL     1     -30.312  18.810   2.238  1.00 20.00     0.068 N 
HETATM    2  N10 UNL     1     -31.205  18.501   0.050  1.00 20.00    -0.111 NA
HETATM    3  N11 UNL     1     -30.744  18.665   1.192  1.00 20.00    -0.167 NA
ENDROOT
BRANCH   2   4
HETATM    4  C8  UNL     1     -32.503  19.138  -0.209  1.00 20.00     0.227 C 
BRANCH   4   5
HETATM    5  C6  UNL     1     -33.474  18.204  -0.848  1.00 20.00    -0.035 A 
HETATM    6  C3  UNL     1     -34.747  18.041  -0.303  1.00 20.00     0.009 A 
HETATM    7  C1  UNL     1     -35.655  17.166  -0.900  1.00 20.00     0.001 A 
HETATM    8  C2  UNL     1     -35.290  16.454  -2.043  1.00 20.00     0.007 A 
HETATM    9  C5  UNL     1     -34.016  16.618  -2.588  1.00 20.00    -0.061 A 
HETATM   10  C4  UNL     1     -33.108  17.492  -1.990  1.00 20.00     0.015 A 
HETATM   11  C7  UNL     1     -33.626  15.857  -3.810  1.00 20.00     0.048 C 
ENDBRANCH   4   5
ENDBRANCH   2   4
TORSDOF 2
ENDMDL
MODEL 6
REMARK VINA RESULT:      -5.0     10.794     11.199
REMARK  2 active torsions:
REMARK  status: ('A' for Active; 'I' for Inactive)
REMARK    1  A    between atoms: C6_6  and  C8_8 
REMARK    2  A    between atoms: C8_8  and  N10_10 
ROOT
HETATM    1  N9  UNL     1     -36.025  13.238  -5.284  1.00 20.00     0.068 N 
HETATM    2  N10 UNL     1     -34.201  14.135  -4.038  1.00 20.00    -0.111 NA
HETATM    3  N11 UNL     1     -35.153  13.673  -4.689  1.00 20.00    -0.167 NA
ENDROOT
BRANCH   2   4
HETATM    4  C8  UNL     1     -33.955  15.573  -4.206  1.00 20.00     0.227 C 
BRANCH   4   5
HETATM    5  C6  UNL     1     -34.193  16.338  -2.949  1.00 20.00    -0.035 A 
HETATM    6  C3  UNL     1     -35.458  16.336  -2.359  1.00 20.00     0.009 A 
HETATM    7  C1  UNL     1     -35.681  17.052  -1.183  1.00 20.00     0.001 A 
HETATM    8  C2  UNL     1     -34.639  17.771  -0.596  1.00 20.00     0.007 A 
HETATM    9  C5  UNL     1     -33.374  17.772  -1.185  1.00 20.00    -0.061 A 
HETATM   10  C4  UNL     1     -33.152  17.057  -2.361  1.00 20.00     0.015 A 
HETATM   11  C7  UNL     1     -32.261  18.540  -0.556  1.00 20.00     0.048 C 
ENDBRANCH   4   5
ENDBRANCH   2   4
TORSDOF 2
ENDMDL
MODEL 7
REMARK VINA RESULT:      -4.8      3.181      4.759
REMARK  2 active torsions:
REMARK  status: ('A' for Active; 'I' for Inactive)
REMARK    1  A    between atoms: C6_6  and  C8_8 
REMARK    2  A    between atoms: C8_8  and  N10_10 
ROOT
HETATM    1  N9  UNL     1     -34.678   5.032   5.978  1.00 20.00     0.068 N 
HETATM    2  N10 UNL     1     -35.036   5.868   3.774  1.00 20.00    -0.111 NA
HETATM    3  N11 UNL     1     -34.844   5.430   4.922  1.00 20.00    -0.167 NA
ENDROOT
BRANCH   2   4
HETATM    4  C8  UNL     1     -33.924   5.688   2.832  1.00 20.00     0.227 C 
BRANCH   4   5
HETATM    5  C6  UNL     1     -33.143   6.942   2.633  1.00 20.00    -0.035 A 
HETATM    6  C3  UNL     1     -32.236   7.361   3.607  1.00 20.00     0.009 A 
HETATM    7  C1  UNL     1     -31.505   8.535   3.421  1.00 20.00     0.001 A 
HETATM    8  C2  UNL     1     -31.682   9.291   2.262  1.00 20.00     0.007 A 
HETATM    9  C5  UNL     1     -32.589   8.871   1.288  1.00 20.00    -0.061 A 
HETATM   10  C4  UNL     1     -33.319   7.698   1.474  1.00 20.00     0.015 A 
HETATM   11  C7  UNL     1     -32.776   9.679   0.048  1.00 20.00     0.048 C 
ENDBRANCH   4   5
ENDBRANCH   2   4
TORSDOF 2
ENDMDL
MODEL 8
REMARK VINA RESULT:      -4.8     10.942     11.326
REMARK  2 active torsions:
REMARK  status: ('A' for Active; 'I' for Inactive)
REMARK    1  A    between atoms: C6_6  and  C8_8 
REMARK    2  A    between atoms: C8_8  and  N10_10 
ROOT
HETATM    1  N9  UNL     1     -35.078  12.789  -7.442  1.00 20.00     0.068 N 
HETATM    2  N10 UNL     1     -35.842  12.970  -5.191  1.00 20.00    -0.111 NA
HETATM    3  N11 UNL     1     -35.446  12.881  -6.366  1.00 20.00    -0.167 NA
ENDROOT
BRANCH   2   4
HETATM    4  C8  UNL     1     -36.433  14.261  -4.816  1.00 20.00     0.227 C 
BRANCH   4   5
HETATM    5  C6  UNL     1     -35.480  15.119  -4.055  1.00 20.00    -0.035 A 
HETATM    6  C3  UNL     1     -34.147  15.206  -4.456  1.00 20.00     0.009 A 
HETATM    7  C1  UNL     1     -33.255  16.008  -3.744  1.00 20.00     0.001 A 
HETATM    8  C2  UNL     1     -33.697  16.724  -2.631  1.00 20.00     0.007 A 
HETATM    9  C5  UNL     1     -35.030  16.637  -2.230  1.00 20.00    -0.061 A 
HETATM   10  C4  UNL     1     -35.921  15.834  -2.942  1.00 20.00     0.015 A 
HETATM   11  C7  UNL     1     -35.502  17.403  -1.040  1.00 20.00     0.048 C 
ENDBRANCH   4   5
ENDBRANCH   2   4
TORSDOF 2
ENDMDL
MODEL 9
REMARK VINA RESULT:      -4.7     10.831     11.163
REMARK  2 active torsions:
REMARK  status: ('A' for Active; 'I' for Inactive)
REMARK    1  A    between atoms: C6_6  and  C8_8 
REMARK    2  A    between atoms: C8_8  and  N10_10 
ROOT
HETATM    1  N9  UNL     1     -35.552  13.559  -5.063  1.00 20.00     0.068 N 
HETATM    2  N10 UNL     1     -34.494  15.166  -3.656  1.00 20.00    -0.111 NA
HETATM    3  N11 UNL     1     -35.051  14.330  -4.389  1.00 20.00    -0.167 NA
ENDROOT
BRANCH   2   4
HETATM    4  C8  UNL     1     -35.388  16.117  -2.984  1.00 20.00     0.227 C 
BRANCH   4   5
HETATM    5  C6  UNL     1     -34.682  16.914  -1.939  1.00 20.00    -0.035 A 
HETATM    6  C3  UNL     1     -33.392  17.387  -2.176  1.00 20.00     0.009 A 
HETATM    7  C1  UNL     1     -32.732  18.132  -1.199  1.00 20.00     0.001 A 
HETATM    8  C2  UNL     1     -33.362  18.404   0.016  1.00 20.00     0.007 A 
HETATM    9  C5  UNL     1     -34.653  17.931   0.252  1.00 20.00    -0.061 A 
HETATM   10  C4  UNL     1     -35.312  17.186  -0.725  1.00 20.00     0.015 A 
HETATM   11  C7  UNL     1     -35.327  18.222   1.550  1.00 20.00     0.048 C 
ENDBRANCH   4   5
ENDBRANCH   2   4
TORSDOF 2
ENDMDL
