MODEL 1
REMARK VINA RESULT:      -6.1      0.000      0.000
REMARK  1 active torsions:
REMARK  status: ('A' for Active; 'I' for Inactive)
REMARK    1  A    between atoms: C2_2  and  C8_8 
ROOT
HETATM    1  C1  UNL     1     -33.966   6.552   5.082  1.00 20.00    -0.081 C 
HETATM    2  C2  UNL     1     -33.675   6.568   3.773  1.00 20.00    -0.078 C 
HETATM    3  C3  UNL     1     -34.580   5.246   5.490  1.00 20.00     0.034 C 
HETATM    4  C4  UNL     1     -34.049   5.275   3.113  1.00 20.00     0.034 C 
HETATM    5  C5  UNL     1     -34.294   4.343   4.295  1.00 20.00     0.009 C 
HETATM    6  C6  UNL     1     -33.792   7.626   6.098  1.00 20.00     0.043 C 
ENDROOT
BRANCH   2   7
HETATM    7  C8  UNL     1     -33.090   7.664   2.951  1.00 20.00     0.030 C 
HETATM    8  C7  UNL     1     -31.672   7.966   3.395  1.00 20.00     0.010 C 
ENDBRANCH   2   7
TORSDOF 1
ENDMDL
MODEL 2
REMARK VINA RESULT:      -5.9      0.894      2.994
REMARK  1 active torsions:
REMARK  status: ('A' for Active; 'I' for Inactive)
REMARK    1  A    between atoms: C2_2  and  C8_8 
ROOT
HETATM    1  C1  UNL     1     -33.267   7.312   4.622  1.00 20.00    -0.081 C 
HETATM    2  C2  UNL     1     -33.879   6.470   3.776  1.00 20.00    -0.078 C 
HETATM    3  C3  UNL     1     -32.139   8.038   3.951  1.00 20.00     0.034 C 
HETATM    4  C4  UNL     1     -33.252   6.510   2.415  1.00 20.00     0.034 C 
HETATM    5  C5  UNL     1     -32.384   7.762   2.471  1.00 20.00     0.009 C 
HETATM    6  C6  UNL     1     -33.543   7.563   6.063  1.00 20.00     0.043 C 
ENDROOT
BRANCH   2   7
HETATM    7  C8  UNL     1     -35.015   5.540   4.030  1.00 20.00     0.030 C 
HETATM    8  C7  UNL     1     -34.519   4.249   4.651  1.00 20.00     0.010 C 
ENDBRANCH   2   7
TORSDOF 1
ENDMDL
MODEL 3
REMARK VINA RESULT:      -5.7      0.589      2.238
REMARK  1 active torsions:
REMARK  status: ('A' for Active; 'I' for Inactive)
REMARK    1  A    between atoms: C2_2  and  C8_8 
ROOT
HETATM    1  C1  UNL     1     -33.619   5.314   3.512  1.00 20.00    -0.081 C 
HETATM    2  C2  UNL     1     -33.537   6.620   3.808  1.00 20.00    -0.078 C 
HETATM    3  C3  UNL     1     -34.191   4.528   4.654  1.00 20.00     0.034 C 
HETATM    4  C4  UNL     1     -34.044   6.900   5.191  1.00 20.00     0.034 C 
HETATM    5  C5  UNL     1     -34.769   5.610   5.561  1.00 20.00     0.009 C 
HETATM    6  C6  UNL     1     -33.201   4.602   2.273  1.00 20.00     0.043 C 
ENDROOT
BRANCH   2   7
HETATM    7  C8  UNL     1     -33.005   7.740   2.984  1.00 20.00     0.030 C 
HETATM    8  C7  UNL     1     -31.602   8.108   3.424  1.00 20.00     0.010 C 
ENDBRANCH   2   7
TORSDOF 1
ENDMDL
MODEL 4
REMARK VINA RESULT:      -5.5      1.009      2.374
REMARK  1 active torsions:
REMARK  status: ('A' for Active; 'I' for Inactive)
REMARK    1  A    between atoms: C2_2  and  C8_8 
ROOT
HETATM    1  C1  UNL     1     -33.136   7.239   4.353  1.00 20.00    -0.081 C 
HETATM    2  C2  UNL     1     -33.829   6.272   3.734  1.00 20.00    -0.078 C 
HETATM    3  C3  UNL     1     -33.614   7.441   5.760  1.00 20.00     0.034 C 
HETATM    4  C4  UNL     1     -34.872   5.683   4.636  1.00 20.00     0.034 C 
HETATM    5  C5  UNL     1     -34.473   6.206   6.012  1.00 20.00     0.009 C 
HETATM    6  C6  UNL     1     -32.042   8.099   3.823  1.00 20.00     0.043 C 
ENDROOT
BRANCH   2   7
HETATM    7  C8  UNL     1     -33.708   5.773   2.336  1.00 20.00     0.030 C 
HETATM    8  C7  UNL     1     -32.941   4.466   2.300  1.00 20.00     0.010 C 
ENDBRANCH   2   7
TORSDOF 1
ENDMDL
MODEL 5
REMARK VINA RESULT:      -5.0      1.079      3.682
REMARK  1 active torsions:
REMARK  status: ('A' for Active; 'I' for Inactive)
REMARK    1  A    between atoms: C2_2  and  C8_8 
ROOT
HETATM    1  C1  UNL     1     -33.127   6.012   2.969  1.00 20.00    -0.081 C 
HETATM    2  C2  UNL     1     -33.947   6.284   3.995  1.00 20.00    -0.078 C 
HETATM    3  C3  UNL     1     -32.190   7.151   2.701  1.00 20.00     0.034 C 
HETATM    4  C4  UNL     1     -33.679   7.644   4.565  1.00 20.00     0.034 C 
HETATM    5  C5  UNL     1     -32.335   8.017   3.948  1.00 20.00     0.009 C 
HETATM    6  C6  UNL     1     -33.070   4.801   2.104  1.00 20.00     0.043 C 
ENDROOT
BRANCH   2   7
HETATM    7  C8  UNL     1     -35.042   5.454   4.571  1.00 20.00     0.030 C 
HETATM    8  C7  UNL     1     -34.621   4.866   5.904  1.00 20.00     0.010 C 
ENDBRANCH   2   7
TORSDOF 1
ENDMDL
MODEL 6
REMARK VINA RESULT:      -4.8      0.895      2.694
REMARK  1 active torsions:
REMARK  status: ('A' for Active; 'I' for Inactive)
REMARK    1  A    between atoms: C2_2  and  C8_8 
ROOT
HETATM    1  C1  UNL     1     -34.108   6.114   4.990  1.00 20.00    -0.081 C 
HETATM    2  C2  UNL     1     -33.639   6.413   3.769  1.00 20.00    -0.078 C 
HETATM    3  C3  UNL     1     -33.625   7.093   6.017  1.00 20.00     0.034 C 
HETATM    4  C4  UNL     1     -32.775   7.637   3.800  1.00 20.00     0.034 C 
HETATM    5  C5  UNL     1     -33.073   8.236   5.170  1.00 20.00     0.009 C 
HETATM    6  C6  UNL     1     -34.968   4.975   5.414  1.00 20.00     0.043 C 
ENDROOT
BRANCH   2   7
HETATM    7  C8  UNL     1     -33.842   5.694   2.480  1.00 20.00     0.030 C 
HETATM    8  C7  UNL     1     -32.913   4.500   2.383  1.00 20.00     0.010 C 
ENDBRANCH   2   7
TORSDOF 1
ENDMDL
MODEL 7
REMARK VINA RESULT:      -4.6      1.008      3.027
REMARK  1 active torsions:
REMARK  status: ('A' for Active; 'I' for Inactive)
REMARK    1  A    between atoms: C2_2  and  C8_8 
ROOT
HETATM    1  C1  UNL     1     -33.846   5.224   3.789  1.00 20.00    -0.081 C 
HETATM    2  C2  UNL     1     -33.875   6.400   4.436  1.00 20.00    -0.078 C 
HETATM    3  C3  UNL     1     -33.404   5.393   2.366  1.00 20.00     0.034 C 
HETATM    4  C4  UNL     1     -33.455   7.527   3.541  1.00 20.00     0.034 C 
HETATM    5  C5  UNL     1     -32.833   6.807   2.349  1.00 20.00     0.009 C 
HETATM    6  C6  UNL     1     -34.213   3.869   4.284  1.00 20.00     0.043 C 
ENDROOT
BRANCH   2   7
HETATM    7  C8  UNL     1     -34.281   6.693   5.838  1.00 20.00     0.030 C 
HETATM    8  C7  UNL     1     -33.472   7.847   6.398  1.00 20.00     0.010 C 
ENDBRANCH   2   7
TORSDOF 1
ENDMDL
MODEL 8
REMARK VINA RESULT:      -4.6      0.942      2.520
REMARK  1 active torsions:
REMARK  status: ('A' for Active; 'I' for Inactive)
REMARK    1  A    between atoms: C2_2  and  C8_8 
ROOT
HETATM    1  C1  UNL     1     -33.318   6.108   3.233  1.00 20.00    -0.081 C 
HETATM    2  C2  UNL     1     -34.001   6.097   4.387  1.00 20.00    -0.078 C 
HETATM    3  C3  UNL     1     -33.082   4.718   2.723  1.00 20.00     0.034 C 
HETATM    4  C4  UNL     1     -34.324   4.698   4.818  1.00 20.00     0.034 C 
HETATM    5  C5  UNL     1     -34.032   3.876   3.567  1.00 20.00     0.009 C 
HETATM    6  C6  UNL     1     -32.775   7.267   2.472  1.00 20.00     0.043 C 
ENDROOT
BRANCH   2   7
HETATM    7  C8  UNL     1     -34.418   7.240   5.246  1.00 20.00     0.030 C 
HETATM    8  C7  UNL     1     -33.278   7.676   6.146  1.00 20.00     0.010 C 
ENDBRANCH   2   7
TORSDOF 1
ENDMDL
MODEL 9
REMARK VINA RESULT:      -4.2     11.988     12.541
REMARK  1 active torsions:
REMARK  status: ('A' for Active; 'I' for Inactive)
REMARK    1  A    between atoms: C2_2  and  C8_8 
ROOT
HETATM    1  C1  UNL     1     -34.829  17.591  -0.202  1.00 20.00    -0.081 C 
HETATM    2  C2  UNL     1     -33.637  18.201  -0.275  1.00 20.00    -0.078 C 
HETATM    3  C3  UNL     1     -35.162  16.884  -1.482  1.00 20.00     0.034 C 
HETATM    4  C4  UNL     1     -32.996  17.991  -1.614  1.00 20.00     0.034 C 
HETATM    5  C5  UNL     1     -33.829  16.868  -2.223  1.00 20.00     0.009 C 
HETATM    6  C6  UNL     1     -35.807  17.567   0.921  1.00 20.00     0.043 C 
ENDROOT
BRANCH   2   7
HETATM    7  C8  UNL     1     -32.941  19.033   0.745  1.00 20.00     0.030 C 
HETATM    8  C7  UNL     1     -31.454  18.735   0.754  1.00 20.00     0.010 C 
ENDBRANCH   2   7
TORSDOF 1
ENDMDL
