MODEL 1
REMARK VINA RESULT:      -5.7      0.000      0.000
REMARK  0 active torsions:
REMARK  status: ('A' for Active; 'I' for Inactive)
ROOT
HETATM    1  C1  UNL     1     -34.627   5.577   5.575  1.00 20.00     0.000 A 
HETATM    2  C2  UNL     1     -34.031   6.790   5.915  1.00 20.00     0.001 A 
HETATM    3  C3  UNL     1     -34.547   5.103   4.265  1.00 20.00     0.001 A 
HETATM    4  C4  UNL     1     -33.354   7.532   4.947  1.00 20.00     0.019 A 
HETATM    5  C5  UNL     1     -33.870   5.844   3.296  1.00 20.00     0.019 A 
HETATM    6  C6  UNL     1     -33.274   7.058   3.636  1.00 20.00     0.011 A 
HETATM    7  S7  UNL     1     -32.401   8.013   2.385  1.00 20.00    -0.053 SA
ENDROOT
TORSDOF 0
ENDMDL
MODEL 2
REMARK VINA RESULT:      -5.7      0.010      1.827
REMARK  0 active torsions:
REMARK  status: ('A' for Active; 'I' for Inactive)
ROOT
HETATM    1  C1  UNL     1     -34.624   5.581   5.574  1.00 20.00     0.000 A 
HETATM    2  C2  UNL     1     -34.555   5.111   4.263  1.00 20.00     0.001 A 
HETATM    3  C3  UNL     1     -34.016   6.789   5.915  1.00 20.00     0.001 A 
HETATM    4  C4  UNL     1     -33.880   5.850   3.291  1.00 20.00     0.019 A 
HETATM    5  C5  UNL     1     -33.341   7.529   4.944  1.00 20.00     0.019 A 
HETATM    6  C6  UNL     1     -33.272   7.059   3.632  1.00 20.00     0.011 A 
HETATM    7  S7  UNL     1     -32.400   8.014   2.380  1.00 20.00    -0.053 SA
ENDROOT
TORSDOF 0
ENDMDL
MODEL 3
REMARK VINA RESULT:      -3.9      2.124      2.937
REMARK  0 active torsions:
REMARK  status: ('A' for Active; 'I' for Inactive)
ROOT
HETATM    1  C1  UNL     1     -32.321   7.908   2.901  1.00 20.00     0.000 A 
HETATM    2  C2  UNL     1     -32.487   8.110   4.271  1.00 20.00     0.001 A 
HETATM    3  C3  UNL     1     -32.912   6.806   2.282  1.00 20.00     0.001 A 
HETATM    4  C4  UNL     1     -33.245   7.211   5.022  1.00 20.00     0.019 A 
HETATM    5  C5  UNL     1     -33.669   5.907   3.032  1.00 20.00     0.019 A 
HETATM    6  C6  UNL     1     -33.835   6.109   4.402  1.00 20.00     0.011 A 
HETATM    7  S7  UNL     1     -34.813   4.948   5.370  1.00 20.00    -0.053 SA
ENDROOT
TORSDOF 0
ENDMDL
MODEL 4
REMARK VINA RESULT:      -3.9      2.132      3.457
REMARK  0 active torsions:
REMARK  status: ('A' for Active; 'I' for Inactive)
ROOT
HETATM    1  C1  UNL     1     -32.357   7.843   2.795  1.00 20.00     0.000 A 
HETATM    2  C2  UNL     1     -32.981   6.722   2.249  1.00 20.00     0.001 A 
HETATM    3  C3  UNL     1     -32.471   8.110   4.159  1.00 20.00     0.001 A 
HETATM    4  C4  UNL     1     -33.718   5.866   3.066  1.00 20.00     0.019 A 
HETATM    5  C5  UNL     1     -33.209   7.255   4.978  1.00 20.00     0.019 A 
HETATM    6  C6  UNL     1     -33.833   6.134   4.432  1.00 20.00     0.011 A 
HETATM    7  S7  UNL     1     -34.785   5.031   5.489  1.00 20.00    -0.053 SA
ENDROOT
TORSDOF 0
ENDMDL
MODEL 5
REMARK VINA RESULT:      -3.6      1.725      2.549
REMARK  0 active torsions:
REMARK  status: ('A' for Active; 'I' for Inactive)
ROOT
HETATM    1  C1  UNL     1     -33.990   4.467   3.215  1.00 20.00     0.000 A 
HETATM    2  C2  UNL     1     -33.425   5.686   2.844  1.00 20.00     0.001 A 
HETATM    3  C3  UNL     1     -34.481   4.290   4.509  1.00 20.00     0.001 A 
HETATM    4  C4  UNL     1     -33.350   6.730   3.766  1.00 20.00     0.019 A 
HETATM    5  C5  UNL     1     -34.407   5.334   5.431  1.00 20.00     0.019 A 
HETATM    6  C6  UNL     1     -33.841   6.554   5.060  1.00 20.00     0.011 A 
HETATM    7  S7  UNL     1     -33.746   7.900   6.251  1.00 20.00    -0.053 SA
ENDROOT
TORSDOF 0
ENDMDL
MODEL 6
REMARK VINA RESULT:      -3.5     12.047     12.581
REMARK  0 active torsions:
REMARK  status: ('A' for Active; 'I' for Inactive)
ROOT
HETATM    1  C1  UNL     1     -33.556  17.079  -2.339  1.00 20.00     0.000 A 
HETATM    2  C2  UNL     1     -34.841  16.665  -1.994  1.00 20.00     0.001 A 
HETATM    3  C3  UNL     1     -32.842  17.922  -1.488  1.00 20.00     0.001 A 
HETATM    4  C4  UNL     1     -35.415  17.093  -0.797  1.00 20.00     0.019 A 
HETATM    5  C5  UNL     1     -33.414  18.351  -0.290  1.00 20.00     0.019 A 
HETATM    6  C6  UNL     1     -34.701  17.937   0.055  1.00 20.00     0.011 A 
HETATM    7  S7  UNL     1     -35.439  18.490   1.601  1.00 20.00    -0.053 SA
ENDROOT
TORSDOF 0
ENDMDL
MODEL 7
REMARK VINA RESULT:      -3.5     11.965     12.395
REMARK  0 active torsions:
REMARK  status: ('A' for Active; 'I' for Inactive)
ROOT
HETATM    1  C1  UNL     1     -33.778  18.312  -0.046  1.00 20.00     0.000 A 
HETATM    2  C2  UNL     1     -32.875  18.126  -1.092  1.00 20.00     0.001 A 
HETATM    3  C3  UNL     1     -35.035  17.710  -0.095  1.00 20.00     0.001 A 
HETATM    4  C4  UNL     1     -33.227  17.337  -2.187  1.00 20.00     0.019 A 
HETATM    5  C5  UNL     1     -35.388  16.920  -1.189  1.00 20.00     0.019 A 
HETATM    6  C6  UNL     1     -34.485  16.734  -2.235  1.00 20.00     0.011 A 
HETATM    7  S7  UNL     1     -34.941  15.715  -3.647  1.00 20.00    -0.053 SA
ENDROOT
TORSDOF 0
ENDMDL
MODEL 8
REMARK VINA RESULT:      -3.5     11.951     12.415
REMARK  0 active torsions:
REMARK  status: ('A' for Active; 'I' for Inactive)
ROOT
HETATM    1  C1  UNL     1     -34.091  18.411   0.425  1.00 20.00     0.000 A 
HETATM    2  C2  UNL     1     -35.204  17.651   0.067  1.00 20.00     0.001 A 
HETATM    3  C3  UNL     1     -32.984  18.469  -0.421  1.00 20.00     0.001 A 
HETATM    4  C4  UNL     1     -35.211  16.948  -1.137  1.00 20.00     0.019 A 
HETATM    5  C5  UNL     1     -32.990  17.766  -1.626  1.00 20.00     0.019 A 
HETATM    6  C6  UNL     1     -34.103  17.005  -1.984  1.00 20.00     0.011 A 
HETATM    7  S7  UNL     1     -34.110  16.098  -3.539  1.00 20.00    -0.053 SA
ENDROOT
TORSDOF 0
ENDMDL
MODEL 9
REMARK VINA RESULT:      -3.3     12.132     12.496
REMARK  0 active torsions:
REMARK  status: ('A' for Active; 'I' for Inactive)
ROOT
HETATM    1  C1  UNL     1     -34.116  17.709  -0.680  1.00 20.00     0.000 A 
HETATM    2  C2  UNL     1     -35.387  17.177  -0.898  1.00 20.00     0.001 A 
HETATM    3  C3  UNL     1     -33.150  17.641  -1.684  1.00 20.00     0.001 A 
HETATM    4  C4  UNL     1     -35.693  16.579  -2.120  1.00 20.00     0.019 A 
HETATM    5  C5  UNL     1     -33.455  17.043  -2.907  1.00 20.00     0.019 A 
HETATM    6  C6  UNL     1     -34.726  16.511  -3.125  1.00 20.00     0.011 A 
HETATM    7  S7  UNL     1     -35.119  15.739  -4.703  1.00 20.00    -0.053 SA
ENDROOT
TORSDOF 0
ENDMDL
