MODEL 1
REMARK VINA RESULT:      -6.2      0.000      0.000
REMARK  0 active torsions:
REMARK  status: ('A' for Active; 'I' for Inactive)
ROOT
HETATM    1  C1  UNL     1     -34.915   5.465   4.604  1.00 20.00     0.001 A 
HETATM    2  C2  UNL     1     -34.540   6.109   5.787  1.00 20.00     0.003 A 
HETATM    3  C3  UNL     1     -34.320   5.796   3.379  1.00 20.00     0.016 A 
HETATM    4  C4  UNL     1     -33.558   7.106   5.793  1.00 20.00     0.040 A 
HETATM    5  C5  UNL     1     -32.506   7.424   2.420  1.00 20.00     0.161 A 
HETATM    6  C6  UNL     1     -33.334   6.793   3.369  1.00 20.00     0.019 A 
HETATM    7  C7  UNL     1     -32.989   7.409   4.560  1.00 20.00     0.113 A 
HETATM    8  N8  UNL     1     -31.715   8.350   2.969  1.00 20.00    -0.140 NA
HETATM    9  O9  UNL     1     -32.023   8.338   4.324  1.00 20.00    -0.213 OA
ENDROOT
TORSDOF 0
ENDMDL
MODEL 2
REMARK VINA RESULT:      -6.0      0.974      1.933
REMARK  0 active torsions:
REMARK  status: ('A' for Active; 'I' for Inactive)
ROOT
HETATM    1  C1  UNL     1     -34.459   6.225   5.791  1.00 20.00     0.001 A 
HETATM    2  C2  UNL     1     -34.872   5.534   4.647  1.00 20.00     0.003 A 
HETATM    3  C3  UNL     1     -33.477   7.223   5.720  1.00 20.00     0.016 A 
HETATM    4  C4  UNL     1     -34.321   5.811   3.391  1.00 20.00     0.040 A 
HETATM    5  C5  UNL     1     -31.945   8.388   3.944  1.00 20.00     0.161 A 
HETATM    6  C6  UNL     1     -32.915   7.511   4.468  1.00 20.00     0.019 A 
HETATM    7  C7  UNL     1     -33.348   6.807   3.358  1.00 20.00     0.113 A 
HETATM    8  N8  UNL     1     -31.787   8.244   2.625  1.00 20.00    -0.140 NA
HETATM    9  O9  UNL     1     -32.677   7.241   2.257  1.00 20.00    -0.213 OA
ENDROOT
TORSDOF 0
ENDMDL
MODEL 3
REMARK VINA RESULT:      -5.3      2.467      3.635
REMARK  0 active torsions:
REMARK  status: ('A' for Active; 'I' for Inactive)
ROOT
HETATM    1  C1  UNL     1     -32.747   8.200   4.777  1.00 20.00     0.001 A 
HETATM    2  C2  UNL     1     -32.415   7.829   3.470  1.00 20.00     0.003 A 
HETATM    3  C3  UNL     1     -33.507   7.355   5.599  1.00 20.00     0.016 A 
HETATM    4  C4  UNL     1     -32.829   6.606   2.933  1.00 20.00     0.040 A 
HETATM    5  C5  UNL     1     -34.675   5.013   5.511  1.00 20.00     0.161 A 
HETATM    6  C6  UNL     1     -33.929   6.125   5.074  1.00 20.00     0.019 A 
HETATM    7  C7  UNL     1     -33.582   5.793   3.776  1.00 20.00     0.113 A 
HETATM    8  N8  UNL     1     -34.784   4.071   4.570  1.00 20.00    -0.140 NA
HETATM    9  O9  UNL     1     -34.091   4.568   3.472  1.00 20.00    -0.213 OA
ENDROOT
TORSDOF 0
ENDMDL
MODEL 4
REMARK VINA RESULT:      -5.2      2.340      3.212
REMARK  0 active torsions:
REMARK  status: ('A' for Active; 'I' for Inactive)
ROOT
HETATM    1  C1  UNL     1     -32.812   6.950   2.303  1.00 20.00     0.001 A 
HETATM    2  C2  UNL     1     -32.577   7.902   3.300  1.00 20.00     0.003 A 
HETATM    3  C3  UNL     1     -33.515   5.769   2.580  1.00 20.00     0.016 A 
HETATM    4  C4  UNL     1     -33.033   7.712   4.609  1.00 20.00     0.040 A 
HETATM    5  C5  UNL     1     -34.694   4.577   4.591  1.00 20.00     0.161 A 
HETATM    6  C6  UNL     1     -33.979   5.565   3.887  1.00 20.00     0.019 A 
HETATM    7  C7  UNL     1     -33.727   6.529   4.848  1.00 20.00     0.113 A 
HETATM    8  N8  UNL     1     -34.873   4.895   5.877  1.00 20.00    -0.140 NA
HETATM    9  O9  UNL     1     -34.259   6.132   6.036  1.00 20.00    -0.213 OA
ENDROOT
TORSDOF 0
ENDMDL
MODEL 5
REMARK VINA RESULT:      -4.7     11.520     12.541
REMARK  0 active torsions:
REMARK  status: ('A' for Active; 'I' for Inactive)
ROOT
HETATM    1  C1  UNL     1     -33.305  16.346  -4.934  1.00 20.00     0.001 A 
HETATM    2  C2  UNL     1     -33.957  15.856  -3.798  1.00 20.00     0.003 A 
HETATM    3  C3  UNL     1     -33.386  15.674  -6.162  1.00 20.00     0.016 A 
HETATM    4  C4  UNL     1     -34.712  14.680  -3.842  1.00 20.00     0.040 A 
HETATM    5  C5  UNL     1     -34.483  13.531  -7.191  1.00 20.00     0.161 A 
HETATM    6  C6  UNL     1     -34.140  14.493  -6.222  1.00 20.00     0.019 A 
HETATM    7  C7  UNL     1     -34.770  14.039  -5.077  1.00 20.00     0.113 A 
HETATM    8  N8  UNL     1     -35.259  12.562  -6.696  1.00 20.00    -0.140 NA
HETATM    9  O9  UNL     1     -35.439  12.887  -5.356  1.00 20.00    -0.213 OA
ENDROOT
TORSDOF 0
ENDMDL
MODEL 6
REMARK VINA RESULT:      -4.6      2.259      2.705
REMARK  0 active torsions:
REMARK  status: ('A' for Active; 'I' for Inactive)
ROOT
HETATM    1  C1  UNL     1     -33.814   7.508   5.735  1.00 20.00     0.001 A 
HETATM    2  C2  UNL     1     -34.482   6.399   6.264  1.00 20.00     0.003 A 
HETATM    3  C3  UNL     1     -33.225   7.462   4.464  1.00 20.00     0.016 A 
HETATM    4  C4  UNL     1     -34.587   5.203   5.546  1.00 20.00     0.040 A 
HETATM    5  C5  UNL     1     -32.902   5.786   2.478  1.00 20.00     0.161 A 
HETATM    6  C6  UNL     1     -33.322   6.269   3.732  1.00 20.00     0.019 A 
HETATM    7  C7  UNL     1     -33.990   5.192   4.288  1.00 20.00     0.113 A 
HETATM    8  N8  UNL     1     -33.275   4.520   2.269  1.00 20.00    -0.140 NA
HETATM    9  O9  UNL     1     -33.964   4.147   3.417  1.00 20.00    -0.213 OA
ENDROOT
TORSDOF 0
ENDMDL
MODEL 7
REMARK VINA RESULT:      -4.6      1.609      2.139
REMARK  0 active torsions:
REMARK  status: ('A' for Active; 'I' for Inactive)
ROOT
HETATM    1  C1  UNL     1     -34.630   6.124   6.204  1.00 20.00     0.001 A 
HETATM    2  C2  UNL     1     -33.933   7.320   6.005  1.00 20.00     0.003 A 
HETATM    3  C3  UNL     1     -34.646   5.124   5.222  1.00 20.00     0.016 A 
HETATM    4  C4  UNL     1     -33.227   7.564   4.822  1.00 20.00     0.040 A 
HETATM    5  C5  UNL     1     -33.695   4.669   2.825  1.00 20.00     0.161 A 
HETATM    6  C6  UNL     1     -33.944   5.353   4.030  1.00 20.00     0.019 A 
HETATM    7  C7  UNL     1     -33.266   6.549   3.869  1.00 20.00     0.113 A 
HETATM    8  N8  UNL     1     -32.930   5.374   1.987  1.00 20.00    -0.140 NA
HETATM    9  O9  UNL     1     -32.660   6.564   2.651  1.00 20.00    -0.213 OA
ENDROOT
TORSDOF 0
ENDMDL
MODEL 8
REMARK VINA RESULT:      -4.5      2.113      2.843
REMARK  0 active torsions:
REMARK  status: ('A' for Active; 'I' for Inactive)
ROOT
HETATM    1  C1  UNL     1     -33.230   4.932   2.549  1.00 20.00     0.001 A 
HETATM    2  C2  UNL     1     -33.950   4.039   3.350  1.00 20.00     0.003 A 
HETATM    3  C3  UNL     1     -32.949   6.234   2.988  1.00 20.00     0.016 A 
HETATM    4  C4  UNL     1     -34.418   4.411   4.614  1.00 20.00     0.040 A 
HETATM    5  C5  UNL     1     -33.370   7.771   5.066  1.00 20.00     0.161 A 
HETATM    6  C6  UNL     1     -33.411   6.621   4.254  1.00 20.00     0.019 A 
HETATM    7  C7  UNL     1     -34.122   5.710   5.017  1.00 20.00     0.113 A 
HETATM    8  N8  UNL     1     -33.998   7.594   6.232  1.00 20.00    -0.140 NA
HETATM    9  O9  UNL     1     -34.473   6.289   6.198  1.00 20.00    -0.213 OA
ENDROOT
TORSDOF 0
ENDMDL
MODEL 9
REMARK VINA RESULT:      -4.5     11.879     12.055
REMARK  0 active torsions:
REMARK  status: ('A' for Active; 'I' for Inactive)
ROOT
HETATM    1  C1  UNL     1     -35.015  16.399  -3.037  1.00 20.00     0.001 A 
HETATM    2  C2  UNL     1     -33.672  16.233  -3.391  1.00 20.00     0.003 A 
HETATM    3  C3  UNL     1     -36.016  15.586  -3.588  1.00 20.00     0.016 A 
HETATM    4  C4  UNL     1     -33.277  15.252  -4.307  1.00 20.00     0.040 A 
HETATM    5  C5  UNL     1     -36.264  13.603  -5.280  1.00 20.00     0.161 A 
HETATM    6  C6  UNL     1     -35.635  14.599  -4.508  1.00 20.00     0.019 A 
HETATM    7  C7  UNL     1     -34.297  14.464  -4.835  1.00 20.00     0.113 A 
HETATM    8  N8  UNL     1     -35.397  12.909  -6.022  1.00 20.00    -0.140 NA
HETATM    9  O9  UNL     1     -34.152  13.457  -5.738  1.00 20.00    -0.213 OA
ENDROOT
TORSDOF 0
ENDMDL
