MODEL 1
REMARK VINA RESULT:      -6.4      0.000      0.000
REMARK  4 active torsions:
REMARK  status: ('A' for Active; 'I' for Inactive)
REMARK    1  A    between atoms: C6_6  and  C7_7 
REMARK    2  A    between atoms: C7_7  and  C8_8 
REMARK    3  A    between atoms: C8_8  and  C9_9 
REMARK    4  A    between atoms: C9_9  and  O10_10 
ROOT
HETATM    1  C1  UNL     1     -34.514   5.653   5.556  1.00 20.00     0.000 C 
HETATM    2  C2  UNL     1     -34.957   5.497   4.105  1.00 20.00     0.000 C 
HETATM    3  C3  UNL     1     -34.040   7.073   5.849  1.00 20.00     0.000 C 
HETATM    4  C4  UNL     1     -33.863   5.933   3.132  1.00 20.00     0.004 C 
HETATM    5  C5  UNL     1     -32.946   7.513   4.879  1.00 20.00     0.004 C 
HETATM    6  C6  UNL     1     -33.390   7.365   3.418  1.00 20.00    -0.014 C 
ENDROOT
BRANCH   6   7
HETATM    7  C7  UNL     1     -32.261   7.760   2.468  1.00 20.00     0.007 C 
BRANCH   7   8
HETATM    8  C8  UNL     1     -32.524   9.120   1.833  1.00 20.00     0.026 C 
BRANCH   8   9
HETATM    9  C9  UNL     1     -32.064   9.155   0.382  1.00 20.00     0.164 C 
BRANCH   9  10
HETATM   10  O10 UNL     1     -33.146   9.588  -0.431  1.00 20.00    -0.401 OA
HETATM   11  H28 UNL     1     -33.857   9.861   0.171  1.00 20.00     0.209 HD
ENDBRANCH   9  10
ENDBRANCH   8   9
ENDBRANCH   7   8
ENDBRANCH   6   7
TORSDOF 4
ENDMDL
MODEL 2
REMARK VINA RESULT:      -6.0      0.799      1.762
REMARK  4 active torsions:
REMARK  status: ('A' for Active; 'I' for Inactive)
REMARK    1  A    between atoms: C6_6  and  C7_7 
REMARK    2  A    between atoms: C7_7  and  C8_8 
REMARK    3  A    between atoms: C8_8  and  C9_9 
REMARK    4  A    between atoms: C9_9  and  O10_10 
ROOT
HETATM    1  C1  UNL     1     -34.906   5.694   4.541  1.00 20.00     0.000 C 
HETATM    2  C2  UNL     1     -34.094   6.460   5.581  1.00 20.00     0.000 C 
HETATM    3  C3  UNL     1     -34.046   5.279   3.351  1.00 20.00     0.000 C 
HETATM    4  C4  UNL     1     -33.377   7.659   4.964  1.00 20.00     0.004 C 
HETATM    5  C5  UNL     1     -33.329   6.476   2.731  1.00 20.00     0.004 C 
HETATM    6  C6  UNL     1     -32.504   7.244   3.772  1.00 20.00    -0.014 C 
ENDROOT
BRANCH   6   7
HETATM    7  C7  UNL     1     -31.839   8.466   3.139  1.00 20.00     0.007 C 
BRANCH   7   8
HETATM    8  C8  UNL     1     -32.046   8.488   1.630  1.00 20.00     0.026 C 
BRANCH   8   9
HETATM    9  C9  UNL     1     -32.572   9.837   1.162  1.00 20.00     0.164 C 
BRANCH   9  10
HETATM   10  O10 UNL     1     -33.088   9.697  -0.155  1.00 20.00    -0.401 OA
HETATM   11  H28 UNL     1     -32.836  10.498  -0.641  1.00 20.00     0.209 HD
ENDBRANCH   9  10
ENDBRANCH   8   9
ENDBRANCH   7   8
ENDBRANCH   6   7
TORSDOF 4
ENDMDL
MODEL 3
REMARK VINA RESULT:      -4.9      2.042      2.676
REMARK  4 active torsions:
REMARK  status: ('A' for Active; 'I' for Inactive)
REMARK    1  A    between atoms: C6_6  and  C7_7 
REMARK    2  A    between atoms: C7_7  and  C8_8 
REMARK    3  A    between atoms: C8_8  and  C9_9 
REMARK    4  A    between atoms: C9_9  and  O10_10 
ROOT
HETATM    1  C1  UNL     1     -34.850   4.878   5.536  1.00 20.00     0.000 C 
HETATM    2  C2  UNL     1     -34.280   6.257   5.854  1.00 20.00     0.000 C 
HETATM    3  C3  UNL     1     -34.041   4.172   4.453  1.00 20.00     0.000 C 
HETATM    4  C4  UNL     1     -34.154   7.118   4.598  1.00 20.00     0.004 C 
HETATM    5  C5  UNL     1     -33.914   5.028   3.196  1.00 20.00     0.004 C 
HETATM    6  C6  UNL     1     -33.333   6.414   3.509  1.00 20.00    -0.014 C 
ENDROOT
BRANCH   6   7
HETATM    7  C7  UNL     1     -33.266   7.270   2.246  1.00 20.00     0.007 C 
BRANCH   7   8
HETATM    8  C8  UNL     1     -32.310   8.443   2.424  1.00 20.00     0.026 C 
BRANCH   8   9
HETATM    9  C9  UNL     1     -31.150   8.080   3.340  1.00 20.00     0.164 C 
BRANCH   9  10
HETATM   10  O10 UNL     1     -31.290   8.790   4.563  1.00 20.00    -0.401 OA
HETATM   11  H28 UNL     1     -32.116   9.297   4.498  1.00 20.00     0.209 HD
ENDBRANCH   9  10
ENDBRANCH   8   9
ENDBRANCH   7   8
ENDBRANCH   6   7
TORSDOF 4
ENDMDL
MODEL 4
REMARK VINA RESULT:      -4.8     10.426     11.162
REMARK  4 active torsions:
REMARK  status: ('A' for Active; 'I' for Inactive)
REMARK    1  A    between atoms: C6_6  and  C7_7 
REMARK    2  A    between atoms: C7_7  and  C8_8 
REMARK    3  A    between atoms: C8_8  and  C9_9 
REMARK    4  A    between atoms: C9_9  and  O10_10 
ROOT
HETATM    1  C1  UNL     1     -34.356  18.397  -0.419  1.00 20.00     0.000 C 
HETATM    2  C2  UNL     1     -33.040  18.050  -1.107  1.00 20.00     0.000 C 
HETATM    3  C3  UNL     1     -35.343  17.235  -0.476  1.00 20.00     0.000 C 
HETATM    4  C4  UNL     1     -33.261  17.574  -2.541  1.00 20.00     0.004 C 
HETATM    5  C5  UNL     1     -35.569  16.757  -1.908  1.00 20.00     0.004 C 
HETATM    6  C6  UNL     1     -34.247  16.398  -2.601  1.00 20.00    -0.014 C 
ENDROOT
BRANCH   6   7
HETATM    7  C7  UNL     1     -34.493  15.974  -4.047  1.00 20.00     0.007 C 
BRANCH   7   8
HETATM    8  C8  UNL     1     -34.627  14.461  -4.164  1.00 20.00     0.026 C 
BRANCH   8   9
HETATM    9  C9  UNL     1     -35.866  14.072  -4.957  1.00 20.00     0.164 C 
BRANCH   9  10
HETATM   10  O10 UNL     1     -35.940  12.655  -5.028  1.00 20.00    -0.401 OA
HETATM   11  H28 UNL     1     -36.531  12.442  -5.768  1.00 20.00     0.209 HD
ENDBRANCH   9  10
ENDBRANCH   8   9
ENDBRANCH   7   8
ENDBRANCH   6   7
TORSDOF 4
ENDMDL
MODEL 5
REMARK VINA RESULT:      -4.7      2.617      4.739
REMARK  4 active torsions:
REMARK  status: ('A' for Active; 'I' for Inactive)
REMARK    1  A    between atoms: C6_6  and  C7_7 
REMARK    2  A    between atoms: C7_7  and  C8_8 
REMARK    3  A    between atoms: C8_8  and  C9_9 
REMARK    4  A    between atoms: C9_9  and  O10_10 
ROOT
HETATM    1  C1  UNL     1     -31.397   8.194   3.558  1.00 20.00     0.000 C 
HETATM    2  C2  UNL     1     -32.262   8.543   4.765  1.00 20.00     0.000 C 
HETATM    3  C3  UNL     1     -32.246   7.861   2.335  1.00 20.00     0.000 C 
HETATM    4  C4  UNL     1     -33.275   7.441   5.069  1.00 20.00     0.004 C 
HETATM    5  C5  UNL     1     -33.259   6.759   2.635  1.00 20.00     0.004 C 
HETATM    6  C6  UNL     1     -34.137   7.110   3.843  1.00 20.00    -0.014 C 
ENDROOT
BRANCH   6   7
HETATM    7  C7  UNL     1     -35.105   5.971   4.157  1.00 20.00     0.007 C 
BRANCH   7   8
HETATM    8  C8  UNL     1     -34.778   5.320   5.495  1.00 20.00     0.026 C 
BRANCH   8   9
HETATM    9  C9  UNL     1     -34.000   4.025   5.308  1.00 20.00     0.164 C 
BRANCH   9  10
HETATM   10  O10 UNL     1     -34.204   3.555   3.983  1.00 20.00    -0.401 OA
HETATM   11  H28 UNL     1     -33.934   2.622   3.972  1.00 20.00     0.209 HD
ENDBRANCH   9  10
ENDBRANCH   8   9
ENDBRANCH   7   8
ENDBRANCH   6   7
TORSDOF 4
ENDMDL
MODEL 6
REMARK VINA RESULT:      -4.6      2.653      4.663
REMARK  4 active torsions:
REMARK  status: ('A' for Active; 'I' for Inactive)
REMARK    1  A    between atoms: C6_6  and  C7_7 
REMARK    2  A    between atoms: C7_7  and  C8_8 
REMARK    3  A    between atoms: C8_8  and  C9_9 
REMARK    4  A    between atoms: C9_9  and  O10_10 
ROOT
HETATM    1  C1  UNL     1     -31.628   9.161   2.459  1.00 20.00     0.000 C 
HETATM    2  C2  UNL     1     -32.110   8.316   1.284  1.00 20.00     0.000 C 
HETATM    3  C3  UNL     1     -31.424   8.317   3.713  1.00 20.00     0.000 C 
HETATM    4  C4  UNL     1     -33.368   7.525   1.637  1.00 20.00     0.004 C 
HETATM    5  C5  UNL     1     -32.680   7.526   4.070  1.00 20.00     0.004 C 
HETATM    6  C6  UNL     1     -33.164   6.667   2.894  1.00 20.00    -0.014 C 
ENDROOT
BRANCH   6   7
HETATM    7  C7  UNL     1     -34.450   5.928   3.257  1.00 20.00     0.007 C 
BRANCH   7   8
HETATM    8  C8  UNL     1     -34.715   5.985   4.756  1.00 20.00     0.026 C 
BRANCH   8   9
HETATM    9  C9  UNL     1     -34.556   4.615   5.401  1.00 20.00     0.164 C 
BRANCH   9  10
HETATM   10  O10 UNL     1     -34.317   3.653   4.383  1.00 20.00    -0.401 OA
HETATM   11  H28 UNL     1     -33.793   2.942   4.786  1.00 20.00     0.209 HD
ENDBRANCH   9  10
ENDBRANCH   8   9
ENDBRANCH   7   8
ENDBRANCH   6   7
TORSDOF 4
ENDMDL
MODEL 7
REMARK VINA RESULT:      -4.5     10.429     11.129
REMARK  4 active torsions:
REMARK  status: ('A' for Active; 'I' for Inactive)
REMARK    1  A    between atoms: C6_6  and  C7_7 
REMARK    2  A    between atoms: C7_7  and  C8_8 
REMARK    3  A    between atoms: C8_8  and  C9_9 
REMARK    4  A    between atoms: C9_9  and  O10_10 
ROOT
HETATM    1  C1  UNL     1     -33.925  18.712  -0.039  1.00 20.00     0.000 C 
HETATM    2  C2  UNL     1     -32.778  18.255  -0.935  1.00 20.00     0.000 C 
HETATM    3  C3  UNL     1     -34.987  17.627   0.111  1.00 20.00     0.000 C 
HETATM    4  C4  UNL     1     -33.281  17.773  -2.293  1.00 20.00     0.004 C 
HETATM    5  C5  UNL     1     -35.494  17.143  -1.245  1.00 20.00     0.004 C 
HETATM    6  C6  UNL     1     -34.343  16.674  -2.146  1.00 20.00    -0.014 C 
ENDROOT
BRANCH   6   7
HETATM    7  C7  UNL     1     -34.869  16.245  -3.514  1.00 20.00     0.007 C 
BRANCH   7   8
HETATM    8  C8  UNL     1     -34.417  14.833  -3.862  1.00 20.00     0.026 C 
BRANCH   8   9
HETATM    9  C9  UNL     1     -33.072  14.840  -4.576  1.00 20.00     0.164 C 
BRANCH   9  10
HETATM   10  O10 UNL     1     -32.432  13.590  -4.362  1.00 20.00    -0.401 OA
HETATM   11  H28 UNL     1     -31.476  13.752  -4.415  1.00 20.00     0.209 HD
ENDBRANCH   9  10
ENDBRANCH   8   9
ENDBRANCH   7   8
ENDBRANCH   6   7
TORSDOF 4
ENDMDL
MODEL 8
REMARK VINA RESULT:      -4.4     10.576     11.114
REMARK  4 active torsions:
REMARK  status: ('A' for Active; 'I' for Inactive)
REMARK    1  A    between atoms: C6_6  and  C7_7 
REMARK    2  A    between atoms: C7_7  and  C8_8 
REMARK    3  A    between atoms: C8_8  and  C9_9 
REMARK    4  A    between atoms: C9_9  and  O10_10 
ROOT
HETATM    1  C1  UNL     1     -33.709  18.431   0.364  1.00 20.00     0.000 C 
HETATM    2  C2  UNL     1     -35.182  18.202   0.040  1.00 20.00     0.000 C 
HETATM    3  C3  UNL     1     -32.873  18.588  -0.902  1.00 20.00     0.000 C 
HETATM    4  C4  UNL     1     -35.373  17.019  -0.908  1.00 20.00     0.004 C 
HETATM    5  C5  UNL     1     -33.061  17.408  -1.852  1.00 20.00     0.004 C 
HETATM    6  C6  UNL     1     -34.541  17.179  -2.187  1.00 20.00    -0.014 C 
ENDROOT
BRANCH   6   7
HETATM    7  C7  UNL     1     -34.707  15.962  -3.095  1.00 20.00     0.007 C 
BRANCH   7   8
HETATM    8  C8  UNL     1     -33.499  15.783  -4.005  1.00 20.00     0.026 C 
BRANCH   8   9
HETATM    9  C9  UNL     1     -33.567  14.466  -4.765  1.00 20.00     0.164 C 
BRANCH   9  10
HETATM   10  O10 UNL     1     -32.478  13.647  -4.363  1.00 20.00    -0.401 OA
HETATM   11  H28 UNL     1     -31.827  14.233  -3.943  1.00 20.00     0.209 HD
ENDBRANCH   9  10
ENDBRANCH   8   9
ENDBRANCH   7   8
ENDBRANCH   6   7
TORSDOF 4
ENDMDL
MODEL 9
REMARK VINA RESULT:      -4.2     10.718     11.267
REMARK  4 active torsions:
REMARK  status: ('A' for Active; 'I' for Inactive)
REMARK    1  A    between atoms: C6_6  and  C7_7 
REMARK    2  A    between atoms: C7_7  and  C8_8 
REMARK    3  A    between atoms: C8_8  and  C9_9 
REMARK    4  A    between atoms: C9_9  and  O10_10 
ROOT
HETATM    1  C1  UNL     1     -33.924  18.012  -0.669  1.00 20.00     0.000 C 
HETATM    2  C2  UNL     1     -35.397  17.787  -0.996  1.00 20.00     0.000 C 
HETATM    3  C3  UNL     1     -33.064  18.024  -1.929  1.00 20.00     0.000 C 
HETATM    4  C4  UNL     1     -35.602  16.521  -1.826  1.00 20.00     0.004 C 
HETATM    5  C5  UNL     1     -33.266  16.759  -2.761  1.00 20.00     0.004 C 
HETATM    6  C6  UNL     1     -34.745  16.533  -3.099  1.00 20.00    -0.014 C 
ENDROOT
BRANCH   6   7
HETATM    7  C7  UNL     1     -34.927  15.236  -3.885  1.00 20.00     0.007 C 
BRANCH   7   8
HETATM    8  C8  UNL     1     -36.369  15.068  -4.348  1.00 20.00     0.026 C 
BRANCH   8   9
HETATM    9  C9  UNL     1     -36.485  14.006  -5.431  1.00 20.00     0.164 C 
BRANCH   9  10
HETATM   10  O10 UNL     1     -35.980  12.778  -4.925  1.00 20.00    -0.401 OA
HETATM   11  H28 UNL     1     -35.014  12.871  -4.877  1.00 20.00     0.209 HD
ENDBRANCH   9  10
ENDBRANCH   8   9
ENDBRANCH   7   8
ENDBRANCH   6   7
TORSDOF 4
ENDMDL
