MODEL 1
REMARK VINA RESULT:      -6.4      0.000      0.000
REMARK  0 active torsions:
REMARK  status: ('A' for Active; 'I' for Inactive)
ROOT
HETATM    1  C1  UNL     1     -34.944   5.359   4.456  1.00 20.00     0.001 A 
HETATM    2  C2  UNL     1     -34.685   5.941   5.695  1.00 20.00     0.002 A 
HETATM    3  C3  UNL     1     -34.247   5.767   3.314  1.00 20.00     0.014 A 
HETATM    4  C4  UNL     1     -33.723   6.946   5.833  1.00 20.00     0.030 A 
HETATM    5  C5  UNL     1     -32.398   7.421   2.507  1.00 20.00     0.030 A 
HETATM    6  C6  UNL     1     -31.659   8.347   3.207  1.00 20.00     0.089 A 
HETATM    7  C7  UNL     1     -33.272   6.778   3.428  1.00 20.00    -0.008 A 
HETATM    8  C8  UNL     1     -33.034   7.343   4.682  1.00 20.00     0.042 A 
HETATM    9  N9  UNL     1     -32.050   8.293   4.518  1.00 20.00    -0.365 N 
HETATM   10  H16 UNL     1     -31.671   8.866   5.260  1.00 20.00     0.165 HD
ENDROOT
TORSDOF 0
ENDMDL
MODEL 2
REMARK VINA RESULT:      -6.2      0.970      1.952
REMARK  0 active torsions:
REMARK  status: ('A' for Active; 'I' for Inactive)
ROOT
HETATM    1  C1  UNL     1     -34.463   6.202   5.822  1.00 20.00     0.001 A 
HETATM    2  C2  UNL     1     -34.904   5.521   4.690  1.00 20.00     0.002 A 
HETATM    3  C3  UNL     1     -33.480   7.192   5.725  1.00 20.00     0.014 A 
HETATM    4  C4  UNL     1     -34.379   5.806   3.426  1.00 20.00     0.030 A 
HETATM    5  C5  UNL     1     -31.950   8.416   4.002  1.00 20.00     0.030 A 
HETATM    6  C6  UNL     1     -31.834   8.261   2.640  1.00 20.00     0.089 A 
HETATM    7  C7  UNL     1     -32.935   7.498   4.462  1.00 20.00    -0.008 A 
HETATM    8  C8  UNL     1     -33.396   6.799   3.344  1.00 20.00     0.042 A 
HETATM    9  N9  UNL     1     -32.711   7.284   2.253  1.00 20.00    -0.365 N 
HETATM   10  H16 UNL     1     -32.837   6.963   1.302  1.00 20.00     0.165 HD
ENDROOT
TORSDOF 0
ENDMDL
MODEL 3
REMARK VINA RESULT:      -5.4      1.146      3.099
REMARK  0 active torsions:
REMARK  status: ('A' for Active; 'I' for Inactive)
ROOT
HETATM    1  C1  UNL     1     -32.656   7.084   2.100  1.00 20.00     0.001 A 
HETATM    2  C2  UNL     1     -32.110   8.022   2.974  1.00 20.00     0.002 A 
HETATM    3  C3  UNL     1     -33.581   6.137   2.552  1.00 20.00     0.014 A 
HETATM    4  C4  UNL     1     -32.470   8.042   4.326  1.00 20.00     0.030 A 
HETATM    5  C5  UNL     1     -34.845   5.347   4.692  1.00 20.00     0.030 A 
HETATM    6  C6  UNL     1     -34.804   5.823   5.983  1.00 20.00     0.089 A 
HETATM    7  C7  UNL     1     -33.959   6.139   3.909  1.00 20.00    -0.008 A 
HETATM    8  C8  UNL     1     -33.396   7.089   4.763  1.00 20.00     0.042 A 
HETATM    9  N9  UNL     1     -33.927   6.874   6.015  1.00 20.00    -0.365 N 
HETATM   10  H16 UNL     1     -33.701   7.415   6.839  1.00 20.00     0.165 HD
ENDROOT
TORSDOF 0
ENDMDL
MODEL 4
REMARK VINA RESULT:      -5.3      1.432      3.629
REMARK  0 active torsions:
REMARK  status: ('A' for Active; 'I' for Inactive)
ROOT
HETATM    1  C1  UNL     1     -31.906   8.242   3.091  1.00 20.00     0.001 A 
HETATM    2  C2  UNL     1     -32.430   7.387   2.124  1.00 20.00     0.002 A 
HETATM    3  C3  UNL     1     -32.329   8.163   4.423  1.00 20.00     0.014 A 
HETATM    4  C4  UNL     1     -33.393   6.428   2.455  1.00 20.00     0.030 A 
HETATM    5  C5  UNL     1     -33.941   6.851   5.999  1.00 20.00     0.030 A 
HETATM    6  C6  UNL     1     -34.811   5.820   5.731  1.00 20.00     0.089 A 
HETATM    7  C7  UNL     1     -33.297   7.204   4.780  1.00 20.00    -0.008 A 
HETATM    8  C8  UNL     1     -33.806   6.361   3.790  1.00 20.00     0.042 A 
HETATM    9  N9  UNL     1     -34.723   5.531   4.396  1.00 20.00    -0.365 N 
HETATM   10  H16 UNL     1     -35.253   4.813   3.922  1.00 20.00     0.165 HD
ENDROOT
TORSDOF 0
ENDMDL
MODEL 5
REMARK VINA RESULT:      -4.6      1.028      2.919
REMARK  0 active torsions:
REMARK  status: ('A' for Active; 'I' for Inactive)
ROOT
HETATM    1  C1  UNL     1     -33.276   5.844   2.123  1.00 20.00     0.001 A 
HETATM    2  C2  UNL     1     -32.500   6.995   2.232  1.00 20.00     0.002 A 
HETATM    3  C3  UNL     1     -34.012   5.369   3.214  1.00 20.00     0.014 A 
HETATM    4  C4  UNL     1     -32.433   7.708   3.434  1.00 20.00     0.030 A 
HETATM    5  C5  UNL     1     -34.560   5.884   5.712  1.00 20.00     0.030 A 
HETATM    6  C6  UNL     1     -34.134   6.905   6.529  1.00 20.00     0.089 A 
HETATM    7  C7  UNL     1     -33.961   6.071   4.435  1.00 20.00    -0.008 A 
HETATM    8  C8  UNL     1     -33.174   7.221   4.517  1.00 20.00     0.042 A 
HETATM    9  N9  UNL     1     -33.298   7.707   5.799  1.00 20.00    -0.365 N 
HETATM   10  H16 UNL     1     -32.838   8.537   6.149  1.00 20.00     0.165 HD
ENDROOT
TORSDOF 0
ENDMDL
MODEL 6
REMARK VINA RESULT:      -4.5      1.871      2.661
REMARK  0 active torsions:
REMARK  status: ('A' for Active; 'I' for Inactive)
ROOT
HETATM    1  C1  UNL     1     -33.777   7.580   5.811  1.00 20.00     0.001 A 
HETATM    2  C2  UNL     1     -34.468   6.476   6.308  1.00 20.00     0.002 A 
HETATM    3  C3  UNL     1     -33.175   7.539   4.549  1.00 20.00     0.014 A 
HETATM    4  C4  UNL     1     -34.578   5.299   5.562  1.00 20.00     0.030 A 
HETATM    5  C5  UNL     1     -32.798   5.977   2.494  1.00 20.00     0.030 A 
HETATM    6  C6  UNL     1     -33.209   4.684   2.265  1.00 20.00     0.089 A 
HETATM    7  C7  UNL     1     -33.272   6.363   3.779  1.00 20.00    -0.008 A 
HETATM    8  C8  UNL     1     -33.970   5.273   4.301  1.00 20.00     0.042 A 
HETATM    9  N9  UNL     1     -33.915   4.268   3.362  1.00 20.00    -0.365 N 
HETATM   10  H16 UNL     1     -34.337   3.355   3.467  1.00 20.00     0.165 HD
ENDROOT
TORSDOF 0
ENDMDL
MODEL 7
REMARK VINA RESULT:      -4.3      1.615      3.231
REMARK  0 active torsions:
REMARK  status: ('A' for Active; 'I' for Inactive)
ROOT
HETATM    1  C1  UNL     1     -33.689   7.648   5.963  1.00 20.00     0.001 A 
HETATM    2  C2  UNL     1     -32.949   8.130   4.886  1.00 20.00     0.002 A 
HETATM    3  C3  UNL     1     -34.243   6.364   5.933  1.00 20.00     0.014 A 
HETATM    4  C4  UNL     1     -32.739   7.347   3.746  1.00 20.00     0.030 A 
HETATM    5  C5  UNL     1     -34.450   4.241   4.431  1.00 20.00     0.030 A 
HETATM    6  C6  UNL     1     -33.951   3.982   3.175  1.00 20.00     0.089 A 
HETATM    7  C7  UNL     1     -34.045   5.556   4.796  1.00 20.00    -0.008 A 
HETATM    8  C8  UNL     1     -33.300   6.065   3.731  1.00 20.00     0.042 A 
HETATM    9  N9  UNL     1     -33.258   5.088   2.762  1.00 20.00    -0.365 N 
HETATM   10  H16 UNL     1     -32.784   5.176   1.873  1.00 20.00     0.165 HD
ENDROOT
TORSDOF 0
ENDMDL
MODEL 8
REMARK VINA RESULT:      -4.3     11.779     12.097
REMARK  0 active torsions:
REMARK  status: ('A' for Active; 'I' for Inactive)
ROOT
HETATM    1  C1  UNL     1     -33.293  18.473   0.070  1.00 20.00     0.001 A 
HETATM    2  C2  UNL     1     -34.586  18.266   0.545  1.00 20.00     0.002 A 
HETATM    3  C3  UNL     1     -32.886  17.937  -1.157  1.00 20.00     0.014 A 
HETATM    4  C4  UNL     1     -35.513  17.518  -0.188  1.00 20.00     0.030 A 
HETATM    5  C5  UNL     1     -33.736  16.505  -3.165  1.00 20.00     0.030 A 
HETATM    6  C6  UNL     1     -34.964  15.927  -3.396  1.00 20.00     0.089 A 
HETATM    7  C7  UNL     1     -33.802  17.180  -1.914  1.00 20.00    -0.008 A 
HETATM    8  C8  UNL     1     -35.091  16.988  -1.413  1.00 20.00     0.042 A 
HETATM    9  N9  UNL     1     -35.774  16.224  -2.333  1.00 20.00    -0.365 N 
HETATM   10  H16 UNL     1     -36.736  15.927  -2.237  1.00 20.00     0.165 HD
ENDROOT
TORSDOF 0
ENDMDL
MODEL 9
REMARK VINA RESULT:      -4.3     12.068     12.420
REMARK  0 active torsions:
REMARK  status: ('A' for Active; 'I' for Inactive)
ROOT
HETATM    1  C1  UNL     1     -35.010  16.029  -3.241  1.00 20.00     0.001 A 
HETATM    2  C2  UNL     1     -33.647  15.929  -3.511  1.00 20.00     0.002 A 
HETATM    3  C3  UNL     1     -35.947  15.341  -4.019  1.00 20.00     0.014 A 
HETATM    4  C4  UNL     1     -33.177  15.141  -4.566  1.00 20.00     0.030 A 
HETATM    5  C5  UNL     1     -36.146  13.726  -6.058  1.00 20.00     0.030 A 
HETATM    6  C6  UNL     1     -35.174  13.176  -6.862  1.00 20.00     0.089 A 
HETATM    7  C7  UNL     1     -35.497  14.540  -5.088  1.00 20.00    -0.008 A 
HETATM    8  C8  UNL     1     -34.126  14.459  -5.336  1.00 20.00     0.042 A 
HETATM    9  N9  UNL     1     -33.958  13.624  -6.418  1.00 20.00    -0.365 N 
HETATM   10  H16 UNL     1     -33.066  13.378  -6.825  1.00 20.00     0.165 HD
ENDROOT
TORSDOF 0
ENDMDL
