MODEL 1
REMARK VINA RESULT:      -5.8      0.000      0.000
REMARK  0 active torsions:
REMARK  status: ('A' for Active; 'I' for Inactive)
ROOT
HETATM    1  C1  UNL     1     -34.620   5.470   5.563  1.00 20.00     0.000 A 
HETATM    2  C2  UNL     1     -34.030   6.671   5.955  1.00 20.00     0.001 A 
HETATM    3  C3  UNL     1     -34.531   5.050   4.235  1.00 20.00     0.001 A 
HETATM    4  C4  UNL     1     -33.351   7.452   5.020  1.00 20.00     0.018 A 
HETATM    5  C5  UNL     1     -33.852   5.832   3.301  1.00 20.00     0.018 A 
HETATM    6  C6  UNL     1     -33.262   7.033   3.694  1.00 20.00     0.006 A 
HETATM    7  I7  UNL     1     -32.251   8.196   2.301  1.00 20.00    -0.045 I 
ENDROOT
TORSDOF 0
ENDMDL
MODEL 2
REMARK VINA RESULT:      -5.8      0.003      1.826
REMARK  0 active torsions:
REMARK  status: ('A' for Active; 'I' for Inactive)
ROOT
HETATM    1  C1  UNL     1     -34.623   5.469   5.562  1.00 20.00     0.000 A 
HETATM    2  C2  UNL     1     -34.535   5.049   4.235  1.00 20.00     0.001 A 
HETATM    3  C3  UNL     1     -34.031   6.671   5.954  1.00 20.00     0.001 A 
HETATM    4  C4  UNL     1     -33.855   5.830   3.301  1.00 20.00     0.018 A 
HETATM    5  C5  UNL     1     -33.352   7.450   5.019  1.00 20.00     0.018 A 
HETATM    6  C6  UNL     1     -33.264   7.031   3.692  1.00 20.00     0.006 A 
HETATM    7  I7  UNL     1     -32.252   8.193   2.300  1.00 20.00    -0.045 I 
ENDROOT
TORSDOF 0
ENDMDL
MODEL 3
REMARK VINA RESULT:      -3.9      2.269      3.239
REMARK  0 active torsions:
REMARK  status: ('A' for Active; 'I' for Inactive)
ROOT
HETATM    1  C1  UNL     1     -31.879   8.424   2.781  1.00 20.00     0.000 A 
HETATM    2  C2  UNL     1     -32.048   8.434   4.165  1.00 20.00     0.001 A 
HETATM    3  C3  UNL     1     -32.533   7.466   2.005  1.00 20.00     0.001 A 
HETATM    4  C4  UNL     1     -32.871   7.487   4.774  1.00 20.00     0.018 A 
HETATM    5  C5  UNL     1     -33.356   6.519   2.615  1.00 20.00     0.018 A 
HETATM    6  C6  UNL     1     -33.525   6.530   3.999  1.00 20.00     0.006 A 
HETATM    7  I7  UNL     1     -34.751   5.119   4.906  1.00 20.00    -0.045 I 
ENDROOT
TORSDOF 0
ENDMDL
MODEL 4
REMARK VINA RESULT:      -3.9      2.268      3.693
REMARK  0 active torsions:
REMARK  status: ('A' for Active; 'I' for Inactive)
ROOT
HETATM    1  C1  UNL     1     -31.880   8.424   2.788  1.00 20.00     0.000 A 
HETATM    2  C2  UNL     1     -32.525   7.463   2.012  1.00 20.00     0.001 A 
HETATM    3  C3  UNL     1     -32.056   8.437   4.173  1.00 20.00     0.001 A 
HETATM    4  C4  UNL     1     -33.348   6.514   2.619  1.00 20.00     0.018 A 
HETATM    5  C5  UNL     1     -32.879   7.488   4.778  1.00 20.00     0.018 A 
HETATM    6  C6  UNL     1     -33.525   6.526   4.002  1.00 20.00     0.006 A 
HETATM    7  I7  UNL     1     -34.750   5.114   4.906  1.00 20.00    -0.045 I 
ENDROOT
TORSDOF 0
ENDMDL
MODEL 5
REMARK VINA RESULT:      -3.7     12.006     12.443
REMARK  0 active torsions:
REMARK  status: ('A' for Active; 'I' for Inactive)
ROOT
HETATM    1  C1  UNL     1     -34.062  18.401   0.379  1.00 20.00     0.000 A 
HETATM    2  C2  UNL     1     -35.223  17.690   0.077  1.00 20.00     0.001 A 
HETATM    3  C3  UNL     1     -32.984  18.387  -0.508  1.00 20.00     0.001 A 
HETATM    4  C4  UNL     1     -35.306  16.964  -1.111  1.00 20.00     0.018 A 
HETATM    5  C5  UNL     1     -33.069  17.661  -1.695  1.00 20.00     0.018 A 
HETATM    6  C6  UNL     1     -34.230  16.950  -1.998  1.00 20.00     0.006 A 
HETATM    7  I7  UNL     1     -34.355  15.869  -3.767  1.00 20.00    -0.045 I 
ENDROOT
TORSDOF 0
ENDMDL
MODEL 6
REMARK VINA RESULT:      -3.7     12.002     12.410
REMARK  0 active torsions:
REMARK  status: ('A' for Active; 'I' for Inactive)
ROOT
HETATM    1  C1  UNL     1     -34.077  18.391   0.372  1.00 20.00     0.000 A 
HETATM    2  C2  UNL     1     -32.992  18.387  -0.503  1.00 20.00     0.001 A 
HETATM    3  C3  UNL     1     -35.230  17.670   0.057  1.00 20.00     0.001 A 
HETATM    4  C4  UNL     1     -33.058  17.665  -1.694  1.00 20.00     0.018 A 
HETATM    5  C5  UNL     1     -35.295  16.948  -1.134  1.00 20.00     0.018 A 
HETATM    6  C6  UNL     1     -34.210  16.944  -2.010  1.00 20.00     0.006 A 
HETATM    7  I7  UNL     1     -34.309  15.868  -3.783  1.00 20.00    -0.045 I 
ENDROOT
TORSDOF 0
ENDMDL
MODEL 7
REMARK VINA RESULT:      -3.6     12.164     12.557
REMARK  0 active torsions:
REMARK  status: ('A' for Active; 'I' for Inactive)
ROOT
HETATM    1  C1  UNL     1     -34.981  16.754  -2.139  1.00 20.00     0.000 A 
HETATM    2  C2  UNL     1     -35.516  17.072  -0.890  1.00 20.00     0.001 A 
HETATM    3  C3  UNL     1     -33.685  17.155  -2.465  1.00 20.00     0.001 A 
HETATM    4  C4  UNL     1     -34.755  17.792   0.031  1.00 20.00     0.018 A 
HETATM    5  C5  UNL     1     -32.925  17.874  -1.542  1.00 20.00     0.018 A 
HETATM    6  C6  UNL     1     -33.459  18.192  -0.294  1.00 20.00     0.006 A 
HETATM    7  I7  UNL     1     -32.326  19.263   1.078  1.00 20.00    -0.045 I 
ENDROOT
TORSDOF 0
ENDMDL
MODEL 8
REMARK VINA RESULT:      -3.5     12.161     12.650
REMARK  0 active torsions:
REMARK  status: ('A' for Active; 'I' for Inactive)
ROOT
HETATM    1  C1  UNL     1     -33.387  17.052  -2.382  1.00 20.00     0.000 A 
HETATM    2  C2  UNL     1     -34.693  16.576  -2.268  1.00 20.00     0.001 A 
HETATM    3  C3  UNL     1     -32.869  17.908  -1.408  1.00 20.00     0.001 A 
HETATM    4  C4  UNL     1     -35.481  16.955  -1.181  1.00 20.00     0.018 A 
HETATM    5  C5  UNL     1     -33.658  18.286  -0.322  1.00 20.00     0.018 A 
HETATM    6  C6  UNL     1     -34.963  17.809  -0.208  1.00 20.00     0.006 A 
HETATM    7  I7  UNL     1     -36.137  18.374   1.410  1.00 20.00    -0.045 I 
ENDROOT
TORSDOF 0
ENDMDL
MODEL 9
REMARK VINA RESULT:      -3.5     12.201     12.581
REMARK  0 active torsions:
REMARK  status: ('A' for Active; 'I' for Inactive)
ROOT
HETATM    1  C1  UNL     1     -34.556  16.724  -2.376  1.00 20.00     0.000 A 
HETATM    2  C2  UNL     1     -33.293  17.300  -2.242  1.00 20.00     0.001 A 
HETATM    3  C3  UNL     1     -35.503  16.876  -1.362  1.00 20.00     0.001 A 
HETATM    4  C4  UNL     1     -32.976  18.027  -1.095  1.00 20.00     0.018 A 
HETATM    5  C5  UNL     1     -35.185  17.604  -0.215  1.00 20.00     0.018 A 
HETATM    6  C6  UNL     1     -33.922  18.179  -0.082  1.00 20.00     0.006 A 
HETATM    7  I7  UNL     1     -33.450  19.263   1.626  1.00 20.00    -0.045 I 
ENDROOT
TORSDOF 0
ENDMDL
