MODEL 1
REMARK VINA RESULT:      -6.2      0.000      0.000
REMARK  1 active torsions:
REMARK  status: ('A' for Active; 'I' for Inactive)
REMARK    1  A    between atoms: C6_6  and  C9_9 
ROOT
HETATM    1  C1  UNL     1     -33.369   7.214   5.155  1.00 20.00     0.007 A 
HETATM    2  C2  UNL     1     -33.971   5.668   3.398  1.00 20.00     0.007 A 
HETATM    3  C3  UNL     1     -32.638   7.970   4.238  1.00 20.00     0.007 A 
HETATM    4  C4  UNL     1     -33.240   6.425   2.482  1.00 20.00     0.007 A 
HETATM    5  C5  UNL     1     -34.035   6.063   4.734  1.00 20.00    -0.062 A 
HETATM    6  C6  UNL     1     -32.574   7.575   2.902  1.00 20.00    -0.059 A 
HETATM    7  C7  UNL     1     -34.817   5.253   5.713  1.00 20.00     0.048 C 
ENDROOT
BRANCH   6   8
HETATM    8  C9  UNL     1     -31.793   8.387   1.923  1.00 20.00     0.034 C 
HETATM    9  C8  UNL     1     -32.609   9.540   1.344  1.00 20.00     0.010 C 
ENDBRANCH   6   8
TORSDOF 1
ENDMDL
MODEL 2
REMARK VINA RESULT:      -6.2      0.046      1.611
REMARK  1 active torsions:
REMARK  status: ('A' for Active; 'I' for Inactive)
REMARK    1  A    between atoms: C6_6  and  C9_9 
ROOT
HETATM    1  C1  UNL     1     -34.031   5.679   3.428  1.00 20.00     0.007 A 
HETATM    2  C2  UNL     1     -33.370   7.204   5.181  1.00 20.00     0.007 A 
HETATM    3  C3  UNL     1     -33.300   6.425   2.504  1.00 20.00     0.007 A 
HETATM    4  C4  UNL     1     -32.639   7.950   4.257  1.00 20.00     0.007 A 
HETATM    5  C5  UNL     1     -34.067   6.069   4.766  1.00 20.00    -0.062 A 
HETATM    6  C6  UNL     1     -32.603   7.561   2.919  1.00 20.00    -0.059 A 
HETATM    7  C7  UNL     1     -34.848   5.272   5.756  1.00 20.00     0.048 C 
ENDROOT
BRANCH   6   8
HETATM    8  C9  UNL     1     -31.820   8.356   1.929  1.00 20.00     0.034 C 
HETATM    9  C8  UNL     1     -32.617   9.530   1.366  1.00 20.00     0.010 C 
ENDBRANCH   6   8
TORSDOF 1
ENDMDL
MODEL 3
REMARK VINA RESULT:      -5.7      0.805      4.232
REMARK  1 active torsions:
REMARK  status: ('A' for Active; 'I' for Inactive)
REMARK    1  A    between atoms: C6_6  and  C9_9 
ROOT
HETATM    1  C1  UNL     1     -33.217   6.942   2.235  1.00 20.00     0.007 A 
HETATM    2  C2  UNL     1     -32.008   8.413   3.722  1.00 20.00     0.007 A 
HETATM    3  C3  UNL     1     -33.889   6.392   3.326  1.00 20.00     0.007 A 
HETATM    4  C4  UNL     1     -32.680   7.862   4.814  1.00 20.00     0.007 A 
HETATM    5  C5  UNL     1     -32.277   7.953   2.433  1.00 20.00    -0.062 A 
HETATM    6  C6  UNL     1     -33.621   6.852   4.616  1.00 20.00    -0.059 A 
HETATM    7  C7  UNL     1     -31.558   8.543   1.267  1.00 20.00     0.048 C 
ENDROOT
BRANCH   6   8
HETATM    8  C9  UNL     1     -34.342   6.263   5.781  1.00 20.00     0.034 C 
HETATM    9  C8  UNL     1     -34.661   4.784   5.580  1.00 20.00     0.010 C 
ENDBRANCH   6   8
TORSDOF 1
ENDMDL
MODEL 4
REMARK VINA RESULT:      -5.7      0.798      3.930
REMARK  1 active torsions:
REMARK  status: ('A' for Active; 'I' for Inactive)
REMARK    1  A    between atoms: C6_6  and  C9_9 
ROOT
HETATM    1  C1  UNL     1     -32.055   8.362   3.740  1.00 20.00     0.007 A 
HETATM    2  C2  UNL     1     -33.279   6.932   2.225  1.00 20.00     0.007 A 
HETATM    3  C3  UNL     1     -32.737   7.801   4.820  1.00 20.00     0.007 A 
HETATM    4  C4  UNL     1     -33.960   6.371   3.305  1.00 20.00     0.007 A 
HETATM    5  C5  UNL     1     -32.327   7.928   2.443  1.00 20.00    -0.062 A 
HETATM    6  C6  UNL     1     -33.689   6.805   4.603  1.00 20.00    -0.059 A 
HETATM    7  C7  UNL     1     -31.599   8.526   1.287  1.00 20.00     0.048 C 
ENDROOT
BRANCH   6   8
HETATM    8  C9  UNL     1     -34.415   6.205   5.759  1.00 20.00     0.034 C 
HETATM    9  C8  UNL     1     -34.632   4.703   5.592  1.00 20.00     0.010 C 
ENDBRANCH   6   8
TORSDOF 1
ENDMDL
MODEL 5
REMARK VINA RESULT:      -4.5     11.013     11.699
REMARK  1 active torsions:
REMARK  status: ('A' for Active; 'I' for Inactive)
REMARK    1  A    between atoms: C6_6  and  C9_9 
ROOT
HETATM    1  C1  UNL     1     -34.904  17.745  -0.119  1.00 20.00     0.007 A 
HETATM    2  C2  UNL     1     -32.868  17.904  -1.411  1.00 20.00     0.007 A 
HETATM    3  C3  UNL     1     -35.483  16.975  -1.128  1.00 20.00     0.007 A 
HETATM    4  C4  UNL     1     -33.448  17.134  -2.420  1.00 20.00     0.007 A 
HETATM    5  C5  UNL     1     -33.596  18.209  -0.261  1.00 20.00    -0.062 A 
HETATM    6  C6  UNL     1     -34.755  16.670  -2.278  1.00 20.00    -0.059 A 
HETATM    7  C7  UNL     1     -32.975  19.031   0.818  1.00 20.00     0.048 C 
ENDROOT
BRANCH   6   8
HETATM    8  C9  UNL     1     -35.376  15.846  -3.355  1.00 20.00     0.034 C 
HETATM    9  C8  UNL     1     -34.396  14.841  -3.955  1.00 20.00     0.010 C 
ENDBRANCH   6   8
TORSDOF 1
ENDMDL
MODEL 6
REMARK VINA RESULT:      -4.5     11.307     11.813
REMARK  1 active torsions:
REMARK  status: ('A' for Active; 'I' for Inactive)
REMARK    1  A    between atoms: C6_6  and  C9_9 
ROOT
HETATM    1  C1  UNL     1     -35.479  16.967  -1.126  1.00 20.00     0.007 A 
HETATM    2  C2  UNL     1     -33.405  17.157  -2.350  1.00 20.00     0.007 A 
HETATM    3  C3  UNL     1     -34.936  17.727  -0.090  1.00 20.00     0.007 A 
HETATM    4  C4  UNL     1     -32.862  17.917  -1.314  1.00 20.00     0.007 A 
HETATM    5  C5  UNL     1     -34.713  16.682  -2.256  1.00 20.00    -0.062 A 
HETATM    6  C6  UNL     1     -33.628  18.202  -0.184  1.00 20.00    -0.059 A 
HETATM    7  C7  UNL     1     -35.292  15.870  -3.365  1.00 20.00     0.048 C 
ENDROOT
BRANCH   6   8
HETATM    8  C9  UNL     1     -33.050  19.016   0.924  1.00 20.00     0.034 C 
HETATM    9  C8  UNL     1     -31.529  18.911   0.990  1.00 20.00     0.010 C 
ENDBRANCH   6   8
TORSDOF 1
ENDMDL
MODEL 7
REMARK VINA RESULT:      -4.5     11.012     11.733
REMARK  1 active torsions:
REMARK  status: ('A' for Active; 'I' for Inactive)
REMARK    1  A    between atoms: C6_6  and  C9_9 
ROOT
HETATM    1  C1  UNL     1     -32.866  17.887  -1.491  1.00 20.00     0.007 A 
HETATM    2  C2  UNL     1     -34.870  17.754  -0.148  1.00 20.00     0.007 A 
HETATM    3  C3  UNL     1     -33.477  17.113  -2.478  1.00 20.00     0.007 A 
HETATM    4  C4  UNL     1     -35.481  16.980  -1.135  1.00 20.00     0.007 A 
HETATM    5  C5  UNL     1     -33.563  18.208  -0.326  1.00 20.00    -0.062 A 
HETATM    6  C6  UNL     1     -34.784  16.659  -2.300  1.00 20.00    -0.059 A 
HETATM    7  C7  UNL     1     -32.912  19.036   0.730  1.00 20.00     0.048 C 
ENDROOT
BRANCH   6   8
HETATM    8  C9  UNL     1     -35.436  15.834  -3.357  1.00 20.00     0.034 C 
HETATM    9  C8  UNL     1     -34.481  14.810  -3.965  1.00 20.00     0.010 C 
ENDBRANCH   6   8
TORSDOF 1
ENDMDL
MODEL 8
REMARK VINA RESULT:      -4.3     11.410     11.829
REMARK  1 active torsions:
REMARK  status: ('A' for Active; 'I' for Inactive)
REMARK    1  A    between atoms: C6_6  and  C9_9 
ROOT
HETATM    1  C1  UNL     1     -33.768  17.048  -2.596  1.00 20.00     0.007 A 
HETATM    2  C2  UNL     1     -35.732  16.983  -1.191  1.00 20.00     0.007 A 
HETATM    3  C3  UNL     1     -33.082  17.748  -1.603  1.00 20.00     0.007 A 
HETATM    4  C4  UNL     1     -35.047  17.683  -0.198  1.00 20.00     0.007 A 
HETATM    5  C5  UNL     1     -35.093  16.666  -2.390  1.00 20.00    -0.062 A 
HETATM    6  C6  UNL     1     -33.721  18.066  -0.404  1.00 20.00    -0.059 A 
HETATM    7  C7  UNL     1     -35.827  15.917  -3.450  1.00 20.00     0.048 C 
ENDROOT
BRANCH   6   8
HETATM    8  C9  UNL     1     -32.986  18.813   0.656  1.00 20.00     0.034 C 
HETATM    9  C8  UNL     1     -31.471  18.704   0.499  1.00 20.00     0.010 C 
ENDBRANCH   6   8
TORSDOF 1
ENDMDL
MODEL 9
REMARK VINA RESULT:      -4.2     10.992     12.120
REMARK  1 active torsions:
REMARK  status: ('A' for Active; 'I' for Inactive)
REMARK    1  A    between atoms: C6_6  and  C9_9 
ROOT
HETATM    1  C1  UNL     1     -33.399  15.623  -6.146  1.00 20.00     0.007 A 
HETATM    2  C2  UNL     1     -34.893  14.119  -4.988  1.00 20.00     0.007 A 
HETATM    3  C3  UNL     1     -33.236  16.363  -4.974  1.00 20.00     0.007 A 
HETATM    4  C4  UNL     1     -34.731  14.858  -3.817  1.00 20.00     0.007 A 
HETATM    5  C5  UNL     1     -34.227  14.501  -6.153  1.00 20.00    -0.062 A 
HETATM    6  C6  UNL     1     -33.903  15.980  -3.810  1.00 20.00    -0.059 A 
HETATM    7  C7  UNL     1     -34.401  13.709  -7.404  1.00 20.00     0.048 C 
ENDROOT
BRANCH   6   8
HETATM    8  C9  UNL     1     -33.726  16.771  -2.558  1.00 20.00     0.034 C 
HETATM    9  C8  UNL     1     -34.985  16.780  -1.694  1.00 20.00     0.010 C 
ENDBRANCH   6   8
TORSDOF 1
ENDMDL
