MODEL 1
REMARK VINA RESULT:      -5.2      0.000      0.000
REMARK  1 active torsions:
REMARK  status: ('A' for Active; 'I' for Inactive)
REMARK    1  A    between atoms: C6_6  and  O8_8 
ROOT
HETATM    1  C1  UNL     1     -34.804   5.368   6.064  1.00 20.00     0.000 A 
HETATM    2  C2  UNL     1     -34.354   6.585   6.575  1.00 20.00     0.003 A 
HETATM    3  C3  UNL     1     -34.532   5.024   4.739  1.00 20.00     0.003 A 
HETATM    4  C4  UNL     1     -33.633   7.459   5.761  1.00 20.00     0.037 A 
HETATM    5  C5  UNL     1     -33.811   5.898   3.926  1.00 20.00     0.037 A 
HETATM    6  C6  UNL     1     -33.361   7.116   4.437  1.00 20.00     0.068 A 
ENDROOT
BRANCH   6   7
HETATM    7  O8  UNL     1     -32.658   7.969   3.644  1.00 20.00    -0.356 OA
HETATM    8  C7  UNL     1     -32.200   7.462   2.392  1.00 20.00     0.210 C 
ENDBRANCH   6   7
TORSDOF 1
ENDMDL
MODEL 2
REMARK VINA RESULT:      -5.2      0.895      1.961
REMARK  1 active torsions:
REMARK  status: ('A' for Active; 'I' for Inactive)
REMARK    1  A    between atoms: C6_6  and  O8_8 
ROOT
HETATM    1  C1  UNL     1     -34.842   5.135   5.945  1.00 20.00     0.000 A 
HETATM    2  C2  UNL     1     -34.508   4.899   4.612  1.00 20.00     0.003 A 
HETATM    3  C3  UNL     1     -34.478   6.337   6.554  1.00 20.00     0.003 A 
HETATM    4  C4  UNL     1     -33.809   5.866   3.887  1.00 20.00     0.037 A 
HETATM    5  C5  UNL     1     -33.780   7.302   5.830  1.00 20.00     0.037 A 
HETATM    6  C6  UNL     1     -33.445   7.067   4.495  1.00 20.00     0.068 A 
ENDROOT
BRANCH   6   7
HETATM    7  O8  UNL     1     -32.763   8.008   3.788  1.00 20.00    -0.356 OA
HETATM    8  C7  UNL     1     -32.209   9.097   4.524  1.00 20.00     0.210 C 
ENDBRANCH   6   7
TORSDOF 1
ENDMDL
MODEL 3
REMARK VINA RESULT:      -4.8      0.793      1.835
REMARK  1 active torsions:
REMARK  status: ('A' for Active; 'I' for Inactive)
REMARK    1  A    between atoms: C6_6  and  O8_8 
ROOT
HETATM    1  C1  UNL     1     -34.645   6.304   6.470  1.00 20.00     0.000 A 
HETATM    2  C2  UNL     1     -34.821   5.243   5.582  1.00 20.00     0.003 A 
HETATM    3  C3  UNL     1     -33.826   7.378   6.120  1.00 20.00     0.003 A 
HETATM    4  C4  UNL     1     -34.178   5.257   4.344  1.00 20.00     0.037 A 
HETATM    5  C5  UNL     1     -33.183   7.391   4.883  1.00 20.00     0.037 A 
HETATM    6  C6  UNL     1     -33.359   6.330   3.994  1.00 20.00     0.068 A 
ENDROOT
BRANCH   6   7
HETATM    7  O8  UNL     1     -32.731   6.342   2.787  1.00 20.00    -0.356 OA
HETATM    8  C7  UNL     1     -32.211   7.592   2.338  1.00 20.00     0.210 C 
ENDBRANCH   6   7
TORSDOF 1
ENDMDL
MODEL 4
REMARK VINA RESULT:      -4.6      1.250      1.844
REMARK  1 active torsions:
REMARK  status: ('A' for Active; 'I' for Inactive)
REMARK    1  A    between atoms: C6_6  and  O8_8 
ROOT
HETATM    1  C1  UNL     1     -34.087   4.467   4.167  1.00 20.00     0.000 A 
HETATM    2  C2  UNL     1     -34.650   4.980   5.335  1.00 20.00     0.003 A 
HETATM    3  C3  UNL     1     -33.318   5.291   3.343  1.00 20.00     0.003 A 
HETATM    4  C4  UNL     1     -34.445   6.316   5.679  1.00 20.00     0.037 A 
HETATM    5  C5  UNL     1     -33.114   6.626   3.687  1.00 20.00     0.037 A 
HETATM    6  C6  UNL     1     -33.677   7.139   4.857  1.00 20.00     0.068 A 
ENDROOT
BRANCH   6   7
HETATM    7  O8  UNL     1     -33.479   8.443   5.192  1.00 20.00    -0.356 OA
HETATM    8  C7  UNL     1     -32.283   9.061   4.719  1.00 20.00     0.210 C 
ENDBRANCH   6   7
TORSDOF 1
ENDMDL
MODEL 5
REMARK VINA RESULT:      -4.6      1.547      3.283
REMARK  1 active torsions:
REMARK  status: ('A' for Active; 'I' for Inactive)
REMARK    1  A    between atoms: C6_6  and  O8_8 
ROOT
HETATM    1  C1  UNL     1     -32.194   7.550   2.827  1.00 20.00     0.000 A 
HETATM    2  C2  UNL     1     -32.347   8.499   3.838  1.00 20.00     0.003 A 
HETATM    3  C3  UNL     1     -32.822   6.309   2.934  1.00 20.00     0.003 A 
HETATM    4  C4  UNL     1     -33.130   8.206   4.955  1.00 20.00     0.037 A 
HETATM    5  C5  UNL     1     -33.603   6.016   4.051  1.00 20.00     0.037 A 
HETATM    6  C6  UNL     1     -33.758   6.966   5.063  1.00 20.00     0.068 A 
ENDROOT
BRANCH   6   7
HETATM    7  O8  UNL     1     -34.519   6.680   6.154  1.00 20.00    -0.356 OA
HETATM    8  C7  UNL     1     -34.667   5.305   6.500  1.00 20.00     0.210 C 
ENDBRANCH   6   7
TORSDOF 1
ENDMDL
MODEL 6
REMARK VINA RESULT:      -4.6      1.536      3.655
REMARK  1 active torsions:
REMARK  status: ('A' for Active; 'I' for Inactive)
REMARK    1  A    between atoms: C6_6  and  O8_8 
ROOT
HETATM    1  C1  UNL     1     -32.203   7.533   2.800  1.00 20.00     0.000 A 
HETATM    2  C2  UNL     1     -32.828   6.290   2.897  1.00 20.00     0.003 A 
HETATM    3  C3  UNL     1     -32.362   8.476   3.816  1.00 20.00     0.003 A 
HETATM    4  C4  UNL     1     -33.614   5.991   4.011  1.00 20.00     0.037 A 
HETATM    5  C5  UNL     1     -33.148   8.177   4.928  1.00 20.00     0.037 A 
HETATM    6  C6  UNL     1     -33.773   6.933   5.026  1.00 20.00     0.068 A 
ENDROOT
BRANCH   6   7
HETATM    7  O8  UNL     1     -34.541   6.641   6.111  1.00 20.00    -0.356 OA
HETATM    8  C7  UNL     1     -34.672   5.265   6.463  1.00 20.00     0.210 C 
ENDBRANCH   6   7
TORSDOF 1
ENDMDL
MODEL 7
REMARK VINA RESULT:      -4.6      1.159      1.513
REMARK  1 active torsions:
REMARK  status: ('A' for Active; 'I' for Inactive)
REMARK    1  A    between atoms: C6_6  and  O8_8 
ROOT
HETATM    1  C1  UNL     1     -34.572   6.516   6.659  1.00 20.00     0.000 A 
HETATM    2  C2  UNL     1     -33.808   7.560   6.139  1.00 20.00     0.003 A 
HETATM    3  C3  UNL     1     -34.797   5.369   5.897  1.00 20.00     0.003 A 
HETATM    4  C4  UNL     1     -33.269   7.458   4.857  1.00 20.00     0.037 A 
HETATM    5  C5  UNL     1     -34.259   5.267   4.615  1.00 20.00     0.037 A 
HETATM    6  C6  UNL     1     -33.494   6.312   4.094  1.00 20.00     0.068 A 
ENDROOT
BRANCH   6   7
HETATM    7  O8  UNL     1     -32.969   6.213   2.843  1.00 20.00    -0.356 OA
HETATM    8  C7  UNL     1     -32.847   4.903   2.291  1.00 20.00     0.210 C 
ENDBRANCH   6   7
TORSDOF 1
ENDMDL
MODEL 8
REMARK VINA RESULT:      -4.5      1.581      3.286
REMARK  1 active torsions:
REMARK  status: ('A' for Active; 'I' for Inactive)
REMARK    1  A    between atoms: C6_6  and  O8_8 
ROOT
HETATM    1  C1  UNL     1     -32.157   8.522   3.767  1.00 20.00     0.000 A 
HETATM    2  C2  UNL     1     -32.882   8.596   4.956  1.00 20.00     0.003 A 
HETATM    3  C3  UNL     1     -32.255   7.387   2.960  1.00 20.00     0.003 A 
HETATM    4  C4  UNL     1     -33.704   7.536   5.339  1.00 20.00     0.037 A 
HETATM    5  C5  UNL     1     -33.076   6.328   3.343  1.00 20.00     0.037 A 
HETATM    6  C6  UNL     1     -33.801   6.402   4.533  1.00 20.00     0.068 A 
ENDROOT
BRANCH   6   7
HETATM    7  O8  UNL     1     -34.602   5.367   4.907  1.00 20.00    -0.356 OA
HETATM    8  C7  UNL     1     -34.750   5.134   6.307  1.00 20.00     0.210 C 
ENDBRANCH   6   7
TORSDOF 1
ENDMDL
MODEL 9
REMARK VINA RESULT:      -4.5      1.178      2.109
REMARK  1 active torsions:
REMARK  status: ('A' for Active; 'I' for Inactive)
REMARK    1  A    between atoms: C6_6  and  O8_8 
ROOT
HETATM    1  C1  UNL     1     -34.493   6.575   6.655  1.00 20.00     0.000 A 
HETATM    2  C2  UNL     1     -34.800   5.420   5.936  1.00 20.00     0.003 A 
HETATM    3  C3  UNL     1     -33.716   7.575   6.069  1.00 20.00     0.003 A 
HETATM    4  C4  UNL     1     -34.331   5.265   4.631  1.00 20.00     0.037 A 
HETATM    5  C5  UNL     1     -33.247   7.420   4.766  1.00 20.00     0.037 A 
HETATM    6  C6  UNL     1     -33.554   6.265   4.046  1.00 20.00     0.068 A 
ENDROOT
BRANCH   6   7
HETATM    7  O8  UNL     1     -33.095   6.113   2.774  1.00 20.00    -0.356 OA
HETATM    8  C7  UNL     1     -32.810   4.785   2.341  1.00 20.00     0.210 C 
ENDBRANCH   6   7
TORSDOF 1
ENDMDL
