MODEL 1
REMARK VINA RESULT:      -5.0      0.000      0.000
REMARK  1 active torsions:
REMARK  status: ('A' for Active; 'I' for Inactive)
REMARK    1  A    between atoms: C6_6  and  S8_8 
ROOT
HETATM    1  C1  UNL     1     -34.850   5.195   5.939  1.00 20.00     0.000 A 
HETATM    2  C2  UNL     1     -34.502   5.017   4.600  1.00 20.00     0.001 A 
HETATM    3  C3  UNL     1     -34.476   6.360   6.608  1.00 20.00     0.001 A 
HETATM    4  C4  UNL     1     -33.780   6.006   3.929  1.00 20.00     0.018 A 
HETATM    5  C5  UNL     1     -33.756   7.349   5.937  1.00 20.00     0.018 A 
HETATM    6  C6  UNL     1     -33.408   7.171   4.598  1.00 20.00    -0.000 A 
ENDROOT
BRANCH   6   7
HETATM    7  S8  UNL     1     -32.487   8.434   3.741  1.00 20.00    -0.134 SA
HETATM    8  C7  UNL     1     -32.160   7.569   2.190  1.00 20.00     0.095 C 
ENDBRANCH   6   7
TORSDOF 1
ENDMDL
MODEL 2
REMARK VINA RESULT:      -5.0      0.013      1.708
REMARK  1 active torsions:
REMARK  status: ('A' for Active; 'I' for Inactive)
REMARK    1  A    between atoms: C6_6  and  S8_8 
ROOT
HETATM    1  C1  UNL     1     -34.837   5.189   5.939  1.00 20.00     0.000 A 
HETATM    2  C2  UNL     1     -34.474   6.360   6.603  1.00 20.00     0.001 A 
HETATM    3  C3  UNL     1     -34.488   5.010   4.601  1.00 20.00     0.001 A 
HETATM    4  C4  UNL     1     -33.761   7.353   5.930  1.00 20.00     0.018 A 
HETATM    5  C5  UNL     1     -33.773   6.001   3.928  1.00 20.00     0.018 A 
HETATM    6  C6  UNL     1     -33.411   7.172   4.592  1.00 20.00    -0.000 A 
ENDROOT
BRANCH   6   7
HETATM    7  S8  UNL     1     -32.499   8.439   3.732  1.00 20.00    -0.134 SA
HETATM    8  C7  UNL     1     -32.142   7.564   2.193  1.00 20.00     0.095 C 
ENDBRANCH   6   7
TORSDOF 1
ENDMDL
MODEL 3
REMARK VINA RESULT:      -4.9      0.968      2.049
REMARK  1 active torsions:
REMARK  status: ('A' for Active; 'I' for Inactive)
REMARK    1  A    between atoms: C6_6  and  S8_8 
ROOT
HETATM    1  C1  UNL     1     -34.864   5.115   5.977  1.00 20.00     0.000 A 
HETATM    2  C2  UNL     1     -34.482   6.329   6.547  1.00 20.00     0.001 A 
HETATM    3  C3  UNL     1     -34.520   4.825   4.657  1.00 20.00     0.001 A 
HETATM    4  C4  UNL     1     -33.755   7.254   5.796  1.00 20.00     0.018 A 
HETATM    5  C5  UNL     1     -33.791   5.749   3.907  1.00 20.00     0.018 A 
HETATM    6  C6  UNL     1     -33.410   6.963   4.477  1.00 20.00    -0.000 A 
ENDROOT
BRANCH   6   7
HETATM    7  S8  UNL     1     -32.480   8.144   3.519  1.00 20.00    -0.134 SA
HETATM    8  C7  UNL     1     -32.031   9.308   4.826  1.00 20.00     0.095 C 
ENDBRANCH   6   7
TORSDOF 1
ENDMDL
MODEL 4
REMARK VINA RESULT:      -4.3      1.836      3.941
REMARK  1 active torsions:
REMARK  status: ('A' for Active; 'I' for Inactive)
REMARK    1  A    between atoms: C6_6  and  S8_8 
ROOT
HETATM    1  C1  UNL     1     -32.110   8.685   3.720  1.00 20.00     0.000 A 
HETATM    2  C2  UNL     1     -32.829   8.672   4.914  1.00 20.00     0.001 A 
HETATM    3  C3  UNL     1     -32.162   7.588   2.861  1.00 20.00     0.001 A 
HETATM    4  C4  UNL     1     -33.602   7.560   5.251  1.00 20.00     0.018 A 
HETATM    5  C5  UNL     1     -32.936   6.477   3.197  1.00 20.00     0.018 A 
HETATM    6  C6  UNL     1     -33.656   6.463   4.391  1.00 20.00    -0.000 A 
ENDROOT
BRANCH   6   7
HETATM    7  S8  UNL     1     -34.644   5.043   4.821  1.00 20.00    -0.134 SA
HETATM    8  C7  UNL     1     -34.696   5.242   6.615  1.00 20.00     0.095 C 
ENDBRANCH   6   7
TORSDOF 1
ENDMDL
MODEL 5
REMARK VINA RESULT:      -4.3      1.078      1.610
REMARK  1 active torsions:
REMARK  status: ('A' for Active; 'I' for Inactive)
REMARK    1  A    between atoms: C6_6  and  S8_8 
ROOT
HETATM    1  C1  UNL     1     -34.603   6.553   6.680  1.00 20.00     0.000 A 
HETATM    2  C2  UNL     1     -34.851   5.334   6.050  1.00 20.00     0.001 A 
HETATM    3  C3  UNL     1     -33.841   7.528   6.036  1.00 20.00     0.001 A 
HETATM    4  C4  UNL     1     -34.338   5.089   4.776  1.00 20.00     0.018 A 
HETATM    5  C5  UNL     1     -33.329   7.284   4.762  1.00 20.00     0.018 A 
HETATM    6  C6  UNL     1     -33.577   6.065   4.132  1.00 20.00    -0.000 A 
ENDROOT
BRANCH   6   7
HETATM    7  S8  UNL     1     -32.922   5.752   2.505  1.00 20.00    -0.134 SA
HETATM    8  C7  UNL     1     -32.176   7.361   2.164  1.00 20.00     0.095 C 
ENDBRANCH   6   7
TORSDOF 1
ENDMDL
MODEL 6
REMARK VINA RESULT:      -4.3      1.838      3.571
REMARK  1 active torsions:
REMARK  status: ('A' for Active; 'I' for Inactive)
REMARK    1  A    between atoms: C6_6  and  S8_8 
ROOT
HETATM    1  C1  UNL     1     -32.089   8.683   3.732  1.00 20.00     0.000 A 
HETATM    2  C2  UNL     1     -32.148   7.585   2.874  1.00 20.00     0.001 A 
HETATM    3  C3  UNL     1     -32.816   8.677   4.922  1.00 20.00     0.001 A 
HETATM    4  C4  UNL     1     -32.933   6.480   3.206  1.00 20.00     0.018 A 
HETATM    5  C5  UNL     1     -33.599   7.572   5.256  1.00 20.00     0.018 A 
HETATM    6  C6  UNL     1     -33.658   6.474   4.397  1.00 20.00    -0.000 A 
ENDROOT
BRANCH   6   7
HETATM    7  S8  UNL     1     -34.660   5.063   4.822  1.00 20.00    -0.134 SA
HETATM    8  C7  UNL     1     -34.692   5.244   6.619  1.00 20.00     0.095 C 
ENDBRANCH   6   7
TORSDOF 1
ENDMDL
MODEL 7
REMARK VINA RESULT:      -3.5     15.378     15.862
REMARK  1 active torsions:
REMARK  status: ('A' for Active; 'I' for Inactive)
REMARK    1  A    between atoms: C6_6  and  S8_8 
ROOT
HETATM    1  C1  UNL     1     -25.405  16.993  12.332  1.00 20.00     0.000 A 
HETATM    2  C2  UNL     1     -25.785  18.286  11.973  1.00 20.00     0.001 A 
HETATM    3  C3  UNL     1     -24.394  16.342  11.626  1.00 20.00     0.001 A 
HETATM    4  C4  UNL     1     -25.152  18.929  10.908  1.00 20.00     0.018 A 
HETATM    5  C5  UNL     1     -23.761  16.985  10.562  1.00 20.00     0.018 A 
HETATM    6  C6  UNL     1     -24.140  18.277  10.203  1.00 20.00    -0.000 A 
ENDROOT
BRANCH   6   7
HETATM    7  S8  UNL     1     -23.332  19.098   8.843  1.00 20.00    -0.134 SA
HETATM    8  C7  UNL     1     -22.179  17.799   8.348  1.00 20.00     0.095 C 
ENDBRANCH   6   7
TORSDOF 1
ENDMDL
MODEL 8
REMARK VINA RESULT:      -3.4      1.519      2.273
REMARK  1 active torsions:
REMARK  status: ('A' for Active; 'I' for Inactive)
REMARK    1  A    between atoms: C6_6  and  S8_8 
ROOT
HETATM    1  C1  UNL     1     -33.622   4.599   3.309  1.00 20.00     0.000 A 
HETATM    2  C2  UNL     1     -32.816   5.634   2.836  1.00 20.00     0.001 A 
HETATM    3  C3  UNL     1     -34.403   4.789   4.448  1.00 20.00     0.001 A 
HETATM    4  C4  UNL     1     -32.792   6.860   3.502  1.00 20.00     0.018 A 
HETATM    5  C5  UNL     1     -34.381   6.014   5.113  1.00 20.00     0.018 A 
HETATM    6  C6  UNL     1     -33.575   7.049   4.641  1.00 20.00    -0.000 A 
ENDROOT
BRANCH   6   7
HETATM    7  S8  UNL     1     -33.545   8.615   5.492  1.00 20.00    -0.134 SA
HETATM    8  C7  UNL     1     -31.985   9.273   4.860  1.00 20.00     0.095 C 
ENDBRANCH   6   7
TORSDOF 1
ENDMDL
MODEL 9
REMARK VINA RESULT:      -3.3     16.271     16.912
REMARK  1 active torsions:
REMARK  status: ('A' for Active; 'I' for Inactive)
REMARK    1  A    between atoms: C6_6  and  S8_8 
ROOT
HETATM    1  C1  UNL     1     -22.528  18.809   8.367  1.00 20.00     0.000 A 
HETATM    2  C2  UNL     1     -23.893  19.084   8.437  1.00 20.00     0.001 A 
HETATM    3  C3  UNL     1     -21.843  18.384   9.505  1.00 20.00     0.001 A 
HETATM    4  C4  UNL     1     -24.575  18.934   9.645  1.00 20.00     0.018 A 
HETATM    5  C5  UNL     1     -22.525  18.232  10.713  1.00 20.00     0.018 A 
HETATM    6  C6  UNL     1     -23.890  18.507  10.782  1.00 20.00    -0.000 A 
ENDROOT
BRANCH   6   7
HETATM    7  S8  UNL     1     -24.761  18.314  12.325  1.00 20.00    -0.134 SA
HETATM    8  C7  UNL     1     -26.252  19.263  11.951  1.00 20.00     0.095 C 
ENDBRANCH   6   7
TORSDOF 1
ENDMDL
