MODEL 1
REMARK VINA RESULT:      -6.0      0.000      0.000
REMARK  0 active torsions:
REMARK  status: ('A' for Active; 'I' for Inactive)
ROOT
HETATM    1  C1  UNL     1     -34.771   5.664   6.312  1.00 20.00     0.001 A 
HETATM    2  C2  UNL     1     -34.675   4.908   5.152  1.00 20.00     0.001 A 
HETATM    3  C3  UNL     1     -34.163   6.920   6.388  1.00 20.00     0.013 A 
HETATM    4  C4  UNL     1     -33.971   5.388   4.046  1.00 20.00     0.019 A 
HETATM    5  C5  UNL     1     -32.742   8.677   5.123  1.00 20.00     0.020 A 
HETATM    6  C6  UNL     1     -32.161   8.808   3.884  1.00 20.00     0.051 A 
HETATM    7  C7  UNL     1     -33.442   7.435   5.283  1.00 20.00    -0.019 A 
HETATM    8  C8  UNL     1     -33.359   6.654   4.127  1.00 20.00     0.015 A 
HETATM    9  S9  UNL     1     -32.445   7.447   2.898  1.00 20.00    -0.101 SA
ENDROOT
TORSDOF 0
ENDMDL
MODEL 2
REMARK VINA RESULT:      -5.9      1.064      2.129
REMARK  0 active torsions:
REMARK  status: ('A' for Active; 'I' for Inactive)
ROOT
HETATM    1  C1  UNL     1     -34.812   5.020   5.708  1.00 20.00     0.001 A 
HETATM    2  C2  UNL     1     -34.640   6.131   6.522  1.00 20.00     0.001 A 
HETATM    3  C3  UNL     1     -34.241   4.983   4.433  1.00 20.00     0.013 A 
HETATM    4  C4  UNL     1     -33.896   7.227   6.081  1.00 20.00     0.019 A 
HETATM    5  C5  UNL     1     -32.808   6.274   2.705  1.00 20.00     0.020 A 
HETATM    6  C6  UNL     1     -32.170   7.489   2.624  1.00 20.00     0.051 A 
HETATM    7  C7  UNL     1     -33.481   6.079   3.957  1.00 20.00    -0.019 A 
HETATM    8  C8  UNL     1     -33.322   7.186   4.795  1.00 20.00     0.015 A 
HETATM    9  S9  UNL     1     -32.370   8.411   4.043  1.00 20.00    -0.101 SA
ENDROOT
TORSDOF 0
ENDMDL
MODEL 3
REMARK VINA RESULT:      -5.8      1.417      3.260
REMARK  0 active torsions:
REMARK  status: ('A' for Active; 'I' for Inactive)
ROOT
HETATM    1  C1  UNL     1     -32.272   8.697   3.920  1.00 20.00     0.001 A 
HETATM    2  C2  UNL     1     -32.226   7.743   2.913  1.00 20.00     0.001 A 
HETATM    3  C3  UNL     1     -32.946   8.430   5.115  1.00 20.00     0.013 A 
HETATM    4  C4  UNL     1     -32.850   6.505   3.077  1.00 20.00     0.019 A 
HETATM    5  C5  UNL     1     -34.332   6.685   6.433  1.00 20.00     0.020 A 
HETATM    6  C6  UNL     1     -34.805   5.408   6.236  1.00 20.00     0.051 A 
HETATM    7  C7  UNL     1     -33.589   7.184   5.312  1.00 20.00    -0.019 A 
HETATM    8  C8  UNL     1     -33.528   6.240   4.283  1.00 20.00     0.015 A 
HETATM    9  S9  UNL     1     -34.366   4.794   4.708  1.00 20.00    -0.101 SA
ENDROOT
TORSDOF 0
ENDMDL
MODEL 4
REMARK VINA RESULT:      -5.7      1.093      1.343
REMARK  0 active torsions:
REMARK  status: ('A' for Active; 'I' for Inactive)
ROOT
HETATM    1  C1  UNL     1     -34.514   6.633   6.623  1.00 20.00     0.001 A 
HETATM    2  C2  UNL     1     -34.865   5.399   6.094  1.00 20.00     0.001 A 
HETATM    3  C3  UNL     1     -33.709   7.512   5.892  1.00 20.00     0.013 A 
HETATM    4  C4  UNL     1     -34.423   5.017   4.826  1.00 20.00     0.019 A 
HETATM    5  C5  UNL     1     -32.419   7.873   3.676  1.00 20.00     0.020 A 
HETATM    6  C6  UNL     1     -32.187   7.175   2.514  1.00 20.00     0.051 A 
HETATM    7  C7  UNL     1     -33.244   7.153   4.604  1.00 20.00    -0.019 A 
HETATM    8  C8  UNL     1     -33.612   5.905   4.092  1.00 20.00     0.015 A 
HETATM    9  S9  UNL     1     -32.951   5.652   2.520  1.00 20.00    -0.101 SA
ENDROOT
TORSDOF 0
ENDMDL
MODEL 5
REMARK VINA RESULT:      -5.3      1.654      3.829
REMARK  0 active torsions:
REMARK  status: ('A' for Active; 'I' for Inactive)
ROOT
HETATM    1  C1  UNL     1     -32.229   7.456   2.651  1.00 20.00     0.001 A 
HETATM    2  C2  UNL     1     -32.203   8.459   3.609  1.00 20.00     0.001 A 
HETATM    3  C3  UNL     1     -32.909   6.261   2.898  1.00 20.00     0.013 A 
HETATM    4  C4  UNL     1     -32.854   8.292   4.833  1.00 20.00     0.019 A 
HETATM    5  C5  UNL     1     -34.333   4.937   4.609  1.00 20.00     0.020 A 
HETATM    6  C6  UNL     1     -34.834   5.130   5.875  1.00 20.00     0.051 A 
HETATM    7  C7  UNL     1     -33.579   6.060   4.129  1.00 20.00    -0.019 A 
HETATM    8  C8  UNL     1     -33.539   7.085   5.079  1.00 20.00     0.015 A 
HETATM    9  S9  UNL     1     -34.408   6.655   6.504  1.00 20.00    -0.101 SA
ENDROOT
TORSDOF 0
ENDMDL
MODEL 6
REMARK VINA RESULT:      -5.0      0.928      2.495
REMARK  0 active torsions:
REMARK  status: ('A' for Active; 'I' for Inactive)
ROOT
HETATM    1  C1  UNL     1     -34.783   6.206   6.458  1.00 20.00     0.001 A 
HETATM    2  C2  UNL     1     -34.172   7.452   6.452  1.00 20.00     0.001 A 
HETATM    3  C3  UNL     1     -34.607   5.329   5.384  1.00 20.00     0.013 A 
HETATM    4  C4  UNL     1     -33.375   7.849   5.377  1.00 20.00     0.019 A 
HETATM    5  C5  UNL     1     -33.481   4.986   3.078  1.00 20.00     0.020 A 
HETATM    6  C6  UNL     1     -32.660   5.699   2.235  1.00 20.00     0.051 A 
HETATM    7  C7  UNL     1     -33.805   5.702   4.279  1.00 20.00    -0.019 A 
HETATM    8  C8  UNL     1     -33.201   6.962   4.296  1.00 20.00     0.015 A 
HETATM    9  S9  UNL     1     -32.269   7.231   2.870  1.00 20.00    -0.101 SA
ENDROOT
TORSDOF 0
ENDMDL
MODEL 7
REMARK VINA RESULT:      -4.9      1.669      3.700
REMARK  0 active torsions:
REMARK  status: ('A' for Active; 'I' for Inactive)
ROOT
HETATM    1  C1  UNL     1     -32.221   8.739   3.951  1.00 20.00     0.001 A 
HETATM    2  C2  UNL     1     -32.900   8.893   5.152  1.00 20.00     0.001 A 
HETATM    3  C3  UNL     1     -32.300   7.536   3.245  1.00 20.00     0.013 A 
HETATM    4  C4  UNL     1     -33.672   7.852   5.671  1.00 20.00     0.019 A 
HETATM    5  C5  UNL     1     -33.306   5.150   3.210  1.00 20.00     0.020 A 
HETATM    6  C6  UNL     1     -34.128   4.386   4.005  1.00 20.00     0.051 A 
HETATM    7  C7  UNL     1     -33.074   6.461   3.746  1.00 20.00    -0.019 A 
HETATM    8  C8  UNL     1     -33.749   6.641   4.956  1.00 20.00     0.015 A 
HETATM    9  S9  UNL     1     -34.632   5.227   5.398  1.00 20.00    -0.101 SA
ENDROOT
TORSDOF 0
ENDMDL
MODEL 8
REMARK VINA RESULT:      -4.9      1.844      3.060
REMARK  0 active torsions:
REMARK  status: ('A' for Active; 'I' for Inactive)
ROOT
HETATM    1  C1  UNL     1     -32.263   6.778   2.421  1.00 20.00     0.001 A 
HETATM    2  C2  UNL     1     -32.830   5.513   2.367  1.00 20.00     0.001 A 
HETATM    3  C3  UNL     1     -32.464   7.595   3.537  1.00 20.00     0.013 A 
HETATM    4  C4  UNL     1     -33.609   5.036   3.423  1.00 20.00     0.019 A 
HETATM    5  C5  UNL     1     -33.594   7.785   5.859  1.00 20.00     0.020 A 
HETATM    6  C6  UNL     1     -34.386   7.003   6.668  1.00 20.00     0.051 A 
HETATM    7  C7  UNL     1     -33.249   7.140   4.624  1.00 20.00    -0.019 A 
HETATM    8  C8  UNL     1     -33.810   5.862   4.546  1.00 20.00     0.015 A 
HETATM    9  S9  UNL     1     -34.726   5.491   5.959  1.00 20.00    -0.101 SA
ENDROOT
TORSDOF 0
ENDMDL
MODEL 9
REMARK VINA RESULT:      -3.9     15.510     16.036
REMARK  0 active torsions:
REMARK  status: ('A' for Active; 'I' for Inactive)
ROOT
HETATM    1  C1  UNL     1     -22.374  17.972   8.433  1.00 20.00     0.001 A 
HETATM    2  C2  UNL     1     -23.267  19.008   8.200  1.00 20.00     0.001 A 
HETATM    3  C3  UNL     1     -22.508  17.167   9.568  1.00 20.00     0.013 A 
HETATM    4  C4  UNL     1     -24.310  19.263   9.092  1.00 20.00     0.019 A 
HETATM    5  C5  UNL     1     -23.893  16.721  11.710  1.00 20.00     0.020 A 
HETATM    6  C6  UNL     1     -24.997  17.255  12.332  1.00 20.00     0.051 A 
HETATM    7  C7  UNL     1     -23.555  17.400  10.491  1.00 20.00    -0.019 A 
HETATM    8  C8  UNL     1     -24.442  18.450  10.234  1.00 20.00     0.015 A 
HETATM    9  S9  UNL     1     -25.642  18.574  11.467  1.00 20.00    -0.101 SA
ENDROOT
TORSDOF 0
ENDMDL
