MODEL 1
REMARK VINA RESULT:      -3.2      0.000      0.000
REMARK  0 active torsions:
REMARK  status: ('A' for Active; 'I' for Inactive)
ROOT
HETATM    1  C1  UNL     1     -34.539   5.636   6.405  1.00 20.00     0.021 C 
HETATM    2  C2  UNL     1     -34.099   5.160   3.972  1.00 20.00     0.021 C 
HETATM    3  C3  UNL     1     -34.550   6.205   4.990  1.00 20.00     0.045 C 
HETATM    4  I4  UNL     1     -33.251   7.926   4.887  1.00 20.00    -0.086 I 
ENDROOT
TORSDOF 0
ENDMDL
MODEL 2
REMARK VINA RESULT:      -2.8      1.025      1.950
REMARK  0 active torsions:
REMARK  status: ('A' for Active; 'I' for Inactive)
ROOT
HETATM    1  C1  UNL     1     -35.082   5.894   4.441  1.00 20.00     0.021 C 
HETATM    2  C2  UNL     1     -34.316   6.782   6.668  1.00 20.00     0.021 C 
HETATM    3  C3  UNL     1     -33.885   6.351   5.268  1.00 20.00     0.045 C 
HETATM    4  I4  UNL     1     -32.899   7.995   4.274  1.00 20.00    -0.086 I 
ENDROOT
TORSDOF 0
ENDMDL
MODEL 3
REMARK VINA RESULT:      -2.8      2.205      2.907
REMARK  0 active torsions:
REMARK  status: ('A' for Active; 'I' for Inactive)
ROOT
HETATM    1  C1  UNL     1     -32.900   6.409   3.380  1.00 20.00     0.021 C 
HETATM    2  C2  UNL     1     -32.830   8.249   5.097  1.00 20.00     0.021 C 
HETATM    3  C3  UNL     1     -33.696   7.187   4.423  1.00 20.00     0.045 C 
HETATM    4  I4  UNL     1     -34.469   5.828   5.911  1.00 20.00    -0.086 I 
ENDROOT
TORSDOF 0
ENDMDL
MODEL 4
REMARK VINA RESULT:      -2.8      1.192      1.991
REMARK  0 active torsions:
REMARK  status: ('A' for Active; 'I' for Inactive)
ROOT
HETATM    1  C1  UNL     1     -33.280   5.506   3.070  1.00 20.00     0.021 C 
HETATM    2  C2  UNL     1     -35.271   5.776   4.587  1.00 20.00     0.021 C 
HETATM    3  C3  UNL     1     -33.758   5.931   4.455  1.00 20.00     0.045 C 
HETATM    4  I4  UNL     1     -33.204   7.985   4.817  1.00 20.00    -0.086 I 
ENDROOT
TORSDOF 0
ENDMDL
MODEL 5
REMARK VINA RESULT:      -2.7      2.417      2.627
REMARK  0 active torsions:
REMARK  status: ('A' for Active; 'I' for Inactive)
ROOT
HETATM    1  C1  UNL     1     -33.598   8.489   5.228  1.00 20.00     0.021 C 
HETATM    2  C2  UNL     1     -32.532   7.208   3.341  1.00 20.00     0.021 C 
HETATM    3  C3  UNL     1     -33.089   7.130   4.760  1.00 20.00     0.045 C 
HETATM    4  I4  UNL     1     -34.695   5.688   4.830  1.00 20.00    -0.086 I 
ENDROOT
TORSDOF 0
ENDMDL
MODEL 6
REMARK VINA RESULT:      -2.6      1.727      2.116
REMARK  0 active torsions:
REMARK  status: ('A' for Active; 'I' for Inactive)
ROOT
HETATM    1  C1  UNL     1     -33.570   7.589   5.447  1.00 20.00     0.021 C 
HETATM    2  C2  UNL     1     -34.632   5.342   5.844  1.00 20.00     0.021 C 
HETATM    3  C3  UNL     1     -34.335   6.431   4.816  1.00 20.00     0.045 C 
HETATM    4  I4  UNL     1     -33.185   5.600   3.189  1.00 20.00    -0.086 I 
ENDROOT
TORSDOF 0
ENDMDL
MODEL 7
REMARK VINA RESULT:      -2.4      2.556      3.248
REMARK  0 active torsions:
REMARK  status: ('A' for Active; 'I' for Inactive)
ROOT
HETATM    1  C1  UNL     1     -32.288   7.959   1.977  1.00 20.00     0.021 C 
HETATM    2  C2  UNL     1     -32.943   5.673   2.803  1.00 20.00     0.021 C 
HETATM    3  C3  UNL     1     -32.273   6.997   3.160  1.00 20.00     0.045 C 
HETATM    4  I4  UNL     1     -33.289   7.894   4.841  1.00 20.00    -0.086 I 
ENDROOT
TORSDOF 0
ENDMDL
MODEL 8
REMARK VINA RESULT:      -2.4      8.888      9.050
REMARK  0 active torsions:
REMARK  status: ('A' for Active; 'I' for Inactive)
ROOT
HETATM    1  C1  UNL     1     -40.896   8.375  -0.031  1.00 20.00     0.021 C 
HETATM    2  C2  UNL     1     -40.770   5.889  -0.406  1.00 20.00     0.021 C 
HETATM    3  C3  UNL     1     -41.083   6.998   0.596  1.00 20.00     0.045 C 
HETATM    4  I4  UNL     1     -43.113   6.789   1.300  1.00 20.00    -0.086 I 
ENDROOT
TORSDOF 0
ENDMDL
MODEL 9
REMARK VINA RESULT:      -2.3      9.093      9.367
REMARK  0 active torsions:
REMARK  status: ('A' for Active; 'I' for Inactive)
ROOT
HETATM    1  C1  UNL     1     -40.807   5.886  -0.409  1.00 20.00     0.021 C 
HETATM    2  C2  UNL     1     -40.920   8.377  -0.059  1.00 20.00     0.021 C 
HETATM    3  C3  UNL     1     -41.723   7.101  -0.304  1.00 20.00     0.045 C 
HETATM    4  I4  UNL     1     -43.135   6.811   1.302  1.00 20.00    -0.086 I 
ENDROOT
TORSDOF 0
ENDMDL
