MODEL 1
REMARK VINA RESULT:      -4.9      0.000      0.000
REMARK  2 active torsions:
REMARK  status: ('A' for Active; 'I' for Inactive)
REMARK    1  A    between atoms: C6_6  and  C7_7 
REMARK    2  A    between atoms: C7_7  and  S8_8 
ROOT
HETATM    1  C1  UNL     1     -34.803   5.324   5.951  1.00 20.00     0.000 A 
HETATM    2  C2  UNL     1     -34.410   6.499   6.593  1.00 20.00     0.001 A 
HETATM    3  C3  UNL     1     -34.472   5.118   4.611  1.00 20.00     0.001 A 
HETATM    4  C4  UNL     1     -33.686   7.465   5.897  1.00 20.00     0.008 A 
HETATM    5  C5  UNL     1     -33.748   6.086   3.914  1.00 20.00     0.008 A 
HETATM    6  C6  UNL     1     -33.355   7.260   4.558  1.00 20.00    -0.049 A 
ENDROOT
BRANCH   6   7
HETATM    7  C7  UNL     1     -32.581   8.294   3.812  1.00 20.00     0.109 C 
BRANCH   7   8
HETATM    8  S8  UNL     1     -32.239   7.805   2.094  1.00 20.00    -0.178 SA
HETATM    9  H16 UNL     1     -31.390   6.814   2.399  1.00 20.00     0.101 HD
ENDBRANCH   7   8
ENDBRANCH   6   7
TORSDOF 2
ENDMDL
MODEL 2
REMARK VINA RESULT:      -4.9      0.005      1.709
REMARK  2 active torsions:
REMARK  status: ('A' for Active; 'I' for Inactive)
REMARK    1  A    between atoms: C6_6  and  C7_7 
REMARK    2  A    between atoms: C7_7  and  S8_8 
ROOT
HETATM    1  C1  UNL     1     -34.802   5.328   5.951  1.00 20.00     0.000 A 
HETATM    2  C2  UNL     1     -34.471   5.121   4.611  1.00 20.00     0.001 A 
HETATM    3  C3  UNL     1     -34.411   6.503   6.593  1.00 20.00     0.001 A 
HETATM    4  C4  UNL     1     -33.748   6.089   3.915  1.00 20.00     0.008 A 
HETATM    5  C5  UNL     1     -33.687   7.471   5.897  1.00 20.00     0.008 A 
HETATM    6  C6  UNL     1     -33.355   7.264   4.557  1.00 20.00    -0.049 A 
ENDROOT
BRANCH   6   7
HETATM    7  C7  UNL     1     -32.582   8.300   3.813  1.00 20.00     0.109 C 
BRANCH   7   8
HETATM    8  S8  UNL     1     -32.241   7.813   2.094  1.00 20.00    -0.178 SA
HETATM    9  H16 UNL     1     -33.008   8.756   1.529  1.00 20.00     0.101 HD
ENDBRANCH   7   8
ENDBRANCH   6   7
TORSDOF 2
ENDMDL
MODEL 3
REMARK VINA RESULT:      -4.2      1.291      1.551
REMARK  2 active torsions:
REMARK  status: ('A' for Active; 'I' for Inactive)
REMARK    1  A    between atoms: C6_6  and  C7_7 
REMARK    2  A    between atoms: C7_7  and  S8_8 
ROOT
HETATM    1  C1  UNL     1     -34.484   4.575   4.866  1.00 20.00     0.000 A 
HETATM    2  C2  UNL     1     -34.670   5.139   6.129  1.00 20.00     0.001 A 
HETATM    3  C3  UNL     1     -33.943   5.341   3.833  1.00 20.00     0.001 A 
HETATM    4  C4  UNL     1     -34.316   6.468   6.358  1.00 20.00     0.008 A 
HETATM    5  C5  UNL     1     -33.590   6.672   4.063  1.00 20.00     0.008 A 
HETATM    6  C6  UNL     1     -33.777   7.235   5.326  1.00 20.00    -0.049 A 
ENDROOT
BRANCH   6   7
HETATM    7  C7  UNL     1     -33.397   8.657   5.570  1.00 20.00     0.109 C 
BRANCH   7   8
HETATM    8  S8  UNL     1     -32.064   9.221   4.470  1.00 20.00    -0.178 SA
HETATM    9  H16 UNL     1     -31.720   8.002   4.033  1.00 20.00     0.101 HD
ENDBRANCH   7   8
ENDBRANCH   6   7
TORSDOF 2
ENDMDL
MODEL 4
REMARK VINA RESULT:      -4.0      2.240      3.874
REMARK  2 active torsions:
REMARK  status: ('A' for Active; 'I' for Inactive)
REMARK    1  A    between atoms: C6_6  and  C7_7 
REMARK    2  A    between atoms: C7_7  and  S8_8 
ROOT
HETATM    1  C1  UNL     1     -32.092   8.671   3.632  1.00 20.00     0.000 A 
HETATM    2  C2  UNL     1     -32.181   7.563   2.788  1.00 20.00     0.001 A 
HETATM    3  C3  UNL     1     -32.803   8.692   4.832  1.00 20.00     0.001 A 
HETATM    4  C4  UNL     1     -32.980   6.478   3.145  1.00 20.00     0.008 A 
HETATM    5  C5  UNL     1     -33.603   7.606   5.189  1.00 20.00     0.008 A 
HETATM    6  C6  UNL     1     -33.692   6.499   4.344  1.00 20.00    -0.049 A 
ENDROOT
BRANCH   6   7
HETATM    7  C7  UNL     1     -34.547   5.338   4.726  1.00 20.00     0.109 C 
BRANCH   7   8
HETATM    8  S8  UNL     1     -34.707   5.154   6.528  1.00 20.00    -0.178 SA
HETATM    9  H16 UNL     1     -33.735   6.021   6.843  1.00 20.00     0.101 HD
ENDBRANCH   7   8
ENDBRANCH   6   7
TORSDOF 2
ENDMDL
MODEL 5
REMARK VINA RESULT:      -4.0      2.241      3.521
REMARK  2 active torsions:
REMARK  status: ('A' for Active; 'I' for Inactive)
REMARK    1  A    between atoms: C6_6  and  C7_7 
REMARK    2  A    between atoms: C7_7  and  S8_8 
ROOT
HETATM    1  C1  UNL     1     -32.130   8.457   3.295  1.00 20.00     0.000 A 
HETATM    2  C2  UNL     1     -32.819   8.561   4.504  1.00 20.00     0.001 A 
HETATM    3  C3  UNL     1     -32.213   7.285   2.544  1.00 20.00     0.001 A 
HETATM    4  C4  UNL     1     -33.591   7.494   4.961  1.00 20.00     0.008 A 
HETATM    5  C5  UNL     1     -32.985   6.216   3.001  1.00 20.00     0.008 A 
HETATM    6  C6  UNL     1     -33.674   6.321   4.210  1.00 20.00    -0.049 A 
ENDROOT
BRANCH   6   7
HETATM    7  C7  UNL     1     -34.499   5.178   4.698  1.00 20.00     0.109 C 
BRANCH   7   8
HETATM    8  S8  UNL     1     -34.685   5.175   6.507  1.00 20.00    -0.178 SA
HETATM    9  H16 UNL     1     -35.255   6.386   6.589  1.00 20.00     0.101 HD
ENDBRANCH   7   8
ENDBRANCH   6   7
TORSDOF 2
ENDMDL
MODEL 6
REMARK VINA RESULT:      -3.7      1.261      1.596
REMARK  2 active torsions:
REMARK  status: ('A' for Active; 'I' for Inactive)
REMARK    1  A    between atoms: C6_6  and  C7_7 
REMARK    2  A    between atoms: C7_7  and  S8_8 
ROOT
HETATM    1  C1  UNL     1     -34.696   6.441   6.724  1.00 20.00     0.000 A 
HETATM    2  C2  UNL     1     -33.906   7.532   6.361  1.00 20.00     0.001 A 
HETATM    3  C3  UNL     1     -34.866   5.377   5.837  1.00 20.00     0.001 A 
HETATM    4  C4  UNL     1     -33.286   7.560   5.112  1.00 20.00     0.008 A 
HETATM    5  C5  UNL     1     -34.246   5.405   4.587  1.00 20.00     0.008 A 
HETATM    6  C6  UNL     1     -33.456   6.497   4.225  1.00 20.00    -0.049 A 
ENDROOT
BRANCH   6   7
HETATM    7  C7  UNL     1     -32.793   6.525   2.889  1.00 20.00     0.109 C 
BRANCH   7   8
HETATM    8  S8  UNL     1     -32.871   4.920   2.038  1.00 20.00    -0.178 SA
HETATM    9  H16 UNL     1     -31.553   4.814   1.820  1.00 20.00     0.101 HD
ENDBRANCH   7   8
ENDBRANCH   6   7
TORSDOF 2
ENDMDL
MODEL 7
REMARK VINA RESULT:      -3.7      1.260      2.151
REMARK  2 active torsions:
REMARK  status: ('A' for Active; 'I' for Inactive)
REMARK    1  A    between atoms: C6_6  and  C7_7 
REMARK    2  A    between atoms: C7_7  and  S8_8 
ROOT
HETATM    1  C1  UNL     1     -34.662   6.445   6.707  1.00 20.00     0.000 A 
HETATM    2  C2  UNL     1     -34.825   5.364   5.839  1.00 20.00     0.001 A 
HETATM    3  C3  UNL     1     -33.892   7.541   6.318  1.00 20.00     0.001 A 
HETATM    4  C4  UNL     1     -34.218   5.379   4.585  1.00 20.00     0.008 A 
HETATM    5  C5  UNL     1     -33.284   7.556   5.062  1.00 20.00     0.008 A 
HETATM    6  C6  UNL     1     -33.447   6.474   4.195  1.00 20.00    -0.049 A 
ENDROOT
BRANCH   6   7
HETATM    7  C7  UNL     1     -32.797   6.491   2.853  1.00 20.00     0.109 C 
BRANCH   7   8
HETATM    8  S8  UNL     1     -32.888   4.880   2.014  1.00 20.00    -0.178 SA
HETATM    9  H16 UNL     1     -33.916   4.408   2.733  1.00 20.00     0.101 HD
ENDBRANCH   7   8
ENDBRANCH   6   7
TORSDOF 2
ENDMDL
MODEL 8
REMARK VINA RESULT:      -3.4     12.417     12.914
REMARK  2 active torsions:
REMARK  status: ('A' for Active; 'I' for Inactive)
REMARK    1  A    between atoms: C6_6  and  C7_7 
REMARK    2  A    between atoms: C7_7  and  S8_8 
ROOT
HETATM    1  C1  UNL     1     -33.677  17.835  -0.891  1.00 20.00     0.000 A 
HETATM    2  C2  UNL     1     -32.392  17.994  -1.410  1.00 20.00     0.001 A 
HETATM    3  C3  UNL     1     -33.930  18.133   0.448  1.00 20.00     0.001 A 
HETATM    4  C4  UNL     1     -31.361  18.449  -0.591  1.00 20.00     0.008 A 
HETATM    5  C5  UNL     1     -32.897  18.588   1.269  1.00 20.00     0.008 A 
HETATM    6  C6  UNL     1     -31.612  18.746   0.749  1.00 20.00    -0.049 A 
ENDROOT
BRANCH   6   7
HETATM    7  C7  UNL     1     -30.509  19.234   1.626  1.00 20.00     0.109 C 
BRANCH   7   8
HETATM    8  S8  UNL     1     -30.929  19.138   3.393  1.00 20.00    -0.178 SA
HETATM    9  H16 UNL     1     -31.938  20.019   3.343  1.00 20.00     0.101 HD
ENDBRANCH   7   8
ENDBRANCH   6   7
TORSDOF 2
ENDMDL
MODEL 9
REMARK VINA RESULT:      -3.3     12.580     12.898
REMARK  2 active torsions:
REMARK  status: ('A' for Active; 'I' for Inactive)
REMARK    1  A    between atoms: C6_6  and  C7_7 
REMARK    2  A    between atoms: C7_7  and  S8_8 
ROOT
HETATM    1  C1  UNL     1     -31.669  18.917   1.315  1.00 20.00     0.000 A 
HETATM    2  C2  UNL     1     -31.082  18.615   0.086  1.00 20.00     0.001 A 
HETATM    3  C3  UNL     1     -33.056  18.858   1.458  1.00 20.00     0.001 A 
HETATM    4  C4  UNL     1     -31.880  18.256  -0.999  1.00 20.00     0.008 A 
HETATM    5  C5  UNL     1     -33.855  18.500   0.372  1.00 20.00     0.008 A 
HETATM    6  C6  UNL     1     -33.267  18.199  -0.857  1.00 20.00    -0.049 A 
ENDROOT
BRANCH   6   7
HETATM    7  C7  UNL     1     -34.122  17.814  -2.017  1.00 20.00     0.109 C 
BRANCH   7   8
HETATM    8  S8  UNL     1     -33.353  16.535  -3.056  1.00 20.00    -0.178 SA
HETATM    9  H16 UNL     1     -33.249  15.615  -2.088  1.00 20.00     0.101 HD
ENDBRANCH   7   8
ENDBRANCH   6   7
TORSDOF 2
ENDMDL
