MODEL 1
REMARK VINA RESULT:      -6.8      0.000      0.000
REMARK  0 active torsions:
REMARK  status: ('A' for Active; 'I' for Inactive)
ROOT
HETATM    1  C1  UNL     1     -33.574   7.732   5.553  1.00 20.00     0.091 A 
HETATM    2  C2  UNL     1     -32.797   8.093   4.452  1.00 20.00     0.161 A 
HETATM    3  C3  UNL     1     -34.200   6.486   5.587  1.00 20.00     0.161 A 
HETATM    4  C4  UNL     1     -32.645   7.208   3.386  1.00 20.00     0.196 A 
HETATM    5  C5  UNL     1     -34.048   5.600   4.520  1.00 20.00     0.196 A 
HETATM    6  C6  UNL     1     -33.270   5.961   3.419  1.00 20.00     0.199 A 
HETATM    7  F7  UNL     1     -32.196   9.289   4.420  1.00 20.00    -0.203 F 
HETATM    8  F8  UNL     1     -34.947   6.140   6.644  1.00 20.00    -0.203 F 
HETATM    9  F9  UNL     1     -31.899   7.553   2.329  1.00 20.00    -0.199 F 
HETATM   10  F10 UNL     1     -34.649   4.404   4.553  1.00 20.00    -0.199 F 
HETATM   11  F11 UNL     1     -33.124   5.111   2.395  1.00 20.00    -0.199 F 
ENDROOT
TORSDOF 0
ENDMDL
MODEL 2
REMARK VINA RESULT:      -6.8      0.003      3.206
REMARK  0 active torsions:
REMARK  status: ('A' for Active; 'I' for Inactive)
ROOT
HETATM    1  C1  UNL     1     -33.573   7.733   5.549  1.00 20.00     0.091 A 
HETATM    2  C2  UNL     1     -34.199   6.487   5.584  1.00 20.00     0.161 A 
HETATM    3  C3  UNL     1     -32.796   8.093   4.449  1.00 20.00     0.161 A 
HETATM    4  C4  UNL     1     -34.047   5.600   4.519  1.00 20.00     0.196 A 
HETATM    5  C5  UNL     1     -32.644   7.206   3.383  1.00 20.00     0.196 A 
HETATM    6  C6  UNL     1     -33.270   5.960   3.418  1.00 20.00     0.199 A 
HETATM    7  F7  UNL     1     -34.947   6.142   6.641  1.00 20.00    -0.203 F 
HETATM    8  F8  UNL     1     -32.195   9.290   4.416  1.00 20.00    -0.203 F 
HETATM    9  F9  UNL     1     -34.648   4.404   4.552  1.00 20.00    -0.199 F 
HETATM   10  F10 UNL     1     -31.897   7.552   2.327  1.00 20.00    -0.199 F 
HETATM   11  F11 UNL     1     -33.124   5.109   2.395  1.00 20.00    -0.199 F 
ENDROOT
TORSDOF 0
ENDMDL
MODEL 3
REMARK VINA RESULT:      -6.8      0.914      2.825
REMARK  0 active torsions:
REMARK  status: ('A' for Active; 'I' for Inactive)
ROOT
HETATM    1  C1  UNL     1     -34.187   4.984   4.346  1.00 20.00     0.091 A 
HETATM    2  C2  UNL     1     -33.363   5.583   3.393  1.00 20.00     0.161 A 
HETATM    3  C3  UNL     1     -34.511   5.668   5.517  1.00 20.00     0.161 A 
HETATM    4  C4  UNL     1     -32.864   6.866   3.611  1.00 20.00     0.196 A 
HETATM    5  C5  UNL     1     -34.011   6.952   5.735  1.00 20.00     0.196 A 
HETATM    6  C6  UNL     1     -33.188   7.551   4.782  1.00 20.00     0.199 A 
HETATM    7  F7  UNL     1     -33.052   4.925   2.268  1.00 20.00    -0.203 F 
HETATM    8  F8  UNL     1     -35.302   5.092   6.433  1.00 20.00    -0.203 F 
HETATM    9  F9  UNL     1     -32.073   7.442   2.696  1.00 20.00    -0.199 F 
HETATM   10  F10 UNL     1     -34.323   7.609   6.860  1.00 20.00    -0.199 F 
HETATM   11  F11 UNL     1     -32.708   8.784   4.991  1.00 20.00    -0.199 F 
ENDROOT
TORSDOF 0
ENDMDL
MODEL 4
REMARK VINA RESULT:      -6.8      0.914      3.848
REMARK  0 active torsions:
REMARK  status: ('A' for Active; 'I' for Inactive)
ROOT
HETATM    1  C1  UNL     1     -34.188   4.982   4.344  1.00 20.00     0.091 A 
HETATM    2  C2  UNL     1     -34.516   5.670   5.513  1.00 20.00     0.161 A 
HETATM    3  C3  UNL     1     -33.361   5.577   3.392  1.00 20.00     0.161 A 
HETATM    4  C4  UNL     1     -34.016   6.954   5.729  1.00 20.00     0.196 A 
HETATM    5  C5  UNL     1     -32.861   6.861   3.609  1.00 20.00     0.196 A 
HETATM    6  C6  UNL     1     -33.189   7.550   4.777  1.00 20.00     0.199 A 
HETATM    7  F7  UNL     1     -35.310   5.098   6.427  1.00 20.00    -0.203 F 
HETATM    8  F8  UNL     1     -33.047   4.915   2.270  1.00 20.00    -0.203 F 
HETATM    9  F9  UNL     1     -34.330   7.616   6.850  1.00 20.00    -0.199 F 
HETATM   10  F10 UNL     1     -32.067   7.432   2.694  1.00 20.00    -0.199 F 
HETATM   11  F11 UNL     1     -32.708   8.782   4.984  1.00 20.00    -0.199 F 
ENDROOT
TORSDOF 0
ENDMDL
MODEL 5
REMARK VINA RESULT:      -6.6      0.855      2.829
REMARK  0 active torsions:
REMARK  status: ('A' for Active; 'I' for Inactive)
ROOT
HETATM    1  C1  UNL     1     -32.421   7.069   3.058  1.00 20.00     0.091 A 
HETATM    2  C2  UNL     1     -32.760   8.052   3.988  1.00 20.00     0.161 A 
HETATM    3  C3  UNL     1     -32.974   5.793   3.159  1.00 20.00     0.161 A 
HETATM    4  C4  UNL     1     -33.652   7.759   5.019  1.00 20.00     0.196 A 
HETATM    5  C5  UNL     1     -33.867   5.499   4.190  1.00 20.00     0.196 A 
HETATM    6  C6  UNL     1     -34.206   6.482   5.120  1.00 20.00     0.199 A 
HETATM    7  F7  UNL     1     -32.229   9.278   3.890  1.00 20.00    -0.203 F 
HETATM    8  F8  UNL     1     -32.648   4.849   2.266  1.00 20.00    -0.203 F 
HETATM    9  F9  UNL     1     -33.978   8.701   5.912  1.00 20.00    -0.199 F 
HETATM   10  F10 UNL     1     -34.398   4.274   4.286  1.00 20.00    -0.199 F 
HETATM   11  F11 UNL     1     -35.063   6.200   6.109  1.00 20.00    -0.199 F 
ENDROOT
TORSDOF 0
ENDMDL
MODEL 6
REMARK VINA RESULT:      -6.6      0.854      3.642
REMARK  0 active torsions:
REMARK  status: ('A' for Active; 'I' for Inactive)
ROOT
HETATM    1  C1  UNL     1     -32.421   7.071   3.060  1.00 20.00     0.091 A 
HETATM    2  C2  UNL     1     -32.974   5.794   3.161  1.00 20.00     0.161 A 
HETATM    3  C3  UNL     1     -32.760   8.054   3.990  1.00 20.00     0.161 A 
HETATM    4  C4  UNL     1     -33.866   5.500   4.191  1.00 20.00     0.196 A 
HETATM    5  C5  UNL     1     -33.652   7.759   5.021  1.00 20.00     0.196 A 
HETATM    6  C6  UNL     1     -34.206   6.483   5.122  1.00 20.00     0.199 A 
HETATM    7  F7  UNL     1     -32.647   4.851   2.268  1.00 20.00    -0.203 F 
HETATM    8  F8  UNL     1     -32.229   9.280   3.892  1.00 20.00    -0.203 F 
HETATM    9  F9  UNL     1     -34.398   4.275   4.289  1.00 20.00    -0.199 F 
HETATM   10  F10 UNL     1     -33.978   8.704   5.913  1.00 20.00    -0.199 F 
HETATM   11  F11 UNL     1     -35.062   6.201   6.111  1.00 20.00    -0.199 F 
ENDROOT
TORSDOF 0
ENDMDL
MODEL 7
REMARK VINA RESULT:      -6.5      0.881      1.611
REMARK  0 active torsions:
REMARK  status: ('A' for Active; 'I' for Inactive)
ROOT
HETATM    1  C1  UNL     1     -33.289   7.834   4.990  1.00 20.00     0.091 A 
HETATM    2  C2  UNL     1     -32.856   7.270   3.790  1.00 20.00     0.161 A 
HETATM    3  C3  UNL     1     -34.046   7.077   5.884  1.00 20.00     0.161 A 
HETATM    4  C4  UNL     1     -33.180   5.949   3.483  1.00 20.00     0.196 A 
HETATM    5  C5  UNL     1     -34.370   5.755   5.577  1.00 20.00     0.196 A 
HETATM    6  C6  UNL     1     -33.937   5.191   4.377  1.00 20.00     0.199 A 
HETATM    7  F7  UNL     1     -32.128   7.998   2.932  1.00 20.00    -0.203 F 
HETATM    8  F8  UNL     1     -34.461   7.619   7.036  1.00 20.00    -0.203 F 
HETATM    9  F9  UNL     1     -32.766   5.407   2.331  1.00 20.00    -0.199 F 
HETATM   10  F10 UNL     1     -35.097   5.029   6.436  1.00 20.00    -0.199 F 
HETATM   11  F11 UNL     1     -34.249   3.923   4.083  1.00 20.00    -0.199 F 
ENDROOT
TORSDOF 0
ENDMDL
MODEL 8
REMARK VINA RESULT:      -6.5      0.805      3.025
REMARK  0 active torsions:
REMARK  status: ('A' for Active; 'I' for Inactive)
ROOT
HETATM    1  C1  UNL     1     -34.395   5.655   5.561  1.00 20.00     0.091 A 
HETATM    2  C2  UNL     1     -33.957   5.094   4.362  1.00 20.00     0.161 A 
HETATM    3  C3  UNL     1     -34.072   6.976   5.873  1.00 20.00     0.161 A 
HETATM    4  C4  UNL     1     -33.195   5.852   3.474  1.00 20.00     0.196 A 
HETATM    5  C5  UNL     1     -33.310   7.735   4.984  1.00 20.00     0.196 A 
HETATM    6  C6  UNL     1     -32.871   7.173   3.785  1.00 20.00     0.199 A 
HETATM    7  F7  UNL     1     -34.268   3.826   4.063  1.00 20.00    -0.203 F 
HETATM    8  F8  UNL     1     -34.493   7.514   7.025  1.00 20.00    -0.203 F 
HETATM    9  F9  UNL     1     -32.774   5.314   2.323  1.00 20.00    -0.199 F 
HETATM   10  F10 UNL     1     -33.000   9.003   5.284  1.00 20.00    -0.199 F 
HETATM   11  F11 UNL     1     -32.140   7.902   2.933  1.00 20.00    -0.199 F 
ENDROOT
TORSDOF 0
ENDMDL
MODEL 9
REMARK VINA RESULT:      -4.1      9.211     10.098
REMARK  0 active torsions:
REMARK  status: ('A' for Active; 'I' for Inactive)
ROOT
HETATM    1  C1  UNL     1     -43.400   7.273   1.461  1.00 20.00     0.091 A 
HETATM    2  C2  UNL     1     -42.919   6.021   1.845  1.00 20.00     0.161 A 
HETATM    3  C3  UNL     1     -42.882   7.903   0.330  1.00 20.00     0.161 A 
HETATM    4  C4  UNL     1     -41.921   5.399   1.097  1.00 20.00     0.196 A 
HETATM    5  C5  UNL     1     -41.883   7.280  -0.419  1.00 20.00     0.196 A 
HETATM    6  C6  UNL     1     -41.402   6.028  -0.035  1.00 20.00     0.199 A 
HETATM    7  F7  UNL     1     -43.417   5.416   2.931  1.00 20.00    -0.203 F 
HETATM    8  F8  UNL     1     -43.344   9.106  -0.038  1.00 20.00    -0.203 F 
HETATM    9  F9  UNL     1     -41.458   4.197   1.464  1.00 20.00    -0.199 F 
HETATM   10  F10 UNL     1     -41.386   7.885  -1.505  1.00 20.00    -0.199 F 
HETATM   11  F11 UNL     1     -40.444   5.431  -0.754  1.00 20.00    -0.199 F 
ENDROOT
TORSDOF 0
ENDMDL
