MODEL 1
REMARK VINA RESULT:      -4.2      0.000      0.000
REMARK  0 active torsions:
REMARK  status: ('A' for Active; 'I' for Inactive)
ROOT
HETATM    1  C1  UNL     1     -34.684   5.686   6.313  1.00 20.00     0.019 A 
HETATM    2  C2  UNL     1     -34.696   5.199   4.983  1.00 20.00     0.019 A 
HETATM    3  C3  UNL     1     -33.985   6.873   6.310  1.00 20.00     0.090 A 
HETATM    4  C4  UNL     1     -34.005   6.103   4.207  1.00 20.00     0.090 A 
HETATM    5  C5  UNL     1     -32.810   8.265   4.597  1.00 20.00     0.154 C 
HETATM    6  N6  UNL     1     -33.577   7.116   5.025  1.00 20.00    -0.371 N 
ENDROOT
TORSDOF 0
ENDMDL
MODEL 2
REMARK VINA RESULT:      -4.2      0.057      1.531
REMARK  0 active torsions:
REMARK  status: ('A' for Active; 'I' for Inactive)
ROOT
HETATM    1  C1  UNL     1     -34.705   5.178   4.999  1.00 20.00     0.019 A 
HETATM    2  C2  UNL     1     -34.675   5.633   6.341  1.00 20.00     0.019 A 
HETATM    3  C3  UNL     1     -34.035   6.108   4.235  1.00 20.00     0.090 A 
HETATM    4  C4  UNL     1     -33.987   6.826   6.356  1.00 20.00     0.090 A 
HETATM    5  C5  UNL     1     -32.858   8.273   4.657  1.00 20.00     0.154 C 
HETATM    6  N6  UNL     1     -33.603   7.105   5.070  1.00 20.00    -0.371 N 
ENDROOT
TORSDOF 0
ENDMDL
MODEL 3
REMARK VINA RESULT:      -3.8      1.054      2.018
REMARK  0 active torsions:
REMARK  status: ('A' for Active; 'I' for Inactive)
ROOT
HETATM    1  C1  UNL     1     -34.781   5.680   6.155  1.00 20.00     0.019 A 
HETATM    2  C2  UNL     1     -34.161   6.952   6.088  1.00 20.00     0.019 A 
HETATM    3  C3  UNL     1     -34.507   5.026   4.975  1.00 20.00     0.090 A 
HETATM    4  C4  UNL     1     -33.525   7.036   4.868  1.00 20.00     0.090 A 
HETATM    5  C5  UNL     1     -33.244   5.546   2.881  1.00 20.00     0.154 C 
HETATM    6  N6  UNL     1     -33.743   5.859   4.201  1.00 20.00    -0.371 N 
ENDROOT
TORSDOF 0
ENDMDL
MODEL 4
REMARK VINA RESULT:      -3.7      1.503      2.934
REMARK  0 active torsions:
REMARK  status: ('A' for Active; 'I' for Inactive)
ROOT
HETATM    1  C1  UNL     1     -32.497   8.557   4.525  1.00 20.00     0.019 A 
HETATM    2  C2  UNL     1     -33.550   7.990   5.284  1.00 20.00     0.019 A 
HETATM    3  C3  UNL     1     -32.190   7.668   3.520  1.00 20.00     0.090 A 
HETATM    4  C4  UNL     1     -33.855   6.771   4.719  1.00 20.00     0.090 A 
HETATM    5  C5  UNL     1     -33.018   5.426   2.785  1.00 20.00     0.154 C 
HETATM    6  N6  UNL     1     -33.021   6.586   3.648  1.00 20.00    -0.371 N 
ENDROOT
TORSDOF 0
ENDMDL
MODEL 5
REMARK VINA RESULT:      -3.6      1.035      2.740
REMARK  0 active torsions:
REMARK  status: ('A' for Active; 'I' for Inactive)
ROOT
HETATM    1  C1  UNL     1     -32.493   8.435   4.568  1.00 20.00     0.019 A 
HETATM    2  C2  UNL     1     -32.195   7.628   3.443  1.00 20.00     0.019 A 
HETATM    3  C3  UNL     1     -33.514   7.819   5.257  1.00 20.00     0.090 A 
HETATM    4  C4  UNL     1     -33.042   6.542   3.479  1.00 20.00     0.090 A 
HETATM    5  C5  UNL     1     -34.869   5.736   4.984  1.00 20.00     0.154 C 
HETATM    6  N6  UNL     1     -33.840   6.670   4.586  1.00 20.00    -0.371 N 
ENDROOT
TORSDOF 0
ENDMDL
MODEL 6
REMARK VINA RESULT:      -3.6      1.036      3.113
REMARK  0 active torsions:
REMARK  status: ('A' for Active; 'I' for Inactive)
ROOT
HETATM    1  C1  UNL     1     -32.201   7.621   3.443  1.00 20.00     0.019 A 
HETATM    2  C2  UNL     1     -32.505   8.431   4.565  1.00 20.00     0.019 A 
HETATM    3  C3  UNL     1     -33.048   6.536   3.479  1.00 20.00     0.090 A 
HETATM    4  C4  UNL     1     -33.528   7.816   5.252  1.00 20.00     0.090 A 
HETATM    5  C5  UNL     1     -34.876   5.728   4.981  1.00 20.00     0.154 C 
HETATM    6  N6  UNL     1     -33.849   6.664   4.583  1.00 20.00    -0.371 N 
ENDROOT
TORSDOF 0
ENDMDL
MODEL 7
REMARK VINA RESULT:      -3.3      1.341      2.314
REMARK  0 active torsions:
REMARK  status: ('A' for Active; 'I' for Inactive)
ROOT
HETATM    1  C1  UNL     1     -32.996   5.705   2.842  1.00 20.00     0.019 A 
HETATM    2  C2  UNL     1     -33.951   5.535   3.875  1.00 20.00     0.019 A 
HETATM    3  C3  UNL     1     -32.358   6.905   3.065  1.00 20.00     0.090 A 
HETATM    4  C4  UNL     1     -33.866   6.636   4.699  1.00 20.00     0.090 A 
HETATM    5  C5  UNL     1     -32.498   8.728   4.770  1.00 20.00     0.154 C 
HETATM    6  N6  UNL     1     -32.894   7.462   4.196  1.00 20.00    -0.371 N 
ENDROOT
TORSDOF 0
ENDMDL
MODEL 8
REMARK VINA RESULT:      -2.8     15.642     16.616
REMARK  0 active torsions:
REMARK  status: ('A' for Active; 'I' for Inactive)
ROOT
HETATM    1  C1  UNL     1     -24.159  17.339  11.997  1.00 20.00     0.019 A 
HETATM    2  C2  UNL     1     -23.149  18.286  12.295  1.00 20.00     0.019 A 
HETATM    3  C3  UNL     1     -23.945  16.900  10.709  1.00 20.00     0.090 A 
HETATM    4  C4  UNL     1     -22.347  18.397  11.179  1.00 20.00     0.090 A 
HETATM    5  C5  UNL     1     -22.285  17.372   8.900  1.00 20.00     0.154 C 
HETATM    6  N6  UNL     1     -22.842  17.550  10.222  1.00 20.00    -0.371 N 
ENDROOT
TORSDOF 0
ENDMDL
MODEL 9
REMARK VINA RESULT:      -2.8     16.341     17.059
REMARK  0 active torsions:
REMARK  status: ('A' for Active; 'I' for Inactive)
ROOT
HETATM    1  C1  UNL     1     -24.533  18.921   9.320  1.00 20.00     0.019 A 
HETATM    2  C2  UNL     1     -23.209  19.072   8.840  1.00 20.00     0.019 A 
HETATM    3  C3  UNL     1     -24.453  18.620  10.661  1.00 20.00     0.090 A 
HETATM    4  C4  UNL     1     -22.359  18.860   9.903  1.00 20.00     0.090 A 
HETATM    5  C5  UNL     1     -22.615  18.301  12.327  1.00 20.00     0.154 C 
HETATM    6  N6  UNL     1     -23.127  18.585  11.005  1.00 20.00    -0.371 N 
ENDROOT
TORSDOF 0
ENDMDL
