MODEL 1
REMARK VINA RESULT:      -4.0      0.000      0.000
REMARK  0 active torsions:
REMARK  status: ('A' for Active; 'I' for Inactive)
ROOT
HETATM    1  C1  UNL     1     -32.722   8.460   3.467  1.00 20.00     0.008 A 
HETATM    2  C2  UNL     1     -32.770   6.318   2.350  1.00 20.00     0.008 A 
HETATM    3  C3  UNL     1     -33.325   7.889   4.588  1.00 20.00     0.019 A 
HETATM    4  C4  UNL     1     -33.373   5.747   3.471  1.00 20.00     0.019 A 
HETATM    5  C5  UNL     1     -32.444   7.674   2.349  1.00 20.00    -0.062 A 
HETATM    6  C6  UNL     1     -33.651   6.532   4.590  1.00 20.00     0.006 A 
HETATM    7  C7  UNL     1     -31.802   8.285   1.149  1.00 20.00     0.048 C 
HETATM    8  I8  UNL     1     -34.552   5.684   6.258  1.00 20.00    -0.045 I 
ENDROOT
TORSDOF 0
ENDMDL
MODEL 2
REMARK VINA RESULT:      -3.7     16.009     16.041
REMARK  0 active torsions:
REMARK  status: ('A' for Active; 'I' for Inactive)
ROOT
HETATM    1  C1  UNL     1     -23.705  19.180   8.476  1.00 20.00     0.008 A 
HETATM    2  C2  UNL     1     -22.465  17.488   9.676  1.00 20.00     0.008 A 
HETATM    3  C3  UNL     1     -24.613  19.263   9.531  1.00 20.00     0.019 A 
HETATM    4  C4  UNL     1     -23.374  17.571  10.731  1.00 20.00     0.019 A 
HETATM    5  C5  UNL     1     -22.631  18.293   8.549  1.00 20.00    -0.062 A 
HETATM    6  C6  UNL     1     -24.448  18.458  10.659  1.00 20.00     0.006 A 
HETATM    7  C7  UNL     1     -21.661  18.202   7.420  1.00 20.00     0.048 C 
HETATM    8  I8  UNL     1     -25.803  18.581  12.228  1.00 20.00    -0.045 I 
ENDROOT
TORSDOF 0
ENDMDL
MODEL 3
REMARK VINA RESULT:      -3.6     11.859     12.033
REMARK  0 active torsions:
REMARK  status: ('A' for Active; 'I' for Inactive)
ROOT
HETATM    1  C1  UNL     1     -33.849  18.138   0.034  1.00 20.00     0.008 A 
HETATM    2  C2  UNL     1     -31.756  18.137  -1.174  1.00 20.00     0.008 A 
HETATM    3  C3  UNL     1     -33.178  18.515   1.196  1.00 20.00     0.019 A 
HETATM    4  C4  UNL     1     -31.085  18.514  -0.010  1.00 20.00     0.019 A 
HETATM    5  C5  UNL     1     -33.138  17.949  -1.151  1.00 20.00    -0.062 A 
HETATM    6  C6  UNL     1     -31.795  18.704   1.175  1.00 20.00     0.006 A 
HETATM    7  C7  UNL     1     -33.854  17.542  -2.395  1.00 20.00     0.048 C 
HETATM    8  I8  UNL     1     -30.797  19.263   2.908  1.00 20.00    -0.045 I 
ENDROOT
TORSDOF 0
ENDMDL
MODEL 4
REMARK VINA RESULT:      -3.6      2.402      3.761
REMARK  0 active torsions:
REMARK  status: ('A' for Active; 'I' for Inactive)
ROOT
HETATM    1  C1  UNL     1     -33.725   7.364   5.637  1.00 20.00     0.008 A 
HETATM    2  C2  UNL     1     -34.043   5.379   4.296  1.00 20.00     0.008 A 
HETATM    3  C3  UNL     1     -33.137   8.005   4.547  1.00 20.00     0.019 A 
HETATM    4  C4  UNL     1     -33.454   6.021   3.206  1.00 20.00     0.019 A 
HETATM    5  C5  UNL     1     -34.178   6.050   5.511  1.00 20.00    -0.062 A 
HETATM    6  C6  UNL     1     -33.001   7.334   3.331  1.00 20.00     0.006 A 
HETATM    7  C7  UNL     1     -34.804   5.362   6.677  1.00 20.00     0.048 C 
HETATM    8  I8  UNL     1     -32.123   8.291   1.710  1.00 20.00    -0.045 I 
ENDROOT
TORSDOF 0
ENDMDL
MODEL 5
REMARK VINA RESULT:      -3.6      2.401      4.131
REMARK  0 active torsions:
REMARK  status: ('A' for Active; 'I' for Inactive)
ROOT
HETATM    1  C1  UNL     1     -34.042   5.433   4.322  1.00 20.00     0.008 A 
HETATM    2  C2  UNL     1     -33.730   7.406   5.684  1.00 20.00     0.008 A 
HETATM    3  C3  UNL     1     -33.467   6.092   3.236  1.00 20.00     0.019 A 
HETATM    4  C4  UNL     1     -33.154   8.064   4.597  1.00 20.00     0.019 A 
HETATM    5  C5  UNL     1     -34.174   6.091   5.546  1.00 20.00    -0.062 A 
HETATM    6  C6  UNL     1     -33.022   7.408   3.373  1.00 20.00     0.006 A 
HETATM    7  C7  UNL     1     -34.792   5.388   6.707  1.00 20.00     0.048 C 
HETATM    8  I8  UNL     1     -32.167   8.388   1.753  1.00 20.00    -0.045 I 
ENDROOT
TORSDOF 0
ENDMDL
MODEL 6
REMARK VINA RESULT:      -3.4     12.252     12.507
REMARK  0 active torsions:
REMARK  status: ('A' for Active; 'I' for Inactive)
ROOT
HETATM    1  C1  UNL     1     -32.763  18.864   1.498  1.00 20.00     0.008 A 
HETATM    2  C2  UNL     1     -31.118  18.446  -0.222  1.00 20.00     0.008 A 
HETATM    3  C3  UNL     1     -33.759  18.946   0.525  1.00 20.00     0.019 A 
HETATM    4  C4  UNL     1     -32.114  18.528  -1.195  1.00 20.00     0.019 A 
HETATM    5  C5  UNL     1     -31.443  18.614   1.123  1.00 20.00    -0.062 A 
HETATM    6  C6  UNL     1     -33.435  18.778  -0.822  1.00 20.00     0.006 A 
HETATM    7  C7  UNL     1     -30.376  18.530   2.163  1.00 20.00     0.048 C 
HETATM    8  I8  UNL     1     -34.919  18.902  -2.270  1.00 20.00    -0.045 I 
ENDROOT
TORSDOF 0
ENDMDL
MODEL 7
REMARK VINA RESULT:      -3.4     11.707     12.703
REMARK  0 active torsions:
REMARK  status: ('A' for Active; 'I' for Inactive)
ROOT
HETATM    1  C1  UNL     1     -33.276  16.459  -2.507  1.00 20.00     0.008 A 
HETATM    2  C2  UNL     1     -34.817  18.241  -3.046  1.00 20.00     0.008 A 
HETATM    3  C3  UNL     1     -33.495  15.890  -3.761  1.00 20.00     0.019 A 
HETATM    4  C4  UNL     1     -35.036  17.671  -4.301  1.00 20.00     0.019 A 
HETATM    5  C5  UNL     1     -33.937  17.635  -2.150  1.00 20.00    -0.062 A 
HETATM    6  C6  UNL     1     -34.375  16.496  -4.659  1.00 20.00     0.006 A 
HETATM    7  C7  UNL     1     -33.706  18.243  -0.808  1.00 20.00     0.048 C 
HETATM    8  I8  UNL     1     -34.702  15.645  -6.525  1.00 20.00    -0.045 I 
ENDROOT
TORSDOF 0
ENDMDL
MODEL 8
REMARK VINA RESULT:      -3.4     11.678     12.626
REMARK  0 active torsions:
REMARK  status: ('A' for Active; 'I' for Inactive)
ROOT
HETATM    1  C1  UNL     1     -34.793  18.246  -3.021  1.00 20.00     0.008 A 
HETATM    2  C2  UNL     1     -33.298  16.425  -2.484  1.00 20.00     0.008 A 
HETATM    3  C3  UNL     1     -35.015  17.692  -4.281  1.00 20.00     0.019 A 
HETATM    4  C4  UNL     1     -33.520  15.871  -3.745  1.00 20.00     0.019 A 
HETATM    5  C5  UNL     1     -33.934  17.612  -2.123  1.00 20.00    -0.062 A 
HETATM    6  C6  UNL     1     -34.379  16.504  -4.644  1.00 20.00     0.006 A 
HETATM    7  C7  UNL     1     -33.693  18.206  -0.776  1.00 20.00     0.048 C 
HETATM    8  I8  UNL     1     -34.710  15.681  -6.522  1.00 20.00    -0.045 I 
ENDROOT
TORSDOF 0
ENDMDL
MODEL 9
REMARK VINA RESULT:      -3.3     11.416     12.424
REMARK  0 active torsions:
REMARK  status: ('A' for Active; 'I' for Inactive)
ROOT
HETATM    1  C1  UNL     1     -35.074  17.095  -5.097  1.00 20.00     0.008 A 
HETATM    2  C2  UNL     1     -33.895  15.117  -4.366  1.00 20.00     0.008 A 
HETATM    3  C3  UNL     1     -34.547  17.807  -4.019  1.00 20.00     0.019 A 
HETATM    4  C4  UNL     1     -33.368  15.829  -3.288  1.00 20.00     0.019 A 
HETATM    5  C5  UNL     1     -34.747  15.750  -5.270  1.00 20.00    -0.062 A 
HETATM    6  C6  UNL     1     -33.694  17.174  -3.114  1.00 20.00     0.006 A 
HETATM    7  C7  UNL     1     -35.312  14.987  -6.420  1.00 20.00     0.048 C 
HETATM    8  I8  UNL     1     -32.913  18.235  -1.508  1.00 20.00    -0.045 I 
ENDROOT
TORSDOF 0
ENDMDL
