MODEL 1
REMARK VINA RESULT:      -6.2      0.000      0.000
REMARK  0 active torsions:
REMARK  status: ('A' for Active; 'I' for Inactive)
ROOT
HETATM    1  C1  UNL     1     -34.745   5.640   6.217  1.00 20.00     0.001 A 
HETATM    2  C2  UNL     1     -34.633   4.946   5.008  1.00 20.00     0.003 A 
HETATM    3  C3  UNL     1     -34.142   6.895   6.391  1.00 20.00     0.016 A 
HETATM    4  C4  UNL     1     -33.916   5.474   3.929  1.00 20.00     0.040 A 
HETATM    5  C5  UNL     1     -32.683   8.607   5.051  1.00 20.00     0.161 A 
HETATM    6  C6  UNL     1     -33.420   7.436   5.317  1.00 20.00     0.019 A 
HETATM    7  C7  UNL     1     -33.331   6.720   4.137  1.00 20.00     0.113 A 
HETATM    8  N8  UNL     1     -32.178   8.619   3.813  1.00 20.00    -0.140 NA
HETATM    9  O9  UNL     1     -32.590   7.424   3.238  1.00 20.00    -0.213 OA
ENDROOT
TORSDOF 0
ENDMDL
MODEL 2
REMARK VINA RESULT:      -6.1      0.951      1.930
REMARK  0 active torsions:
REMARK  status: ('A' for Active; 'I' for Inactive)
ROOT
HETATM    1  C1  UNL     1     -34.595   4.941   4.928  1.00 20.00     0.001 A 
HETATM    2  C2  UNL     1     -34.742   5.594   6.156  1.00 20.00     0.003 A 
HETATM    3  C3  UNL     1     -33.864   5.522   3.880  1.00 20.00     0.016 A 
HETATM    4  C4  UNL     1     -34.167   6.848   6.386  1.00 20.00     0.040 A 
HETATM    5  C5  UNL     1     -32.502   7.699   3.371  1.00 20.00     0.161 A 
HETATM    6  C6  UNL     1     -33.282   6.780   4.098  1.00 20.00     0.019 A 
HETATM    7  C7  UNL     1     -33.449   7.394   5.326  1.00 20.00     0.113 A 
HETATM    8  N8  UNL     1     -32.208   8.793   4.083  1.00 20.00    -0.140 NA
HETATM    9  O9  UNL     1     -32.809   8.596   5.320  1.00 20.00    -0.213 OA
ENDROOT
TORSDOF 0
ENDMDL
MODEL 3
REMARK VINA RESULT:      -5.9      0.980      2.165
REMARK  0 active torsions:
REMARK  status: ('A' for Active; 'I' for Inactive)
ROOT
HETATM    1  C1  UNL     1     -34.808   5.374   5.956  1.00 20.00     0.001 A 
HETATM    2  C2  UNL     1     -34.435   6.618   6.473  1.00 20.00     0.003 A 
HETATM    3  C3  UNL     1     -34.387   4.962   4.683  1.00 20.00     0.016 A 
HETATM    4  C4  UNL     1     -33.630   7.498   5.742  1.00 20.00     0.040 A 
HETATM    5  C5  UNL     1     -32.954   5.843   2.677  1.00 20.00     0.161 A 
HETATM    6  C6  UNL     1     -33.579   5.834   3.939  1.00 20.00     0.019 A 
HETATM    7  C7  UNL     1     -33.231   7.057   4.484  1.00 20.00     0.113 A 
HETATM    8  N8  UNL     1     -32.274   6.973   2.454  1.00 20.00    -0.140 NA
HETATM    9  O9  UNL     1     -32.452   7.739   3.599  1.00 20.00    -0.213 OA
ENDROOT
TORSDOF 0
ENDMDL
MODEL 4
REMARK VINA RESULT:      -5.9      1.167      1.475
REMARK  0 active torsions:
REMARK  status: ('A' for Active; 'I' for Inactive)
ROOT
HETATM    1  C1  UNL     1     -34.371   6.851   6.541  1.00 20.00     0.001 A 
HETATM    2  C2  UNL     1     -34.797   5.603   6.076  1.00 20.00     0.003 A 
HETATM    3  C3  UNL     1     -33.549   7.675   5.757  1.00 20.00     0.016 A 
HETATM    4  C4  UNL     1     -34.421   5.130   4.814  1.00 20.00     0.040 A 
HETATM    5  C5  UNL     1     -32.385   7.675   3.412  1.00 20.00     0.161 A 
HETATM    6  C6  UNL     1     -33.165   7.212   4.490  1.00 20.00     0.019 A 
HETATM    7  C7  UNL     1     -33.606   5.973   4.064  1.00 20.00     0.113 A 
HETATM    8  N8  UNL     1     -32.344   6.800   2.402  1.00 20.00    -0.140 NA
HETATM    9  O9  UNL     1     -33.117   5.724   2.818  1.00 20.00    -0.213 OA
ENDROOT
TORSDOF 0
ENDMDL
MODEL 5
REMARK VINA RESULT:      -5.8      2.161      3.145
REMARK  0 active torsions:
REMARK  status: ('A' for Active; 'I' for Inactive)
ROOT
HETATM    1  C1  UNL     1     -32.496   8.559   4.236  1.00 20.00     0.001 A 
HETATM    2  C2  UNL     1     -32.175   7.756   3.137  1.00 20.00     0.003 A 
HETATM    3  C3  UNL     1     -33.352   8.097   5.247  1.00 20.00     0.016 A 
HETATM    4  C4  UNL     1     -32.696   6.464   3.004  1.00 20.00     0.040 A 
HETATM    5  C5  UNL     1     -34.741   5.964   5.860  1.00 20.00     0.161 A 
HETATM    6  C6  UNL     1     -33.881   6.803   5.126  1.00 20.00     0.019 A 
HETATM    7  C7  UNL     1     -33.541   6.039   4.024  1.00 20.00     0.113 A 
HETATM    8  N8  UNL     1     -34.922   4.778   5.268  1.00 20.00    -0.140 NA
HETATM    9  O9  UNL     1     -34.162   4.829   4.107  1.00 20.00    -0.213 OA
ENDROOT
TORSDOF 0
ENDMDL
MODEL 6
REMARK VINA RESULT:      -5.7      2.219      3.635
REMARK  0 active torsions:
REMARK  status: ('A' for Active; 'I' for Inactive)
ROOT
HETATM    1  C1  UNL     1     -32.295   7.450   3.007  1.00 20.00     0.001 A 
HETATM    2  C2  UNL     1     -32.323   8.426   4.008  1.00 20.00     0.003 A 
HETATM    3  C3  UNL     1     -32.993   6.242   3.152  1.00 20.00     0.016 A 
HETATM    4  C4  UNL     1     -33.046   8.235   5.190  1.00 20.00     0.040 A 
HETATM    5  C5  UNL     1     -34.533   5.027   4.887  1.00 20.00     0.161 A 
HETATM    6  C6  UNL     1     -33.722   6.037   4.333  1.00 20.00     0.019 A 
HETATM    7  C7  UNL     1     -33.726   7.026   5.301  1.00 20.00     0.113 A 
HETATM    8  N8  UNL     1     -35.001   5.357   6.096  1.00 20.00    -0.140 NA
HETATM    9  O9  UNL     1     -34.489   6.622   6.354  1.00 20.00    -0.213 OA
ENDROOT
TORSDOF 0
ENDMDL
MODEL 7
REMARK VINA RESULT:      -5.0      1.862      3.024
REMARK  0 active torsions:
REMARK  status: ('A' for Active; 'I' for Inactive)
ROOT
HETATM    1  C1  UNL     1     -33.147   5.105   2.685  1.00 20.00     0.001 A 
HETATM    2  C2  UNL     1     -32.502   6.338   2.544  1.00 20.00     0.003 A 
HETATM    3  C3  UNL     1     -33.917   4.815   3.821  1.00 20.00     0.016 A 
HETATM    4  C4  UNL     1     -32.600   7.327   3.528  1.00 20.00     0.040 A 
HETATM    5  C5  UNL     1     -34.657   5.942   6.066  1.00 20.00     0.161 A 
HETATM    6  C6  UNL     1     -34.023   5.798   4.816  1.00 20.00     0.019 A 
HETATM    7  C7  UNL     1     -33.371   7.006   4.641  1.00 20.00     0.113 A 
HETATM    8  N8  UNL     1     -34.420   7.134   6.623  1.00 20.00    -0.140 NA
HETATM    9  O9  UNL     1     -33.606   7.805   5.718  1.00 20.00    -0.213 OA
ENDROOT
TORSDOF 0
ENDMDL
MODEL 8
REMARK VINA RESULT:      -4.0     12.628     12.809
REMARK  0 active torsions:
REMARK  status: ('A' for Active; 'I' for Inactive)
ROOT
HETATM    1  C1  UNL     1     -34.497  18.085  -0.437  1.00 20.00     0.001 A 
HETATM    2  C2  UNL     1     -33.767  17.783  -1.590  1.00 20.00     0.003 A 
HETATM    3  C3  UNL     1     -33.865  18.590   0.710  1.00 20.00     0.016 A 
HETATM    4  C4  UNL     1     -32.382  17.972  -1.645  1.00 20.00     0.040 A 
HETATM    5  C5  UNL     1     -31.470  19.245   1.539  1.00 20.00     0.161 A 
HETATM    6  C6  UNL     1     -32.477  18.784   0.668  1.00 20.00     0.019 A 
HETATM    7  C7  UNL     1     -31.789  18.474  -0.491  1.00 20.00     0.113 A 
HETATM    8  N8  UNL     1     -30.259  19.224   0.972  1.00 20.00    -0.140 NA
HETATM    9  O9  UNL     1     -30.464  18.735  -0.312  1.00 20.00    -0.213 OA
ENDROOT
TORSDOF 0
ENDMDL
MODEL 9
REMARK VINA RESULT:      -3.8     16.192     16.918
REMARK  0 active torsions:
REMARK  status: ('A' for Active; 'I' for Inactive)
ROOT
HETATM    1  C1  UNL     1     -22.615  18.900   8.177  1.00 20.00     0.001 A 
HETATM    2  C2  UNL     1     -21.475  18.725   8.967  1.00 20.00     0.003 A 
HETATM    3  C3  UNL     1     -23.897  18.916   8.746  1.00 20.00     0.016 A 
HETATM    4  C4  UNL     1     -21.569  18.557  10.353  1.00 20.00     0.040 A 
HETATM    5  C5  UNL     1     -25.037  18.698  11.093  1.00 20.00     0.161 A 
HETATM    6  C6  UNL     1     -24.006  18.749  10.134  1.00 20.00     0.019 A 
HETATM    7  C7  UNL     1     -22.856  18.578  10.884  1.00 20.00     0.113 A 
HETATM    8  N8  UNL     1     -24.570  18.510  12.332  1.00 20.00    -0.140 NA
HETATM    9  O9  UNL     1     -23.190  18.434  12.196  1.00 20.00    -0.213 OA
ENDROOT
TORSDOF 0
ENDMDL
