MODEL 1
REMARK VINA RESULT:      -5.0      0.000      0.000
REMARK  1 active torsions:
REMARK  status: ('A' for Active; 'I' for Inactive)
REMARK    1  A    between atoms: C4_4  and  C6_6 
ROOT
HETATM    1  C1  UNL     1     -34.724   5.591   6.313  1.00 20.00     0.027 A 
HETATM    2  C2  UNL     1     -34.062   6.841   6.337  1.00 20.00     0.034 A 
HETATM    3  C3  UNL     1     -34.660   5.150   5.012  1.00 20.00     0.142 A 
HETATM    4  C4  UNL     1     -33.638   7.074   5.049  1.00 20.00     0.052 A 
HETATM    5  O7  UNL     1     -34.000   6.047   4.236  1.00 20.00    -0.327 OA
ENDROOT
BRANCH   4   6
HETATM    6  C6  UNL     1     -32.902   8.177   4.418  1.00 20.00     0.060 C 
HETATM    7  C5  UNL     1     -32.167   7.757   3.137  1.00 20.00     0.012 C 
ENDBRANCH   4   6
TORSDOF 1
ENDMDL
MODEL 2
REMARK VINA RESULT:      -4.8      0.928      3.179
REMARK  1 active torsions:
REMARK  status: ('A' for Active; 'I' for Inactive)
REMARK    1  A    between atoms: C4_4  and  C6_6 
ROOT
HETATM    1  C1  UNL     1     -32.316   8.610   4.414  1.00 20.00     0.027 A 
HETATM    2  C2  UNL     1     -33.382   8.106   5.196  1.00 20.00     0.034 A 
HETATM    3  C3  UNL     1     -32.119   7.698   3.404  1.00 20.00     0.142 A 
HETATM    4  C4  UNL     1     -33.763   6.923   4.607  1.00 20.00     0.052 A 
HETATM    5  O7  UNL     1     -32.997   6.667   3.514  1.00 20.00    -0.327 OA
ENDROOT
BRANCH   4   6
HETATM    6  C6  UNL     1     -34.795   5.928   4.927  1.00 20.00     0.060 C 
HETATM    7  C5  UNL     1     -34.657   5.349   6.342  1.00 20.00     0.012 C 
ENDBRANCH   4   6
TORSDOF 1
ENDMDL
MODEL 3
REMARK VINA RESULT:      -4.6      1.136      1.521
REMARK  1 active torsions:
REMARK  status: ('A' for Active; 'I' for Inactive)
REMARK    1  A    between atoms: C4_4  and  C6_6 
ROOT
HETATM    1  C1  UNL     1     -34.685   4.976   5.090  1.00 20.00     0.027 A 
HETATM    2  C2  UNL     1     -34.192   6.070   4.340  1.00 20.00     0.034 A 
HETATM    3  C3  UNL     1     -34.628   5.361   6.409  1.00 20.00     0.142 A 
HETATM    4  C4  UNL     1     -33.871   7.047   5.254  1.00 20.00     0.052 A 
HETATM    5  O7  UNL     1     -34.134   6.621   6.518  1.00 20.00    -0.327 OA
ENDROOT
BRANCH   4   6
HETATM    6  C6  UNL     1     -33.319   8.402   5.125  1.00 20.00     0.060 C 
HETATM    7  C5  UNL     1     -32.285   8.527   3.996  1.00 20.00     0.012 C 
ENDBRANCH   4   6
TORSDOF 1
ENDMDL
MODEL 4
REMARK VINA RESULT:      -4.4      1.021      3.450
REMARK  1 active torsions:
REMARK  status: ('A' for Active; 'I' for Inactive)
REMARK    1  A    between atoms: C4_4  and  C6_6 
ROOT
HETATM    1  C1  UNL     1     -32.100   7.671   3.286  1.00 20.00     0.027 A 
HETATM    2  C2  UNL     1     -32.895   6.502   3.227  1.00 20.00     0.034 A 
HETATM    3  C3  UNL     1     -32.491   8.342   4.421  1.00 20.00     0.142 A 
HETATM    4  C4  UNL     1     -33.714   6.540   4.332  1.00 20.00     0.052 A 
HETATM    5  O7  UNL     1     -33.474   7.660   5.064  1.00 20.00    -0.327 OA
ENDROOT
BRANCH   4   6
HETATM    6  C6  UNL     1     -34.755   5.638   4.843  1.00 20.00     0.060 C 
HETATM    7  C5  UNL     1     -34.671   5.419   6.360  1.00 20.00     0.012 C 
ENDBRANCH   4   6
TORSDOF 1
ENDMDL
MODEL 5
REMARK VINA RESULT:      -4.3      1.073      1.719
REMARK  1 active torsions:
REMARK  status: ('A' for Active; 'I' for Inactive)
REMARK    1  A    between atoms: C4_4  and  C6_6 
ROOT
HETATM    1  C1  UNL     1     -34.860   5.638   6.231  1.00 20.00     0.027 A 
HETATM    2  C2  UNL     1     -34.576   5.101   4.953  1.00 20.00     0.034 A 
HETATM    3  C3  UNL     1     -34.173   6.827   6.308  1.00 20.00     0.142 A 
HETATM    4  C4  UNL     1     -33.736   6.001   4.339  1.00 20.00     0.052 A 
HETATM    5  O7  UNL     1     -33.485   7.056   5.159  1.00 20.00    -0.327 OA
ENDROOT
BRANCH   4   6
HETATM    6  C6  UNL     1     -33.087   6.032   3.021  1.00 20.00     0.060 C 
HETATM    7  C5  UNL     1     -32.222   7.282   2.805  1.00 20.00     0.012 C 
ENDBRANCH   4   6
TORSDOF 1
ENDMDL
MODEL 6
REMARK VINA RESULT:      -4.2      1.424      2.267
REMARK  1 active torsions:
REMARK  status: ('A' for Active; 'I' for Inactive)
REMARK    1  A    between atoms: C4_4  and  C6_6 
ROOT
HETATM    1  C1  UNL     1     -34.193   7.261   6.470  1.00 20.00     0.027 A 
HETATM    2  C2  UNL     1     -34.469   5.975   5.949  1.00 20.00     0.034 A 
HETATM    3  C3  UNL     1     -33.543   7.947   5.471  1.00 20.00     0.142 A 
HETATM    4  C4  UNL     1     -33.969   5.967   4.668  1.00 20.00     0.052 A 
HETATM    5  O7  UNL     1     -33.402   7.165   4.369  1.00 20.00    -0.327 OA
ENDROOT
BRANCH   4   6
HETATM    6  C6  UNL     1     -33.933   4.948   3.610  1.00 20.00     0.060 C 
HETATM    7  C5  UNL     1     -32.857   5.219   2.548  1.00 20.00     0.012 C 
ENDBRANCH   4   6
TORSDOF 1
ENDMDL
MODEL 7
REMARK VINA RESULT:      -4.1      0.975      1.345
REMARK  1 active torsions:
REMARK  status: ('A' for Active; 'I' for Inactive)
REMARK    1  A    between atoms: C4_4  and  C6_6 
ROOT
HETATM    1  C1  UNL     1     -34.388   6.640   6.414  1.00 20.00     0.027 A 
HETATM    2  C2  UNL     1     -33.661   7.184   5.328  1.00 20.00     0.034 A 
HETATM    3  C3  UNL     1     -34.737   5.364   6.040  1.00 20.00     0.142 A 
HETATM    4  C4  UNL     1     -33.616   6.200   4.368  1.00 20.00     0.052 A 
HETATM    5  O7  UNL     1     -34.270   5.087   4.795  1.00 20.00    -0.327 OA
ENDROOT
BRANCH   4   6
HETATM    6  C6  UNL     1     -33.021   6.131   3.027  1.00 20.00     0.060 C 
HETATM    7  C5  UNL     1     -32.187   7.371   2.673  1.00 20.00     0.012 C 
ENDBRANCH   4   6
TORSDOF 1
ENDMDL
MODEL 8
REMARK VINA RESULT:      -3.8      1.551      2.287
REMARK  1 active torsions:
REMARK  status: ('A' for Active; 'I' for Inactive)
REMARK    1  A    between atoms: C4_4  and  C6_6 
ROOT
HETATM    1  C1  UNL     1     -33.000   5.267   2.789  1.00 20.00     0.027 A 
HETATM    2  C2  UNL     1     -32.642   6.592   3.135  1.00 20.00     0.034 A 
HETATM    3  C3  UNL     1     -33.918   4.862   3.730  1.00 20.00     0.142 A 
HETATM    4  C4  UNL     1     -33.369   6.902   4.261  1.00 20.00     0.052 A 
HETATM    5  O7  UNL     1     -34.148   5.852   4.630  1.00 20.00    -0.327 OA
ENDROOT
BRANCH   4   6
HETATM    6  C6  UNL     1     -33.453   8.103   5.103  1.00 20.00     0.060 C 
HETATM    7  C5  UNL     1     -32.284   9.075   4.886  1.00 20.00     0.012 C 
ENDBRANCH   4   6
TORSDOF 1
ENDMDL
MODEL 9
REMARK VINA RESULT:      -3.4     12.716     13.128
REMARK  1 active torsions:
REMARK  status: ('A' for Active; 'I' for Inactive)
REMARK    1  A    between atoms: C4_4  and  C6_6 
ROOT
HETATM    1  C1  UNL     1     -31.855  18.748   1.525  1.00 20.00     0.027 A 
HETATM    2  C2  UNL     1     -32.842  18.431   0.563  1.00 20.00     0.034 A 
HETATM    3  C3  UNL     1     -30.681  18.913   0.828  1.00 20.00     0.142 A 
HETATM    4  C4  UNL     1     -32.202  18.427  -0.655  1.00 20.00     0.052 A 
HETATM    5  O7  UNL     1     -30.884  18.719  -0.501  1.00 20.00    -0.327 OA
ENDROOT
BRANCH   4   6
HETATM    6  C6  UNL     1     -32.657  18.174  -2.029  1.00 20.00     0.060 C 
HETATM    7  C5  UNL     1     -33.420  16.850  -2.177  1.00 20.00     0.012 C 
ENDBRANCH   4   6
TORSDOF 1
ENDMDL
