MODEL 1
REMARK VINA RESULT:      -6.4      0.000      0.000
REMARK  0 active torsions:
REMARK  status: ('A' for Active; 'I' for Inactive)
ROOT
HETATM    1  C1  UNL     1     -34.762   5.573   6.197  1.00 20.00     0.001 A 
HETATM    2  C2  UNL     1     -34.619   4.886   4.993  1.00 20.00     0.002 A 
HETATM    3  C3  UNL     1     -34.186   6.835   6.374  1.00 20.00     0.014 A 
HETATM    4  C4  UNL     1     -33.896   5.437   3.931  1.00 20.00     0.030 A 
HETATM    5  C5  UNL     1     -32.752   8.638   5.150  1.00 20.00     0.030 A 
HETATM    6  C6  UNL     1     -32.222   8.647   3.881  1.00 20.00     0.089 A 
HETATM    7  C7  UNL     1     -33.453   7.411   5.318  1.00 20.00    -0.008 A 
HETATM    8  C8  UNL     1     -33.326   6.700   4.123  1.00 20.00     0.042 A 
HETATM    9  N9  UNL     1     -32.574   7.474   3.268  1.00 20.00    -0.365 N 
HETATM   10  H16 UNL     1     -32.318   7.214   2.326  1.00 20.00     0.165 HD
ENDROOT
TORSDOF 0
ENDMDL
MODEL 2
REMARK VINA RESULT:      -6.3      0.878      1.936
REMARK  0 active torsions:
REMARK  status: ('A' for Active; 'I' for Inactive)
ROOT
HETATM    1  C1  UNL     1     -34.670   4.954   4.938  1.00 20.00     0.001 A 
HETATM    2  C2  UNL     1     -34.756   5.596   6.173  1.00 20.00     0.002 A 
HETATM    3  C3  UNL     1     -33.926   5.511   3.892  1.00 20.00     0.014 A 
HETATM    4  C4  UNL     1     -34.103   6.811   6.400  1.00 20.00     0.030 A 
HETATM    5  C5  UNL     1     -32.438   7.565   3.285  1.00 20.00     0.030 A 
HETATM    6  C6  UNL     1     -32.067   8.653   4.040  1.00 20.00     0.089 A 
HETATM    7  C7  UNL     1     -33.259   6.734   4.098  1.00 20.00    -0.008 A 
HETATM    8  C8  UNL     1     -33.363   7.354   5.345  1.00 20.00     0.042 A 
HETATM    9  N9  UNL     1     -32.629   8.517   5.282  1.00 20.00    -0.365 N 
HETATM   10  H16 UNL     1     -32.521   9.175   6.041  1.00 20.00     0.165 HD
ENDROOT
TORSDOF 0
ENDMDL
MODEL 3
REMARK VINA RESULT:      -6.1      0.959      2.176
REMARK  0 active torsions:
REMARK  status: ('A' for Active; 'I' for Inactive)
ROOT
HETATM    1  C1  UNL     1     -34.820   5.361   5.945  1.00 20.00     0.001 A 
HETATM    2  C2  UNL     1     -34.467   6.587   6.505  1.00 20.00     0.002 A 
HETATM    3  C3  UNL     1     -34.370   5.000   4.670  1.00 20.00     0.014 A 
HETATM    4  C4  UNL     1     -33.657   7.490   5.811  1.00 20.00     0.030 A 
HETATM    5  C5  UNL     1     -32.933   5.859   2.670  1.00 20.00     0.030 A 
HETATM    6  C6  UNL     1     -32.245   7.039   2.506  1.00 20.00     0.089 A 
HETATM    7  C7  UNL     1     -33.553   5.893   3.951  1.00 20.00    -0.008 A 
HETATM    8  C8  UNL     1     -33.216   7.115   4.537  1.00 20.00     0.042 A 
HETATM    9  N9  UNL     1     -32.421   7.790   3.638  1.00 20.00    -0.365 N 
HETATM   10  H16 UNL     1     -32.025   8.708   3.791  1.00 20.00     0.165 HD
ENDROOT
TORSDOF 0
ENDMDL
MODEL 4
REMARK VINA RESULT:      -6.0      1.368      3.119
REMARK  0 active torsions:
REMARK  status: ('A' for Active; 'I' for Inactive)
ROOT
HETATM    1  C1  UNL     1     -32.280   8.420   3.897  1.00 20.00     0.001 A 
HETATM    2  C2  UNL     1     -32.308   7.443   2.903  1.00 20.00     0.002 A 
HETATM    3  C3  UNL     1     -32.942   8.224   5.113  1.00 20.00     0.014 A 
HETATM    4  C4  UNL     1     -32.999   6.242   3.093  1.00 20.00     0.030 A 
HETATM    5  C5  UNL     1     -34.408   6.499   6.409  1.00 20.00     0.030 A 
HETATM    6  C6  UNL     1     -34.861   5.254   6.037  1.00 20.00     0.089 A 
HETATM    7  C7  UNL     1     -33.645   7.022   5.328  1.00 20.00    -0.008 A 
HETATM    8  C8  UNL     1     -33.656   6.061   4.315  1.00 20.00     0.042 A 
HETATM    9  N9  UNL     1     -34.402   4.998   4.773  1.00 20.00    -0.365 N 
HETATM   10  H16 UNL     1     -34.584   4.152   4.251  1.00 20.00     0.165 HD
ENDROOT
TORSDOF 0
ENDMDL
MODEL 5
REMARK VINA RESULT:      -5.9      1.417      3.650
REMARK  0 active torsions:
REMARK  status: ('A' for Active; 'I' for Inactive)
ROOT
HETATM    1  C1  UNL     1     -32.287   7.565   3.007  1.00 20.00     0.001 A 
HETATM    2  C2  UNL     1     -32.298   8.529   4.014  1.00 20.00     0.002 A 
HETATM    3  C3  UNL     1     -32.974   6.356   3.166  1.00 20.00     0.014 A 
HETATM    4  C4  UNL     1     -32.993   8.315   5.209  1.00 20.00     0.030 A 
HETATM    5  C5  UNL     1     -34.467   5.038   4.850  1.00 20.00     0.030 A 
HETATM    6  C6  UNL     1     -34.912   5.379   6.106  1.00 20.00     0.089 A 
HETATM    7  C7  UNL     1     -33.682   6.119   4.360  1.00 20.00    -0.008 A 
HETATM    8  C8  UNL     1     -33.674   7.102   5.352  1.00 20.00     0.042 A 
HETATM    9  N9  UNL     1     -34.430   6.626   6.400  1.00 20.00    -0.365 N 
HETATM   10  H16 UNL     1     -34.602   7.125   7.262  1.00 20.00     0.165 HD
ENDROOT
TORSDOF 0
ENDMDL
MODEL 6
REMARK VINA RESULT:      -5.3      1.072      3.050
REMARK  0 active torsions:
REMARK  status: ('A' for Active; 'I' for Inactive)
ROOT
HETATM    1  C1  UNL     1     -33.192   8.720   5.541  1.00 20.00     0.001 A 
HETATM    2  C2  UNL     1     -32.421   8.714   4.380  1.00 20.00     0.002 A 
HETATM    3  C3  UNL     1     -33.964   7.608   5.894  1.00 20.00     0.014 A 
HETATM    4  C4  UNL     1     -32.398   7.599   3.537  1.00 20.00     0.030 A 
HETATM    5  C5  UNL     1     -34.599   5.204   5.106  1.00 20.00     0.030 A 
HETATM    6  C6  UNL     1     -34.204   4.494   3.996  1.00 20.00     0.089 A 
HETATM    7  C7  UNL     1     -33.957   6.472   5.061  1.00 20.00    -0.008 A 
HETATM    8  C8  UNL     1     -33.175   6.495   3.904  1.00 20.00     0.042 A 
HETATM    9  N9  UNL     1     -33.344   5.280   3.277  1.00 20.00    -0.365 N 
HETATM   10  H16 UNL     1     -32.898   5.009   2.412  1.00 20.00     0.165 HD
ENDROOT
TORSDOF 0
ENDMDL
MODEL 7
REMARK VINA RESULT:      -5.2      1.367      3.099
REMARK  0 active torsions:
REMARK  status: ('A' for Active; 'I' for Inactive)
ROOT
HETATM    1  C1  UNL     1     -33.014   5.139   2.595  1.00 20.00     0.001 A 
HETATM    2  C2  UNL     1     -32.397   6.386   2.529  1.00 20.00     0.002 A 
HETATM    3  C3  UNL     1     -33.801   4.786   3.697  1.00 20.00     0.014 A 
HETATM    4  C4  UNL     1     -32.544   7.319   3.560  1.00 20.00     0.030 A 
HETATM    5  C5  UNL     1     -34.671   5.692   5.984  1.00 20.00     0.030 A 
HETATM    6  C6  UNL     1     -34.458   6.900   6.606  1.00 20.00     0.089 A 
HETATM    7  C7  UNL     1     -33.965   5.710   4.749  1.00 20.00    -0.008 A 
HETATM    8  C8  UNL     1     -33.334   6.952   4.655  1.00 20.00     0.042 A 
HETATM    9  N9  UNL     1     -33.651   7.654   5.796  1.00 20.00    -0.365 N 
HETATM   10  H16 UNL     1     -33.333   8.591   6.006  1.00 20.00     0.165 HD
ENDROOT
TORSDOF 0
ENDMDL
MODEL 8
REMARK VINA RESULT:      -5.0      1.352      2.388
REMARK  0 active torsions:
REMARK  status: ('A' for Active; 'I' for Inactive)
ROOT
HETATM    1  C1  UNL     1     -32.961   5.262   2.589  1.00 20.00     0.001 A 
HETATM    2  C2  UNL     1     -33.912   4.806   3.500  1.00 20.00     0.002 A 
HETATM    3  C3  UNL     1     -32.369   6.520   2.742  1.00 20.00     0.014 A 
HETATM    4  C4  UNL     1     -34.301   5.591   4.590  1.00 20.00     0.030 A 
HETATM    5  C5  UNL     1     -32.362   8.623   4.286  1.00 20.00     0.030 A 
HETATM    6  C6  UNL     1     -33.080   8.896   5.427  1.00 20.00     0.089 A 
HETATM    7  C7  UNL     1     -32.744   7.330   3.832  1.00 20.00    -0.008 A 
HETATM    8  C8  UNL     1     -33.700   6.847   4.729  1.00 20.00     0.042 A 
HETATM    9  N9  UNL     1     -33.884   7.818   5.687  1.00 20.00    -0.365 N 
HETATM   10  H16 UNL     1     -34.520   7.746   6.469  1.00 20.00     0.165 HD
ENDROOT
TORSDOF 0
ENDMDL
MODEL 9
REMARK VINA RESULT:      -4.5     15.067     15.613
REMARK  0 active torsions:
REMARK  status: ('A' for Active; 'I' for Inactive)
ROOT
HETATM    1  C1  UNL     1     -25.823  18.268  12.012  1.00 20.00     0.001 A 
HETATM    2  C2  UNL     1     -25.368  16.989  12.331  1.00 20.00     0.002 A 
HETATM    3  C3  UNL     1     -25.240  18.996  10.970  1.00 20.00     0.014 A 
HETATM    4  C4  UNL     1     -24.318  16.400  11.620  1.00 20.00     0.030 A 
HETATM    5  C5  UNL     1     -23.377  18.861   9.148  1.00 20.00     0.030 A 
HETATM    6  C6  UNL     1     -22.486  17.855   8.856  1.00 20.00     0.089 A 
HETATM    7  C7  UNL     1     -24.181  18.423  10.238  1.00 20.00    -0.008 A 
HETATM    8  C8  UNL     1     -23.746  17.141  10.580  1.00 20.00     0.042 A 
HETATM    9  N9  UNL     1     -22.716  16.821   9.724  1.00 20.00    -0.365 N 
HETATM   10  H16 UNL     1     -22.204  15.950   9.735  1.00 20.00     0.165 HD
ENDROOT
TORSDOF 0
ENDMDL
