MODEL 1
REMARK VINA RESULT:      -5.7      0.000      0.000
REMARK  0 active torsions:
REMARK  status: ('A' for Active; 'I' for Inactive)
ROOT
HETATM    1  C1  UNL     1     -34.777   5.294   5.944  1.00 20.00     0.000 A 
HETATM    2  C2  UNL     1     -34.462   5.048   4.608  1.00 20.00     0.001 A 
HETATM    3  C3  UNL     1     -34.375   6.486   6.546  1.00 20.00     0.001 A 
HETATM    4  C4  UNL     1     -33.746   5.993   3.873  1.00 20.00     0.007 A 
HETATM    5  C5  UNL     1     -33.659   7.432   5.812  1.00 20.00     0.007 A 
HETATM    6  C6  UNL     1     -33.345   7.186   4.475  1.00 20.00    -0.062 A 
HETATM    7  C7  UNL     1     -32.579   8.197   3.692  1.00 20.00     0.048 C 
ENDROOT
TORSDOF 0
ENDMDL
MODEL 2
REMARK VINA RESULT:      -5.7      0.013      1.826
REMARK  0 active torsions:
REMARK  status: ('A' for Active; 'I' for Inactive)
ROOT
HETATM    1  C1  UNL     1     -34.778   5.295   5.934  1.00 20.00     0.000 A 
HETATM    2  C2  UNL     1     -34.378   6.483   6.545  1.00 20.00     0.001 A 
HETATM    3  C3  UNL     1     -34.460   5.057   4.597  1.00 20.00     0.001 A 
HETATM    4  C4  UNL     1     -33.660   7.434   5.819  1.00 20.00     0.007 A 
HETATM    5  C5  UNL     1     -33.742   6.008   3.871  1.00 20.00     0.007 A 
HETATM    6  C6  UNL     1     -33.342   7.196   4.482  1.00 20.00    -0.062 A 
HETATM    7  C7  UNL     1     -32.575   8.212   3.705  1.00 20.00     0.048 C 
ENDROOT
TORSDOF 0
ENDMDL
MODEL 3
REMARK VINA RESULT:      -5.6      0.645      2.190
REMARK  0 active torsions:
REMARK  status: ('A' for Active; 'I' for Inactive)
ROOT
HETATM    1  C1  UNL     1     -34.380   6.727   6.419  1.00 20.00     0.000 A 
HETATM    2  C2  UNL     1     -33.628   7.538   5.570  1.00 20.00     0.001 A 
HETATM    3  C3  UNL     1     -34.728   5.436   6.022  1.00 20.00     0.001 A 
HETATM    4  C4  UNL     1     -33.223   7.059   4.324  1.00 20.00     0.007 A 
HETATM    5  C5  UNL     1     -34.323   4.957   4.775  1.00 20.00     0.007 A 
HETATM    6  C6  UNL     1     -33.571   5.768   3.926  1.00 20.00    -0.062 A 
HETATM    7  C7  UNL     1     -33.139   5.255   2.594  1.00 20.00     0.048 C 
ENDROOT
TORSDOF 0
ENDMDL
MODEL 4
REMARK VINA RESULT:      -5.6      0.646      1.876
REMARK  0 active torsions:
REMARK  status: ('A' for Active; 'I' for Inactive)
ROOT
HETATM    1  C1  UNL     1     -34.379   6.729   6.418  1.00 20.00     0.000 A 
HETATM    2  C2  UNL     1     -34.727   5.438   6.023  1.00 20.00     0.001 A 
HETATM    3  C3  UNL     1     -33.626   7.539   5.567  1.00 20.00     0.001 A 
HETATM    4  C4  UNL     1     -34.325   4.956   4.777  1.00 20.00     0.007 A 
HETATM    5  C5  UNL     1     -33.224   7.058   4.322  1.00 20.00     0.007 A 
HETATM    6  C6  UNL     1     -33.573   5.766   3.926  1.00 20.00    -0.062 A 
HETATM    7  C7  UNL     1     -33.141   5.252   2.595  1.00 20.00     0.048 C 
ENDROOT
TORSDOF 0
ENDMDL
MODEL 5
REMARK VINA RESULT:      -5.3      0.844      3.342
REMARK  0 active torsions:
REMARK  status: ('A' for Active; 'I' for Inactive)
ROOT
HETATM    1  C1  UNL     1     -32.277   7.624   3.224  1.00 20.00     0.000 A 
HETATM    2  C2  UNL     1     -32.552   8.269   4.430  1.00 20.00     0.001 A 
HETATM    3  C3  UNL     1     -32.839   6.375   2.958  1.00 20.00     0.001 A 
HETATM    4  C4  UNL     1     -33.388   7.666   5.369  1.00 20.00     0.007 A 
HETATM    5  C5  UNL     1     -33.676   5.773   3.897  1.00 20.00     0.007 A 
HETATM    6  C6  UNL     1     -33.951   6.418   5.103  1.00 20.00    -0.062 A 
HETATM    7  C7  UNL     1     -34.845   5.772   6.106  1.00 20.00     0.048 C 
ENDROOT
TORSDOF 0
ENDMDL
MODEL 6
REMARK VINA RESULT:      -5.3      0.843      2.823
REMARK  0 active torsions:
REMARK  status: ('A' for Active; 'I' for Inactive)
ROOT
HETATM    1  C1  UNL     1     -32.281   7.635   3.227  1.00 20.00     0.000 A 
HETATM    2  C2  UNL     1     -32.847   6.389   2.960  1.00 20.00     0.001 A 
HETATM    3  C3  UNL     1     -32.533   8.269   4.444  1.00 20.00     0.001 A 
HETATM    4  C4  UNL     1     -33.665   5.776   3.909  1.00 20.00     0.007 A 
HETATM    5  C5  UNL     1     -33.351   7.656   5.393  1.00 20.00     0.007 A 
HETATM    6  C6  UNL     1     -33.917   6.410   5.126  1.00 20.00    -0.062 A 
HETATM    7  C7  UNL     1     -34.793   5.756   6.141  1.00 20.00     0.048 C 
ENDROOT
TORSDOF 0
ENDMDL
MODEL 7
REMARK VINA RESULT:      -4.7      1.144      2.542
REMARK  0 active torsions:
REMARK  status: ('A' for Active; 'I' for Inactive)
ROOT
HETATM    1  C1  UNL     1     -33.043   5.430   2.792  1.00 20.00     0.000 A 
HETATM    2  C2  UNL     1     -32.314   6.617   2.723  1.00 20.00     0.001 A 
HETATM    3  C3  UNL     1     -33.983   5.248   3.807  1.00 20.00     0.001 A 
HETATM    4  C4  UNL     1     -32.524   7.622   3.667  1.00 20.00     0.007 A 
HETATM    5  C5  UNL     1     -34.193   6.253   4.751  1.00 20.00     0.007 A 
HETATM    6  C6  UNL     1     -33.464   7.440   4.682  1.00 20.00    -0.062 A 
HETATM    7  C7  UNL     1     -33.688   8.513   5.693  1.00 20.00     0.048 C 
ENDROOT
TORSDOF 0
ENDMDL
MODEL 8
REMARK VINA RESULT:      -3.5     12.645     13.161
REMARK  0 active torsions:
REMARK  status: ('A' for Active; 'I' for Inactive)
ROOT
HETATM    1  C1  UNL     1     -32.421  19.263   1.120  1.00 20.00     0.000 A 
HETATM    2  C2  UNL     1     -31.450  19.057   0.141  1.00 20.00     0.001 A 
HETATM    3  C3  UNL     1     -33.693  18.710   0.968  1.00 20.00     0.001 A 
HETATM    4  C4  UNL     1     -31.750  18.299  -0.992  1.00 20.00     0.007 A 
HETATM    5  C5  UNL     1     -33.993  17.952  -0.164  1.00 20.00     0.007 A 
HETATM    6  C6  UNL     1     -33.022  17.746  -1.144  1.00 20.00    -0.062 A 
HETATM    7  C7  UNL     1     -33.344  16.936  -2.353  1.00 20.00     0.048 C 
ENDROOT
TORSDOF 0
ENDMDL
MODEL 9
REMARK VINA RESULT:      -3.5     12.734     13.197
REMARK  0 active torsions:
REMARK  status: ('A' for Active; 'I' for Inactive)
ROOT
HETATM    1  C1  UNL     1     -33.687  17.989  -0.715  1.00 20.00     0.000 A 
HETATM    2  C2  UNL     1     -33.878  18.364   0.615  1.00 20.00     0.001 A 
HETATM    3  C3  UNL     1     -32.409  18.029  -1.273  1.00 20.00     0.001 A 
HETATM    4  C4  UNL     1     -32.793  18.779   1.387  1.00 20.00     0.007 A 
HETATM    5  C5  UNL     1     -31.323  18.444  -0.502  1.00 20.00     0.007 A 
HETATM    6  C6  UNL     1     -31.515  18.818   0.828  1.00 20.00    -0.062 A 
HETATM    7  C7  UNL     1     -30.354  19.262   1.652  1.00 20.00     0.048 C 
ENDROOT
TORSDOF 0
ENDMDL
