MODEL 1
REMARK VINA RESULT:      -5.5      0.000      0.000
REMARK  4 active torsions:
REMARK  status: ('A' for Active; 'I' for Inactive)
REMARK    1  A    between atoms: C6_6  and  C8_8 
REMARK    2  A    between atoms: C8_8  and  C10_10 
REMARK    3  A    between atoms: C9_9  and  C11_11 
REMARK    4  A    between atoms: C10_10  and  C11_11 
ROOT
HETATM    1  C1  UNL     1     -34.820   5.163   5.743  1.00 20.00     0.000 A 
HETATM    2  C2  UNL     1     -34.426   5.252   4.407  1.00 20.00     0.001 A 
HETATM    3  C3  UNL     1     -34.499   6.188   6.634  1.00 20.00     0.001 A 
HETATM    4  C4  UNL     1     -33.711   6.364   3.963  1.00 20.00     0.007 A 
HETATM    5  C5  UNL     1     -33.784   7.300   6.189  1.00 20.00     0.007 A 
HETATM    6  C6  UNL     1     -33.390   7.387   4.854  1.00 20.00    -0.058 A 
ENDROOT
BRANCH   6   7
HETATM    7  C8  UNL     1     -32.621   8.582   4.377  1.00 20.00     0.038 C 
BRANCH   7   8
HETATM    8  C10 UNL     1     -32.311   8.548   2.877  1.00 20.00     0.005 C 
BRANCH   8   9
HETATM    9  C11 UNL     1     -32.950   9.704   2.102  1.00 20.00    -0.000 C 
BRANCH   9  10
HETATM   10  C9  UNL     1     -32.836   9.488   0.592  1.00 20.00    -0.005 C 
HETATM   11  C7  UNL     1     -32.002   8.260   0.266  1.00 20.00     0.005 C 
ENDBRANCH   9  10
ENDBRANCH   8   9
ENDBRANCH   7   8
ENDBRANCH   6   7
TORSDOF 4
ENDMDL
MODEL 2
REMARK VINA RESULT:      -5.5      0.054      1.458
REMARK  4 active torsions:
REMARK  status: ('A' for Active; 'I' for Inactive)
REMARK    1  A    between atoms: C6_6  and  C8_8 
REMARK    2  A    between atoms: C8_8  and  C10_10 
REMARK    3  A    between atoms: C9_9  and  C11_11 
REMARK    4  A    between atoms: C10_10  and  C11_11 
ROOT
HETATM    1  C1  UNL     1     -34.818   5.108   5.723  1.00 20.00     0.000 A 
HETATM    2  C2  UNL     1     -34.527   6.149   6.605  1.00 20.00     0.001 A 
HETATM    3  C3  UNL     1     -34.400   5.183   4.394  1.00 20.00     0.001 A 
HETATM    4  C4  UNL     1     -33.819   7.265   6.159  1.00 20.00     0.007 A 
HETATM    5  C5  UNL     1     -33.692   6.299   3.948  1.00 20.00     0.007 A 
HETATM    6  C6  UNL     1     -33.402   7.340   4.830  1.00 20.00    -0.058 A 
ENDROOT
BRANCH   6   7
HETATM    7  C8  UNL     1     -32.641   8.538   4.350  1.00 20.00     0.038 C 
BRANCH   7   8
HETATM    8  C10 UNL     1     -32.343   8.509   2.847  1.00 20.00     0.005 C 
BRANCH   8   9
HETATM    9  C11 UNL     1     -32.939   9.697   2.089  1.00 20.00    -0.000 C 
BRANCH   9  10
HETATM   10  C9  UNL     1     -32.820   9.506   0.576  1.00 20.00    -0.005 C 
HETATM   11  C7  UNL     1     -31.987   8.281   0.233  1.00 20.00     0.005 C 
ENDBRANCH   9  10
ENDBRANCH   8   9
ENDBRANCH   7   8
ENDBRANCH   6   7
TORSDOF 4
ENDMDL
MODEL 3
REMARK VINA RESULT:      -5.3      0.666      1.709
REMARK  4 active torsions:
REMARK  status: ('A' for Active; 'I' for Inactive)
REMARK    1  A    between atoms: C6_6  and  C8_8 
REMARK    2  A    between atoms: C8_8  and  C10_10 
REMARK    3  A    between atoms: C9_9  and  C11_11 
REMARK    4  A    between atoms: C10_10  and  C11_11 
ROOT
HETATM    1  C1  UNL     1     -34.646   6.116   6.490  1.00 20.00     0.000 A 
HETATM    2  C2  UNL     1     -34.754   5.042   5.604  1.00 20.00     0.001 A 
HETATM    3  C3  UNL     1     -33.929   7.255   6.121  1.00 20.00     0.001 A 
HETATM    4  C4  UNL     1     -34.144   5.108   4.352  1.00 20.00     0.007 A 
HETATM    5  C5  UNL     1     -33.319   7.319   4.869  1.00 20.00     0.007 A 
HETATM    6  C6  UNL     1     -33.427   6.246   3.984  1.00 20.00    -0.058 A 
ENDROOT
BRANCH   6   7
HETATM    7  C8  UNL     1     -32.771   6.316   2.639  1.00 20.00     0.038 C 
BRANCH   7   8
HETATM    8  C10 UNL     1     -32.103   7.666   2.356  1.00 20.00     0.005 C 
BRANCH   8   9
HETATM    9  C11 UNL     1     -31.969   7.973   0.862  1.00 20.00    -0.000 C 
BRANCH   9  10
HETATM   10  C9  UNL     1     -32.725   9.249   0.489  1.00 20.00    -0.005 C 
HETATM   11  C7  UNL     1     -33.050  10.085   1.717  1.00 20.00     0.005 C 
ENDBRANCH   9  10
ENDBRANCH   8   9
ENDBRANCH   7   8
ENDBRANCH   6   7
TORSDOF 4
ENDMDL
MODEL 4
REMARK VINA RESULT:      -5.3      0.674      2.006
REMARK  4 active torsions:
REMARK  status: ('A' for Active; 'I' for Inactive)
REMARK    1  A    between atoms: C6_6  and  C8_8 
REMARK    2  A    between atoms: C8_8  and  C10_10 
REMARK    3  A    between atoms: C9_9  and  C11_11 
REMARK    4  A    between atoms: C10_10  and  C11_11 
ROOT
HETATM    1  C1  UNL     1     -34.680   6.113   6.558  1.00 20.00     0.000 A 
HETATM    2  C2  UNL     1     -34.025   7.277   6.156  1.00 20.00     0.001 A 
HETATM    3  C3  UNL     1     -34.739   5.013   5.701  1.00 20.00     0.001 A 
HETATM    4  C4  UNL     1     -33.428   7.342   4.897  1.00 20.00     0.007 A 
HETATM    5  C5  UNL     1     -34.141   5.079   4.442  1.00 20.00     0.007 A 
HETATM    6  C6  UNL     1     -33.486   6.243   4.041  1.00 20.00    -0.058 A 
ENDROOT
BRANCH   6   7
HETATM    7  C8  UNL     1     -32.845   6.313   2.688  1.00 20.00     0.038 C 
BRANCH   7   8
HETATM    8  C10 UNL     1     -32.167   7.657   2.403  1.00 20.00     0.005 C 
BRANCH   8   9
HETATM    9  C11 UNL     1     -31.905   7.898   0.914  1.00 20.00    -0.000 C 
BRANCH   9  10
HETATM   10  C9  UNL     1     -32.661   9.129   0.410  1.00 20.00    -0.005 C 
HETATM   11  C7  UNL     1     -33.119  10.011   1.561  1.00 20.00     0.005 C 
ENDBRANCH   9  10
ENDBRANCH   8   9
ENDBRANCH   7   8
ENDBRANCH   6   7
TORSDOF 4
ENDMDL
MODEL 5
REMARK VINA RESULT:      -5.2      0.830      4.930
REMARK  4 active torsions:
REMARK  status: ('A' for Active; 'I' for Inactive)
REMARK    1  A    between atoms: C6_6  and  C8_8 
REMARK    2  A    between atoms: C8_8  and  C10_10 
REMARK    3  A    between atoms: C9_9  and  C11_11 
REMARK    4  A    between atoms: C10_10  and  C11_11 
ROOT
HETATM    1  C1  UNL     1     -32.514   8.740   0.623  1.00 20.00     0.000 A 
HETATM    2  C2  UNL     1     -32.933   9.805   1.421  1.00 20.00     0.001 A 
HETATM    3  C3  UNL     1     -32.109   7.543   1.215  1.00 20.00     0.001 A 
HETATM    4  C4  UNL     1     -32.949   9.673   2.809  1.00 20.00     0.007 A 
HETATM    5  C5  UNL     1     -32.125   7.411   2.604  1.00 20.00     0.007 A 
HETATM    6  C6  UNL     1     -32.544   8.477   3.400  1.00 20.00    -0.058 A 
ENDROOT
BRANCH   6   7
HETATM    7  C8  UNL     1     -32.560   8.335   4.892  1.00 20.00     0.038 C 
BRANCH   7   8
HETATM    8  C10 UNL     1     -33.923   7.909   5.449  1.00 20.00     0.005 C 
BRANCH   8   9
HETATM    9  C11 UNL     1     -33.838   6.718   6.408  1.00 20.00    -0.000 C 
BRANCH   9  10
HETATM   10  C9  UNL     1     -34.807   5.607   5.998  1.00 20.00    -0.005 C 
HETATM   11  C7  UNL     1     -34.467   5.050   4.625  1.00 20.00     0.005 C 
ENDBRANCH   9  10
ENDBRANCH   8   9
ENDBRANCH   7   8
ENDBRANCH   6   7
TORSDOF 4
ENDMDL
MODEL 6
REMARK VINA RESULT:      -4.4     10.950     11.744
REMARK  4 active torsions:
REMARK  status: ('A' for Active; 'I' for Inactive)
REMARK    1  A    between atoms: C6_6  and  C8_8 
REMARK    2  A    between atoms: C8_8  and  C10_10 
REMARK    3  A    between atoms: C9_9  and  C11_11 
REMARK    4  A    between atoms: C10_10  and  C11_11 
ROOT
HETATM    1  C1  UNL     1     -32.212  18.863   1.526  1.00 20.00     0.000 A 
HETATM    2  C2  UNL     1     -31.143  18.811   0.630  1.00 20.00     0.001 A 
HETATM    3  C3  UNL     1     -33.499  18.540   1.096  1.00 20.00     0.001 A 
HETATM    4  C4  UNL     1     -31.363  18.436  -0.696  1.00 20.00     0.007 A 
HETATM    5  C5  UNL     1     -33.718  18.166  -0.230  1.00 20.00     0.007 A 
HETATM    6  C6  UNL     1     -32.649  18.114  -1.125  1.00 20.00    -0.058 A 
ENDROOT
BRANCH   6   7
HETATM    7  C8  UNL     1     -32.885  17.712  -2.549  1.00 20.00     0.038 C 
BRANCH   7   8
HETATM    8  C10 UNL     1     -33.607  16.368  -2.692  1.00 20.00     0.005 C 
BRANCH   8   9
HETATM    9  C11 UNL     1     -33.109  15.537  -3.878  1.00 20.00    -0.000 C 
BRANCH   9  10
HETATM   10  C9  UNL     1     -34.095  14.420  -4.225  1.00 20.00    -0.005 C 
HETATM   11  C7  UNL     1     -35.119  14.880  -5.250  1.00 20.00     0.005 C 
ENDBRANCH   9  10
ENDBRANCH   8   9
ENDBRANCH   7   8
ENDBRANCH   6   7
TORSDOF 4
ENDMDL
MODEL 7
REMARK VINA RESULT:      -4.4     10.944     11.743
REMARK  4 active torsions:
REMARK  status: ('A' for Active; 'I' for Inactive)
REMARK    1  A    between atoms: C6_6  and  C8_8 
REMARK    2  A    between atoms: C8_8  and  C10_10 
REMARK    3  A    between atoms: C9_9  and  C11_11 
REMARK    4  A    between atoms: C10_10  and  C11_11 
ROOT
HETATM    1  C1  UNL     1     -32.276  18.840   1.515  1.00 20.00     0.000 A 
HETATM    2  C2  UNL     1     -33.549  18.488   1.064  1.00 20.00     0.001 A 
HETATM    3  C3  UNL     1     -31.192  18.815   0.637  1.00 20.00     0.001 A 
HETATM    4  C4  UNL     1     -33.737  18.110  -0.266  1.00 20.00     0.007 A 
HETATM    5  C5  UNL     1     -31.382  18.437  -0.692  1.00 20.00     0.007 A 
HETATM    6  C6  UNL     1     -32.654  18.084  -1.143  1.00 20.00    -0.058 A 
ENDROOT
BRANCH   6   7
HETATM    7  C8  UNL     1     -32.856  17.678  -2.571  1.00 20.00     0.038 C 
BRANCH   7   8
HETATM    8  C10 UNL     1     -33.608  16.352  -2.727  1.00 20.00     0.005 C 
BRANCH   8   9
HETATM    9  C11 UNL     1     -33.106  15.507  -3.901  1.00 20.00    -0.000 C 
BRANCH   9  10
HETATM   10  C9  UNL     1     -34.101  14.399  -4.251  1.00 20.00    -0.005 C 
HETATM   11  C7  UNL     1     -35.126  14.873  -5.269  1.00 20.00     0.005 C 
ENDBRANCH   9  10
ENDBRANCH   8   9
ENDBRANCH   7   8
ENDBRANCH   6   7
TORSDOF 4
ENDMDL
MODEL 8
REMARK VINA RESULT:      -4.2     11.164     12.229
REMARK  4 active torsions:
REMARK  status: ('A' for Active; 'I' for Inactive)
REMARK    1  A    between atoms: C6_6  and  C8_8 
REMARK    2  A    between atoms: C8_8  and  C10_10 
REMARK    3  A    between atoms: C9_9  and  C11_11 
REMARK    4  A    between atoms: C10_10  and  C11_11 
ROOT
HETATM    1  C1  UNL     1     -35.050  15.138  -5.543  1.00 20.00     0.000 A 
HETATM    2  C2  UNL     1     -35.365  16.472  -5.281  1.00 20.00     0.001 A 
HETATM    3  C3  UNL     1     -34.042  14.504  -4.817  1.00 20.00     0.001 A 
HETATM    4  C4  UNL     1     -34.672  17.171  -4.293  1.00 20.00     0.007 A 
HETATM    5  C5  UNL     1     -33.348  15.204  -3.829  1.00 20.00     0.007 A 
HETATM    6  C6  UNL     1     -33.664  16.538  -3.568  1.00 20.00    -0.058 A 
ENDROOT
BRANCH   6   7
HETATM    7  C8  UNL     1     -32.918  17.289  -2.507  1.00 20.00     0.038 C 
BRANCH   7   8
HETATM    8  C10 UNL     1     -33.709  17.451  -1.205  1.00 20.00     0.005 C 
BRANCH   8   9
HETATM    9  C11 UNL     1     -33.104  18.489  -0.256  1.00 20.00    -0.000 C 
BRANCH   9  10
HETATM   10  C9  UNL     1     -31.581  18.535  -0.382  1.00 20.00    -0.005 C 
HETATM   11  C7  UNL     1     -30.905  18.424   0.975  1.00 20.00     0.005 C 
ENDBRANCH   9  10
ENDBRANCH   8   9
ENDBRANCH   7   8
ENDBRANCH   6   7
TORSDOF 4
ENDMDL
MODEL 9
REMARK VINA RESULT:      -4.2     11.185     12.378
REMARK  4 active torsions:
REMARK  status: ('A' for Active; 'I' for Inactive)
REMARK    1  A    between atoms: C6_6  and  C8_8 
REMARK    2  A    between atoms: C8_8  and  C10_10 
REMARK    3  A    between atoms: C9_9  and  C11_11 
REMARK    4  A    between atoms: C10_10  and  C11_11 
ROOT
HETATM    1  C1  UNL     1     -34.835  15.274  -5.632  1.00 20.00     0.000 A 
HETATM    2  C2  UNL     1     -34.024  14.654  -4.680  1.00 20.00     0.001 A 
HETATM    3  C3  UNL     1     -35.051  16.652  -5.574  1.00 20.00     0.001 A 
HETATM    4  C4  UNL     1     -33.429  15.412  -3.671  1.00 20.00     0.007 A 
HETATM    5  C5  UNL     1     -34.455  17.408  -4.564  1.00 20.00     0.007 A 
HETATM    6  C6  UNL     1     -33.645  16.788  -3.613  1.00 20.00    -0.058 A 
ENDROOT
BRANCH   6   7
HETATM    7  C8  UNL     1     -33.007  17.602  -2.529  1.00 20.00     0.038 C 
BRANCH   7   8
HETATM    8  C10 UNL     1     -33.673  17.424  -1.161  1.00 20.00     0.005 C 
BRANCH   8   9
HETATM    9  C11 UNL     1     -33.037  18.281  -0.063  1.00 20.00    -0.000 C 
BRANCH   9  10
HETATM   10  C9  UNL     1     -31.549  18.511  -0.332  1.00 20.00    -0.005 C 
HETATM   11  C7  UNL     1     -30.824  18.988   0.917  1.00 20.00     0.005 C 
ENDBRANCH   9  10
ENDBRANCH   8   9
ENDBRANCH   7   8
ENDBRANCH   6   7
TORSDOF 4
ENDMDL
