MODEL 1
REMARK VINA RESULT:      -5.8      0.000      0.000
REMARK  1 active torsions:
REMARK  status: ('A' for Active; 'I' for Inactive)
REMARK    1  A    between atoms: C6_6  and  C8_8 
ROOT
HETATM    1  C1  UNL     1     -34.820   5.343   6.015  1.00 20.00     0.000 A 
HETATM    2  C2  UNL     1     -34.357   6.544   6.553  1.00 20.00     0.001 A 
HETATM    3  C3  UNL     1     -34.527   5.011   4.693  1.00 20.00     0.001 A 
HETATM    4  C4  UNL     1     -33.600   7.414   5.768  1.00 20.00     0.011 A 
HETATM    5  C5  UNL     1     -33.771   5.882   3.907  1.00 20.00     0.011 A 
HETATM    6  C6  UNL     1     -33.307   7.083   4.445  1.00 20.00    -0.037 A 
ENDROOT
BRANCH   6   7
HETATM    7  C8  UNL     1     -32.519   7.989   3.625  1.00 20.00     0.001 C 
HETATM    8  C7  UNL     1     -32.183   7.740   2.367  1.00 20.00     0.012 C 
ENDBRANCH   6   7
TORSDOF 1
ENDMDL
MODEL 2
REMARK VINA RESULT:      -5.8      0.012      1.709
REMARK  1 active torsions:
REMARK  status: ('A' for Active; 'I' for Inactive)
REMARK    1  A    between atoms: C6_6  and  C8_8 
ROOT
HETATM    1  C1  UNL     1     -34.825   5.354   6.025  1.00 20.00     0.000 A 
HETATM    2  C2  UNL     1     -34.540   5.023   4.700  1.00 20.00     0.001 A 
HETATM    3  C3  UNL     1     -34.353   6.552   6.561  1.00 20.00     0.001 A 
HETATM    4  C4  UNL     1     -33.783   5.889   3.911  1.00 20.00     0.011 A 
HETATM    5  C5  UNL     1     -33.595   7.418   5.773  1.00 20.00     0.011 A 
HETATM    6  C6  UNL     1     -33.310   7.087   4.448  1.00 20.00    -0.037 A 
ENDROOT
BRANCH   6   7
HETATM    7  C8  UNL     1     -32.520   7.990   3.626  1.00 20.00     0.001 C 
HETATM    8  C7  UNL     1     -32.189   7.741   2.367  1.00 20.00     0.012 C 
ENDBRANCH   6   7
TORSDOF 1
ENDMDL
MODEL 3
REMARK VINA RESULT:      -5.4      0.860      3.778
REMARK  1 active torsions:
REMARK  status: ('A' for Active; 'I' for Inactive)
REMARK    1  A    between atoms: C6_6  and  C8_8 
ROOT
HETATM    1  C1  UNL     1     -31.954   8.378   3.622  1.00 20.00     0.000 A 
HETATM    2  C2  UNL     1     -32.281   7.195   2.960  1.00 20.00     0.001 A 
HETATM    3  C3  UNL     1     -32.584   8.704   4.822  1.00 20.00     0.001 A 
HETATM    4  C4  UNL     1     -33.239   6.336   3.498  1.00 20.00     0.011 A 
HETATM    5  C5  UNL     1     -33.543   7.845   5.361  1.00 20.00     0.011 A 
HETATM    6  C6  UNL     1     -33.870   6.662   4.699  1.00 20.00    -0.037 A 
ENDROOT
BRANCH   6   7
HETATM    7  C8  UNL     1     -34.870   5.767   5.262  1.00 20.00     0.001 C 
HETATM    8  C7  UNL     1     -34.759   5.195   6.453  1.00 20.00     0.012 C 
ENDBRANCH   6   7
TORSDOF 1
ENDMDL
MODEL 4
REMARK VINA RESULT:      -5.4      0.830      3.394
REMARK  1 active torsions:
REMARK  status: ('A' for Active; 'I' for Inactive)
REMARK    1  A    between atoms: C6_6  and  C8_8 
ROOT
HETATM    1  C1  UNL     1     -32.067   7.792   2.940  1.00 20.00     0.000 A 
HETATM    2  C2  UNL     1     -32.590   8.395   4.084  1.00 20.00     0.001 A 
HETATM    3  C3  UNL     1     -32.475   6.508   2.579  1.00 20.00     0.001 A 
HETATM    4  C4  UNL     1     -33.522   7.714   4.868  1.00 20.00     0.011 A 
HETATM    5  C5  UNL     1     -33.406   5.826   3.363  1.00 20.00     0.011 A 
HETATM    6  C6  UNL     1     -33.930   6.429   4.507  1.00 20.00    -0.037 A 
ENDROOT
BRANCH   6   7
HETATM    7  C8  UNL     1     -34.901   5.718   5.323  1.00 20.00     0.001 C 
HETATM    8  C7  UNL     1     -34.702   5.400   6.595  1.00 20.00     0.012 C 
ENDBRANCH   6   7
TORSDOF 1
ENDMDL
MODEL 5
REMARK VINA RESULT:      -5.2      0.970      1.841
REMARK  1 active torsions:
REMARK  status: ('A' for Active; 'I' for Inactive)
REMARK    1  A    between atoms: C6_6  and  C8_8 
ROOT
HETATM    1  C1  UNL     1     -34.484   6.618   6.625  1.00 20.00     0.000 A 
HETATM    2  C2  UNL     1     -33.751   7.566   5.912  1.00 20.00     0.001 A 
HETATM    3  C3  UNL     1     -34.788   5.388   6.041  1.00 20.00     0.001 A 
HETATM    4  C4  UNL     1     -33.321   7.286   4.615  1.00 20.00     0.011 A 
HETATM    5  C5  UNL     1     -34.359   5.107   4.744  1.00 20.00     0.011 A 
HETATM    6  C6  UNL     1     -33.625   6.056   4.031  1.00 20.00    -0.037 A 
ENDROOT
BRANCH   6   7
HETATM    7  C8  UNL     1     -33.178   5.762   2.678  1.00 20.00     0.001 C 
HETATM    8  C7  UNL     1     -32.782   4.562   2.278  1.00 20.00     0.012 C 
ENDBRANCH   6   7
TORSDOF 1
ENDMDL
MODEL 6
REMARK VINA RESULT:      -5.2      0.970      2.237
REMARK  1 active torsions:
REMARK  status: ('A' for Active; 'I' for Inactive)
REMARK    1  A    between atoms: C6_6  and  C8_8 
ROOT
HETATM    1  C1  UNL     1     -34.485   6.619   6.625  1.00 20.00     0.000 A 
HETATM    2  C2  UNL     1     -34.778   5.386   6.042  1.00 20.00     0.001 A 
HETATM    3  C3  UNL     1     -33.762   7.574   5.912  1.00 20.00     0.001 A 
HETATM    4  C4  UNL     1     -34.348   5.108   4.744  1.00 20.00     0.011 A 
HETATM    5  C5  UNL     1     -33.331   7.297   4.614  1.00 20.00     0.011 A 
HETATM    6  C6  UNL     1     -33.624   6.064   4.030  1.00 20.00    -0.037 A 
ENDROOT
BRANCH   6   7
HETATM    7  C8  UNL     1     -33.175   5.775   2.677  1.00 20.00     0.001 C 
HETATM    8  C7  UNL     1     -32.773   4.577   2.275  1.00 20.00     0.012 C 
ENDBRANCH   6   7
TORSDOF 1
ENDMDL
MODEL 7
REMARK VINA RESULT:      -4.3      1.007      3.081
REMARK  1 active torsions:
REMARK  status: ('A' for Active; 'I' for Inactive)
REMARK    1  A    between atoms: C6_6  and  C8_8 
ROOT
HETATM    1  C1  UNL     1     -32.905   5.293   2.439  1.00 20.00     0.000 A 
HETATM    2  C2  UNL     1     -32.318   6.554   2.541  1.00 20.00     0.001 A 
HETATM    3  C3  UNL     1     -33.823   4.870   3.400  1.00 20.00     0.001 A 
HETATM    4  C4  UNL     1     -32.648   7.393   3.605  1.00 20.00     0.011 A 
HETATM    5  C5  UNL     1     -34.153   5.709   4.465  1.00 20.00     0.011 A 
HETATM    6  C6  UNL     1     -33.566   6.970   4.567  1.00 20.00    -0.037 A 
ENDROOT
BRANCH   6   7
HETATM    7  C8  UNL     1     -33.911   7.844   5.678  1.00 20.00     0.001 C 
HETATM    8  C7  UNL     1     -34.211   7.407   6.893  1.00 20.00     0.012 C 
ENDBRANCH   6   7
TORSDOF 1
ENDMDL
MODEL 8
REMARK VINA RESULT:      -3.9     12.344     12.876
REMARK  1 active torsions:
REMARK  status: ('A' for Active; 'I' for Inactive)
REMARK    1  A    between atoms: C6_6  and  C8_8 
ROOT
HETATM    1  C1  UNL     1     -31.903  19.000   1.180  1.00 20.00     0.000 A 
HETATM    2  C2  UNL     1     -31.174  18.801   0.008  1.00 20.00     0.001 A 
HETATM    3  C3  UNL     1     -33.252  18.649   1.231  1.00 20.00     0.001 A 
HETATM    4  C4  UNL     1     -31.793  18.251  -1.115  1.00 20.00     0.011 A 
HETATM    5  C5  UNL     1     -33.872  18.099   0.109  1.00 20.00     0.011 A 
HETATM    6  C6  UNL     1     -33.143  17.899  -1.064  1.00 20.00    -0.037 A 
ENDROOT
BRANCH   6   7
HETATM    7  C8  UNL     1     -33.790  17.326  -2.233  1.00 20.00     0.001 C 
HETATM    8  C7  UNL     1     -33.287  16.317  -2.932  1.00 20.00     0.012 C 
ENDBRANCH   6   7
TORSDOF 1
ENDMDL
MODEL 9
REMARK VINA RESULT:      -3.8     12.421     12.965
REMARK  1 active torsions:
REMARK  status: ('A' for Active; 'I' for Inactive)
REMARK    1  A    between atoms: C6_6  and  C8_8 
ROOT
HETATM    1  C1  UNL     1     -33.737  17.802  -0.898  1.00 20.00     0.000 A 
HETATM    2  C2  UNL     1     -32.470  17.934  -1.467  1.00 20.00     0.001 A 
HETATM    3  C3  UNL     1     -33.943  18.149   0.436  1.00 20.00     0.001 A 
HETATM    4  C4  UNL     1     -31.408  18.414  -0.701  1.00 20.00     0.011 A 
HETATM    5  C5  UNL     1     -32.880  18.629   1.204  1.00 20.00     0.011 A 
HETATM    6  C6  UNL     1     -31.613  18.761   0.635  1.00 20.00    -0.037 A 
ENDROOT
BRANCH   6   7
HETATM    7  C8  UNL     1     -30.507  19.261   1.435  1.00 20.00     0.001 C 
HETATM    8  C7  UNL     1     -30.076  18.674   2.544  1.00 20.00     0.012 C 
ENDBRANCH   6   7
TORSDOF 1
ENDMDL
