MODEL 1
REMARK VINA RESULT:      -5.0      0.000      0.000
REMARK  2 active torsions:
REMARK  status: ('A' for Active; 'I' for Inactive)
REMARK    1  A    between atoms: C6_6  and  C9_9 
REMARK    2  A    between atoms: C9_9  and  C10_10 
ROOT
HETATM    1  C1  UNL     1     -34.750   5.711   5.885  1.00 20.00     0.000 A 
HETATM    2  C2  UNL     1     -34.179   6.883   6.381  1.00 20.00     0.001 A 
HETATM    3  C3  UNL     1     -34.483   5.303   4.579  1.00 20.00     0.001 A 
HETATM    4  C4  UNL     1     -33.342   7.648   5.569  1.00 20.00     0.007 A 
HETATM    5  C5  UNL     1     -33.645   6.068   3.767  1.00 20.00     0.007 A 
HETATM    6  C6  UNL     1     -33.075   7.240   4.262  1.00 20.00    -0.058 A 
ENDROOT
BRANCH   6   7
HETATM    7  C9  UNL     1     -32.168   8.067   3.383  1.00 20.00     0.042 C 
BRANCH   7   8
HETATM    8  C10 UNL     1     -32.808   8.484   2.044  1.00 20.00    -0.019 C 
HETATM    9  C7  UNL     1     -33.057   9.993   1.973  1.00 20.00     0.010 C 
HETATM   10  C8  UNL     1     -31.909   8.055   0.883  1.00 20.00     0.010 C 
ENDBRANCH   7   8
ENDBRANCH   6   7
TORSDOF 2
ENDMDL
MODEL 2
REMARK VINA RESULT:      -5.0      0.033      1.528
REMARK  2 active torsions:
REMARK  status: ('A' for Active; 'I' for Inactive)
REMARK    1  A    between atoms: C6_6  and  C9_9 
REMARK    2  A    between atoms: C9_9  and  C10_10 
ROOT
HETATM    1  C1  UNL     1     -34.755   5.727   5.883  1.00 20.00     0.000 A 
HETATM    2  C2  UNL     1     -34.507   5.313   4.574  1.00 20.00     0.001 A 
HETATM    3  C3  UNL     1     -34.160   6.889   6.372  1.00 20.00     0.001 A 
HETATM    4  C4  UNL     1     -33.663   6.062   3.755  1.00 20.00     0.007 A 
HETATM    5  C5  UNL     1     -33.316   7.638   5.553  1.00 20.00     0.007 A 
HETATM    6  C6  UNL     1     -33.067   7.225   4.245  1.00 20.00    -0.058 A 
ENDROOT
BRANCH   6   7
HETATM    7  C9  UNL     1     -32.153   8.036   3.359  1.00 20.00     0.042 C 
BRANCH   7   8
HETATM    8  C10 UNL     1     -32.808   8.498   2.043  1.00 20.00    -0.019 C 
HETATM    9  C7  UNL     1     -33.027  10.013   2.013  1.00 20.00     0.010 C 
HETATM   10  C8  UNL     1     -31.938   8.079   0.855  1.00 20.00     0.010 C 
ENDBRANCH   7   8
ENDBRANCH   6   7
TORSDOF 2
ENDMDL
MODEL 3
REMARK VINA RESULT:      -4.6      1.000      2.083
REMARK  2 active torsions:
REMARK  status: ('A' for Active; 'I' for Inactive)
REMARK    1  A    between atoms: C6_6  and  C9_9 
REMARK    2  A    between atoms: C9_9  and  C10_10 
ROOT
HETATM    1  C1  UNL     1     -34.741   4.993   6.021  1.00 20.00     0.000 A 
HETATM    2  C2  UNL     1     -35.119   5.342   4.724  1.00 20.00     0.001 A 
HETATM    3  C3  UNL     1     -33.941   5.854   6.770  1.00 20.00     0.001 A 
HETATM    4  C4  UNL     1     -34.695   6.552   4.177  1.00 20.00     0.007 A 
HETATM    5  C5  UNL     1     -33.516   7.065   6.222  1.00 20.00     0.007 A 
HETATM    6  C6  UNL     1     -33.893   7.414   4.926  1.00 20.00    -0.058 A 
ENDROOT
BRANCH   6   7
HETATM    7  C9  UNL     1     -33.433   8.724   4.334  1.00 20.00     0.042 C 
BRANCH   7   8
HETATM    8  C10 UNL     1     -32.362   8.571   3.237  1.00 20.00    -0.019 C 
HETATM    9  C7  UNL     1     -32.090   7.102   2.902  1.00 20.00     0.010 C 
HETATM   10  C8  UNL     1     -32.801   9.315   1.974  1.00 20.00     0.010 C 
ENDBRANCH   7   8
ENDBRANCH   6   7
TORSDOF 2
ENDMDL
MODEL 4
REMARK VINA RESULT:      -4.3      1.534      4.463
REMARK  2 active torsions:
REMARK  status: ('A' for Active; 'I' for Inactive)
REMARK    1  A    between atoms: C6_6  and  C9_9 
REMARK    2  A    between atoms: C9_9  and  C10_10 
ROOT
HETATM    1  C1  UNL     1     -31.737   8.765   4.135  1.00 20.00     0.000 A 
HETATM    2  C2  UNL     1     -31.951   7.738   3.216  1.00 20.00     0.001 A 
HETATM    3  C3  UNL     1     -32.639   8.966   5.179  1.00 20.00     0.001 A 
HETATM    4  C4  UNL     1     -33.068   6.912   3.340  1.00 20.00     0.007 A 
HETATM    5  C5  UNL     1     -33.757   8.140   5.303  1.00 20.00     0.007 A 
HETATM    6  C6  UNL     1     -33.971   7.114   4.384  1.00 20.00    -0.058 A 
ENDROOT
BRANCH   6   7
HETATM    7  C9  UNL     1     -35.181   6.221   4.519  1.00 20.00     0.042 C 
BRANCH   7   8
HETATM    8  C10 UNL     1     -34.898   4.892   5.245  1.00 20.00    -0.019 C 
HETATM    9  C7  UNL     1     -33.876   4.035   4.494  1.00 20.00     0.010 C 
HETATM   10  C8  UNL     1     -34.393   5.171   6.663  1.00 20.00     0.010 C 
ENDBRANCH   7   8
ENDBRANCH   6   7
TORSDOF 2
ENDMDL
MODEL 5
REMARK VINA RESULT:      -4.2     11.402     12.122
REMARK  2 active torsions:
REMARK  status: ('A' for Active; 'I' for Inactive)
REMARK    1  A    between atoms: C6_6  and  C9_9 
REMARK    2  A    between atoms: C9_9  and  C10_10 
ROOT
HETATM    1  C1  UNL     1     -31.566  19.170   1.314  1.00 20.00     0.000 A 
HETATM    2  C2  UNL     1     -32.918  18.906   1.530  1.00 20.00     0.001 A 
HETATM    3  C3  UNL     1     -30.982  18.859   0.087  1.00 20.00     0.001 A 
HETATM    4  C4  UNL     1     -33.687  18.330   0.520  1.00 20.00     0.007 A 
HETATM    5  C5  UNL     1     -31.750  18.282  -0.925  1.00 20.00     0.007 A 
HETATM    6  C6  UNL     1     -33.102  18.017  -0.709  1.00 20.00    -0.058 A 
ENDROOT
BRANCH   6   7
HETATM    7  C9  UNL     1     -33.933  17.392  -1.803  1.00 20.00     0.042 C 
BRANCH   7   8
HETATM    8  C10 UNL     1     -33.173  17.198  -3.130  1.00 20.00    -0.019 C 
HETATM    9  C7  UNL     1     -33.289  15.764  -3.652  1.00 20.00     0.010 C 
HETATM   10  C8  UNL     1     -33.706  18.175  -4.181  1.00 20.00     0.010 C 
ENDBRANCH   7   8
ENDBRANCH   6   7
TORSDOF 2
ENDMDL
MODEL 6
REMARK VINA RESULT:      -4.2     11.406     12.183
REMARK  2 active torsions:
REMARK  status: ('A' for Active; 'I' for Inactive)
REMARK    1  A    between atoms: C6_6  and  C9_9 
REMARK    2  A    between atoms: C9_9  and  C10_10 
ROOT
HETATM    1  C1  UNL     1     -31.600  19.247   1.478  1.00 20.00     0.000 A 
HETATM    2  C2  UNL     1     -30.985  18.822   0.300  1.00 20.00     0.001 A 
HETATM    3  C3  UNL     1     -32.981  19.125   1.627  1.00 20.00     0.001 A 
HETATM    4  C4  UNL     1     -31.752  18.277  -0.729  1.00 20.00     0.007 A 
HETATM    5  C5  UNL     1     -33.748  18.579   0.598  1.00 20.00     0.007 A 
HETATM    6  C6  UNL     1     -33.134  18.155  -0.580  1.00 20.00    -0.058 A 
ENDROOT
BRANCH   6   7
HETATM    7  C9  UNL     1     -33.965  17.565  -1.693  1.00 20.00     0.042 C 
BRANCH   7   8
HETATM    8  C10 UNL     1     -33.161  17.242  -2.968  1.00 20.00    -0.019 C 
HETATM    9  C7  UNL     1     -33.419  15.816  -3.463  1.00 20.00     0.010 C 
HETATM   10  C8  UNL     1     -33.512  18.242  -4.071  1.00 20.00     0.010 C 
ENDBRANCH   7   8
ENDBRANCH   6   7
TORSDOF 2
ENDMDL
MODEL 7
REMARK VINA RESULT:      -4.1      0.835      4.678
REMARK  2 active torsions:
REMARK  status: ('A' for Active; 'I' for Inactive)
REMARK    1  A    between atoms: C6_6  and  C9_9 
REMARK    2  A    between atoms: C9_9  and  C10_10 
ROOT
HETATM    1  C1  UNL     1     -32.491   9.139   0.605  1.00 20.00     0.000 A 
HETATM    2  C2  UNL     1     -32.046   7.851   0.904  1.00 20.00     0.001 A 
HETATM    3  C3  UNL     1     -33.006   9.951   1.616  1.00 20.00     0.001 A 
HETATM    4  C4  UNL     1     -32.118   7.374   2.212  1.00 20.00     0.007 A 
HETATM    5  C5  UNL     1     -33.078   9.474   2.925  1.00 20.00     0.007 A 
HETATM    6  C6  UNL     1     -32.634   8.186   3.223  1.00 20.00    -0.058 A 
ENDROOT
BRANCH   6   7
HETATM    7  C9  UNL     1     -32.712   7.670   4.639  1.00 20.00     0.042 C 
BRANCH   7   8
HETATM    8  C10 UNL     1     -34.080   7.063   5.007  1.00 20.00    -0.019 C 
HETATM    9  C7  UNL     1     -34.301   5.702   4.342  1.00 20.00     0.010 C 
HETATM   10  C8  UNL     1     -34.192   6.919   6.527  1.00 20.00     0.010 C 
ENDBRANCH   7   8
ENDBRANCH   6   7
TORSDOF 2
ENDMDL
MODEL 8
REMARK VINA RESULT:      -4.1     11.220     12.465
REMARK  2 active torsions:
REMARK  status: ('A' for Active; 'I' for Inactive)
REMARK    1  A    between atoms: C6_6  and  C9_9 
REMARK    2  A    between atoms: C9_9  and  C10_10 
ROOT
HETATM    1  C1  UNL     1     -34.535  15.150  -5.292  1.00 20.00     0.000 A 
HETATM    2  C2  UNL     1     -34.873  16.481  -5.535  1.00 20.00     0.001 A 
HETATM    3  C3  UNL     1     -33.709  14.825  -4.217  1.00 20.00     0.001 A 
HETATM    4  C4  UNL     1     -34.383  17.487  -4.703  1.00 20.00     0.007 A 
HETATM    5  C5  UNL     1     -33.218  15.831  -3.385  1.00 20.00     0.007 A 
HETATM    6  C6  UNL     1     -33.555  17.162  -3.628  1.00 20.00    -0.058 A 
ENDROOT
BRANCH   6   7
HETATM    7  C9  UNL     1     -33.024  18.251  -2.728  1.00 20.00     0.042 C 
BRANCH   7   8
HETATM    8  C10 UNL     1     -32.710  17.779  -1.295  1.00 20.00    -0.019 C 
HETATM    9  C7  UNL     1     -31.535  18.545  -0.683  1.00 20.00     0.010 C 
HETATM   10  C8  UNL     1     -33.949  17.943  -0.411  1.00 20.00     0.010 C 
ENDBRANCH   7   8
ENDBRANCH   6   7
TORSDOF 2
ENDMDL
MODEL 9
REMARK VINA RESULT:      -4.1     11.367     12.017
REMARK  2 active torsions:
REMARK  status: ('A' for Active; 'I' for Inactive)
REMARK    1  A    between atoms: C6_6  and  C9_9 
REMARK    2  A    between atoms: C9_9  and  C10_10 
ROOT
HETATM    1  C1  UNL     1     -31.442  19.027   2.847  1.00 20.00     0.000 A 
HETATM    2  C2  UNL     1     -30.454  18.589   1.965  1.00 20.00     0.001 A 
HETATM    3  C3  UNL     1     -32.736  19.263   2.384  1.00 20.00     0.001 A 
HETATM    4  C4  UNL     1     -30.760  18.389   0.619  1.00 20.00     0.007 A 
HETATM    5  C5  UNL     1     -33.042  19.062   1.038  1.00 20.00     0.007 A 
HETATM    6  C6  UNL     1     -32.055  18.625   0.156  1.00 20.00    -0.058 A 
ENDROOT
BRANCH   6   7
HETATM    7  C9  UNL     1     -32.387  18.409  -1.301  1.00 20.00     0.042 C 
BRANCH   7   8
HETATM    8  C10 UNL     1     -33.690  17.619  -1.533  1.00 20.00    -0.019 C 
HETATM    9  C7  UNL     1     -34.817  18.513  -2.055  1.00 20.00     0.010 C 
HETATM   10  C8  UNL     1     -33.436  16.479  -2.522  1.00 20.00     0.010 C 
ENDBRANCH   7   8
ENDBRANCH   6   7
TORSDOF 2
ENDMDL
