MODEL 1
REMARK VINA RESULT:      -5.3      0.000      0.000
REMARK  5 active torsions:
REMARK  status: ('A' for Active; 'I' for Inactive)
REMARK    1  A    between atoms: C6_6  and  C8_8 
REMARK    2  A    between atoms: C8_8  and  C10_10 
REMARK    3  A    between atoms: C9_9  and  C11_11 
REMARK    4  A    between atoms: C10_10  and  C12_12 
REMARK    5  A    between atoms: C11_11  and  C12_12 
ROOT
HETATM    1  C1  UNL     1     -32.519   8.748   0.575  1.00 20.00     0.000 A 
HETATM    2  C2  UNL     1     -32.926   9.838   1.344  1.00 20.00     0.001 A 
HETATM    3  C3  UNL     1     -32.118   7.566   1.198  1.00 20.00     0.001 A 
HETATM    4  C4  UNL     1     -32.934   9.746   2.736  1.00 20.00     0.007 A 
HETATM    5  C5  UNL     1     -32.125   7.474   2.589  1.00 20.00     0.007 A 
HETATM    6  C6  UNL     1     -32.534   8.563   3.358  1.00 20.00    -0.058 A 
ENDROOT
BRANCH   6   7
HETATM    7  C8  UNL     1     -32.542   8.464   4.853  1.00 20.00     0.038 C 
BRANCH   7   8
HETATM    8  C10 UNL     1     -33.891   7.969   5.381  1.00 20.00     0.005 C 
BRANCH   8   9
HETATM    9  C12 UNL     1     -33.708   6.839   6.396  1.00 20.00     0.000 C 
BRANCH   9  10
HETATM   10  C11 UNL     1     -34.763   5.747   6.210  1.00 20.00    -0.000 C 
BRANCH  10  11
HETATM   11  C9  UNL     1     -35.012   5.460   4.729  1.00 20.00    -0.005 C 
HETATM   12  C7  UNL     1     -33.961   4.521   4.160  1.00 20.00     0.005 C 
ENDBRANCH  10  11
ENDBRANCH   9  10
ENDBRANCH   8   9
ENDBRANCH   7   8
ENDBRANCH   6   7
TORSDOF 5
ENDMDL
MODEL 2
REMARK VINA RESULT:      -4.6      0.909      4.985
REMARK  5 active torsions:
REMARK  status: ('A' for Active; 'I' for Inactive)
REMARK    1  A    between atoms: C6_6  and  C8_8 
REMARK    2  A    between atoms: C8_8  and  C10_10 
REMARK    3  A    between atoms: C9_9  and  C11_11 
REMARK    4  A    between atoms: C10_10  and  C12_12 
REMARK    5  A    between atoms: C11_11  and  C12_12 
ROOT
HETATM    1  C1  UNL     1     -34.987   5.017   5.861  1.00 20.00     0.000 A 
HETATM    2  C2  UNL     1     -34.735   6.082   6.726  1.00 20.00     0.001 A 
HETATM    3  C3  UNL     1     -34.492   5.044   4.558  1.00 20.00     0.001 A 
HETATM    4  C4  UNL     1     -33.987   7.175   6.287  1.00 20.00     0.007 A 
HETATM    5  C5  UNL     1     -33.745   6.136   4.119  1.00 20.00     0.007 A 
HETATM    6  C6  UNL     1     -33.491   7.201   4.983  1.00 20.00    -0.058 A 
ENDROOT
BRANCH   6   7
HETATM    7  C8  UNL     1     -32.688   8.374   4.511  1.00 20.00     0.038 C 
BRANCH   7   8
HETATM    8  C10 UNL     1     -31.623   7.958   3.493  1.00 20.00     0.005 C 
BRANCH   8   9
HETATM    9  C12 UNL     1     -32.159   8.051   2.063  1.00 20.00     0.000 C 
BRANCH   9  10
HETATM   10  C11 UNL     1     -32.826   9.403   1.804  1.00 20.00    -0.000 C 
BRANCH  10  11
HETATM   11  C9  UNL     1     -32.972   9.674   0.307  1.00 20.00    -0.005 C 
HETATM   12  C7  UNL     1     -32.704   8.423  -0.514  1.00 20.00     0.005 C 
ENDBRANCH  10  11
ENDBRANCH   9  10
ENDBRANCH   8   9
ENDBRANCH   7   8
ENDBRANCH   6   7
TORSDOF 5
ENDMDL
MODEL 3
REMARK VINA RESULT:      -4.6      0.823      4.891
REMARK  5 active torsions:
REMARK  status: ('A' for Active; 'I' for Inactive)
REMARK    1  A    between atoms: C6_6  and  C8_8 
REMARK    2  A    between atoms: C8_8  and  C10_10 
REMARK    3  A    between atoms: C9_9  and  C11_11 
REMARK    4  A    between atoms: C10_10  and  C12_12 
REMARK    5  A    between atoms: C11_11  and  C12_12 
ROOT
HETATM    1  C1  UNL     1     -34.835   4.725   5.543  1.00 20.00     0.000 A 
HETATM    2  C2  UNL     1     -34.783   5.373   4.309  1.00 20.00     0.001 A 
HETATM    3  C3  UNL     1     -34.421   5.390   6.698  1.00 20.00     0.001 A 
HETATM    4  C4  UNL     1     -34.317   6.685   4.229  1.00 20.00     0.007 A 
HETATM    5  C5  UNL     1     -33.956   6.702   6.618  1.00 20.00     0.007 A 
HETATM    6  C6  UNL     1     -33.905   7.350   5.384  1.00 20.00    -0.058 A 
ENDROOT
BRANCH   6   7
HETATM    7  C8  UNL     1     -33.405   8.760   5.299  1.00 20.00     0.038 C 
BRANCH   7   8
HETATM    8  C10 UNL     1     -32.142   8.862   4.440  1.00 20.00     0.005 C 
BRANCH   8   9
HETATM    9  C12 UNL     1     -32.491   9.088   2.968  1.00 20.00     0.000 C 
BRANCH   9  10
HETATM   10  C11 UNL     1     -32.090   7.886   2.110  1.00 20.00    -0.000 C 
BRANCH  10  11
HETATM   11  C9  UNL     1     -32.027   8.256   0.628  1.00 20.00    -0.005 C 
HETATM   12  C7  UNL     1     -32.802   9.532   0.340  1.00 20.00     0.005 C 
ENDBRANCH  10  11
ENDBRANCH   9  10
ENDBRANCH   8   9
ENDBRANCH   7   8
ENDBRANCH   6   7
TORSDOF 5
ENDMDL
MODEL 4
REMARK VINA RESULT:      -4.4      1.089      4.442
REMARK  5 active torsions:
REMARK  status: ('A' for Active; 'I' for Inactive)
REMARK    1  A    between atoms: C6_6  and  C8_8 
REMARK    2  A    between atoms: C8_8  and  C10_10 
REMARK    3  A    between atoms: C9_9  and  C11_11 
REMARK    4  A    between atoms: C10_10  and  C12_12 
REMARK    5  A    between atoms: C11_11  and  C12_12 
ROOT
HETATM    1  C1  UNL     1     -35.048   4.945   5.738  1.00 20.00     0.000 A 
HETATM    2  C2  UNL     1     -34.064   5.392   6.621  1.00 20.00     0.001 A 
HETATM    3  C3  UNL     1     -35.472   5.764   4.692  1.00 20.00     0.001 A 
HETATM    4  C4  UNL     1     -33.505   6.659   6.457  1.00 20.00     0.007 A 
HETATM    5  C5  UNL     1     -34.913   7.031   4.529  1.00 20.00     0.007 A 
HETATM    6  C6  UNL     1     -33.929   7.478   5.410  1.00 20.00    -0.058 A 
ENDROOT
BRANCH   6   7
HETATM    7  C8  UNL     1     -33.328   8.839   5.234  1.00 20.00     0.038 C 
BRANCH   7   8
HETATM    8  C10 UNL     1     -32.163   8.820   4.242  1.00 20.00     0.005 C 
BRANCH   8   9
HETATM    9  C12 UNL     1     -32.659   8.952   2.801  1.00 20.00     0.000 C 
BRANCH   9  10
HETATM   10  C11 UNL     1     -32.287   7.724   1.968  1.00 20.00    -0.000 C 
BRANCH  10  11
HETATM   11  C9  UNL     1     -32.060   6.500   2.854  1.00 20.00    -0.005 C 
HETATM   12  C7  UNL     1     -32.828   5.292   2.343  1.00 20.00     0.005 C 
ENDBRANCH  10  11
ENDBRANCH   9  10
ENDBRANCH   8   9
ENDBRANCH   7   8
ENDBRANCH   6   7
TORSDOF 5
ENDMDL
MODEL 5
REMARK VINA RESULT:      -4.4     10.759     11.885
REMARK  5 active torsions:
REMARK  status: ('A' for Active; 'I' for Inactive)
REMARK    1  A    between atoms: C6_6  and  C8_8 
REMARK    2  A    between atoms: C8_8  and  C10_10 
REMARK    3  A    between atoms: C9_9  and  C11_11 
REMARK    4  A    between atoms: C10_10  and  C12_12 
REMARK    5  A    between atoms: C11_11  and  C12_12 
ROOT
HETATM    1  C1  UNL     1     -32.138  18.861   1.548  1.00 20.00     0.000 A 
HETATM    2  C2  UNL     1     -33.450  18.603   1.151  1.00 20.00     0.001 A 
HETATM    3  C3  UNL     1     -31.097  18.759   0.626  1.00 20.00     0.001 A 
HETATM    4  C4  UNL     1     -33.721  18.243  -0.169  1.00 20.00     0.007 A 
HETATM    5  C5  UNL     1     -31.368  18.398  -0.694  1.00 20.00     0.007 A 
HETATM    6  C6  UNL     1     -32.679  18.142  -1.091  1.00 20.00    -0.058 A 
ENDROOT
BRANCH   6   7
HETATM    7  C8  UNL     1     -32.970  17.755  -2.509  1.00 20.00     0.038 C 
BRANCH   7   8
HETATM    8  C10 UNL     1     -33.581  16.354  -2.600  1.00 20.00     0.005 C 
BRANCH   8   9
HETATM    9  C12 UNL     1     -33.075  15.608  -3.836  1.00 20.00     0.000 C 
BRANCH   9  10
HETATM   10  C11 UNL     1     -34.018  14.468  -4.224  1.00 20.00    -0.000 C 
BRANCH  10  11
HETATM   11  C9  UNL     1     -34.968  14.887  -5.345  1.00 20.00    -0.005 C 
HETATM   12  C7  UNL     1     -34.207  15.280  -6.601  1.00 20.00     0.005 C 
ENDBRANCH  10  11
ENDBRANCH   9  10
ENDBRANCH   8   9
ENDBRANCH   7   8
ENDBRANCH   6   7
TORSDOF 5
ENDMDL
MODEL 6
REMARK VINA RESULT:      -4.4      0.700      2.225
REMARK  5 active torsions:
REMARK  status: ('A' for Active; 'I' for Inactive)
REMARK    1  A    between atoms: C6_6  and  C8_8 
REMARK    2  A    between atoms: C8_8  and  C10_10 
REMARK    3  A    between atoms: C9_9  and  C11_11 
REMARK    4  A    between atoms: C10_10  and  C12_12 
REMARK    5  A    between atoms: C11_11  and  C12_12 
ROOT
HETATM    1  C1  UNL     1     -32.770   9.916   1.026  1.00 20.00     0.000 A 
HETATM    2  C2  UNL     1     -33.011   9.894   2.400  1.00 20.00     0.001 A 
HETATM    3  C3  UNL     1     -32.362   8.754   0.371  1.00 20.00     0.001 A 
HETATM    4  C4  UNL     1     -32.844   8.711   3.119  1.00 20.00     0.007 A 
HETATM    5  C5  UNL     1     -32.194   7.571   1.090  1.00 20.00     0.007 A 
HETATM    6  C6  UNL     1     -32.436   7.549   2.463  1.00 20.00    -0.058 A 
ENDROOT
BRANCH   6   7
HETATM    7  C8  UNL     1     -32.257   6.277   3.234  1.00 20.00     0.038 C 
BRANCH   7   8
HETATM    8  C10 UNL     1     -33.270   5.210   2.812  1.00 20.00     0.005 C 
BRANCH   8   9
HETATM    9  C12 UNL     1     -33.910   4.541   4.030  1.00 20.00     0.000 C 
BRANCH   9  10
HETATM   10  C11 UNL     1     -34.943   5.456   4.690  1.00 20.00    -0.000 C 
BRANCH  10  11
HETATM   11  C9  UNL     1     -34.621   5.686   6.166  1.00 20.00    -0.005 C 
HETATM   12  C7  UNL     1     -34.033   7.068   6.398  1.00 20.00     0.005 C 
ENDBRANCH  10  11
ENDBRANCH   9  10
ENDBRANCH   8   9
ENDBRANCH   7   8
ENDBRANCH   6   7
TORSDOF 5
ENDMDL
MODEL 7
REMARK VINA RESULT:      -4.2     10.940     11.844
REMARK  5 active torsions:
REMARK  status: ('A' for Active; 'I' for Inactive)
REMARK    1  A    between atoms: C6_6  and  C8_8 
REMARK    2  A    between atoms: C8_8  and  C10_10 
REMARK    3  A    between atoms: C9_9  and  C11_11 
REMARK    4  A    between atoms: C10_10  and  C12_12 
REMARK    5  A    between atoms: C11_11  and  C12_12 
ROOT
HETATM    1  C1  UNL     1     -35.013  15.263  -5.498  1.00 20.00     0.000 A 
HETATM    2  C2  UNL     1     -35.403  16.577  -5.239  1.00 20.00     0.001 A 
HETATM    3  C3  UNL     1     -33.965  14.691  -4.777  1.00 20.00     0.001 A 
HETATM    4  C4  UNL     1     -34.744  17.320  -4.259  1.00 20.00     0.007 A 
HETATM    5  C5  UNL     1     -33.306  15.433  -3.798  1.00 20.00     0.007 A 
HETATM    6  C6  UNL     1     -33.696  16.747  -3.538  1.00 20.00    -0.058 A 
ENDROOT
BRANCH   6   7
HETATM    7  C8  UNL     1     -32.988  17.544  -2.485  1.00 20.00     0.038 C 
BRANCH   7   8
HETATM    8  C10 UNL     1     -33.660  17.399  -1.117  1.00 20.00     0.005 C 
BRANCH   8   9
HETATM    9  C12 UNL     1     -33.025  18.334  -0.087  1.00 20.00     0.000 C 
BRANCH   9  10
HETATM   10  C11 UNL     1     -31.561  18.624  -0.425  1.00 20.00    -0.000 C 
BRANCH  10  11
HETATM   11  C9  UNL     1     -30.733  18.855   0.838  1.00 20.00    -0.005 C 
HETATM   12  C7  UNL     1     -31.531  18.538   2.092  1.00 20.00     0.005 C 
ENDBRANCH  10  11
ENDBRANCH   9  10
ENDBRANCH   8   9
ENDBRANCH   7   8
ENDBRANCH   6   7
TORSDOF 5
ENDMDL
MODEL 8
REMARK VINA RESULT:      -4.0      0.883      5.325
REMARK  5 active torsions:
REMARK  status: ('A' for Active; 'I' for Inactive)
REMARK    1  A    between atoms: C6_6  and  C8_8 
REMARK    2  A    between atoms: C8_8  and  C10_10 
REMARK    3  A    between atoms: C9_9  and  C11_11 
REMARK    4  A    between atoms: C10_10  and  C12_12 
REMARK    5  A    between atoms: C11_11  and  C12_12 
ROOT
HETATM    1  C1  UNL     1     -34.957   5.370   6.169  1.00 20.00     0.000 A 
HETATM    2  C2  UNL     1     -34.688   4.981   4.857  1.00 20.00     0.001 A 
HETATM    3  C3  UNL     1     -34.422   6.558   6.669  1.00 20.00     0.001 A 
HETATM    4  C4  UNL     1     -33.884   5.779   4.044  1.00 20.00     0.007 A 
HETATM    5  C5  UNL     1     -33.617   7.356   5.856  1.00 20.00     0.007 A 
HETATM    6  C6  UNL     1     -33.349   6.967   4.543  1.00 20.00    -0.058 A 
ENDROOT
BRANCH   6   7
HETATM    7  C8  UNL     1     -32.485   7.825   3.671  1.00 20.00     0.038 C 
BRANCH   7   8
HETATM    8  C10 UNL     1     -32.157   7.134   2.344  1.00 20.00     0.005 C 
BRANCH   8   9
HETATM    9  C12 UNL     1     -31.571   8.123   1.335  1.00 20.00     0.000 C 
BRANCH   9  10
HETATM   10  C11 UNL     1     -32.438   8.215   0.078  1.00 20.00    -0.000 C 
BRANCH  10  11
HETATM   11  C9  UNL     1     -33.154   9.563  -0.006  1.00 20.00    -0.005 C 
HETATM   12  C7  UNL     1     -33.125  10.293   1.326  1.00 20.00     0.005 C 
ENDBRANCH  10  11
ENDBRANCH   9  10
ENDBRANCH   8   9
ENDBRANCH   7   8
ENDBRANCH   6   7
TORSDOF 5
ENDMDL
MODEL 9
REMARK VINA RESULT:      -3.8     10.972     12.416
REMARK  5 active torsions:
REMARK  status: ('A' for Active; 'I' for Inactive)
REMARK    1  A    between atoms: C6_6  and  C8_8 
REMARK    2  A    between atoms: C8_8  and  C10_10 
REMARK    3  A    between atoms: C9_9  and  C11_11 
REMARK    4  A    between atoms: C10_10  and  C12_12 
REMARK    5  A    between atoms: C11_11  and  C12_12 
ROOT
HETATM    1  C1  UNL     1     -34.867  18.880  -1.737  1.00 20.00     0.000 A 
HETATM    2  C2  UNL     1     -35.052  18.751  -3.113  1.00 20.00     0.001 A 
HETATM    3  C3  UNL     1     -34.068  17.965  -1.051  1.00 20.00     0.001 A 
HETATM    4  C4  UNL     1     -34.438  17.707  -3.805  1.00 20.00     0.007 A 
HETATM    5  C5  UNL     1     -33.454  16.921  -1.742  1.00 20.00     0.007 A 
HETATM    6  C6  UNL     1     -33.637  16.793  -3.119  1.00 20.00    -0.058 A 
ENDROOT
BRANCH   6   7
HETATM    7  C8  UNL     1     -32.977  15.671  -3.860  1.00 20.00     0.038 C 
BRANCH   7   8
HETATM    8  C10 UNL     1     -34.003  14.746  -4.520  1.00 20.00     0.005 C 
BRANCH   8   9
HETATM    9  C12 UNL     1     -34.004  14.915  -6.040  1.00 20.00     0.000 C 
BRANCH   9  10
HETATM   10  C11 UNL     1     -35.398  15.273  -6.560  1.00 20.00    -0.000 C 
BRANCH  10  11
HETATM   11  C9  UNL     1     -36.463  15.066  -5.484  1.00 20.00    -0.005 C 
HETATM   12  C7  UNL     1     -37.464  16.210  -5.465  1.00 20.00     0.005 C 
ENDBRANCH  10  11
ENDBRANCH   9  10
ENDBRANCH   8   9
ENDBRANCH   7   8
ENDBRANCH   6   7
TORSDOF 5
ENDMDL
