MODEL 1
REMARK VINA RESULT:      -2.8      0.000      0.000
REMARK  3 active torsions:
REMARK  status: ('A' for Active; 'I' for Inactive)
REMARK    1  A    between atoms: C5_5  and  S7_7 
REMARK    2  A    between atoms: C6_6  and  S8_8 
REMARK    3  A    between atoms: S7_7  and  S8_8 
ROOT
HETATM    1  S7  UNL     1     -33.638  14.976  -4.122  1.00 20.00    -0.093 SA
ENDROOT
BRANCH   1   2
HETATM    2  C5  UNL     1     -33.313  16.691  -3.592  1.00 20.00     0.050 C 
HETATM    3  C1  UNL     1     -34.264  17.640  -4.311  1.00 20.00     0.022 C 
HETATM    4  C2  UNL     1     -33.460  16.798  -2.079  1.00 20.00     0.022 C 
ENDBRANCH   1   2
BRANCH   1   5
HETATM    5  S8  UNL     1     -33.999  15.236  -6.127  1.00 20.00    -0.093 SA
BRANCH   5   6
HETATM    6  C6  UNL     1     -35.731  14.731  -6.259  1.00 20.00     0.050 C 
HETATM    7  C3  UNL     1     -36.167  14.045  -4.969  1.00 20.00     0.022 C 
HETATM    8  C4  UNL     1     -36.599  15.947  -6.562  1.00 20.00     0.022 C 
ENDBRANCH   5   6
ENDBRANCH   1   5
TORSDOF 3
ENDMDL
MODEL 2
REMARK VINA RESULT:      -2.8      2.879      4.085
REMARK  3 active torsions:
REMARK  status: ('A' for Active; 'I' for Inactive)
REMARK    1  A    between atoms: C5_5  and  S7_7 
REMARK    2  A    between atoms: C6_6  and  S8_8 
REMARK    3  A    between atoms: S7_7  and  S8_8 
ROOT
HETATM    1  S7  UNL     1     -32.648  18.852  -1.944  1.00 20.00    -0.093 SA
ENDROOT
BRANCH   1   2
HETATM    2  C5  UNL     1     -32.414  19.078  -0.149  1.00 20.00     0.050 C 
HETATM    3  C1  UNL     1     -33.526  18.361   0.608  1.00 20.00     0.022 C 
HETATM    4  C2  UNL     1     -31.040  18.561   0.260  1.00 20.00     0.022 C 
ENDBRANCH   1   2
BRANCH   1   5
HETATM    5  S8  UNL     1     -33.484  16.978  -2.009  1.00 20.00    -0.093 SA
BRANCH   5   6
HETATM    6  C6  UNL     1     -33.423  16.608  -3.778  1.00 20.00     0.050 C 
HETATM    7  C3  UNL     1     -33.624  15.112  -3.998  1.00 20.00     0.022 C 
HETATM    8  C4  UNL     1     -34.480  17.424  -4.512  1.00 20.00     0.022 C 
ENDBRANCH   5   6
ENDBRANCH   1   5
TORSDOF 3
ENDMDL
MODEL 3
REMARK VINA RESULT:      -2.8      2.855      5.711
REMARK  3 active torsions:
REMARK  status: ('A' for Active; 'I' for Inactive)
REMARK    1  A    between atoms: C5_5  and  S7_7 
REMARK    2  A    between atoms: C6_6  and  S8_8 
REMARK    3  A    between atoms: S7_7  and  S8_8 
ROOT
HETATM    1  S7  UNL     1     -33.510  16.969  -2.045  1.00 20.00    -0.093 SA
ENDROOT
BRANCH   1   2
HETATM    2  C5  UNL     1     -33.466  16.607  -3.833  1.00 20.00     0.050 C 
HETATM    3  C1  UNL     1     -33.542  15.101  -4.053  1.00 20.00     0.022 C 
HETATM    4  C2  UNL     1     -34.611  17.330  -4.532  1.00 20.00     0.022 C 
ENDBRANCH   1   2
BRANCH   1   5
HETATM    5  S8  UNL     1     -32.668  18.841  -1.992  1.00 20.00    -0.093 SA
BRANCH   5   6
HETATM    6  C6  UNL     1     -32.419  19.084  -0.217  1.00 20.00     0.050 C 
HETATM    7  C3  UNL     1     -33.522  18.373   0.559  1.00 20.00     0.022 C 
HETATM    8  C4  UNL     1     -31.040  18.573   0.184  1.00 20.00     0.022 C 
ENDBRANCH   5   6
ENDBRANCH   1   5
TORSDOF 3
ENDMDL
MODEL 4
REMARK VINA RESULT:      -2.8     12.596     13.667
REMARK  3 active torsions:
REMARK  status: ('A' for Active; 'I' for Inactive)
REMARK    1  A    between atoms: C5_5  and  S7_7 
REMARK    2  A    between atoms: C6_6  and  S8_8 
REMARK    3  A    between atoms: S7_7  and  S8_8 
ROOT
HETATM    1  S7  UNL     1     -40.997  13.243   5.153  1.00 20.00    -0.093 SA
ENDROOT
BRANCH   1   2
HETATM    2  C5  UNL     1     -39.846  11.832   5.264  1.00 20.00     0.050 C 
HETATM    3  C1  UNL     1     -39.041  11.724   3.974  1.00 20.00     0.022 C 
HETATM    4  C2  UNL     1     -38.937  12.003   6.475  1.00 20.00     0.022 C 
ENDBRANCH   1   2
BRANCH   1   5
HETATM    5  S8  UNL     1     -40.929  13.970   7.072  1.00 20.00    -0.093 SA
BRANCH   5   6
HETATM    6  C6  UNL     1     -42.598  13.603   7.666  1.00 20.00     0.050 C 
HETATM    7  C3  UNL     1     -43.017  12.215   7.195  1.00 20.00     0.022 C 
HETATM    8  C4  UNL     1     -42.638  13.710   9.186  1.00 20.00     0.022 C 
ENDBRANCH   5   6
ENDBRANCH   1   5
TORSDOF 3
ENDMDL
MODEL 5
REMARK VINA RESULT:      -2.8     12.553     13.584
REMARK  3 active torsions:
REMARK  status: ('A' for Active; 'I' for Inactive)
REMARK    1  A    between atoms: C5_5  and  S7_7 
REMARK    2  A    between atoms: C6_6  and  S8_8 
REMARK    3  A    between atoms: S7_7  and  S8_8 
ROOT
HETATM    1  S7  UNL     1     -40.801  14.081   7.033  1.00 20.00    -0.093 SA
ENDROOT
BRANCH   1   2
HETATM    2  C5  UNL     1     -42.456  13.762   7.730  1.00 20.00     0.050 C 
HETATM    3  C1  UNL     1     -42.961  12.405   7.254  1.00 20.00     0.022 C 
HETATM    4  C2  UNL     1     -42.396  13.832   9.251  1.00 20.00     0.022 C 
ENDBRANCH   1   2
BRANCH   1   5
HETATM    5  S8  UNL     1     -40.977  13.233   5.171  1.00 20.00    -0.093 SA
BRANCH   5   6
HETATM    6  C6  UNL     1     -39.846  11.828   5.297  1.00 20.00     0.050 C 
HETATM    7  C3  UNL     1     -39.033  11.704   4.013  1.00 20.00     0.022 C 
HETATM    8  C4  UNL     1     -38.941  12.002   6.512  1.00 20.00     0.022 C 
ENDBRANCH   5   6
ENDBRANCH   1   5
TORSDOF 3
ENDMDL
MODEL 6
REMARK VINA RESULT:      -2.8     11.934     13.353
REMARK  3 active torsions:
REMARK  status: ('A' for Active; 'I' for Inactive)
REMARK    1  A    between atoms: C5_5  and  S7_7 
REMARK    2  A    between atoms: C6_6  and  S8_8 
REMARK    3  A    between atoms: S7_7  and  S8_8 
ROOT
HETATM    1  S7  UNL     1     -40.982  13.316   5.185  1.00 20.00    -0.093 SA
ENDROOT
BRANCH   1   2
HETATM    2  C5  UNL     1     -39.887  11.861   5.298  1.00 20.00     0.050 C 
HETATM    3  C1  UNL     1     -39.104  11.706   3.999  1.00 20.00     0.022 C 
HETATM    4  C2  UNL     1     -38.956  12.010   6.495  1.00 20.00     0.022 C 
ENDBRANCH   1   2
BRANCH   1   5
HETATM    5  S8  UNL     1     -41.453  13.621   7.160  1.00 20.00    -0.093 SA
BRANCH   5   6
HETATM    6  C6  UNL     1     -40.573  15.160   7.517  1.00 20.00     0.050 C 
HETATM    7  C3  UNL     1     -41.446  16.351   7.139  1.00 20.00     0.022 C 
HETATM    8  C4  UNL     1     -40.184  15.200   8.990  1.00 20.00     0.022 C 
ENDBRANCH   5   6
ENDBRANCH   1   5
TORSDOF 3
ENDMDL
MODEL 7
REMARK VINA RESULT:      -2.7      6.252      8.159
REMARK  3 active torsions:
REMARK  status: ('A' for Active; 'I' for Inactive)
REMARK    1  A    between atoms: C5_5  and  S7_7 
REMARK    2  A    between atoms: C6_6  and  S8_8 
REMARK    3  A    between atoms: S7_7  and  S8_8 
ROOT
HETATM    1  S7  UNL     1     -30.638  18.287   1.962  1.00 20.00    -0.093 SA
ENDROOT
BRANCH   1   2
HETATM    2  C5  UNL     1     -29.920  19.261   3.327  1.00 20.00     0.050 C 
HETATM    3  C1  UNL     1     -30.875  19.262   4.514  1.00 20.00     0.022 C 
HETATM    4  C2  UNL     1     -28.560  18.688   3.708  1.00 20.00     0.022 C 
ENDBRANCH   1   2
BRANCH   1   5
HETATM    5  S8  UNL     1     -32.462  19.201   1.730  1.00 20.00    -0.093 SA
BRANCH   5   6
HETATM    6  C6  UNL     1     -32.762  18.983  -0.040  1.00 20.00     0.050 C 
HETATM    7  C3  UNL     1     -31.486  18.505  -0.723  1.00 20.00     0.022 C 
HETATM    8  C4  UNL     1     -33.908  18.000  -0.250  1.00 20.00     0.022 C 
ENDBRANCH   5   6
ENDBRANCH   1   5
TORSDOF 3
ENDMDL
MODEL 8
REMARK VINA RESULT:      -2.7      2.173      2.860
REMARK  3 active torsions:
REMARK  status: ('A' for Active; 'I' for Inactive)
REMARK    1  A    between atoms: C5_5  and  S7_7 
REMARK    2  A    between atoms: C6_6  and  S8_8 
REMARK    3  A    between atoms: S7_7  and  S8_8 
ROOT
HETATM    1  S7  UNL     1     -33.334  16.692  -2.747  1.00 20.00    -0.093 SA
ENDROOT
BRANCH   1   2
HETATM    2  C5  UNL     1     -33.674  18.203  -1.784  1.00 20.00     0.050 C 
HETATM    3  C1  UNL     1     -33.785  17.855  -0.304  1.00 20.00     0.022 C 
HETATM    4  C2  UNL     1     -32.576  19.230  -2.032  1.00 20.00     0.022 C 
ENDBRANCH   1   2
BRANCH   1   5
HETATM    5  S8  UNL     1     -34.347  17.086  -4.488  1.00 20.00    -0.093 SA
BRANCH   5   6
HETATM    6  C6  UNL     1     -34.681  15.420  -5.107  1.00 20.00     0.050 C 
HETATM    7  C3  UNL     1     -34.136  15.278  -6.524  1.00 20.00     0.022 C 
HETATM    8  C4  UNL     1     -34.064  14.389  -4.168  1.00 20.00     0.022 C 
ENDBRANCH   5   6
ENDBRANCH   1   5
TORSDOF 3
ENDMDL
MODEL 9
REMARK VINA RESULT:      -2.7      2.141      4.599
REMARK  3 active torsions:
REMARK  status: ('A' for Active; 'I' for Inactive)
REMARK    1  A    between atoms: C5_5  and  S7_7 
REMARK    2  A    between atoms: C6_6  and  S8_8 
REMARK    3  A    between atoms: S7_7  and  S8_8 
ROOT
HETATM    1  S7  UNL     1     -34.482  17.074  -4.543  1.00 20.00    -0.093 SA
ENDROOT
BRANCH   1   2
HETATM    2  C5  UNL     1     -34.724  15.377  -5.167  1.00 20.00     0.050 C 
HETATM    3  C1  UNL     1     -34.140  15.258  -6.570  1.00 20.00     0.022 C 
HETATM    4  C2  UNL     1     -34.082  14.380  -4.210  1.00 20.00     0.022 C 
ENDBRANCH   1   2
BRANCH   1   5
HETATM    5  S8  UNL     1     -33.355  16.728  -2.861  1.00 20.00    -0.093 SA
BRANCH   5   6
HETATM    6  C6  UNL     1     -33.693  18.209  -1.879  1.00 20.00     0.050 C 
HETATM    7  C3  UNL     1     -33.768  17.840  -0.402  1.00 20.00     0.022 C 
HETATM    8  C4  UNL     1     -32.613  19.254  -2.137  1.00 20.00     0.022 C 
ENDBRANCH   5   6
ENDBRANCH   1   5
TORSDOF 3
ENDMDL
