MODEL 1
REMARK VINA RESULT:      -3.8      0.000      0.000
REMARK  3 active torsions:
REMARK  status: ('A' for Active; 'I' for Inactive)
REMARK    1  A    between atoms: C2_2  and  C4_4 
REMARK    2  A    between atoms: C4_4  and  S8_8 
REMARK    3  A    between atoms: C5_5  and  S8_8 
ROOT
HETATM    1  O6  UNL     1     -35.852   6.052   4.280  1.00 20.00    -0.228 OA
HETATM    2  O7  UNL     1     -34.185   4.341   5.094  1.00 20.00    -0.228 OA
HETATM    3  S8  UNL     1     -34.493   5.690   4.649  1.00 20.00     0.147 S 
ENDROOT
BRANCH   3   4
HETATM    4  C4  UNL     1     -33.931   6.821   5.879  1.00 20.00     0.166 C 
BRANCH   4   5
HETATM    5  C2  UNL     1     -33.697   8.129   5.206  1.00 20.00    -0.022 C 
HETATM    6  C1  UNL     1     -32.487   8.680   5.052  1.00 20.00     0.008 C 
ENDBRANCH   4   5
ENDBRANCH   3   4
BRANCH   3   7
HETATM    7  C5  UNL     1     -33.449   6.043   3.253  1.00 20.00     0.136 C 
HETATM    8  C3  UNL     1     -32.948   4.775   2.599  1.00 20.00     0.021 C 
ENDBRANCH   3   7
TORSDOF 3
ENDMDL
MODEL 2
REMARK VINA RESULT:      -3.6     12.890     13.557
REMARK  3 active torsions:
REMARK  status: ('A' for Active; 'I' for Inactive)
REMARK    1  A    between atoms: C2_2  and  C4_4 
REMARK    2  A    between atoms: C4_4  and  S8_8 
REMARK    3  A    between atoms: C5_5  and  S8_8 
ROOT
HETATM    1  O6  UNL     1     -36.095  13.726  -4.686  1.00 20.00    -0.228 OA
HETATM    2  O7  UNL     1     -35.995  14.232  -7.157  1.00 20.00    -0.228 OA
HETATM    3  S8  UNL     1     -35.750  14.622  -5.777  1.00 20.00     0.147 S 
ENDROOT
BRANCH   3   4
HETATM    4  C4  UNL     1     -34.050  15.061  -5.619  1.00 20.00     0.166 C 
BRANCH   4   5
HETATM    5  C2  UNL     1     -33.690  14.930  -4.179  1.00 20.00    -0.022 C 
HETATM    6  C1  UNL     1     -33.394  15.969  -3.390  1.00 20.00     0.008 C 
ENDBRANCH   4   5
ENDBRANCH   3   4
BRANCH   3   7
HETATM    7  C5  UNL     1     -36.602  16.157  -5.497  1.00 20.00     0.136 C 
HETATM    8  C3  UNL     1     -35.839  17.330  -6.072  1.00 20.00     0.021 C 
ENDBRANCH   3   7
TORSDOF 3
ENDMDL
MODEL 3
REMARK VINA RESULT:      -3.5     12.597     13.236
REMARK  3 active torsions:
REMARK  status: ('A' for Active; 'I' for Inactive)
REMARK    1  A    between atoms: C2_2  and  C4_4 
REMARK    2  A    between atoms: C4_4  and  S8_8 
REMARK    3  A    between atoms: C5_5  and  S8_8 
ROOT
HETATM    1  O6  UNL     1     -34.442  13.913  -4.155  1.00 20.00    -0.228 OA
HETATM    2  O7  UNL     1     -33.873  14.817  -6.442  1.00 20.00    -0.228 OA
HETATM    3  S8  UNL     1     -34.563  14.947  -5.169  1.00 20.00     0.147 S 
ENDROOT
BRANCH   3   4
HETATM    4  C4  UNL     1     -34.105  16.489  -4.446  1.00 20.00     0.166 C 
BRANCH   4   5
HETATM    5  C2  UNL     1     -33.358  16.188  -3.192  1.00 20.00    -0.022 C 
HETATM    6  C1  UNL     1     -33.461  16.914  -2.074  1.00 20.00     0.008 C 
ENDBRANCH   4   5
ENDBRANCH   3   4
BRANCH   3   7
HETATM    7  C5  UNL     1     -36.294  15.152  -5.518  1.00 20.00     0.136 C 
HETATM    8  C3  UNL     1     -36.713  16.603  -5.418  1.00 20.00     0.021 C 
ENDBRANCH   3   7
TORSDOF 3
ENDMDL
MODEL 4
REMARK VINA RESULT:      -3.5      2.402      3.070
REMARK  3 active torsions:
REMARK  status: ('A' for Active; 'I' for Inactive)
REMARK    1  A    between atoms: C2_2  and  C4_4 
REMARK    2  A    between atoms: C4_4  and  S8_8 
REMARK    3  A    between atoms: C5_5  and  S8_8 
ROOT
HETATM    1  O6  UNL     1     -32.316   9.295   4.961  1.00 20.00    -0.228 OA
HETATM    2  O7  UNL     1     -34.460   8.242   4.145  1.00 20.00    -0.228 OA
HETATM    3  S8  UNL     1     -33.087   8.115   4.606  1.00 20.00     0.147 S 
ENDROOT
BRANCH   3   4
HETATM    4  C4  UNL     1     -33.065   7.004   5.975  1.00 20.00     0.166 C 
BRANCH   4   5
HETATM    5  C2  UNL     1     -34.456   6.508   6.169  1.00 20.00    -0.022 C 
HETATM    6  C1  UNL     1     -34.812   5.224   6.042  1.00 20.00     0.008 C 
ENDBRANCH   4   5
ENDBRANCH   3   4
BRANCH   3   7
HETATM    7  C5  UNL     1     -32.180   7.242   3.350  1.00 20.00     0.136 C 
HETATM    8  C3  UNL     1     -32.905   5.989   2.911  1.00 20.00     0.021 C 
ENDBRANCH   3   7
TORSDOF 3
ENDMDL
MODEL 5
REMARK VINA RESULT:      -3.4      8.788     10.152
REMARK  3 active torsions:
REMARK  status: ('A' for Active; 'I' for Inactive)
REMARK    1  A    between atoms: C2_2  and  C4_4 
REMARK    2  A    between atoms: C4_4  and  S8_8 
REMARK    3  A    between atoms: C5_5  and  S8_8 
ROOT
HETATM    1  O6  UNL     1     -41.940  12.496   7.234  1.00 20.00    -0.228 OA
HETATM    2  O7  UNL     1     -41.492  13.752   5.091  1.00 20.00    -0.228 OA
HETATM    3  S8  UNL     1     -41.062  13.308   6.407  1.00 20.00     0.147 S 
ENDROOT
BRANCH   3   4
HETATM    4  C4  UNL     1     -39.525  12.462   6.232  1.00 20.00     0.166 C 
BRANCH   4   5
HETATM    5  C2  UNL     1     -39.648  11.555   5.056  1.00 20.00    -0.022 C 
HETATM    6  C1  UNL     1     -38.890  11.655   3.958  1.00 20.00     0.008 C 
ENDBRANCH   4   5
ENDBRANCH   3   4
BRANCH   3   7
HETATM    7  C5  UNL     1     -40.633  14.756   7.346  1.00 20.00     0.136 C 
HETATM    8  C3  UNL     1     -40.303  14.410   8.781  1.00 20.00     0.021 C 
ENDBRANCH   3   7
TORSDOF 3
ENDMDL
MODEL 6
REMARK VINA RESULT:      -3.4      1.348      2.936
REMARK  3 active torsions:
REMARK  status: ('A' for Active; 'I' for Inactive)
REMARK    1  A    between atoms: C2_2  and  C4_4 
REMARK    2  A    between atoms: C4_4  and  S8_8 
REMARK    3  A    between atoms: C5_5  and  S8_8 
ROOT
HETATM    1  O6  UNL     1     -33.893   4.457   3.994  1.00 20.00    -0.228 OA
HETATM    2  O7  UNL     1     -35.941   5.928   4.110  1.00 20.00    -0.228 OA
HETATM    3  S8  UNL     1     -34.577   5.629   4.515  1.00 20.00     0.147 S 
ENDROOT
BRANCH   3   4
HETATM    4  C4  UNL     1     -33.579   7.045   4.187  1.00 20.00     0.166 C 
BRANCH   4   5
HETATM    5  C2  UNL     1     -32.594   6.662   3.137  1.00 20.00    -0.022 C 
HETATM    6  C1  UNL     1     -32.160   7.496   2.185  1.00 20.00     0.008 C 
ENDBRANCH   4   5
ENDBRANCH   3   4
BRANCH   3   7
HETATM    7  C5  UNL     1     -34.560   5.512   6.289  1.00 20.00     0.136 C 
HETATM    8  C3  UNL     1     -34.257   6.848   6.931  1.00 20.00     0.021 C 
ENDBRANCH   3   7
TORSDOF 3
ENDMDL
MODEL 7
REMARK VINA RESULT:      -3.4      9.172      9.876
REMARK  3 active torsions:
REMARK  status: ('A' for Active; 'I' for Inactive)
REMARK    1  A    between atoms: C2_2  and  C4_4 
REMARK    2  A    between atoms: C4_4  and  S8_8 
REMARK    3  A    between atoms: C5_5  and  S8_8 
ROOT
HETATM    1  O6  UNL     1     -42.721   4.566  -1.940  1.00 20.00    -0.228 OA
HETATM    2  O7  UNL     1     -43.415   6.707  -0.799  1.00 20.00    -0.228 OA
HETATM    3  S8  UNL     1     -42.703   5.440  -0.779  1.00 20.00     0.147 S 
ENDROOT
BRANCH   3   4
HETATM    4  C4  UNL     1     -41.023   5.756  -0.347  1.00 20.00     0.166 C 
BRANCH   4   5
HETATM    5  C2  UNL     1     -40.862   7.233  -0.238  1.00 20.00    -0.022 C 
HETATM    6  C1  UNL     1     -40.746   7.884   0.926  1.00 20.00     0.008 C 
ENDBRANCH   4   5
ENDBRANCH   3   4
BRANCH   3   7
HETATM    7  C5  UNL     1     -43.317   4.505   0.603  1.00 20.00     0.136 C 
HETATM    8  C3  UNL     1     -43.164   5.266   1.902  1.00 20.00     0.021 C 
ENDBRANCH   3   7
TORSDOF 3
ENDMDL
MODEL 8
REMARK VINA RESULT:      -3.3      9.376     10.477
REMARK  3 active torsions:
REMARK  status: ('A' for Active; 'I' for Inactive)
REMARK    1  A    between atoms: C2_2  and  C4_4 
REMARK    2  A    between atoms: C4_4  and  S8_8 
REMARK    3  A    between atoms: C5_5  and  S8_8 
ROOT
HETATM    1  O6  UNL     1     -40.804  15.339   6.996  1.00 20.00    -0.228 OA
HETATM    2  O7  UNL     1     -39.924  13.186   7.974  1.00 20.00    -0.228 OA
HETATM    3  S8  UNL     1     -40.868  13.893   7.125  1.00 20.00     0.147 S 
ENDROOT
BRANCH   3   4
HETATM    4  C4  UNL     1     -40.796  13.188   5.510  1.00 20.00     0.166 C 
BRANCH   4   5
HETATM    5  C2  UNL     1     -39.646  12.241   5.490  1.00 20.00    -0.022 C 
HETATM    6  C1  UNL     1     -39.148  11.701   4.371  1.00 20.00     0.008 C 
ENDBRANCH   4   5
ENDBRANCH   3   4
BRANCH   3   7
HETATM    7  C5  UNL     1     -42.504  13.479   7.684  1.00 20.00     0.136 C 
HETATM    8  C3  UNL     1     -42.971  12.160   7.109  1.00 20.00     0.021 C 
ENDBRANCH   3   7
TORSDOF 3
ENDMDL
MODEL 9
REMARK VINA RESULT:      -3.3     12.507     13.073
REMARK  3 active torsions:
REMARK  status: ('A' for Active; 'I' for Inactive)
REMARK    1  A    between atoms: C2_2  and  C4_4 
REMARK    2  A    between atoms: C4_4  and  S8_8 
REMARK    3  A    between atoms: C5_5  and  S8_8 
ROOT
HETATM    1  O6  UNL     1     -35.639  14.286  -4.770  1.00 20.00    -0.228 OA
HETATM    2  O7  UNL     1     -33.158  14.055  -4.372  1.00 20.00    -0.228 OA
HETATM    3  S8  UNL     1     -34.289  14.811  -4.884  1.00 20.00     0.147 S 
ENDROOT
BRANCH   3   4
HETATM    4  C4  UNL     1     -34.255  16.418  -4.159  1.00 20.00     0.166 C 
BRANCH   4   5
HETATM    5  C2  UNL     1     -33.316  16.364  -3.003  1.00 20.00    -0.022 C 
HETATM    6  C1  UNL     1     -33.519  17.012  -1.850  1.00 20.00     0.008 C 
ENDBRANCH   4   5
ENDBRANCH   3   4
BRANCH   3   7
HETATM    7  C5  UNL     1     -33.983  15.129  -6.606  1.00 20.00     0.136 C 
HETATM    8  C3  UNL     1     -34.587  16.444  -7.045  1.00 20.00     0.021 C 
ENDBRANCH   3   7
TORSDOF 3
ENDMDL
