MODEL 1
REMARK VINA RESULT:      -6.4      0.000      0.000
REMARK  1 active torsions:
REMARK  status: ('A' for Active; 'I' for Inactive)
REMARK    1  A    between atoms: C6_6  and  C9_9 
ROOT
HETATM    1  C1  UNL     1     -34.823   5.093   5.924  1.00 20.00     0.001 A 
HETATM    2  C2  UNL     1     -34.576   6.339   6.500  1.00 20.00     0.001 A 
HETATM    3  C3  UNL     1     -34.328   4.801   4.654  1.00 20.00     0.007 A 
HETATM    4  C4  UNL     1     -33.834   7.294   5.805  1.00 20.00     0.007 A 
HETATM    5  C5  UNL     1     -33.584   5.755   3.958  1.00 20.00    -0.056 A 
HETATM    6  C6  UNL     1     -33.338   7.002   4.534  1.00 20.00    -0.053 A 
HETATM    7  C7  UNL     1     -33.062   5.420   2.600  1.00 20.00     0.049 C 
ENDROOT
BRANCH   6   8
HETATM    8  C9  UNL     1     -32.547   8.040   3.809  1.00 20.00     0.034 C 
HETATM    9  C8  UNL     1     -32.116   9.183   4.724  1.00 20.00     0.010 C 
ENDBRANCH   6   8
TORSDOF 1
ENDMDL
MODEL 2
REMARK VINA RESULT:      -6.1      0.806      3.155
REMARK  1 active torsions:
REMARK  status: ('A' for Active; 'I' for Inactive)
REMARK    1  A    between atoms: C6_6  and  C9_9 
ROOT
HETATM    1  C1  UNL     1     -32.140   8.604   3.931  1.00 20.00     0.001 A 
HETATM    2  C2  UNL     1     -32.959   8.697   5.056  1.00 20.00     0.001 A 
HETATM    3  C3  UNL     1     -32.169   7.457   3.138  1.00 20.00     0.007 A 
HETATM    4  C4  UNL     1     -33.808   7.641   5.389  1.00 20.00     0.007 A 
HETATM    5  C5  UNL     1     -33.018   6.401   3.471  1.00 20.00    -0.056 A 
HETATM    6  C6  UNL     1     -33.838   6.493   4.596  1.00 20.00    -0.053 A 
HETATM    7  C7  UNL     1     -33.034   5.183   2.607  1.00 20.00     0.049 C 
ENDROOT
BRANCH   6   8
HETATM    8  C9  UNL     1     -34.754   5.376   4.973  1.00 20.00     0.034 C 
HETATM    9  C8  UNL     1     -34.716   5.077   6.469  1.00 20.00     0.010 C 
ENDBRANCH   6   8
TORSDOF 1
ENDMDL
MODEL 3
REMARK VINA RESULT:      -6.0      0.579      2.764
REMARK  1 active torsions:
REMARK  status: ('A' for Active; 'I' for Inactive)
REMARK    1  A    between atoms: C6_6  and  C9_9 
ROOT
HETATM    1  C1  UNL     1     -34.598   6.473   6.643  1.00 20.00     0.001 A 
HETATM    2  C2  UNL     1     -34.835   5.351   5.849  1.00 20.00     0.001 A 
HETATM    3  C3  UNL     1     -33.799   7.511   6.164  1.00 20.00     0.007 A 
HETATM    4  C4  UNL     1     -34.273   5.267   4.575  1.00 20.00     0.007 A 
HETATM    5  C5  UNL     1     -33.237   7.427   4.890  1.00 20.00    -0.056 A 
HETATM    6  C6  UNL     1     -33.474   6.305   4.095  1.00 20.00    -0.053 A 
HETATM    7  C7  UNL     1     -32.386   8.551   4.397  1.00 20.00     0.049 C 
ENDROOT
BRANCH   6   8
HETATM    8  C9  UNL     1     -32.883   6.193   2.729  1.00 20.00     0.034 C 
HETATM    9  C8  UNL     1     -32.860   4.752   2.225  1.00 20.00     0.010 C 
ENDBRANCH   6   8
TORSDOF 1
ENDMDL
MODEL 4
REMARK VINA RESULT:      -5.6      0.731      3.603
REMARK  1 active torsions:
REMARK  status: ('A' for Active; 'I' for Inactive)
REMARK    1  A    between atoms: C6_6  and  C9_9 
ROOT
HETATM    1  C1  UNL     1     -32.382   6.394   2.271  1.00 20.00     0.001 A 
HETATM    2  C2  UNL     1     -33.205   5.374   2.749  1.00 20.00     0.001 A 
HETATM    3  C3  UNL     1     -32.189   7.548   3.031  1.00 20.00     0.007 A 
HETATM    4  C4  UNL     1     -33.836   5.508   3.985  1.00 20.00     0.007 A 
HETATM    5  C5  UNL     1     -32.820   7.682   4.268  1.00 20.00    -0.056 A 
HETATM    6  C6  UNL     1     -33.643   6.662   4.746  1.00 20.00    -0.053 A 
HETATM    7  C7  UNL     1     -32.598   8.925   5.064  1.00 20.00     0.049 C 
ENDROOT
BRANCH   6   8
HETATM    8  C9  UNL     1     -34.330   6.784   6.066  1.00 20.00     0.034 C 
HETATM    9  C8  UNL     1     -34.742   5.427   6.631  1.00 20.00     0.010 C 
ENDBRANCH   6   8
TORSDOF 1
ENDMDL
MODEL 5
REMARK VINA RESULT:      -5.4      0.855      2.531
REMARK  1 active torsions:
REMARK  status: ('A' for Active; 'I' for Inactive)
REMARK    1  A    between atoms: C6_6  and  C9_9 
ROOT
HETATM    1  C1  UNL     1     -33.577   4.524   3.240  1.00 20.00     0.001 A 
HETATM    2  C2  UNL     1     -32.888   5.596   2.672  1.00 20.00     0.001 A 
HETATM    3  C3  UNL     1     -34.223   4.681   4.467  1.00 20.00     0.007 A 
HETATM    4  C4  UNL     1     -32.845   6.825   3.331  1.00 20.00     0.007 A 
HETATM    5  C5  UNL     1     -34.180   5.910   5.126  1.00 20.00    -0.056 A 
HETATM    6  C6  UNL     1     -33.491   6.982   4.558  1.00 20.00    -0.053 A 
HETATM    7  C7  UNL     1     -34.880   6.055   6.437  1.00 20.00     0.049 C 
ENDROOT
BRANCH   6   8
HETATM    8  C9  UNL     1     -33.429   8.306   5.245  1.00 20.00     0.034 C 
HETATM    9  C8  UNL     1     -32.194   9.109   4.844  1.00 20.00     0.010 C 
ENDBRANCH   6   8
TORSDOF 1
ENDMDL
MODEL 6
REMARK VINA RESULT:      -5.4      0.815      3.474
REMARK  1 active torsions:
REMARK  status: ('A' for Active; 'I' for Inactive)
REMARK    1  A    between atoms: C6_6  and  C9_9 
ROOT
HETATM    1  C1  UNL     1     -32.868   8.867   5.303  1.00 20.00     0.001 A 
HETATM    2  C2  UNL     1     -32.339   8.539   4.054  1.00 20.00     0.001 A 
HETATM    3  C3  UNL     1     -33.681   7.956   5.977  1.00 20.00     0.007 A 
HETATM    4  C4  UNL     1     -32.623   7.300   3.480  1.00 20.00     0.007 A 
HETATM    5  C5  UNL     1     -33.965   6.716   5.403  1.00 20.00    -0.056 A 
HETATM    6  C6  UNL     1     -33.436   6.388   4.154  1.00 20.00    -0.053 A 
HETATM    7  C7  UNL     1     -34.837   5.756   6.143  1.00 20.00     0.049 C 
ENDROOT
BRANCH   6   8
HETATM    8  C9  UNL     1     -33.727   5.069   3.519  1.00 20.00     0.034 C 
HETATM    9  C8  UNL     1     -32.882   4.829   2.271  1.00 20.00     0.010 C 
ENDBRANCH   6   8
TORSDOF 1
ENDMDL
MODEL 7
REMARK VINA RESULT:      -4.0     16.155     17.042
REMARK  1 active torsions:
REMARK  status: ('A' for Active; 'I' for Inactive)
REMARK    1  A    between atoms: C6_6  and  C9_9 
ROOT
HETATM    1  C1  UNL     1     -22.949  19.070   8.696  1.00 20.00     0.001 A 
HETATM    2  C2  UNL     1     -24.331  19.262   8.688  1.00 20.00     0.001 A 
HETATM    3  C3  UNL     1     -22.296  18.752   9.886  1.00 20.00     0.007 A 
HETATM    4  C4  UNL     1     -25.059  19.137   9.870  1.00 20.00     0.007 A 
HETATM    5  C5  UNL     1     -23.024  18.626  11.070  1.00 20.00    -0.056 A 
HETATM    6  C6  UNL     1     -24.406  18.818  11.062  1.00 20.00    -0.053 A 
HETATM    7  C7  UNL     1     -22.304  18.284  12.332  1.00 20.00     0.049 C 
ENDROOT
BRANCH   6   8
HETATM    8  C9  UNL     1     -25.207  18.691  12.315  1.00 20.00     0.034 C 
HETATM    9  C8  UNL     1     -26.616  19.257  12.162  1.00 20.00     0.010 C 
ENDBRANCH   6   8
TORSDOF 1
ENDMDL
MODEL 8
REMARK VINA RESULT:      -3.9     16.069     17.291
REMARK  1 active torsions:
REMARK  status: ('A' for Active; 'I' for Inactive)
REMARK    1  A    between atoms: C6_6  and  C9_9 
ROOT
HETATM    1  C1  UNL     1     -25.010  18.613  11.679  1.00 20.00     0.001 A 
HETATM    2  C2  UNL     1     -25.050  18.813  10.299  1.00 20.00     0.001 A 
HETATM    3  C3  UNL     1     -23.783  18.501  12.332  1.00 20.00     0.007 A 
HETATM    4  C4  UNL     1     -23.863  18.901   9.572  1.00 20.00     0.007 A 
HETATM    5  C5  UNL     1     -22.595  18.589  11.605  1.00 20.00    -0.056 A 
HETATM    6  C6  UNL     1     -22.635  18.789  10.225  1.00 20.00    -0.053 A 
HETATM    7  C7  UNL     1     -21.293  18.469  12.325  1.00 20.00     0.049 C 
ENDROOT
BRANCH   6   8
HETATM    8  C9  UNL     1     -21.377  18.885   9.426  1.00 20.00     0.034 C 
HETATM    9  C8  UNL     1     -21.448  18.071   8.137  1.00 20.00     0.010 C 
ENDBRANCH   6   8
TORSDOF 1
ENDMDL
MODEL 9
REMARK VINA RESULT:      -3.8     12.555     13.246
REMARK  1 active torsions:
REMARK  status: ('A' for Active; 'I' for Inactive)
REMARK    1  A    between atoms: C6_6  and  C9_9 
ROOT
HETATM    1  C1  UNL     1     -31.125  19.167   1.488  1.00 20.00     0.001 A 
HETATM    2  C2  UNL     1     -30.720  18.648   0.258  1.00 20.00     0.001 A 
HETATM    3  C3  UNL     1     -32.483  19.263   1.792  1.00 20.00     0.007 A 
HETATM    4  C4  UNL     1     -31.673  18.226  -0.668  1.00 20.00     0.007 A 
HETATM    5  C5  UNL     1     -33.436  18.840   0.866  1.00 20.00    -0.056 A 
HETATM    6  C6  UNL     1     -33.032  18.322  -0.365  1.00 20.00    -0.053 A 
HETATM    7  C7  UNL     1     -34.884  18.950   1.213  1.00 20.00     0.049 C 
ENDROOT
BRANCH   6   8
HETATM    8  C9  UNL     1     -34.034  17.864  -1.373  1.00 20.00     0.034 C 
HETATM    9  C8  UNL     1     -33.479  16.774  -2.285  1.00 20.00     0.010 C 
ENDBRANCH   6   8
TORSDOF 1
ENDMDL
