MODEL 1
REMARK VINA RESULT:      -5.9      0.000      0.000
REMARK  1 active torsions:
REMARK  status: ('A' for Active; 'I' for Inactive)
REMARK    1  A    between atoms: C6_6  and  C8_8 
ROOT
HETATM    1  C1  UNL     1     -34.816   5.303   5.981  1.00 20.00     0.000 A 
HETATM    2  C2  UNL     1     -34.402   6.494   6.578  1.00 20.00     0.001 A 
HETATM    3  C3  UNL     1     -34.492   5.041   4.649  1.00 20.00     0.001 A 
HETATM    4  C4  UNL     1     -33.664   7.422   5.844  1.00 20.00     0.007 A 
HETATM    5  C5  UNL     1     -33.753   5.970   3.916  1.00 20.00     0.007 A 
HETATM    6  C6  UNL     1     -33.339   7.160   4.514  1.00 20.00    -0.059 A 
ENDROOT
BRANCH   6   7
HETATM    7  C8  UNL     1     -32.550   8.152   3.729  1.00 20.00     0.034 C 
HETATM    8  C7  UNL     1     -32.189   7.638   2.337  1.00 20.00     0.010 C 
ENDBRANCH   6   7
TORSDOF 1
ENDMDL
MODEL 2
REMARK VINA RESULT:      -5.8      0.010      1.708
REMARK  1 active torsions:
REMARK  status: ('A' for Active; 'I' for Inactive)
REMARK    1  A    between atoms: C6_6  and  C8_8 
ROOT
HETATM    1  C1  UNL     1     -34.811   5.299   5.973  1.00 20.00     0.000 A 
HETATM    2  C2  UNL     1     -34.482   5.037   4.643  1.00 20.00     0.001 A 
HETATM    3  C3  UNL     1     -34.399   6.490   6.572  1.00 20.00     0.001 A 
HETATM    4  C4  UNL     1     -33.742   5.965   3.912  1.00 20.00     0.007 A 
HETATM    5  C5  UNL     1     -33.659   7.419   5.839  1.00 20.00     0.007 A 
HETATM    6  C6  UNL     1     -33.331   7.156   4.510  1.00 20.00    -0.059 A 
ENDROOT
BRANCH   6   7
HETATM    7  C8  UNL     1     -32.539   8.149   3.728  1.00 20.00     0.034 C 
HETATM    8  C7  UNL     1     -32.191   7.643   2.329  1.00 20.00     0.010 C 
ENDBRANCH   6   7
TORSDOF 1
ENDMDL
MODEL 3
REMARK VINA RESULT:      -5.8      0.593      1.035
REMARK  1 active torsions:
REMARK  status: ('A' for Active; 'I' for Inactive)
REMARK    1  A    between atoms: C6_6  and  C8_8 
ROOT
HETATM    1  C1  UNL     1     -34.840   5.106   5.875  1.00 20.00     0.000 A 
HETATM    2  C2  UNL     1     -34.492   6.285   6.533  1.00 20.00     0.001 A 
HETATM    3  C3  UNL     1     -34.465   4.912   4.545  1.00 20.00     0.001 A 
HETATM    4  C4  UNL     1     -33.769   7.271   5.862  1.00 20.00     0.007 A 
HETATM    5  C5  UNL     1     -33.741   5.898   3.874  1.00 20.00     0.007 A 
HETATM    6  C6  UNL     1     -33.393   7.078   4.533  1.00 20.00    -0.059 A 
ENDROOT
BRANCH   6   7
HETATM    7  C8  UNL     1     -32.620   8.131   3.815  1.00 20.00     0.034 C 
HETATM    8  C7  UNL     1     -32.121   9.227   4.754  1.00 20.00     0.010 C 
ENDBRANCH   6   7
TORSDOF 1
ENDMDL
MODEL 4
REMARK VINA RESULT:      -5.4      0.806      3.386
REMARK  1 active torsions:
REMARK  status: ('A' for Active; 'I' for Inactive)
REMARK    1  A    between atoms: C6_6  and  C8_8 
ROOT
HETATM    1  C1  UNL     1     -31.993   8.459   3.732  1.00 20.00     0.000 A 
HETATM    2  C2  UNL     1     -32.686   8.652   4.926  1.00 20.00     0.001 A 
HETATM    3  C3  UNL     1     -32.230   7.320   2.963  1.00 20.00     0.001 A 
HETATM    4  C4  UNL     1     -33.618   7.706   5.352  1.00 20.00     0.007 A 
HETATM    5  C5  UNL     1     -33.163   6.374   3.389  1.00 20.00     0.007 A 
HETATM    6  C6  UNL     1     -33.857   6.567   4.583  1.00 20.00    -0.059 A 
ENDROOT
BRANCH   6   7
HETATM    7  C8  UNL     1     -34.853   5.555   5.038  1.00 20.00     0.034 C 
HETATM    8  C7  UNL     1     -34.721   5.238   6.526  1.00 20.00     0.010 C 
ENDBRANCH   6   7
TORSDOF 1
ENDMDL
MODEL 5
REMARK VINA RESULT:      -5.4      0.793      3.784
REMARK  1 active torsions:
REMARK  status: ('A' for Active; 'I' for Inactive)
REMARK    1  A    between atoms: C6_6  and  C8_8 
ROOT
HETATM    1  C1  UNL     1     -31.994   8.415   3.694  1.00 20.00     0.000 A 
HETATM    2  C2  UNL     1     -32.239   7.274   2.931  1.00 20.00     0.001 A 
HETATM    3  C3  UNL     1     -32.673   8.610   4.897  1.00 20.00     0.001 A 
HETATM    4  C4  UNL     1     -33.163   6.327   3.371  1.00 20.00     0.007 A 
HETATM    5  C5  UNL     1     -33.596   7.662   5.337  1.00 20.00     0.007 A 
HETATM    6  C6  UNL     1     -33.842   6.520   4.574  1.00 20.00    -0.059 A 
ENDROOT
BRANCH   6   7
HETATM    7  C8  UNL     1     -34.829   5.508   5.046  1.00 20.00     0.034 C 
HETATM    8  C7  UNL     1     -34.743   5.269   6.552  1.00 20.00     0.010 C 
ENDBRANCH   6   7
TORSDOF 1
ENDMDL
MODEL 6
REMARK VINA RESULT:      -5.3      0.621      1.296
REMARK  1 active torsions:
REMARK  status: ('A' for Active; 'I' for Inactive)
REMARK    1  A    between atoms: C6_6  and  C8_8 
ROOT
HETATM    1  C1  UNL     1     -34.617   6.321   6.582  1.00 20.00     0.000 A 
HETATM    2  C2  UNL     1     -33.836   7.373   6.105  1.00 20.00     0.001 A 
HETATM    3  C3  UNL     1     -34.837   5.197   5.785  1.00 20.00     0.001 A 
HETATM    4  C4  UNL     1     -33.275   7.303   4.831  1.00 20.00     0.007 A 
HETATM    5  C5  UNL     1     -34.274   5.127   4.510  1.00 20.00     0.007 A 
HETATM    6  C6  UNL     1     -33.493   6.180   4.033  1.00 20.00    -0.059 A 
ENDROOT
BRANCH   6   7
HETATM    7  C8  UNL     1     -32.893   6.104   2.670  1.00 20.00     0.034 C 
HETATM    8  C7  UNL     1     -32.122   7.370   2.304  1.00 20.00     0.010 C 
ENDBRANCH   6   7
TORSDOF 1
ENDMDL
MODEL 7
REMARK VINA RESULT:      -5.2      1.124      2.231
REMARK  1 active torsions:
REMARK  status: ('A' for Active; 'I' for Inactive)
REMARK    1  A    between atoms: C6_6  and  C8_8 
ROOT
HETATM    1  C1  UNL     1     -34.078   4.450   4.087  1.00 20.00     0.000 A 
HETATM    2  C2  UNL     1     -33.317   5.322   3.307  1.00 20.00     0.001 A 
HETATM    3  C3  UNL     1     -34.647   4.897   5.280  1.00 20.00     0.001 A 
HETATM    4  C4  UNL     1     -33.126   6.640   3.720  1.00 20.00     0.007 A 
HETATM    5  C5  UNL     1     -34.456   6.216   5.692  1.00 20.00     0.007 A 
HETATM    6  C6  UNL     1     -33.696   7.087   4.912  1.00 20.00    -0.059 A 
ENDROOT
BRANCH   6   7
HETATM    7  C8  UNL     1     -33.492   8.497   5.354  1.00 20.00     0.034 C 
HETATM    8  C7  UNL     1     -32.201   9.098   4.801  1.00 20.00     0.010 C 
ENDBRANCH   6   7
TORSDOF 1
ENDMDL
MODEL 8
REMARK VINA RESULT:      -5.1      1.010      2.159
REMARK  1 active torsions:
REMARK  status: ('A' for Active; 'I' for Inactive)
REMARK    1  A    between atoms: C6_6  and  C8_8 
ROOT
HETATM    1  C1  UNL     1     -34.582   6.498   6.633  1.00 20.00     0.000 A 
HETATM    2  C2  UNL     1     -34.823   5.369   5.852  1.00 20.00     0.001 A 
HETATM    3  C3  UNL     1     -33.785   7.531   6.140  1.00 20.00     0.001 A 
HETATM    4  C4  UNL     1     -34.267   5.272   4.577  1.00 20.00     0.007 A 
HETATM    5  C5  UNL     1     -33.229   7.434   4.864  1.00 20.00     0.007 A 
HETATM    6  C6  UNL     1     -33.470   6.305   4.082  1.00 20.00    -0.059 A 
ENDROOT
BRANCH   6   7
HETATM    7  C8  UNL     1     -32.876   6.201   2.719  1.00 20.00     0.034 C 
HETATM    8  C7  UNL     1     -32.860   4.765   2.199  1.00 20.00     0.010 C 
ENDBRANCH   6   7
TORSDOF 1
ENDMDL
MODEL 9
REMARK VINA RESULT:      -4.5      1.201      3.032
REMARK  1 active torsions:
REMARK  status: ('A' for Active; 'I' for Inactive)
REMARK    1  A    between atoms: C6_6  and  C8_8 
ROOT
HETATM    1  C1  UNL     1     -32.821   8.859   5.228  1.00 20.00     0.000 A 
HETATM    2  C2  UNL     1     -32.194   8.453   4.051  1.00 20.00     0.001 A 
HETATM    3  C3  UNL     1     -33.761   8.029   5.841  1.00 20.00     0.001 A 
HETATM    4  C4  UNL     1     -32.506   7.217   3.486  1.00 20.00     0.007 A 
HETATM    5  C5  UNL     1     -34.071   6.792   5.275  1.00 20.00     0.007 A 
HETATM    6  C6  UNL     1     -33.444   6.386   4.098  1.00 20.00    -0.059 A 
ENDROOT
BRANCH   6   7
HETATM    7  C8  UNL     1     -33.777   5.064   3.494  1.00 20.00     0.034 C 
HETATM    8  C7  UNL     1     -32.887   4.730   2.299  1.00 20.00     0.010 C 
ENDBRANCH   6   7
TORSDOF 1
ENDMDL
