MODEL 1
REMARK VINA RESULT:      -4.0      0.000      0.000
REMARK  0 active torsions:
REMARK  status: ('A' for Active; 'I' for Inactive)
ROOT
HETATM    1  C1  UNL     1     -32.574   8.971   5.116  1.00 20.00     0.002 A 
HETATM    2  C2  UNL     1     -32.161   8.914   3.785  1.00 20.00     0.007 A 
HETATM    3  C3  UNL     1     -33.311   7.920   5.663  1.00 20.00     0.018 A 
HETATM    4  C4  UNL     1     -33.223   6.757   3.547  1.00 20.00     0.025 A 
HETATM    5  C5  UNL     1     -32.486   7.808   3.000  1.00 20.00    -0.061 A 
HETATM    6  C6  UNL     1     -33.636   6.814   4.878  1.00 20.00     0.006 A 
HETATM    7  C7  UNL     1     -32.044   7.750   1.577  1.00 20.00     0.048 C 
HETATM    8  I8  UNL     1     -34.733   5.248   5.693  1.00 20.00    -0.045 I 
ENDROOT
TORSDOF 0
ENDMDL
MODEL 2
REMARK VINA RESULT:      -3.8     15.059     15.513
REMARK  0 active torsions:
REMARK  status: ('A' for Active; 'I' for Inactive)
ROOT
HETATM    1  C1  UNL     1     -24.314  16.453  11.824  1.00 20.00     0.002 A 
HETATM    2  C2  UNL     1     -25.407  17.155  12.330  1.00 20.00     0.007 A 
HETATM    3  C3  UNL     1     -23.570  16.986  10.771  1.00 20.00     0.018 A 
HETATM    4  C4  UNL     1     -25.014  18.923  10.731  1.00 20.00     0.025 A 
HETATM    5  C5  UNL     1     -25.758  18.390  11.783  1.00 20.00    -0.061 A 
HETATM    6  C6  UNL     1     -23.921  18.221  10.224  1.00 20.00     0.006 A 
HETATM    7  C7  UNL     1     -26.929  19.139  12.326  1.00 20.00     0.048 C 
HETATM    8  I8  UNL     1     -22.812  19.015   8.656  1.00 20.00    -0.045 I 
ENDROOT
TORSDOF 0
ENDMDL
MODEL 3
REMARK VINA RESULT:      -3.7      1.915      3.083
REMARK  0 active torsions:
REMARK  status: ('A' for Active; 'I' for Inactive)
ROOT
HETATM    1  C1  UNL     1     -34.693   5.960   6.101  1.00 20.00     0.002 A 
HETATM    2  C2  UNL     1     -34.112   7.219   6.252  1.00 20.00     0.007 A 
HETATM    3  C3  UNL     1     -34.446   5.212   4.950  1.00 20.00     0.018 A 
HETATM    4  C4  UNL     1     -33.040   6.984   4.099  1.00 20.00     0.025 A 
HETATM    5  C5  UNL     1     -33.287   7.732   5.251  1.00 20.00    -0.061 A 
HETATM    6  C6  UNL     1     -33.621   5.725   3.948  1.00 20.00     0.006 A 
HETATM    7  C7  UNL     1     -32.668   9.079   5.413  1.00 20.00     0.048 C 
HETATM    8  I8  UNL     1     -33.253   4.610   2.233  1.00 20.00    -0.045 I 
ENDROOT
TORSDOF 0
ENDMDL
MODEL 4
REMARK VINA RESULT:      -3.7      2.218      3.326
REMARK  0 active torsions:
REMARK  status: ('A' for Active; 'I' for Inactive)
ROOT
HETATM    1  C1  UNL     1     -33.291   8.327   5.950  1.00 20.00     0.002 A 
HETATM    2  C2  UNL     1     -33.936   7.108   6.155  1.00 20.00     0.007 A 
HETATM    3  C3  UNL     1     -32.785   8.644   4.689  1.00 20.00     0.018 A 
HETATM    4  C4  UNL     1     -33.567   6.522   3.840  1.00 20.00     0.025 A 
HETATM    5  C5  UNL     1     -34.074   6.204   5.100  1.00 20.00    -0.061 A 
HETATM    6  C6  UNL     1     -32.922   7.741   3.635  1.00 20.00     0.006 A 
HETATM    7  C7  UNL     1     -34.763   4.900   5.322  1.00 20.00     0.048 C 
HETATM    8  I8  UNL     1     -32.169   8.215   1.756  1.00 20.00    -0.045 I 
ENDROOT
TORSDOF 0
ENDMDL
MODEL 5
REMARK VINA RESULT:      -3.6      2.250      3.243
REMARK  0 active torsions:
REMARK  status: ('A' for Active; 'I' for Inactive)
ROOT
HETATM    1  C1  UNL     1     -34.634   5.457   5.610  1.00 20.00     0.002 A 
HETATM    2  C2  UNL     1     -34.337   4.702   4.476  1.00 20.00     0.007 A 
HETATM    3  C3  UNL     1     -34.102   6.739   5.753  1.00 20.00     0.018 A 
HETATM    4  C4  UNL     1     -32.976   6.509   3.627  1.00 20.00     0.025 A 
HETATM    5  C5  UNL     1     -33.507   5.227   3.485  1.00 20.00    -0.061 A 
HETATM    6  C6  UNL     1     -33.273   7.264   4.761  1.00 20.00     0.006 A 
HETATM    7  C7  UNL     1     -33.190   4.417   2.273  1.00 20.00     0.048 C 
HETATM    8  I8  UNL     1     -32.482   9.175   4.973  1.00 20.00    -0.045 I 
ENDROOT
TORSDOF 0
ENDMDL
MODEL 6
REMARK VINA RESULT:      -3.6      2.397      4.140
REMARK  0 active torsions:
REMARK  status: ('A' for Active; 'I' for Inactive)
ROOT
HETATM    1  C1  UNL     1     -34.006   4.536   4.018  1.00 20.00     0.002 A 
HETATM    2  C2  UNL     1     -34.399   5.005   5.271  1.00 20.00     0.007 A 
HETATM    3  C3  UNL     1     -33.371   5.394   3.120  1.00 20.00     0.018 A 
HETATM    4  C4  UNL     1     -33.523   7.190   4.729  1.00 20.00     0.025 A 
HETATM    5  C5  UNL     1     -34.158   6.332   5.626  1.00 20.00    -0.061 A 
HETATM    6  C6  UNL     1     -33.130   6.722   3.475  1.00 20.00     0.006 A 
HETATM    7  C7  UNL     1     -34.580   6.832   6.967  1.00 20.00     0.048 C 
HETATM    8  I8  UNL     1     -32.184   8.000   2.138  1.00 20.00    -0.045 I 
ENDROOT
TORSDOF 0
ENDMDL
MODEL 7
REMARK VINA RESULT:      -3.5      0.911      2.266
REMARK  0 active torsions:
REMARK  status: ('A' for Active; 'I' for Inactive)
ROOT
HETATM    1  C1  UNL     1     -32.647   6.237   2.529  1.00 20.00     0.002 A 
HETATM    2  C2  UNL     1     -32.256   7.564   2.704  1.00 20.00     0.007 A 
HETATM    3  C3  UNL     1     -33.374   5.587   3.526  1.00 20.00     0.018 A 
HETATM    4  C4  UNL     1     -33.318   7.591   4.874  1.00 20.00     0.025 A 
HETATM    5  C5  UNL     1     -32.591   8.241   3.877  1.00 20.00    -0.061 A 
HETATM    6  C6  UNL     1     -33.709   6.264   4.699  1.00 20.00     0.006 A 
HETATM    7  C7  UNL     1     -32.170   9.660   4.062  1.00 20.00     0.048 C 
HETATM    8  I8  UNL     1     -34.794   5.296   6.184  1.00 20.00    -0.045 I 
ENDROOT
TORSDOF 0
ENDMDL
MODEL 8
REMARK VINA RESULT:      -3.5     11.328     12.290
REMARK  0 active torsions:
REMARK  status: ('A' for Active; 'I' for Inactive)
ROOT
HETATM    1  C1  UNL     1     -35.029  18.193  -4.009  1.00 20.00     0.002 A 
HETATM    2  C2  UNL     1     -34.461  17.016  -4.493  1.00 20.00     0.007 A 
HETATM    3  C3  UNL     1     -34.787  18.596  -2.695  1.00 20.00     0.018 A 
HETATM    4  C4  UNL     1     -33.409  16.641  -2.351  1.00 20.00     0.025 A 
HETATM    5  C5  UNL     1     -33.651  16.239  -3.664  1.00 20.00    -0.061 A 
HETATM    6  C6  UNL     1     -33.978  17.819  -1.866  1.00 20.00     0.006 A 
HETATM    7  C7  UNL     1     -33.045  14.979  -4.184  1.00 20.00     0.048 C 
HETATM    8  I8  UNL     1     -33.616  18.419   0.091  1.00 20.00    -0.045 I 
ENDROOT
TORSDOF 0
ENDMDL
MODEL 9
REMARK VINA RESULT:      -3.4     11.790     12.132
REMARK  0 active torsions:
REMARK  status: ('A' for Active; 'I' for Inactive)
ROOT
HETATM    1  C1  UNL     1     -31.432  18.881   0.235  1.00 20.00     0.002 A 
HETATM    2  C2  UNL     1     -32.484  19.234   1.080  1.00 20.00     0.007 A 
HETATM    3  C3  UNL     1     -31.689  18.183  -0.944  1.00 20.00     0.018 A 
HETATM    4  C4  UNL     1     -34.050  18.188  -0.433  1.00 20.00     0.025 A 
HETATM    5  C5  UNL     1     -33.793  18.886   0.747  1.00 20.00    -0.061 A 
HETATM    6  C6  UNL     1     -32.998  17.835  -1.278  1.00 20.00     0.006 A 
HETATM    7  C7  UNL     1     -34.917  19.263   1.652  1.00 20.00     0.048 C 
HETATM    8  I8  UNL     1     -33.381  16.795  -3.036  1.00 20.00    -0.045 I 
ENDROOT
TORSDOF 0
ENDMDL
