MODEL 1
REMARK VINA RESULT:      -5.3      0.000      0.000
REMARK  4 active torsions:
REMARK  status: ('A' for Active; 'I' for Inactive)
REMARK    1  A    between atoms: C6_6  and  C7_7 
REMARK    2  A    between atoms: C7_7  and  C8_8 
REMARK    3  A    between atoms: C8_8  and  C9_9 
REMARK    4  A    between atoms: C9_9  and  O10_10 
ROOT
HETATM    1  C1  UNL     1     -34.534   5.329   6.167  1.00 20.00     0.000 C 
HETATM    2  C2  UNL     1     -34.800   5.265   4.666  1.00 20.00     0.000 C 
HETATM    3  C3  UNL     1     -34.410   6.769   6.655  1.00 20.00     0.000 C 
HETATM    4  C4  UNL     1     -33.746   6.035   3.875  1.00 20.00     0.004 C 
HETATM    5  C5  UNL     1     -33.355   7.542   5.866  1.00 20.00     0.004 C 
HETATM    6  C6  UNL     1     -33.624   7.488   4.356  1.00 20.00    -0.014 C 
ENDROOT
BRANCH   6   7
HETATM    7  C7  UNL     1     -32.528   8.221   3.586  1.00 20.00     0.007 C 
BRANCH   7   8
HETATM    8  C8  UNL     1     -32.204   7.512   2.278  1.00 20.00     0.026 C 
BRANCH   8   9
HETATM    9  C9  UNL     1     -32.198   8.483   1.105  1.00 20.00     0.164 C 
BRANCH   9  10
HETATM   10  O10 UNL     1     -32.886   9.667   1.486  1.00 20.00    -0.401 OA
HETATM   11  H28 UNL     1     -33.598   9.396   2.087  1.00 20.00     0.209 HD
ENDBRANCH   9  10
ENDBRANCH   8   9
ENDBRANCH   7   8
ENDBRANCH   6   7
TORSDOF 4
ENDMDL
MODEL 2
REMARK VINA RESULT:      -5.0      0.496      1.659
REMARK  4 active torsions:
REMARK  status: ('A' for Active; 'I' for Inactive)
REMARK    1  A    between atoms: C6_6  and  C7_7 
REMARK    2  A    between atoms: C7_7  and  C8_8 
REMARK    3  A    between atoms: C8_8  and  C9_9 
REMARK    4  A    between atoms: C9_9  and  O10_10 
ROOT
HETATM    1  C1  UNL     1     -34.973   5.464   5.711  1.00 20.00     0.000 C 
HETATM    2  C2  UNL     1     -34.221   6.577   6.436  1.00 20.00     0.000 C 
HETATM    3  C3  UNL     1     -34.165   4.911   4.541  1.00 20.00     0.000 C 
HETATM    4  C4  UNL     1     -33.795   7.685   5.477  1.00 20.00     0.004 C 
HETATM    5  C5  UNL     1     -33.738   6.017   3.579  1.00 20.00     0.004 C 
HETATM    6  C6  UNL     1     -32.974   7.134   4.302  1.00 20.00    -0.014 C 
ENDROOT
BRANCH   6   7
HETATM    7  C7  UNL     1     -32.605   8.252   3.330  1.00 20.00     0.007 C 
BRANCH   7   8
HETATM    8  C8  UNL     1     -32.145   7.691   1.991  1.00 20.00     0.026 C 
BRANCH   8   9
HETATM    9  C9  UNL     1     -32.384   8.682   0.860  1.00 20.00     0.164 C 
BRANCH   9  10
HETATM   10  O10 UNL     1     -32.916   9.881   1.406  1.00 20.00    -0.401 OA
HETATM   11  H28 UNL     1     -33.233  10.412   0.659  1.00 20.00     0.209 HD
ENDBRANCH   9  10
ENDBRANCH   8   9
ENDBRANCH   7   8
ENDBRANCH   6   7
TORSDOF 4
ENDMDL
MODEL 3
REMARK VINA RESULT:      -4.3     11.287     12.550
REMARK  4 active torsions:
REMARK  status: ('A' for Active; 'I' for Inactive)
REMARK    1  A    between atoms: C6_6  and  C7_7 
REMARK    2  A    between atoms: C7_7  and  C8_8 
REMARK    3  A    between atoms: C8_8  and  C9_9 
REMARK    4  A    between atoms: C9_9  and  O10_10 
ROOT
HETATM    1  C1  UNL     1     -33.799  19.059  -2.655  1.00 20.00     0.000 C 
HETATM    2  C2  UNL     1     -33.662  18.777  -4.148  1.00 20.00     0.000 C 
HETATM    3  C3  UNL     1     -33.047  18.029  -1.818  1.00 20.00     0.000 C 
HETATM    4  C4  UNL     1     -34.090  17.354  -4.494  1.00 20.00     0.004 C 
HETATM    5  C5  UNL     1     -33.474  16.603  -2.161  1.00 20.00     0.004 C 
HETATM    6  C6  UNL     1     -33.329  16.313  -3.660  1.00 20.00    -0.014 C 
ENDROOT
BRANCH   6   7
HETATM    7  C7  UNL     1     -33.813  14.902  -3.986  1.00 20.00     0.007 C 
BRANCH   7   8
HETATM    8  C8  UNL     1     -34.586  14.873  -5.299  1.00 20.00     0.026 C 
BRANCH   8   9
HETATM    9  C9  UNL     1     -35.909  14.135  -5.148  1.00 20.00     0.164 C 
BRANCH   9  10
HETATM   10  O10 UNL     1     -35.688  12.940  -4.412  1.00 20.00    -0.401 OA
HETATM   11  H28 UNL     1     -34.936  12.489  -4.829  1.00 20.00     0.209 HD
ENDBRANCH   9  10
ENDBRANCH   8   9
ENDBRANCH   7   8
ENDBRANCH   6   7
TORSDOF 4
ENDMDL
MODEL 4
REMARK VINA RESULT:      -4.2     11.469     11.981
REMARK  4 active torsions:
REMARK  status: ('A' for Active; 'I' for Inactive)
REMARK    1  A    between atoms: C6_6  and  C7_7 
REMARK    2  A    between atoms: C7_7  and  C8_8 
REMARK    3  A    between atoms: C8_8  and  C9_9 
REMARK    4  A    between atoms: C9_9  and  O10_10 
ROOT
HETATM    1  C1  UNL     1     -32.664  19.251   0.732  1.00 20.00     0.000 C 
HETATM    2  C2  UNL     1     -31.566  18.500  -0.016  1.00 20.00     0.000 C 
HETATM    3  C3  UNL     1     -33.988  18.495   0.693  1.00 20.00     0.000 C 
HETATM    4  C4  UNL     1     -31.983  18.174  -1.448  1.00 20.00     0.004 C 
HETATM    5  C5  UNL     1     -34.409  18.168  -0.739  1.00 20.00     0.004 C 
HETATM    6  C6  UNL     1     -33.312  17.405  -1.492  1.00 20.00    -0.014 C 
ENDROOT
BRANCH   6   7
HETATM    7  C7  UNL     1     -33.733  17.138  -2.935  1.00 20.00     0.007 C 
BRANCH   7   8
HETATM    8  C8  UNL     1     -33.004  15.930  -3.509  1.00 20.00     0.026 C 
BRANCH   8   9
HETATM    9  C9  UNL     1     -33.961  15.000  -4.243  1.00 20.00     0.164 C 
BRANCH   9  10
HETATM   10  O10 UNL     1     -33.235  13.870  -4.708  1.00 20.00    -0.401 OA
HETATM   11  H28 UNL     1     -33.888  13.237  -5.045  1.00 20.00     0.209 HD
ENDBRANCH   9  10
ENDBRANCH   8   9
ENDBRANCH   7   8
ENDBRANCH   6   7
TORSDOF 4
ENDMDL
MODEL 5
REMARK VINA RESULT:      -4.1     11.550     12.111
REMARK  4 active torsions:
REMARK  status: ('A' for Active; 'I' for Inactive)
REMARK    1  A    between atoms: C6_6  and  C7_7 
REMARK    2  A    between atoms: C7_7  and  C8_8 
REMARK    3  A    between atoms: C8_8  and  C9_9 
REMARK    4  A    between atoms: C9_9  and  O10_10 
ROOT
HETATM    1  C1  UNL     1     -31.809  18.655   1.386  1.00 20.00     0.000 C 
HETATM    2  C2  UNL     1     -33.303  18.963   1.359  1.00 20.00     0.000 C 
HETATM    3  C3  UNL     1     -31.156  18.921   0.033  1.00 20.00     0.000 C 
HETATM    4  C4  UNL     1     -34.013  18.210   0.236  1.00 20.00     0.004 C 
HETATM    5  C5  UNL     1     -31.863  18.168  -1.092  1.00 20.00     0.004 C 
HETATM    6  C6  UNL     1     -33.364  18.482  -1.128  1.00 20.00    -0.014 C 
ENDROOT
BRANCH   6   7
HETATM    7  C7  UNL     1     -34.057  17.676  -2.225  1.00 20.00     0.007 C 
BRANCH   7   8
HETATM    8  C8  UNL     1     -33.244  16.444  -2.603  1.00 20.00     0.026 C 
BRANCH   8   9
HETATM    9  C9  UNL     1     -33.572  15.972  -4.013  1.00 20.00     0.164 C 
BRANCH   9  10
HETATM   10  O10 UNL     1     -32.517  15.138  -4.475  1.00 20.00    -0.401 OA
HETATM   11  H28 UNL     1     -32.625  14.281  -4.034  1.00 20.00     0.209 HD
ENDBRANCH   9  10
ENDBRANCH   8   9
ENDBRANCH   7   8
ENDBRANCH   6   7
TORSDOF 4
ENDMDL
MODEL 6
REMARK VINA RESULT:      -4.0     11.535     12.733
REMARK  4 active torsions:
REMARK  status: ('A' for Active; 'I' for Inactive)
REMARK    1  A    between atoms: C6_6  and  C7_7 
REMARK    2  A    between atoms: C7_7  and  C8_8 
REMARK    3  A    between atoms: C8_8  and  C9_9 
REMARK    4  A    between atoms: C9_9  and  O10_10 
ROOT
HETATM    1  C1  UNL     1     -33.196  18.312  -2.835  1.00 20.00     0.000 C 
HETATM    2  C2  UNL     1     -33.338  16.885  -2.314  1.00 20.00     0.000 C 
HETATM    3  C3  UNL     1     -34.225  18.618  -3.920  1.00 20.00     0.000 C 
HETATM    4  C4  UNL     1     -33.279  15.863  -3.447  1.00 20.00     0.004 C 
HETATM    5  C5  UNL     1     -34.167  17.598  -5.055  1.00 20.00     0.004 C 
HETATM    6  C6  UNL     1     -34.319  16.163  -4.536  1.00 20.00    -0.014 C 
ENDROOT
BRANCH   6   7
HETATM    7  C7  UNL     1     -34.203  15.160  -5.682  1.00 20.00     0.007 C 
BRANCH   7   8
HETATM    8  C8  UNL     1     -35.572  14.627  -6.089  1.00 20.00     0.026 C 
BRANCH   8   9
HETATM    9  C9  UNL     1     -36.316  14.040  -4.897  1.00 20.00     0.164 C 
BRANCH   9  10
HETATM   10  O10 UNL     1     -35.616  12.891  -4.439  1.00 20.00    -0.401 OA
HETATM   11  H28 UNL     1     -35.466  13.015  -3.489  1.00 20.00     0.209 HD
ENDBRANCH   9  10
ENDBRANCH   8   9
ENDBRANCH   7   8
ENDBRANCH   6   7
TORSDOF 4
ENDMDL
MODEL 7
REMARK VINA RESULT:      -4.0      2.239      4.617
REMARK  4 active torsions:
REMARK  status: ('A' for Active; 'I' for Inactive)
REMARK    1  A    between atoms: C6_6  and  C7_7 
REMARK    2  A    between atoms: C7_7  and  C8_8 
REMARK    3  A    between atoms: C8_8  and  C9_9 
REMARK    4  A    between atoms: C9_9  and  O10_10 
ROOT
HETATM    1  C1  UNL     1     -32.030   7.950   1.886  1.00 20.00     0.000 C 
HETATM    2  C2  UNL     1     -32.557   9.130   2.697  1.00 20.00     0.000 C 
HETATM    3  C3  UNL     1     -32.800   6.669   2.195  1.00 20.00     0.000 C 
HETATM    4  C4  UNL     1     -32.565   8.827   4.193  1.00 20.00     0.004 C 
HETATM    5  C5  UNL     1     -32.809   6.362   3.691  1.00 20.00     0.004 C 
HETATM    6  C6  UNL     1     -33.346   7.544   4.509  1.00 20.00    -0.014 C 
ENDROOT
BRANCH   6   7
HETATM    7  C7  UNL     1     -33.293   7.234   6.003  1.00 20.00     0.007 C 
BRANCH   7   8
HETATM    8  C8  UNL     1     -34.589   6.587   6.479  1.00 20.00     0.026 C 
BRANCH   8   9
HETATM    9  C9  UNL     1     -34.567   5.079   6.271  1.00 20.00     0.164 C 
BRANCH   9  10
HETATM   10  O10 UNL     1     -35.405   4.755   5.170  1.00 20.00    -0.401 OA
HETATM   11  H28 UNL     1     -35.695   5.596   4.782  1.00 20.00     0.209 HD
ENDBRANCH   9  10
ENDBRANCH   8   9
ENDBRANCH   7   8
ENDBRANCH   6   7
TORSDOF 4
ENDMDL
MODEL 8
REMARK VINA RESULT:      -3.9     15.294     16.751
REMARK  4 active torsions:
REMARK  status: ('A' for Active; 'I' for Inactive)
REMARK    1  A    between atoms: C6_6  and  C7_7 
REMARK    2  A    between atoms: C7_7  and  C8_8 
REMARK    3  A    between atoms: C8_8  and  C9_9 
REMARK    4  A    between atoms: C9_9  and  O10_10 
ROOT
HETATM    1  C1  UNL     1     -22.295  18.549   7.844  1.00 20.00     0.000 C 
HETATM    2  C2  UNL     1     -21.301  18.961   8.925  1.00 20.00     0.000 C 
HETATM    3  C3  UNL     1     -23.711  19.010   8.177  1.00 20.00     0.000 C 
HETATM    4  C4  UNL     1     -21.737  18.477  10.305  1.00 20.00     0.004 C 
HETATM    5  C5  UNL     1     -24.151  18.525   9.557  1.00 20.00     0.004 C 
HETATM    6  C6  UNL     1     -23.158  18.946  10.649  1.00 20.00    -0.014 C 
ENDROOT
BRANCH   6   7
HETATM    7  C7  UNL     1     -23.591  18.404  12.010  1.00 20.00     0.007 C 
BRANCH   7   8
HETATM    8  C8  UNL     1     -24.976  17.773  11.937  1.00 20.00     0.026 C 
BRANCH   8   9
HETATM    9  C9  UNL     1     -24.912  16.266  12.150  1.00 20.00     0.164 C 
BRANCH   9  10
HETATM   10  O10 UNL     1     -23.555  15.886  12.332  1.00 20.00    -0.401 OA
HETATM   11  H28 UNL     1     -23.091  16.661  12.686  1.00 20.00     0.209 HD
ENDBRANCH   9  10
ENDBRANCH   8   9
ENDBRANCH   7   8
ENDBRANCH   6   7
TORSDOF 4
ENDMDL
MODEL 9
REMARK VINA RESULT:      -3.8     11.534     12.705
REMARK  4 active torsions:
REMARK  status: ('A' for Active; 'I' for Inactive)
REMARK    1  A    between atoms: C6_6  and  C7_7 
REMARK    2  A    between atoms: C7_7  and  C8_8 
REMARK    3  A    between atoms: C8_8  and  C9_9 
REMARK    4  A    between atoms: C9_9  and  O10_10 
ROOT
HETATM    1  C1  UNL     1     -34.807  14.914  -4.923  1.00 20.00     0.000 C 
HETATM    2  C2  UNL     1     -33.472  14.792  -4.194  1.00 20.00     0.000 C 
HETATM    3  C3  UNL     1     -34.969  16.285  -5.572  1.00 20.00     0.000 C 
HETATM    4  C4  UNL     1     -33.278  15.917  -3.182  1.00 20.00     0.004 C 
HETATM    5  C5  UNL     1     -34.777  17.413  -4.561  1.00 20.00     0.004 C 
HETATM    6  C6  UNL     1     -33.432  17.299  -3.832  1.00 20.00    -0.014 C 
ENDROOT
BRANCH   6   7
HETATM    7  C7  UNL     1     -33.287  18.406  -2.790  1.00 20.00     0.007 C 
BRANCH   7   8
HETATM    8  C8  UNL     1     -32.694  17.868  -1.493  1.00 20.00     0.026 C 
BRANCH   8   9
HETATM    9  C9  UNL     1     -31.989  18.965  -0.707  1.00 20.00     0.164 C 
BRANCH   9  10
HETATM   10  O10 UNL     1     -30.632  18.591  -0.512  1.00 20.00    -0.401 OA
HETATM   11  H28 UNL     1     -30.540  17.686  -0.848  1.00 20.00     0.209 HD
ENDBRANCH   9  10
ENDBRANCH   8   9
ENDBRANCH   7   8
ENDBRANCH   6   7
TORSDOF 4
ENDMDL
