MODEL 1
REMARK VINA RESULT:      -5.5      0.000      0.000
REMARK  1 active torsions:
REMARK  status: ('A' for Active; 'I' for Inactive)
REMARK    1  A    between atoms: C6_6  and  N8_8 
ROOT
HETATM    1  N7  UNL     1     -32.126   7.815   1.676  1.00 20.00     0.068 N 
HETATM    2  N8  UNL     1     -32.535   8.242   3.993  1.00 20.00    -0.073 NA
HETATM    3  N9  UNL     1     -32.324   8.015   2.782  1.00 20.00    -0.162 NA
ENDROOT
BRANCH   2   4
HETATM    4  C6  UNL     1     -33.300   7.244   4.606  1.00 20.00     0.093 A 
HETATM    5  C4  UNL     1     -33.694   7.386   5.936  1.00 20.00     0.034 A 
HETATM    6  C2  UNL     1     -34.457   6.392   6.548  1.00 20.00     0.002 A 
HETATM    7  C1  UNL     1     -34.827   5.255   5.828  1.00 20.00     0.000 A 
HETATM    8  C3  UNL     1     -34.432   5.112   4.498  1.00 20.00     0.002 A 
HETATM    9  C5  UNL     1     -33.669   6.107   3.887  1.00 20.00     0.034 A 
ENDBRANCH   2   4
TORSDOF 1
ENDMDL
MODEL 2
REMARK VINA RESULT:      -5.4      0.022      1.611
REMARK  1 active torsions:
REMARK  status: ('A' for Active; 'I' for Inactive)
REMARK    1  A    between atoms: C6_6  and  N8_8 
ROOT
HETATM    1  N7  UNL     1     -32.122   7.781   1.665  1.00 20.00     0.068 N 
HETATM    2  N8  UNL     1     -32.522   8.227   3.980  1.00 20.00    -0.073 NA
HETATM    3  N9  UNL     1     -32.315   7.991   2.770  1.00 20.00    -0.162 NA
ENDROOT
BRANCH   2   4
HETATM    4  C6  UNL     1     -33.294   7.240   4.601  1.00 20.00     0.093 A 
HETATM    5  C4  UNL     1     -33.680   6.104   3.889  1.00 20.00     0.034 A 
HETATM    6  C2  UNL     1     -34.450   5.120   4.509  1.00 20.00     0.002 A 
HETATM    7  C1  UNL     1     -34.834   5.272   5.841  1.00 20.00     0.000 A 
HETATM    8  C3  UNL     1     -34.449   6.407   6.554  1.00 20.00     0.002 A 
HETATM    9  C5  UNL     1     -33.678   7.392   5.934  1.00 20.00     0.034 A 
ENDBRANCH   2   4
TORSDOF 1
ENDMDL
MODEL 3
REMARK VINA RESULT:      -4.4      2.746      3.811
REMARK  1 active torsions:
REMARK  status: ('A' for Active; 'I' for Inactive)
REMARK    1  A    between atoms: C6_6  and  N8_8 
ROOT
HETATM    1  N7  UNL     1     -34.824   5.068   6.807  1.00 20.00     0.068 N 
HETATM    2  N8  UNL     1     -34.427   5.095   4.449  1.00 20.00    -0.073 NA
HETATM    3  N9  UNL     1     -34.633   5.084   5.682  1.00 20.00    -0.162 NA
ENDROOT
BRANCH   2   4
HETATM    4  C6  UNL     1     -33.669   6.194   4.034  1.00 20.00     0.093 A 
HETATM    5  C4  UNL     1     -33.686   7.374   4.778  1.00 20.00     0.034 A 
HETATM    6  C2  UNL     1     -32.929   8.470   4.365  1.00 20.00     0.002 A 
HETATM    7  C1  UNL     1     -32.154   8.386   3.208  1.00 20.00     0.000 A 
HETATM    8  C3  UNL     1     -32.137   7.207   2.463  1.00 20.00     0.002 A 
HETATM    9  C5  UNL     1     -32.894   6.110   2.877  1.00 20.00     0.034 A 
ENDBRANCH   2   4
TORSDOF 1
ENDMDL
MODEL 4
REMARK VINA RESULT:      -4.4      2.745      4.123
REMARK  1 active torsions:
REMARK  status: ('A' for Active; 'I' for Inactive)
REMARK    1  A    between atoms: C6_6  and  N8_8 
ROOT
HETATM    1  N7  UNL     1     -34.801   5.068   6.813  1.00 20.00     0.068 N 
HETATM    2  N8  UNL     1     -34.434   5.097   4.451  1.00 20.00    -0.073 NA
HETATM    3  N9  UNL     1     -34.624   5.085   5.686  1.00 20.00    -0.162 NA
ENDROOT
BRANCH   2   4
HETATM    4  C6  UNL     1     -33.665   6.187   4.030  1.00 20.00     0.093 A 
HETATM    5  C4  UNL     1     -32.884   6.087   2.878  1.00 20.00     0.034 A 
HETATM    6  C2  UNL     1     -32.118   7.174   2.458  1.00 20.00     0.002 A 
HETATM    7  C1  UNL     1     -32.133   8.361   3.190  1.00 20.00     0.000 A 
HETATM    8  C3  UNL     1     -32.914   8.462   4.341  1.00 20.00     0.002 A 
HETATM    9  C5  UNL     1     -33.680   7.374   4.761  1.00 20.00     0.034 A 
ENDBRANCH   2   4
TORSDOF 1
ENDMDL
MODEL 5
REMARK VINA RESULT:      -4.0     12.296     12.654
REMARK  1 active torsions:
REMARK  status: ('A' for Active; 'I' for Inactive)
REMARK    1  A    between atoms: C6_6  and  N8_8 
ROOT
HETATM    1  N7  UNL     1     -29.914  18.577   2.989  1.00 20.00     0.068 N 
HETATM    2  N8  UNL     1     -30.339  19.233   0.729  1.00 20.00    -0.073 NA
HETATM    3  N9  UNL     1     -30.120  18.888   1.911  1.00 20.00    -0.162 NA
ENDROOT
BRANCH   2   4
HETATM    4  C6  UNL     1     -31.546  18.730   0.232  1.00 20.00     0.093 A 
HETATM    5  C4  UNL     1     -32.696  18.769   1.020  1.00 20.00     0.034 A 
HETATM    6  C2  UNL     1     -33.899  18.268   0.524  1.00 20.00     0.002 A 
HETATM    7  C1  UNL     1     -33.953  17.729  -0.762  1.00 20.00     0.000 A 
HETATM    8  C3  UNL     1     -32.803  17.690  -1.551  1.00 20.00     0.002 A 
HETATM    9  C5  UNL     1     -31.599  18.191  -1.054  1.00 20.00     0.034 A 
ENDBRANCH   2   4
TORSDOF 1
ENDMDL
MODEL 6
REMARK VINA RESULT:      -4.0     10.194     10.718
REMARK  1 active torsions:
REMARK  status: ('A' for Active; 'I' for Inactive)
REMARK    1  A    between atoms: C6_6  and  N8_8 
ROOT
HETATM    1  N7  UNL     1     -42.443   3.614  -3.200  1.00 20.00     0.068 N 
HETATM    2  N8  UNL     1     -43.399   4.596  -1.241  1.00 20.00    -0.073 NA
HETATM    3  N9  UNL     1     -42.896   4.085  -2.265  1.00 20.00    -0.162 NA
ENDROOT
BRANCH   2   4
HETATM    4  C6  UNL     1     -42.646   5.662  -0.740  1.00 20.00     0.093 A 
HETATM    5  C4  UNL     1     -43.279   6.842  -0.349  1.00 20.00     0.034 A 
HETATM    6  C2  UNL     1     -42.528   7.904   0.151  1.00 20.00     0.002 A 
HETATM    7  C1  UNL     1     -41.142   7.788   0.260  1.00 20.00     0.000 A 
HETATM    8  C3  UNL     1     -40.508   6.609  -0.131  1.00 20.00     0.002 A 
HETATM    9  C5  UNL     1     -41.260   5.546  -0.631  1.00 20.00     0.034 A 
ENDBRANCH   2   4
TORSDOF 1
ENDMDL
MODEL 7
REMARK VINA RESULT:      -3.9     15.581     16.231
REMARK  1 active torsions:
REMARK  status: ('A' for Active; 'I' for Inactive)
REMARK    1  A    between atoms: C6_6  and  N8_8 
ROOT
HETATM    1  N7  UNL     1     -26.158  19.263   6.837  1.00 20.00     0.068 N 
HETATM    2  N8  UNL     1     -23.813  19.255   7.304  1.00 20.00    -0.073 NA
HETATM    3  N9  UNL     1     -25.040  19.258   7.064  1.00 20.00    -0.162 NA
ENDROOT
BRANCH   2   4
HETATM    4  C6  UNL     1     -23.521  18.937   8.635  1.00 20.00     0.093 A 
HETATM    5  C4  UNL     1     -24.533  18.957   9.595  1.00 20.00     0.034 A 
HETATM    6  C2  UNL     1     -24.242  18.639  10.921  1.00 20.00     0.002 A 
HETATM    7  C1  UNL     1     -22.939  18.300  11.288  1.00 20.00     0.000 A 
HETATM    8  C3  UNL     1     -21.927  18.280  10.328  1.00 20.00     0.002 A 
HETATM    9  C5  UNL     1     -22.218  18.598   9.001  1.00 20.00     0.034 A 
ENDBRANCH   2   4
TORSDOF 1
ENDMDL
MODEL 8
REMARK VINA RESULT:      -3.9     12.381     13.398
REMARK  1 active torsions:
REMARK  status: ('A' for Active; 'I' for Inactive)
REMARK    1  A    between atoms: C6_6  and  N8_8 
ROOT
HETATM    1  N7  UNL     1     -33.672  15.465  -7.918  1.00 20.00     0.068 N 
HETATM    2  N8  UNL     1     -34.469  14.773  -5.772  1.00 20.00    -0.073 NA
HETATM    3  N9  UNL     1     -34.051  15.138  -6.893  1.00 20.00    -0.162 NA
ENDROOT
BRANCH   2   4
HETATM    4  C6  UNL     1     -34.313  15.755  -4.788  1.00 20.00     0.093 A 
HETATM    5  C4  UNL     1     -33.480  15.521  -3.694  1.00 20.00     0.034 A 
HETATM    6  C2  UNL     1     -33.324  16.500  -2.714  1.00 20.00     0.002 A 
HETATM    7  C1  UNL     1     -34.002  17.714  -2.827  1.00 20.00     0.000 A 
HETATM    8  C3  UNL     1     -34.835  17.949  -3.921  1.00 20.00     0.002 A 
HETATM    9  C5  UNL     1     -34.991  16.969  -4.902  1.00 20.00     0.034 A 
ENDBRANCH   2   4
TORSDOF 1
ENDMDL
MODEL 9
REMARK VINA RESULT:      -3.8      2.102      2.658
REMARK  1 active torsions:
REMARK  status: ('A' for Active; 'I' for Inactive)
REMARK    1  A    between atoms: C6_6  and  N8_8 
ROOT
HETATM    1  N7  UNL     1     -32.671   4.793   2.088  1.00 20.00     0.068 N 
HETATM    2  N8  UNL     1     -34.214   4.806   3.914  1.00 20.00    -0.073 NA
HETATM    3  N9  UNL     1     -33.406   4.803   2.961  1.00 20.00    -0.162 NA
ENDROOT
BRANCH   2   4
HETATM    4  C6  UNL     1     -34.075   5.926   4.740  1.00 20.00     0.093 A 
HETATM    5  C4  UNL     1     -34.502   5.873   6.067  1.00 20.00     0.034 A 
HETATM    6  C2  UNL     1     -34.362   6.989   6.891  1.00 20.00     0.002 A 
HETATM    7  C1  UNL     1     -33.794   8.160   6.388  1.00 20.00     0.000 A 
HETATM    8  C3  UNL     1     -33.367   8.214   5.061  1.00 20.00     0.002 A 
HETATM    9  C5  UNL     1     -33.507   7.097   4.237  1.00 20.00     0.034 A 
ENDBRANCH   2   4
TORSDOF 1
ENDMDL
