MODEL 1
REMARK VINA RESULT:      -2.7      0.000      0.000
REMARK  0 active torsions:
REMARK  status: ('A' for Active; 'I' for Inactive)
ROOT
HETATM    1  C1  UNL     1     -34.656   5.553   5.891  1.00 20.00     0.016 C 
HETATM    2  C2  UNL     1     -34.152   6.890   6.405  1.00 20.00     0.075 C 
HETATM    3  I3  UNL     1     -33.181   7.984   4.854  1.00 20.00    -0.090 I 
ENDROOT
TORSDOF 0
ENDMDL
MODEL 2
REMARK VINA RESULT:      -2.6      0.819      1.004
REMARK  0 active torsions:
REMARK  status: ('A' for Active; 'I' for Inactive)
ROOT
HETATM    1  C1  UNL     1     -34.592   5.617   6.305  1.00 20.00     0.016 C 
HETATM    2  C2  UNL     1     -34.532   6.217   4.910  1.00 20.00     0.075 C 
HETATM    3  I3  UNL     1     -33.239   7.912   4.867  1.00 20.00    -0.090 I 
ENDROOT
TORSDOF 0
ENDMDL
MODEL 3
REMARK VINA RESULT:      -2.6      2.053      2.446
REMARK  0 active torsions:
REMARK  status: ('A' for Active; 'I' for Inactive)
ROOT
HETATM    1  C1  UNL     1     -33.178   8.114   5.177  1.00 20.00     0.016 C 
HETATM    2  C2  UNL     1     -33.863   7.110   6.090  1.00 20.00     0.075 C 
HETATM    3  I3  UNL     1     -34.751   5.538   4.956  1.00 20.00    -0.090 I 
ENDROOT
TORSDOF 0
ENDMDL
MODEL 4
REMARK VINA RESULT:      -2.4      0.871      1.035
REMARK  0 active torsions:
REMARK  status: ('A' for Active; 'I' for Inactive)
ROOT
HETATM    1  C1  UNL     1     -34.598   4.994   4.702  1.00 20.00     0.016 C 
HETATM    2  C2  UNL     1     -34.670   6.151   5.684  1.00 20.00     0.075 C 
HETATM    3  I3  UNL     1     -33.420   7.760   5.055  1.00 20.00    -0.090 I 
ENDROOT
TORSDOF 0
ENDMDL
MODEL 5
REMARK VINA RESULT:      -2.2      0.934      1.086
REMARK  0 active torsions:
REMARK  status: ('A' for Active; 'I' for Inactive)
ROOT
HETATM    1  C1  UNL     1     -34.225   6.496   6.148  1.00 20.00     0.016 C 
HETATM    2  C2  UNL     1     -33.932   7.945   5.796  1.00 20.00     0.075 C 
HETATM    3  I3  UNL     1     -32.594   8.070   4.141  1.00 20.00    -0.090 I 
ENDROOT
TORSDOF 0
ENDMDL
MODEL 6
REMARK VINA RESULT:      -2.2      2.630      2.949
REMARK  0 active torsions:
REMARK  status: ('A' for Active; 'I' for Inactive)
ROOT
HETATM    1  C1  UNL     1     -33.290   5.448   3.186  1.00 20.00     0.016 C 
HETATM    2  C2  UNL     1     -34.101   4.683   4.218  1.00 20.00     0.075 C 
HETATM    3  I3  UNL     1     -34.481   5.891   5.933  1.00 20.00    -0.090 I 
ENDROOT
TORSDOF 0
ENDMDL
MODEL 7
REMARK VINA RESULT:      -2.2      2.983      2.983
REMARK  0 active torsions:
REMARK  status: ('A' for Active; 'I' for Inactive)
ROOT
HETATM    1  C1  UNL     1     -32.889   5.753   2.799  1.00 20.00     0.016 C 
HETATM    2  C2  UNL     1     -32.357   7.135   3.139  1.00 20.00     0.075 C 
HETATM    3  I3  UNL     1     -33.281   7.890   4.906  1.00 20.00    -0.090 I 
ENDROOT
TORSDOF 0
ENDMDL
MODEL 8
REMARK VINA RESULT:      -2.0      8.240      8.246
REMARK  0 active torsions:
REMARK  status: ('A' for Active; 'I' for Inactive)
ROOT
HETATM    1  C1  UNL     1     -39.147  11.717   4.347  1.00 20.00     0.016 C 
HETATM    2  C2  UNL     1     -39.557  11.706   5.810  1.00 20.00     0.075 C 
HETATM    3  I3  UNL     1     -41.040  13.190   6.193  1.00 20.00    -0.090 I 
ENDROOT
TORSDOF 0
ENDMDL
MODEL 9
REMARK VINA RESULT:      -1.9     17.380     17.401
REMARK  0 active torsions:
REMARK  status: ('A' for Active; 'I' for Inactive)
ROOT
HETATM    1  C1  UNL     1     -21.293   9.430  -5.728  1.00 20.00     0.016 C 
HETATM    2  C2  UNL     1     -22.194  10.561  -6.194  1.00 20.00     0.075 C 
HETATM    3  I3  UNL     1     -23.309   9.982  -7.916  1.00 20.00    -0.090 I 
ENDROOT
TORSDOF 0
ENDMDL
