MODEL 1
REMARK VINA RESULT:      -5.5      0.000      0.000
REMARK  1 active torsions:
REMARK  status: ('A' for Active; 'I' for Inactive)
REMARK    1  A    between atoms: C4_4  and  C7_7 
ROOT
HETATM    1  C1  UNL     1     -34.754   5.871   5.837  1.00 20.00     0.006 A 
HETATM    2  C2  UNL     1     -34.499   5.187   4.648  1.00 20.00     0.043 A 
HETATM    3  C3  UNL     1     -34.122   7.088   6.092  1.00 20.00     0.043 A 
HETATM    4  C4  UNL     1     -32.978   6.939   3.969  1.00 20.00     0.029 A 
HETATM    5  C5  UNL     1     -33.611   5.722   3.714  1.00 20.00     0.126 A 
HETATM    6  C6  UNL     1     -33.234   7.622   5.157  1.00 20.00     0.126 A 
HETATM    7  F8  UNL     1     -33.371   5.057   2.574  1.00 20.00    -0.205 F 
HETATM    8  F9  UNL     1     -32.632   8.792   5.411  1.00 20.00    -0.205 F 
ENDROOT
BRANCH   4   9
HETATM    9  C7  UNL     1     -32.030   7.510   2.969  1.00 20.00     0.130 C 
HETATM   10 BR10 UNL     1     -32.860   9.026   2.076  1.00 20.00    -0.091 Br
ENDBRANCH   4   9
TORSDOF 1
ENDMDL
MODEL 2
REMARK VINA RESULT:      -5.5      0.004      2.616
REMARK  1 active torsions:
REMARK  status: ('A' for Active; 'I' for Inactive)
REMARK    1  A    between atoms: C4_4  and  C7_7 
ROOT
HETATM    1  C1  UNL     1     -34.754   5.870   5.841  1.00 20.00     0.006 A 
HETATM    2  C2  UNL     1     -34.122   7.088   6.096  1.00 20.00     0.043 A 
HETATM    3  C3  UNL     1     -34.499   5.188   4.651  1.00 20.00     0.043 A 
HETATM    4  C4  UNL     1     -32.980   6.940   3.972  1.00 20.00     0.029 A 
HETATM    5  C5  UNL     1     -33.235   7.622   5.162  1.00 20.00     0.126 A 
HETATM    6  C6  UNL     1     -33.611   5.723   3.717  1.00 20.00     0.126 A 
HETATM    7  F8  UNL     1     -32.633   8.792   5.416  1.00 20.00    -0.205 F 
HETATM    8  F9  UNL     1     -33.373   5.059   2.577  1.00 20.00    -0.205 F 
ENDROOT
BRANCH   4   9
HETATM    9  C7  UNL     1     -32.030   7.511   2.974  1.00 20.00     0.130 C 
HETATM   10 BR10 UNL     1     -32.859   9.027   2.080  1.00 20.00    -0.091 Br
ENDBRANCH   4   9
TORSDOF 1
ENDMDL
MODEL 3
REMARK VINA RESULT:      -5.2      2.189      3.157
REMARK  1 active torsions:
REMARK  status: ('A' for Active; 'I' for Inactive)
REMARK    1  A    between atoms: C4_4  and  C7_7 
ROOT
HETATM    1  C1  UNL     1     -31.697   8.303   3.555  1.00 20.00     0.006 A 
HETATM    2  C2  UNL     1     -31.994   7.143   2.840  1.00 20.00     0.043 A 
HETATM    3  C3  UNL     1     -32.471   8.660   4.660  1.00 20.00     0.043 A 
HETATM    4  C4  UNL     1     -33.839   6.694   4.335  1.00 20.00     0.029 A 
HETATM    5  C5  UNL     1     -33.065   6.338   3.231  1.00 20.00     0.126 A 
HETATM    6  C6  UNL     1     -33.542   7.854   5.050  1.00 20.00     0.126 A 
HETATM    7  F8  UNL     1     -33.343   5.225   2.537  1.00 20.00    -0.205 F 
HETATM    8  F9  UNL     1     -34.279   8.205   6.113  1.00 20.00    -0.205 F 
ENDROOT
BRANCH   4   9
HETATM    9  C7  UNL     1     -34.983   5.834   4.753  1.00 20.00     0.130 C 
HETATM   10 BR10 UNL     1     -34.640   5.110   6.525  1.00 20.00    -0.091 Br
ENDBRANCH   4   9
TORSDOF 1
ENDMDL
MODEL 4
REMARK VINA RESULT:      -5.1      2.189      4.024
REMARK  1 active torsions:
REMARK  status: ('A' for Active; 'I' for Inactive)
REMARK    1  A    between atoms: C4_4  and  C7_7 
ROOT
HETATM    1  C1  UNL     1     -31.714   8.366   3.600  1.00 20.00     0.006 A 
HETATM    2  C2  UNL     1     -32.489   8.691   4.713  1.00 20.00     0.043 A 
HETATM    3  C3  UNL     1     -31.998   7.214   2.865  1.00 20.00     0.043 A 
HETATM    4  C4  UNL     1     -33.832   6.714   4.357  1.00 20.00     0.029 A 
HETATM    5  C5  UNL     1     -33.548   7.865   5.091  1.00 20.00     0.126 A 
HETATM    6  C6  UNL     1     -33.057   6.389   3.244  1.00 20.00     0.126 A 
HETATM    7  F8  UNL     1     -34.287   8.186   6.163  1.00 20.00    -0.205 F 
HETATM    8  F9  UNL     1     -33.321   5.285   2.531  1.00 20.00    -0.205 F 
ENDROOT
BRANCH   4   9
HETATM    9  C7  UNL     1     -34.964   5.831   4.760  1.00 20.00     0.130 C 
HETATM   10 BR10 UNL     1     -34.618   5.094   6.526  1.00 20.00    -0.091 Br
ENDBRANCH   4   9
TORSDOF 1
ENDMDL
MODEL 5
REMARK VINA RESULT:      -4.4      1.764      2.241
REMARK  1 active torsions:
REMARK  status: ('A' for Active; 'I' for Inactive)
REMARK    1  A    between atoms: C4_4  and  C7_7 
ROOT
HETATM    1  C1  UNL     1     -34.062   4.312   4.539  1.00 20.00     0.006 A 
HETATM    2  C2  UNL     1     -33.494   5.076   3.519  1.00 20.00     0.043 A 
HETATM    3  C3  UNL     1     -34.514   4.931   5.705  1.00 20.00     0.043 A 
HETATM    4  C4  UNL     1     -33.831   7.077   4.831  1.00 20.00     0.029 A 
HETATM    5  C5  UNL     1     -33.379   6.459   3.665  1.00 20.00     0.126 A 
HETATM    6  C6  UNL     1     -34.399   6.314   5.850  1.00 20.00     0.126 A 
HETATM    7  F8  UNL     1     -32.832   7.184   2.680  1.00 20.00    -0.205 F 
HETATM    8  F9  UNL     1     -34.837   6.899   6.974  1.00 20.00    -0.205 F 
ENDROOT
BRANCH   4   9
HETATM    9  C7  UNL     1     -33.710   8.556   4.986  1.00 20.00     0.130 C 
HETATM   10 BR10 UNL     1     -31.834   9.066   4.905  1.00 20.00    -0.091 Br
ENDBRANCH   4   9
TORSDOF 1
ENDMDL
MODEL 6
REMARK VINA RESULT:      -4.3      2.239      3.111
REMARK  1 active torsions:
REMARK  status: ('A' for Active; 'I' for Inactive)
REMARK    1  A    between atoms: C4_4  and  C7_7 
ROOT
HETATM    1  C1  UNL     1     -32.166   8.834   4.482  1.00 20.00     0.006 A 
HETATM    2  C2  UNL     1     -32.174   7.938   3.413  1.00 20.00     0.043 A 
HETATM    3  C3  UNL     1     -32.985   8.607   5.588  1.00 20.00     0.043 A 
HETATM    4  C4  UNL     1     -33.822   6.590   4.555  1.00 20.00     0.029 A 
HETATM    5  C5  UNL     1     -33.002   6.816   3.449  1.00 20.00     0.126 A 
HETATM    6  C6  UNL     1     -33.813   7.484   5.625  1.00 20.00     0.126 A 
HETATM    7  F8  UNL     1     -33.004   5.962   2.417  1.00 20.00    -0.205 F 
HETATM    8  F9  UNL     1     -34.597   7.276   6.692  1.00 20.00    -0.205 F 
ENDROOT
BRANCH   4   9
HETATM    9  C7  UNL     1     -34.706   5.390   4.595  1.00 20.00     0.130 C 
HETATM   10 BR10 UNL     1     -33.617   3.779   4.638  1.00 20.00    -0.091 Br
ENDBRANCH   4   9
TORSDOF 1
ENDMDL
MODEL 7
REMARK VINA RESULT:      -3.7     12.067     13.174
REMARK  1 active torsions:
REMARK  status: ('A' for Active; 'I' for Inactive)
REMARK    1  A    between atoms: C4_4  and  C7_7 
ROOT
HETATM    1  C1  UNL     1     -34.044  17.909  -1.896  1.00 20.00     0.006 A 
HETATM    2  C2  UNL     1     -33.276  16.801  -2.254  1.00 20.00     0.043 A 
HETATM    3  C3  UNL     1     -34.961  18.444  -2.801  1.00 20.00     0.043 A 
HETATM    4  C4  UNL     1     -34.341  16.763  -4.422  1.00 20.00     0.029 A 
HETATM    5  C5  UNL     1     -33.425  16.228  -3.517  1.00 20.00     0.126 A 
HETATM    6  C6  UNL     1     -35.110  17.870  -4.065  1.00 20.00     0.126 A 
HETATM    7  F8  UNL     1     -32.682  15.164  -3.852  1.00 20.00    -0.205 F 
HETATM    8  F9  UNL     1     -35.993  18.392  -4.927  1.00 20.00    -0.205 F 
ENDROOT
BRANCH   4   9
HETATM    9  C7  UNL     1     -34.501  16.150  -5.772  1.00 20.00     0.130 C 
HETATM   10 BR10 UNL     1     -35.798  14.702  -5.681  1.00 20.00    -0.091 Br
ENDBRANCH   4   9
TORSDOF 1
ENDMDL
MODEL 8
REMARK VINA RESULT:      -3.7     12.072     13.250
REMARK  1 active torsions:
REMARK  status: ('A' for Active; 'I' for Inactive)
REMARK    1  A    between atoms: C4_4  and  C7_7 
ROOT
HETATM    1  C1  UNL     1     -34.040  17.886  -1.909  1.00 20.00     0.006 A 
HETATM    2  C2  UNL     1     -34.965  18.421  -2.806  1.00 20.00     0.043 A 
HETATM    3  C3  UNL     1     -33.268  16.783  -2.277  1.00 20.00     0.043 A 
HETATM    4  C4  UNL     1     -34.345  16.752  -4.440  1.00 20.00     0.029 A 
HETATM    5  C5  UNL     1     -35.117  17.854  -4.072  1.00 20.00     0.126 A 
HETATM    6  C6  UNL     1     -33.421  16.217  -3.544  1.00 20.00     0.126 A 
HETATM    7  F8  UNL     1     -36.008  18.375  -4.927  1.00 20.00    -0.205 F 
HETATM    8  F9  UNL     1     -32.674  15.159  -3.887  1.00 20.00    -0.205 F 
ENDROOT
BRANCH   4   9
HETATM    9  C7  UNL     1     -34.507  16.147  -5.793  1.00 20.00     0.130 C 
HETATM   10 BR10 UNL     1     -35.806  14.701  -5.709  1.00 20.00    -0.091 Br
ENDBRANCH   4   9
TORSDOF 1
ENDMDL
MODEL 9
REMARK VINA RESULT:      -3.6      2.145      3.204
REMARK  1 active torsions:
REMARK  status: ('A' for Active; 'I' for Inactive)
REMARK    1  A    between atoms: C4_4  and  C7_7 
ROOT
HETATM    1  C1  UNL     1     -32.759   8.880   5.526  1.00 20.00     0.006 A 
HETATM    2  C2  UNL     1     -33.592   8.035   6.259  1.00 20.00     0.043 A 
HETATM    3  C3  UNL     1     -32.384   8.537   4.227  1.00 20.00     0.043 A 
HETATM    4  C4  UNL     1     -33.678   6.503   4.392  1.00 20.00     0.029 A 
HETATM    5  C5  UNL     1     -34.052   6.846   5.691  1.00 20.00     0.126 A 
HETATM    6  C6  UNL     1     -32.845   7.348   3.660  1.00 20.00     0.126 A 
HETATM    7  F8  UNL     1     -34.853   6.040   6.403  1.00 20.00    -0.205 F 
HETATM    8  F9  UNL     1     -32.480   7.028   2.411  1.00 20.00    -0.205 F 
ENDROOT
BRANCH   4   9
HETATM    9  C7  UNL     1     -34.171   5.233   3.785  1.00 20.00     0.130 C 
HETATM   10 BR10 UNL     1     -32.838   4.542   2.548  1.00 20.00    -0.091 Br
ENDBRANCH   4   9
TORSDOF 1
ENDMDL
