MODEL 1
REMARK VINA RESULT:      -5.6      0.000      0.000
REMARK  0 active torsions:
REMARK  status: ('A' for Active; 'I' for Inactive)
ROOT
HETATM    1  C1  UNL     1     -34.810   5.117   5.983  1.00 20.00     0.001 A 
HETATM    2  C2  UNL     1     -34.543   6.379   6.513  1.00 20.00     0.001 A 
HETATM    3  C3  UNL     1     -34.344   4.781   4.711  1.00 20.00     0.008 A 
HETATM    4  C4  UNL     1     -33.811   7.306   5.770  1.00 20.00     0.019 A 
HETATM    5  C5  UNL     1     -33.612   5.708   3.970  1.00 20.00    -0.045 A 
HETATM    6  C6  UNL     1     -33.345   6.971   4.499  1.00 20.00     0.012 A 
HETATM    7  C7  UNL     1     -33.139   5.293   2.613  1.00 20.00     0.049 C 
HETATM    8  I8  UNL     1     -32.254   8.407   3.440  1.00 20.00    -0.044 I 
ENDROOT
TORSDOF 0
ENDMDL
MODEL 2
REMARK VINA RESULT:      -5.1      0.994      2.402
REMARK  0 active torsions:
REMARK  status: ('A' for Active; 'I' for Inactive)
ROOT
HETATM    1  C1  UNL     1     -34.718   5.783   6.327  1.00 20.00     0.001 A 
HETATM    2  C2  UNL     1     -34.672   5.029   5.155  1.00 20.00     0.001 A 
HETATM    3  C3  UNL     1     -34.085   7.025   6.383  1.00 20.00     0.008 A 
HETATM    4  C4  UNL     1     -33.992   5.517   4.038  1.00 20.00     0.019 A 
HETATM    5  C5  UNL     1     -33.406   7.512   5.267  1.00 20.00    -0.045 A 
HETATM    6  C6  UNL     1     -33.358   6.758   4.095  1.00 20.00     0.012 A 
HETATM    7  C7  UNL     1     -32.745   8.849   5.386  1.00 20.00     0.049 C 
HETATM    8  I8  UNL     1     -32.357   7.430   2.385  1.00 20.00    -0.044 I 
ENDROOT
TORSDOF 0
ENDMDL
MODEL 3
REMARK VINA RESULT:      -5.0      2.170      3.137
REMARK  0 active torsions:
REMARK  status: ('A' for Active; 'I' for Inactive)
ROOT
HETATM    1  C1  UNL     1     -32.097   8.743   3.470  1.00 20.00     0.001 A 
HETATM    2  C2  UNL     1     -32.704   8.988   4.702  1.00 20.00     0.001 A 
HETATM    3  C3  UNL     1     -32.238   7.497   2.857  1.00 20.00     0.008 A 
HETATM    4  C4  UNL     1     -33.453   7.986   5.321  1.00 20.00     0.019 A 
HETATM    5  C5  UNL     1     -32.987   6.497   3.476  1.00 20.00    -0.045 A 
HETATM    6  C6  UNL     1     -33.594   6.741   4.708  1.00 20.00     0.012 A 
HETATM    7  C7  UNL     1     -33.103   5.183   2.773  1.00 20.00     0.049 C 
HETATM    8  I8  UNL     1     -34.730   5.285   5.691  1.00 20.00    -0.044 I 
ENDROOT
TORSDOF 0
ENDMDL
MODEL 4
REMARK VINA RESULT:      -4.5      0.865      2.613
REMARK  0 active torsions:
REMARK  status: ('A' for Active; 'I' for Inactive)
ROOT
HETATM    1  C1  UNL     1     -34.064   4.306   3.931  1.00 20.00     0.001 A 
HETATM    2  C2  UNL     1     -33.301   4.942   2.952  1.00 20.00     0.001 A 
HETATM    3  C3  UNL     1     -34.401   4.984   5.103  1.00 20.00     0.008 A 
HETATM    4  C4  UNL     1     -32.873   6.257   3.146  1.00 20.00     0.019 A 
HETATM    5  C5  UNL     1     -33.974   6.298   5.296  1.00 20.00    -0.045 A 
HETATM    6  C6  UNL     1     -33.210   6.934   4.318  1.00 20.00     0.012 A 
HETATM    7  C7  UNL     1     -34.365   6.973   6.571  1.00 20.00     0.049 C 
HETATM    8  I8  UNL     1     -32.537   8.902   4.544  1.00 20.00    -0.044 I 
ENDROOT
TORSDOF 0
ENDMDL
MODEL 5
REMARK VINA RESULT:      -4.4      2.182      3.887
REMARK  0 active torsions:
REMARK  status: ('A' for Active; 'I' for Inactive)
ROOT
HETATM    1  C1  UNL     1     -32.155   7.636   2.484  1.00 20.00     0.001 A 
HETATM    2  C2  UNL     1     -32.525   6.295   2.373  1.00 20.00     0.001 A 
HETATM    3  C3  UNL     1     -32.524   8.371   3.611  1.00 20.00     0.008 A 
HETATM    4  C4  UNL     1     -33.264   5.690   3.390  1.00 20.00     0.019 A 
HETATM    5  C5  UNL     1     -33.262   7.765   4.627  1.00 20.00    -0.045 A 
HETATM    6  C6  UNL     1     -33.633   6.426   4.517  1.00 20.00     0.012 A 
HETATM    7  C7  UNL     1     -33.629   8.602   5.811  1.00 20.00     0.049 C 
HETATM    8  I8  UNL     1     -34.742   5.457   6.004  1.00 20.00    -0.044 I 
ENDROOT
TORSDOF 0
ENDMDL
MODEL 6
REMARK VINA RESULT:      -4.3      1.730      2.998
REMARK  0 active torsions:
REMARK  status: ('A' for Active; 'I' for Inactive)
ROOT
HETATM    1  C1  UNL     1     -33.232   8.697   5.670  1.00 20.00     0.001 A 
HETATM    2  C2  UNL     1     -32.415   8.733   4.540  1.00 20.00     0.001 A 
HETATM    3  C3  UNL     1     -34.032   7.580   5.916  1.00 20.00     0.008 A 
HETATM    4  C4  UNL     1     -32.398   7.653   3.656  1.00 20.00     0.019 A 
HETATM    5  C5  UNL     1     -34.015   6.501   5.033  1.00 20.00    -0.045 A 
HETATM    6  C6  UNL     1     -33.199   6.537   3.903  1.00 20.00     0.012 A 
HETATM    7  C7  UNL     1     -34.894   5.333   5.348  1.00 20.00     0.049 C 
HETATM    8  I8  UNL     1     -33.126   4.954   2.538  1.00 20.00    -0.044 I 
ENDROOT
TORSDOF 0
ENDMDL
MODEL 7
REMARK VINA RESULT:      -3.4     12.905     13.750
REMARK  0 active torsions:
REMARK  status: ('A' for Active; 'I' for Inactive)
ROOT
HETATM    1  C1  UNL     1     -33.909  17.750  -1.717  1.00 20.00     0.001 A 
HETATM    2  C2  UNL     1     -34.801  18.535  -2.448  1.00 20.00     0.001 A 
HETATM    3  C3  UNL     1     -33.330  16.623  -2.302  1.00 20.00     0.008 A 
HETATM    4  C4  UNL     1     -35.114  18.192  -3.764  1.00 20.00     0.019 A 
HETATM    5  C5  UNL     1     -33.643  16.281  -3.617  1.00 20.00    -0.045 A 
HETATM    6  C6  UNL     1     -34.535  17.064  -4.348  1.00 20.00     0.012 A 
HETATM    7  C7  UNL     1     -32.993  15.063  -4.190  1.00 20.00     0.049 C 
HETATM    8  I8  UNL     1     -35.049  16.607  -6.324  1.00 20.00    -0.044 I 
ENDROOT
TORSDOF 0
ENDMDL
MODEL 8
REMARK VINA RESULT:      -3.4     12.904     13.928
REMARK  0 active torsions:
REMARK  status: ('A' for Active; 'I' for Inactive)
ROOT
HETATM    1  C1  UNL     1     -33.668  14.763  -5.049  1.00 20.00     0.001 A 
HETATM    2  C2  UNL     1     -34.416  15.554  -5.921  1.00 20.00     0.001 A 
HETATM    3  C3  UNL     1     -33.311  15.256  -3.793  1.00 20.00     0.008 A 
HETATM    4  C4  UNL     1     -34.808  16.837  -5.538  1.00 20.00     0.019 A 
HETATM    5  C5  UNL     1     -33.703  16.538  -3.410  1.00 20.00    -0.045 A 
HETATM    6  C6  UNL     1     -34.451  17.330  -4.282  1.00 20.00     0.012 A 
HETATM    7  C7  UNL     1     -33.292  17.013  -2.053  1.00 20.00     0.049 C 
HETATM    8  I8  UNL     1     -35.070  19.261  -3.771  1.00 20.00    -0.044 I 
ENDROOT
TORSDOF 0
ENDMDL
MODEL 9
REMARK VINA RESULT:      -3.3     13.055     14.086
REMARK  0 active torsions:
REMARK  status: ('A' for Active; 'I' for Inactive)
ROOT
HETATM    1  C1  UNL     1     -34.371  15.370  -5.936  1.00 20.00     0.001 A 
HETATM    2  C2  UNL     1     -33.647  14.769  -4.906  1.00 20.00     0.001 A 
HETATM    3  C3  UNL     1     -34.821  16.684  -5.798  1.00 20.00     0.008 A 
HETATM    4  C4  UNL     1     -33.373  15.483  -3.738  1.00 20.00     0.019 A 
HETATM    5  C5  UNL     1     -34.546  17.396  -4.631  1.00 20.00    -0.045 A 
HETATM    6  C6  UNL     1     -33.823  16.796  -3.601  1.00 20.00     0.012 A 
HETATM    7  C7  UNL     1     -35.054  18.800  -4.540  1.00 20.00     0.049 C 
HETATM    8  I8  UNL     1     -33.377  17.808  -1.825  1.00 20.00    -0.044 I 
ENDROOT
TORSDOF 0
ENDMDL
