MODEL 1
REMARK VINA RESULT:      -4.0      0.000      0.000
REMARK  3 active torsions:
REMARK  status: ('A' for Active; 'I' for Inactive)
REMARK    1  A    between atoms: C4_4  and  S10_10 
REMARK    2  A    between atoms: C5_5  and  C7_7 
REMARK    3  A    between atoms: C7_7  and  S10_10 
ROOT
HETATM    1  C1  UNL     1     -34.696   5.777   6.378  1.00 20.00     0.009 A 
HETATM    2  C2  UNL     1     -33.955   6.980   6.197  1.00 20.00     0.026 A 
HETATM    3  C3  UNL     1     -34.744   5.021   5.227  1.00 20.00     0.051 A 
HETATM    4  C4  UNL     1     -33.463   7.097   4.916  1.00 20.00     0.041 A 
HETATM    5  S9  UNL     1     -33.897   5.761   3.937  1.00 20.00    -0.095 SA
ENDROOT
BRANCH   4   6
HETATM    6  S10 UNL     1     -32.494   8.438   4.293  1.00 20.00    -0.115 SA
BRANCH   6   7
HETATM    7  C7  UNL     1     -32.186   7.852   2.611  1.00 20.00     0.157 C 
BRANCH   7   8
HETATM    8  C5  UNL     1     -32.554   8.894   1.582  1.00 20.00     0.132 C 
HETATM    9  C6  UNL     1     -32.294   8.494   0.166  1.00 20.00     0.091 C 
HETATM   10  O8  UNL     1     -33.033   9.995   1.818  1.00 20.00    -0.298 OA
ENDBRANCH   7   8
ENDBRANCH   6   7
ENDBRANCH   4   6
TORSDOF 3
ENDMDL
MODEL 2
REMARK VINA RESULT:      -4.0     11.795     12.422
REMARK  3 active torsions:
REMARK  status: ('A' for Active; 'I' for Inactive)
REMARK    1  A    between atoms: C4_4  and  S10_10 
REMARK    2  A    between atoms: C5_5  and  C7_7 
REMARK    3  A    between atoms: C7_7  and  S10_10 
ROOT
HETATM    1  C1  UNL     1     -33.543  15.851  -3.539  1.00 20.00     0.009 A 
HETATM    2  C2  UNL     1     -33.254  16.664  -2.406  1.00 20.00     0.026 A 
HETATM    3  C3  UNL     1     -34.219  16.548  -4.517  1.00 20.00     0.051 A 
HETATM    4  C4  UNL     1     -33.718  17.952  -2.561  1.00 20.00     0.041 A 
HETATM    5  S9  UNL     1     -34.500  18.176  -4.068  1.00 20.00    -0.095 SA
ENDROOT
BRANCH   4   6
HETATM    6  S10 UNL     1     -33.558  19.263  -1.386  1.00 20.00    -0.115 SA
BRANCH   6   7
HETATM    7  C7  UNL     1     -32.977  18.332   0.050  1.00 20.00     0.157 C 
BRANCH   7   8
HETATM    8  C5  UNL     1     -31.495  18.518   0.273  1.00 20.00     0.132 C 
HETATM    9  C6  UNL     1     -31.057  18.402   1.697  1.00 20.00     0.091 C 
HETATM   10  O8  UNL     1     -30.664  18.744  -0.596  1.00 20.00    -0.298 OA
ENDBRANCH   7   8
ENDBRANCH   6   7
ENDBRANCH   4   6
TORSDOF 3
ENDMDL
MODEL 3
REMARK VINA RESULT:      -3.9     11.756     12.472
REMARK  3 active torsions:
REMARK  status: ('A' for Active; 'I' for Inactive)
REMARK    1  A    between atoms: C4_4  and  S10_10 
REMARK    2  A    between atoms: C5_5  and  C7_7 
REMARK    3  A    between atoms: C7_7  and  S10_10 
ROOT
HETATM    1  C1  UNL     1     -33.326  14.974  -4.327  1.00 20.00     0.009 A 
HETATM    2  C2  UNL     1     -33.287  15.955  -3.294  1.00 20.00     0.026 A 
HETATM    3  C3  UNL     1     -34.150  15.349  -5.366  1.00 20.00     0.051 A 
HETATM    4  C4  UNL     1     -34.082  17.042  -3.583  1.00 20.00     0.041 A 
HETATM    5  S9  UNL     1     -34.872  16.878  -5.094  1.00 20.00    -0.095 SA
ENDROOT
BRANCH   4   6
HETATM    6  S10 UNL     1     -34.304  18.468  -2.561  1.00 20.00    -0.115 SA
BRANCH   6   7
HETATM    7  C7  UNL     1     -32.586  19.000  -2.384  1.00 20.00     0.157 C 
BRANCH   7   8
HETATM    8  C5  UNL     1     -32.044  18.683  -1.010  1.00 20.00     0.132 C 
HETATM    9  C6  UNL     1     -33.075  18.269  -0.011  1.00 20.00     0.091 C 
HETATM   10  O8  UNL     1     -30.868  18.735  -0.676  1.00 20.00    -0.298 OA
ENDBRANCH   7   8
ENDBRANCH   6   7
ENDBRANCH   4   6
TORSDOF 3
ENDMDL
MODEL 4
REMARK VINA RESULT:      -3.8     11.956     12.631
REMARK  3 active torsions:
REMARK  status: ('A' for Active; 'I' for Inactive)
REMARK    1  A    between atoms: C4_4  and  S10_10 
REMARK    2  A    between atoms: C5_5  and  C7_7 
REMARK    3  A    between atoms: C7_7  and  S10_10 
ROOT
HETATM    1  C1  UNL     1     -33.337  16.979  -1.927  1.00 20.00     0.009 A 
HETATM    2  C2  UNL     1     -33.509  16.585  -3.285  1.00 20.00     0.026 A 
HETATM    3  C3  UNL     1     -34.107  18.076  -1.606  1.00 20.00     0.051 A 
HETATM    4  C4  UNL     1     -34.404  17.394  -3.950  1.00 20.00     0.041 A 
HETATM    5  S9  UNL     1     -35.032  18.624  -2.937  1.00 20.00    -0.095 SA
ENDROOT
BRANCH   4   6
HETATM    6  S10 UNL     1     -34.891  17.236  -5.642  1.00 20.00    -0.115 SA
BRANCH   6   7
HETATM    7  C7  UNL     1     -34.353  15.542  -5.970  1.00 20.00     0.157 C 
BRANCH   7   8
HETATM    8  C5  UNL     1     -35.527  14.609  -6.148  1.00 20.00     0.132 C 
HETATM    9  C6  UNL     1     -36.007  13.962  -4.890  1.00 20.00     0.091 C 
HETATM   10  O8  UNL     1     -36.088  14.361  -7.205  1.00 20.00    -0.298 OA
ENDBRANCH   7   8
ENDBRANCH   6   7
ENDBRANCH   4   6
TORSDOF 3
ENDMDL
MODEL 5
REMARK VINA RESULT:      -3.8     11.531     12.465
REMARK  3 active torsions:
REMARK  status: ('A' for Active; 'I' for Inactive)
REMARK    1  A    between atoms: C4_4  and  S10_10 
REMARK    2  A    between atoms: C5_5  and  C7_7 
REMARK    3  A    between atoms: C7_7  and  S10_10 
ROOT
HETATM    1  C1  UNL     1     -33.586  17.998  -1.958  1.00 20.00     0.009 A 
HETATM    2  C2  UNL     1     -33.301  16.650  -2.318  1.00 20.00     0.026 A 
HETATM    3  C3  UNL     1     -34.158  18.700  -2.997  1.00 20.00     0.051 A 
HETATM    4  C4  UNL     1     -33.666  16.372  -3.617  1.00 20.00     0.041 A 
HETATM    5  S9  UNL     1     -34.350  17.735  -4.397  1.00 20.00    -0.095 SA
ENDROOT
BRANCH   4   6
HETATM    6  S10 UNL     1     -33.481  14.818  -4.440  1.00 20.00    -0.115 SA
BRANCH   6   7
HETATM    7  C7  UNL     1     -34.181  15.229  -6.054  1.00 20.00     0.157 C 
BRANCH   7   8
HETATM    8  C5  UNL     1     -35.537  14.594  -6.252  1.00 20.00     0.132 C 
HETATM    9  C6  UNL     1     -36.170  14.071  -5.003  1.00 20.00     0.091 C 
HETATM   10  O8  UNL     1     -36.129  14.487  -7.317  1.00 20.00    -0.298 OA
ENDBRANCH   7   8
ENDBRANCH   6   7
ENDBRANCH   4   6
TORSDOF 3
ENDMDL
MODEL 6
REMARK VINA RESULT:      -3.6     10.083     10.791
REMARK  3 active torsions:
REMARK  status: ('A' for Active; 'I' for Inactive)
REMARK    1  A    between atoms: C4_4  and  S10_10 
REMARK    2  A    between atoms: C5_5  and  C7_7 
REMARK    3  A    between atoms: C7_7  and  S10_10 
ROOT
HETATM    1  C1  UNL     1     -40.265  15.623   9.289  1.00 20.00     0.009 A 
HETATM    2  C2  UNL     1     -40.518  14.337   8.731  1.00 20.00     0.026 A 
HETATM    3  C3  UNL     1     -40.945  16.619   8.623  1.00 20.00     0.051 A 
HETATM    4  C4  UNL     1     -41.381  14.399   7.658  1.00 20.00     0.041 A 
HETATM    5  S9  UNL     1     -41.882  16.003   7.329  1.00 20.00    -0.095 SA
ENDROOT
BRANCH   4   6
HETATM    6  S10 UNL     1     -41.944  13.027   6.697  1.00 20.00    -0.115 SA
BRANCH   6   7
HETATM    7  C7  UNL     1     -40.767  13.095   5.327  1.00 20.00     0.157 C 
BRANCH   7   8
HETATM    8  C5  UNL     1     -39.631  12.119   5.519  1.00 20.00     0.132 C 
HETATM    9  C6  UNL     1     -39.032  11.599   4.253  1.00 20.00     0.091 C 
HETATM   10  O8  UNL     1     -39.185  11.744   6.595  1.00 20.00    -0.298 OA
ENDBRANCH   7   8
ENDBRANCH   6   7
ENDBRANCH   4   6
TORSDOF 3
ENDMDL
MODEL 7
REMARK VINA RESULT:      -3.5     11.644     12.957
REMARK  3 active torsions:
REMARK  status: ('A' for Active; 'I' for Inactive)
REMARK    1  A    between atoms: C4_4  and  S10_10 
REMARK    2  A    between atoms: C5_5  and  C7_7 
REMARK    3  A    between atoms: C7_7  and  S10_10 
ROOT
HETATM    1  C1  UNL     1     -33.407  17.529  -2.095  1.00 20.00     0.009 A 
HETATM    2  C2  UNL     1     -33.301  16.277  -2.766  1.00 20.00     0.026 A 
HETATM    3  C3  UNL     1     -34.041  18.478  -2.867  1.00 20.00     0.051 A 
HETATM    4  C4  UNL     1     -33.858  16.316  -4.026  1.00 20.00     0.041 A 
HETATM    5  S9  UNL     1     -34.505  17.858  -4.394  1.00 20.00    -0.095 SA
ENDROOT
BRANCH   4   6
HETATM    6  S10 UNL     1     -33.931  14.973  -5.172  1.00 20.00    -0.115 SA
BRANCH   6   7
HETATM    7  C7  UNL     1     -34.425  15.859  -6.668  1.00 20.00     0.157 C 
BRANCH   7   8
HETATM    8  C5  UNL     1     -35.736  15.343  -7.213  1.00 20.00     0.132 C 
HETATM    9  C6  UNL     1     -36.664  16.402  -7.714  1.00 20.00     0.091 C 
HETATM   10  O8  UNL     1     -36.074  14.169  -7.272  1.00 20.00    -0.298 OA
ENDBRANCH   7   8
ENDBRANCH   6   7
ENDBRANCH   4   6
TORSDOF 3
ENDMDL
MODEL 8
REMARK VINA RESULT:      -3.4     11.438     11.918
REMARK  3 active torsions:
REMARK  status: ('A' for Active; 'I' for Inactive)
REMARK    1  A    between atoms: C4_4  and  S10_10 
REMARK    2  A    between atoms: C5_5  and  C7_7 
REMARK    3  A    between atoms: C7_7  and  S10_10 
ROOT
HETATM    1  C1  UNL     1     -33.531  18.049   0.206  1.00 20.00     0.009 A 
HETATM    2  C2  UNL     1     -33.970  17.389  -0.978  1.00 20.00     0.026 A 
HETATM    3  C3  UNL     1     -32.669  19.088  -0.071  1.00 20.00     0.051 A 
HETATM    4  C4  UNL     1     -33.426  17.947  -2.114  1.00 20.00     0.041 A 
HETATM    5  S9  UNL     1     -32.392  19.263  -1.752  1.00 20.00    -0.095 SA
ENDROOT
BRANCH   4   6
HETATM    6  S10 UNL     1     -33.722  17.419  -3.775  1.00 20.00    -0.115 SA
BRANCH   6   7
HETATM    7  C7  UNL     1     -33.055  15.742  -3.698  1.00 20.00     0.157 C 
BRANCH   7   8
HETATM    8  C5  UNL     1     -33.917  14.764  -4.461  1.00 20.00     0.132 C 
HETATM    9  C6  UNL     1     -34.043  15.050  -5.922  1.00 20.00     0.091 C 
HETATM   10  O8  UNL     1     -34.490  13.794  -3.985  1.00 20.00    -0.298 OA
ENDBRANCH   7   8
ENDBRANCH   6   7
ENDBRANCH   4   6
TORSDOF 3
ENDMDL
MODEL 9
REMARK VINA RESULT:      -3.3     10.566     11.247
REMARK  3 active torsions:
REMARK  status: ('A' for Active; 'I' for Inactive)
REMARK    1  A    between atoms: C4_4  and  S10_10 
REMARK    2  A    between atoms: C5_5  and  C7_7 
REMARK    3  A    between atoms: C7_7  and  S10_10 
ROOT
HETATM    1  C1  UNL     1     -40.688  17.212   7.755  1.00 20.00     0.009 A 
HETATM    2  C2  UNL     1     -40.560  15.796   7.836  1.00 20.00     0.026 A 
HETATM    3  C3  UNL     1     -41.728  17.591   6.935  1.00 20.00     0.051 A 
HETATM    4  C4  UNL     1     -41.507  15.146   7.076  1.00 20.00     0.041 A 
HETATM    5  S9  UNL     1     -42.545  16.243   6.268  1.00 20.00    -0.095 SA
ENDROOT
BRANCH   4   6
HETATM    6  S10 UNL     1     -41.685  13.395   6.911  1.00 20.00    -0.115 SA
BRANCH   6   7
HETATM    7  C7  UNL     1     -40.784  13.128   5.368  1.00 20.00     0.157 C 
BRANCH   7   8
HETATM    8  C5  UNL     1     -39.636  12.163   5.552  1.00 20.00     0.132 C 
HETATM    9  C6  UNL     1     -39.046  11.643   4.282  1.00 20.00     0.091 C 
HETATM   10  O8  UNL     1     -39.175  11.797   6.625  1.00 20.00    -0.298 OA
ENDBRANCH   7   8
ENDBRANCH   6   7
ENDBRANCH   4   6
TORSDOF 3
ENDMDL
