MODEL 1
REMARK VINA RESULT:      -5.1      0.000      0.000
REMARK  3 active torsions:
REMARK  status: ('A' for Active; 'I' for Inactive)
REMARK    1  A    between atoms: C6_6  and  O9_9 
REMARK    2  A    between atoms: C7_7  and  C8_8 
REMARK    3  A    between atoms: C7_7  and  O9_9 
ROOT
HETATM    1  C1  UNL     1     -34.760   5.477   6.038  1.00 20.00     0.000 A 
HETATM    2  C2  UNL     1     -34.544   5.080   4.718  1.00 20.00     0.003 A 
HETATM    3  C3  UNL     1     -34.251   6.693   6.492  1.00 20.00     0.003 A 
HETATM    4  C4  UNL     1     -33.819   5.900   3.853  1.00 20.00     0.037 A 
HETATM    5  C5  UNL     1     -33.526   7.513   5.626  1.00 20.00     0.037 A 
HETATM    6  C6  UNL     1     -33.310   7.116   4.307  1.00 20.00     0.068 A 
ENDROOT
BRANCH   6   7
HETATM    7  O9  UNL     1     -32.601   7.915   3.464  1.00 20.00    -0.350 OA
BRANCH   7   8
HETATM    8  C7  UNL     1     -32.136   7.327   2.249  1.00 20.00     0.190 C 
BRANCH   8   9
HETATM    9  C8  UNL     1     -32.142   8.366   1.143  1.00 20.00     0.141 C 
HETATM   10 CL10 UNL     1     -32.972   9.851   1.675  1.00 20.00    -0.128 Cl
ENDBRANCH   8   9
ENDBRANCH   7   8
ENDBRANCH   6   7
TORSDOF 3
ENDMDL
MODEL 2
REMARK VINA RESULT:      -5.1      0.040      1.528
REMARK  3 active torsions:
REMARK  status: ('A' for Active; 'I' for Inactive)
REMARK    1  A    between atoms: C6_6  and  O9_9 
REMARK    2  A    between atoms: C7_7  and  C8_8 
REMARK    3  A    between atoms: C7_7  and  O9_9 
ROOT
HETATM    1  C1  UNL     1     -34.748   5.470   6.034  1.00 20.00     0.000 A 
HETATM    2  C2  UNL     1     -34.245   6.693   6.479  1.00 20.00     0.003 A 
HETATM    3  C3  UNL     1     -34.516   5.057   4.723  1.00 20.00     0.003 A 
HETATM    4  C4  UNL     1     -33.509   7.502   5.613  1.00 20.00     0.037 A 
HETATM    5  C5  UNL     1     -33.780   5.867   3.856  1.00 20.00     0.037 A 
HETATM    6  C6  UNL     1     -33.276   7.088   4.301  1.00 20.00     0.068 A 
ENDROOT
BRANCH   6   7
HETATM    7  O9  UNL     1     -32.560   7.878   3.455  1.00 20.00    -0.350 OA
BRANCH   7   8
HETATM    8  C7  UNL     1     -32.139   7.295   2.223  1.00 20.00     0.190 C 
BRANCH   8   9
HETATM    9  C8  UNL     1     -32.170   8.342   1.125  1.00 20.00     0.141 C 
HETATM   10 CL10 UNL     1     -33.006   9.815   1.679  1.00 20.00    -0.128 Cl
ENDBRANCH   8   9
ENDBRANCH   7   8
ENDBRANCH   6   7
TORSDOF 3
ENDMDL
MODEL 3
REMARK VINA RESULT:      -3.8     11.632     12.062
REMARK  3 active torsions:
REMARK  status: ('A' for Active; 'I' for Inactive)
REMARK    1  A    between atoms: C6_6  and  O9_9 
REMARK    2  A    between atoms: C7_7  and  C8_8 
REMARK    3  A    between atoms: C7_7  and  O9_9 
ROOT
HETATM    1  C1  UNL     1     -32.192  19.001   1.530  1.00 20.00     0.000 A 
HETATM    2  C2  UNL     1     -33.473  18.656   1.097  1.00 20.00     0.003 A 
HETATM    3  C3  UNL     1     -31.110  18.891   0.658  1.00 20.00     0.003 A 
HETATM    4  C4  UNL     1     -33.671  18.203  -0.207  1.00 20.00     0.037 A 
HETATM    5  C5  UNL     1     -31.308  18.437  -0.647  1.00 20.00     0.037 A 
HETATM    6  C6  UNL     1     -32.589  18.094  -1.079  1.00 20.00     0.068 A 
ENDROOT
BRANCH   6   7
HETATM    7  O9  UNL     1     -32.782  17.650  -2.351  1.00 20.00    -0.350 OA
BRANCH   7   8
HETATM    8  C7  UNL     1     -33.541  16.452  -2.513  1.00 20.00     0.190 C 
BRANCH   8   9
HETATM    9  C8  UNL     1     -33.127  15.755  -3.796  1.00 20.00     0.141 C 
HETATM   10 CL10 UNL     1     -34.198  14.372  -4.137  1.00 20.00    -0.128 Cl
ENDBRANCH   8   9
ENDBRANCH   7   8
ENDBRANCH   6   7
TORSDOF 3
ENDMDL
MODEL 4
REMARK VINA RESULT:      -3.7     11.674     12.154
REMARK  3 active torsions:
REMARK  status: ('A' for Active; 'I' for Inactive)
REMARK    1  A    between atoms: C6_6  and  O9_9 
REMARK    2  A    between atoms: C7_7  and  C8_8 
REMARK    3  A    between atoms: C7_7  and  O9_9 
ROOT
HETATM    1  C1  UNL     1     -32.201  19.153   1.738  1.00 20.00     0.000 A 
HETATM    2  C2  UNL     1     -31.081  18.935   0.935  1.00 20.00     0.003 A 
HETATM    3  C3  UNL     1     -33.478  18.920   1.229  1.00 20.00     0.003 A 
HETATM    4  C4  UNL     1     -31.238  18.484  -0.375  1.00 20.00     0.037 A 
HETATM    5  C5  UNL     1     -33.636  18.468  -0.082  1.00 20.00     0.037 A 
HETATM    6  C6  UNL     1     -32.515  18.250  -0.884  1.00 20.00     0.068 A 
ENDROOT
BRANCH   6   7
HETATM    7  O9  UNL     1     -32.670  17.811  -2.162  1.00 20.00    -0.350 OA
BRANCH   7   8
HETATM    8  C7  UNL     1     -33.365  16.578  -2.347  1.00 20.00     0.190 C 
BRANCH   8   9
HETATM    9  C8  UNL     1     -33.416  16.236  -3.824  1.00 20.00     0.141 C 
HETATM   10 CL10 UNL     1     -33.962  14.557  -4.066  1.00 20.00    -0.128 Cl
ENDBRANCH   8   9
ENDBRANCH   7   8
ENDBRANCH   6   7
TORSDOF 3
ENDMDL
MODEL 5
REMARK VINA RESULT:      -3.6     11.860     12.778
REMARK  3 active torsions:
REMARK  status: ('A' for Active; 'I' for Inactive)
REMARK    1  A    between atoms: C6_6  and  O9_9 
REMARK    2  A    between atoms: C7_7  and  C8_8 
REMARK    3  A    between atoms: C7_7  and  O9_9 
ROOT
HETATM    1  C1  UNL     1     -34.021  17.739  -1.768  1.00 20.00     0.000 A 
HETATM    2  C2  UNL     1     -34.879  18.443  -2.612  1.00 20.00     0.003 A 
HETATM    3  C3  UNL     1     -33.289  16.659  -2.262  1.00 20.00     0.003 A 
HETATM    4  C4  UNL     1     -35.005  18.069  -3.950  1.00 20.00     0.037 A 
HETATM    5  C5  UNL     1     -33.415  16.285  -3.600  1.00 20.00     0.037 A 
HETATM    6  C6  UNL     1     -34.273  16.990  -4.444  1.00 20.00     0.068 A 
ENDROOT
BRANCH   6   7
HETATM    7  O9  UNL     1     -34.397  16.623  -5.748  1.00 20.00    -0.350 OA
BRANCH   7   8
HETATM    8  C7  UNL     1     -34.346  15.227  -6.039  1.00 20.00     0.190 C 
BRANCH   8   9
HETATM    9  C8  UNL     1     -35.743  14.639  -5.971  1.00 20.00     0.141 C 
HETATM   10 CL10 UNL     1     -35.910  13.568  -4.556  1.00 20.00    -0.128 Cl
ENDBRANCH   8   9
ENDBRANCH   7   8
ENDBRANCH   6   7
TORSDOF 3
ENDMDL
MODEL 6
REMARK VINA RESULT:      -3.6     11.776     12.717
REMARK  3 active torsions:
REMARK  status: ('A' for Active; 'I' for Inactive)
REMARK    1  A    between atoms: C6_6  and  O9_9 
REMARK    2  A    between atoms: C7_7  and  C8_8 
REMARK    3  A    between atoms: C7_7  and  O9_9 
ROOT
HETATM    1  C1  UNL     1     -34.193  16.328  -4.548  1.00 20.00     0.000 A 
HETATM    2  C2  UNL     1     -33.437  15.919  -3.449  1.00 20.00     0.003 A 
HETATM    3  C3  UNL     1     -34.912  17.522  -4.492  1.00 20.00     0.003 A 
HETATM    4  C4  UNL     1     -33.399  16.703  -2.297  1.00 20.00     0.037 A 
HETATM    5  C5  UNL     1     -34.874  18.307  -3.339  1.00 20.00     0.037 A 
HETATM    6  C6  UNL     1     -34.116  17.898  -2.242  1.00 20.00     0.068 A 
ENDROOT
BRANCH   6   7
HETATM    7  O9  UNL     1     -34.081  18.662  -1.117  1.00 20.00    -0.350 OA
BRANCH   7   8
HETATM    8  C7  UNL     1     -33.781  17.999   0.111  1.00 20.00     0.190 C 
BRANCH   8   9
HETATM    9  C8  UNL     1     -32.613  18.688   0.792  1.00 20.00     0.141 C 
HETATM   10 CL10 UNL     1     -31.149  18.599  -0.220  1.00 20.00    -0.128 Cl
ENDBRANCH   8   9
ENDBRANCH   7   8
ENDBRANCH   6   7
TORSDOF 3
ENDMDL
MODEL 7
REMARK VINA RESULT:      -3.5     10.031     10.932
REMARK  3 active torsions:
REMARK  status: ('A' for Active; 'I' for Inactive)
REMARK    1  A    between atoms: C6_6  and  O9_9 
REMARK    2  A    between atoms: C7_7  and  C8_8 
REMARK    3  A    between atoms: C7_7  and  O9_9 
ROOT
HETATM    1  C1  UNL     1     -40.763  16.666   8.447  1.00 20.00     0.000 A 
HETATM    2  C2  UNL     1     -40.253  15.653   9.259  1.00 20.00     0.003 A 
HETATM    3  C3  UNL     1     -41.335  16.349   7.215  1.00 20.00     0.003 A 
HETATM    4  C4  UNL     1     -40.315  14.324   8.839  1.00 20.00     0.037 A 
HETATM    5  C5  UNL     1     -41.398  15.020   6.795  1.00 20.00     0.037 A 
HETATM    6  C6  UNL     1     -40.888  14.007   7.608  1.00 20.00     0.068 A 
ENDROOT
BRANCH   6   7
HETATM    7  O9  UNL     1     -40.947  12.711   7.198  1.00 20.00    -0.350 OA
BRANCH   7   8
HETATM    8  C7  UNL     1     -40.673  12.452   5.821  1.00 20.00     0.190 C 
BRANCH   8   9
HETATM    9  C8  UNL     1     -39.222  12.041   5.658  1.00 20.00     0.141 C 
HETATM   10 CL10 UNL     1     -38.868  11.630   3.960  1.00 20.00    -0.128 Cl
ENDBRANCH   8   9
ENDBRANCH   7   8
ENDBRANCH   6   7
TORSDOF 3
ENDMDL
MODEL 8
REMARK VINA RESULT:      -3.5     11.676     12.790
REMARK  3 active torsions:
REMARK  status: ('A' for Active; 'I' for Inactive)
REMARK    1  A    between atoms: C6_6  and  O9_9 
REMARK    2  A    between atoms: C7_7  and  C8_8 
REMARK    3  A    between atoms: C7_7  and  O9_9 
ROOT
HETATM    1  C1  UNL     1     -34.527  14.953  -5.291  1.00 20.00     0.000 A 
HETATM    2  C2  UNL     1     -33.721  14.748  -4.171  1.00 20.00     0.003 A 
HETATM    3  C3  UNL     1     -34.884  16.248  -5.664  1.00 20.00     0.003 A 
HETATM    4  C4  UNL     1     -33.272  15.838  -3.425  1.00 20.00     0.037 A 
HETATM    5  C5  UNL     1     -34.436  17.339  -4.917  1.00 20.00     0.037 A 
HETATM    6  C6  UNL     1     -33.630  17.133  -3.798  1.00 20.00     0.068 A 
ENDROOT
BRANCH   6   7
HETATM    7  O9  UNL     1     -33.194  18.197  -3.070  1.00 20.00    -0.350 OA
BRANCH   7   8
HETATM    8  C7  UNL     1     -33.042  18.003  -1.664  1.00 20.00     0.190 C 
BRANCH   8   9
HETATM    9  C8  UNL     1     -32.144  19.085  -1.092  1.00 20.00     0.141 C 
HETATM   10 CL10 UNL     1     -30.969  18.391   0.053  1.00 20.00    -0.128 Cl
ENDBRANCH   8   9
ENDBRANCH   7   8
ENDBRANCH   6   7
TORSDOF 3
ENDMDL
MODEL 9
REMARK VINA RESULT:      -3.5      2.340      4.558
REMARK  3 active torsions:
REMARK  status: ('A' for Active; 'I' for Inactive)
REMARK    1  A    between atoms: C6_6  and  O9_9 
REMARK    2  A    between atoms: C7_7  and  C8_8 
REMARK    3  A    between atoms: C7_7  and  O9_9 
ROOT
HETATM    1  C1  UNL     1     -32.499   8.942   0.771  1.00 20.00     0.000 A 
HETATM    2  C2  UNL     1     -32.110   7.654   1.140  1.00 20.00     0.003 A 
HETATM    3  C3  UNL     1     -32.893   9.857   1.747  1.00 20.00     0.003 A 
HETATM    4  C4  UNL     1     -32.115   7.281   2.483  1.00 20.00     0.037 A 
HETATM    5  C5  UNL     1     -32.897   9.484   3.092  1.00 20.00     0.037 A 
HETATM    6  C6  UNL     1     -32.507   8.196   3.460  1.00 20.00     0.068 A 
ENDROOT
BRANCH   6   7
HETATM    7  O9  UNL     1     -32.513   7.833   4.771  1.00 20.00    -0.350 OA
BRANCH   7   8
HETATM    8  C7  UNL     1     -33.738   7.996   5.485  1.00 20.00     0.190 C 
BRANCH   8   9
HETATM    9  C8  UNL     1     -34.029   6.746   6.295  1.00 20.00     0.141 C 
HETATM   10 CL10 UNL     1     -34.831   5.514   5.288  1.00 20.00    -0.128 Cl
ENDBRANCH   8   9
ENDBRANCH   7   8
ENDBRANCH   6   7
TORSDOF 3
ENDMDL
