MODEL 1
REMARK VINA RESULT:      -6.8      0.000      0.000
REMARK  0 active torsions:
REMARK  status: ('A' for Active; 'I' for Inactive)
ROOT
HETATM    1  C1  UNL     1     -32.034   8.466   3.371  1.00 20.00     0.001 A 
HETATM    2  C2  UNL     1     -32.164   7.416   2.467  1.00 20.00     0.001 A 
HETATM    3  C3  UNL     1     -34.742   6.022   6.593  1.00 20.00     0.001 A 
HETATM    4  C4  UNL     1     -34.871   4.973   5.688  1.00 20.00     0.001 A 
HETATM    5  C5  UNL     1     -32.642   8.386   4.625  1.00 20.00     0.012 A 
HETATM    6  C6  UNL     1     -32.901   6.282   2.813  1.00 20.00     0.012 A 
HETATM    7  C7  UNL     1     -34.005   7.157   6.247  1.00 20.00     0.012 A 
HETATM    8  C8  UNL     1     -34.264   5.053   4.435  1.00 20.00     0.012 A 
HETATM    9  C9  UNL     1     -33.387   7.253   4.989  1.00 20.00    -0.026 A 
HETATM   10  C10 UNL     1     -33.518   6.185   4.070  1.00 20.00    -0.026 A 
ENDROOT
TORSDOF 0
ENDMDL
MODEL 2
REMARK VINA RESULT:      -6.8      0.161      2.074
REMARK  0 active torsions:
REMARK  status: ('A' for Active; 'I' for Inactive)
ROOT
HETATM    1  C1  UNL     1     -32.170   7.633   2.573  1.00 20.00     0.001 A 
HETATM    2  C2  UNL     1     -32.119   8.644   3.530  1.00 20.00     0.001 A 
HETATM    3  C3  UNL     1     -34.807   4.894   5.609  1.00 20.00     0.001 A 
HETATM    4  C4  UNL     1     -34.756   5.904   6.565  1.00 20.00     0.001 A 
HETATM    5  C5  UNL     1     -32.850   6.446   2.847  1.00 20.00     0.012 A 
HETATM    6  C6  UNL     1     -32.749   8.471   4.763  1.00 20.00     0.012 A 
HETATM    7  C7  UNL     1     -34.177   5.067   4.376  1.00 20.00     0.012 A 
HETATM    8  C8  UNL     1     -34.077   7.091   6.291  1.00 20.00     0.012 A 
HETATM    9  C9  UNL     1     -33.489   6.255   4.083  1.00 20.00    -0.026 A 
HETATM   10  C10 UNL     1     -33.438   7.283   5.055  1.00 20.00    -0.026 A 
ENDROOT
TORSDOF 0
ENDMDL
MODEL 3
REMARK VINA RESULT:      -6.8      0.067      3.446
REMARK  0 active torsions:
REMARK  status: ('A' for Active; 'I' for Inactive)
ROOT
HETATM    1  C1  UNL     1     -34.749   6.090   6.588  1.00 20.00     0.001 A 
HETATM    2  C2  UNL     1     -34.876   5.010   5.719  1.00 20.00     0.001 A 
HETATM    3  C3  UNL     1     -32.054   8.430   3.280  1.00 20.00     0.001 A 
HETATM    4  C4  UNL     1     -32.181   7.350   2.412  1.00 20.00     0.001 A 
HETATM    5  C5  UNL     1     -34.016   7.213   6.203  1.00 20.00     0.012 A 
HETATM    6  C6  UNL     1     -34.271   5.049   4.462  1.00 20.00     0.012 A 
HETATM    7  C7  UNL     1     -32.659   8.392   4.537  1.00 20.00     0.012 A 
HETATM    8  C8  UNL     1     -32.914   6.227   2.797  1.00 20.00     0.012 A 
HETATM    9  C9  UNL     1     -33.401   7.269   4.941  1.00 20.00    -0.026 A 
HETATM   10  C10 UNL     1     -33.531   6.171   4.058  1.00 20.00    -0.026 A 
ENDROOT
TORSDOF 0
ENDMDL
MODEL 4
REMARK VINA RESULT:      -6.8      0.132      4.018
REMARK  0 active torsions:
REMARK  status: ('A' for Active; 'I' for Inactive)
ROOT
HETATM    1  C1  UNL     1     -34.898   5.018   5.798  1.00 20.00     0.001 A 
HETATM    2  C2  UNL     1     -34.754   6.122   6.633  1.00 20.00     0.001 A 
HETATM    3  C3  UNL     1     -32.206   7.233   2.403  1.00 20.00     0.001 A 
HETATM    4  C4  UNL     1     -32.063   8.337   3.238  1.00 20.00     0.001 A 
HETATM    5  C5  UNL     1     -34.303   5.013   4.536  1.00 20.00     0.012 A 
HETATM    6  C6  UNL     1     -34.013   7.226   6.209  1.00 20.00     0.012 A 
HETATM    7  C7  UNL     1     -32.947   6.129   2.827  1.00 20.00     0.012 A 
HETATM    8  C8  UNL     1     -32.658   8.342   4.499  1.00 20.00     0.012 A 
HETATM    9  C9  UNL     1     -33.554   6.116   4.094  1.00 20.00    -0.026 A 
HETATM   10  C10 UNL     1     -33.407   7.239   4.943  1.00 20.00    -0.026 A 
ENDROOT
TORSDOF 0
ENDMDL
MODEL 5
REMARK VINA RESULT:      -6.2      0.663      3.895
REMARK  0 active torsions:
REMARK  status: ('A' for Active; 'I' for Inactive)
ROOT
HETATM    1  C1  UNL     1     -34.632   4.691   4.528  1.00 20.00     0.001 A 
HETATM    2  C2  UNL     1     -34.839   5.237   5.792  1.00 20.00     0.001 A 
HETATM    3  C3  UNL     1     -32.058   8.618   3.253  1.00 20.00     0.001 A 
HETATM    4  C4  UNL     1     -32.265   9.164   4.515  1.00 20.00     0.001 A 
HETATM    5  C5  UNL     1     -33.890   5.392   3.578  1.00 20.00     0.012 A 
HETATM    6  C6  UNL     1     -34.303   6.486   6.109  1.00 20.00     0.012 A 
HETATM    7  C7  UNL     1     -32.594   7.369   2.935  1.00 20.00     0.012 A 
HETATM    8  C8  UNL     1     -33.007   8.464   5.466  1.00 20.00     0.012 A 
HETATM    9  C9  UNL     1     -33.344   6.650   3.880  1.00 20.00    -0.026 A 
HETATM   10  C10 UNL     1     -33.553   7.205   5.165  1.00 20.00    -0.026 A 
ENDROOT
TORSDOF 0
ENDMDL
MODEL 6
REMARK VINA RESULT:      -5.5      0.963      2.519
REMARK  0 active torsions:
REMARK  status: ('A' for Active; 'I' for Inactive)
ROOT
HETATM    1  C1  UNL     1     -33.459   8.716   5.938  1.00 20.00     0.001 A 
HETATM    2  C2  UNL     1     -32.600   9.104   4.913  1.00 20.00     0.001 A 
HETATM    3  C3  UNL     1     -34.086   4.401   3.780  1.00 20.00     0.001 A 
HETATM    4  C4  UNL     1     -33.228   4.788   2.755  1.00 20.00     0.001 A 
HETATM    5  C5  UNL     1     -34.045   7.451   5.916  1.00 20.00     0.012 A 
HETATM    6  C6  UNL     1     -32.325   8.227   3.863  1.00 20.00     0.012 A 
HETATM    7  C7  UNL     1     -34.362   5.278   4.830  1.00 20.00     0.012 A 
HETATM    8  C8  UNL     1     -32.641   6.053   2.777  1.00 20.00     0.012 A 
HETATM    9  C9  UNL     1     -33.779   6.556   4.867  1.00 20.00    -0.026 A 
HETATM   10  C10 UNL     1     -32.906   6.950   3.826  1.00 20.00    -0.026 A 
ENDROOT
TORSDOF 0
ENDMDL
MODEL 7
REMARK VINA RESULT:      -5.5      0.977      2.670
REMARK  0 active torsions:
REMARK  status: ('A' for Active; 'I' for Inactive)
ROOT
HETATM    1  C1  UNL     1     -32.584   9.092   4.821  1.00 20.00     0.001 A 
HETATM    2  C2  UNL     1     -33.433   8.743   5.867  1.00 20.00     0.001 A 
HETATM    3  C3  UNL     1     -33.269   4.717   2.806  1.00 20.00     0.001 A 
HETATM    4  C4  UNL     1     -34.118   4.368   3.851  1.00 20.00     0.001 A 
HETATM    5  C5  UNL     1     -32.328   8.182   3.796  1.00 20.00     0.012 A 
HETATM    6  C6  UNL     1     -34.029   7.482   5.892  1.00 20.00     0.012 A 
HETATM    7  C7  UNL     1     -32.672   5.978   2.781  1.00 20.00     0.012 A 
HETATM    8  C8  UNL     1     -34.374   5.278   4.876  1.00 20.00     0.012 A 
HETATM    9  C9  UNL     1     -32.919   6.908   3.805  1.00 20.00    -0.026 A 
HETATM   10  C10 UNL     1     -33.783   6.553   4.868  1.00 20.00    -0.026 A 
ENDROOT
TORSDOF 0
ENDMDL
MODEL 8
REMARK VINA RESULT:      -4.4     15.464     15.828
REMARK  0 active torsions:
REMARK  status: ('A' for Active; 'I' for Inactive)
ROOT
HETATM    1  C1  UNL     1     -22.191  17.778   8.328  1.00 20.00     0.001 A 
HETATM    2  C2  UNL     1     -22.954  18.896   8.004  1.00 20.00     0.001 A 
HETATM    3  C3  UNL     1     -24.993  16.997  12.228  1.00 20.00     0.001 A 
HETATM    4  C4  UNL     1     -25.755  18.115  11.905  1.00 20.00     0.001 A 
HETATM    5  C5  UNL     1     -22.503  17.023   9.459  1.00 20.00     0.012 A 
HETATM    6  C6  UNL     1     -24.032  19.263   8.810  1.00 20.00     0.012 A 
HETATM    7  C7  UNL     1     -23.914  16.629  11.423  1.00 20.00     0.012 A 
HETATM    8  C8  UNL     1     -25.443  18.870  10.774  1.00 20.00     0.012 A 
HETATM    9  C9  UNL     1     -23.585  17.378  10.280  1.00 20.00    -0.026 A 
HETATM   10  C10 UNL     1     -24.361  18.515   9.951  1.00 20.00    -0.026 A 
ENDROOT
TORSDOF 0
ENDMDL
MODEL 9
REMARK VINA RESULT:      -4.1     12.100     13.341
REMARK  0 active torsions:
REMARK  status: ('A' for Active; 'I' for Inactive)
ROOT
HETATM    1  C1  UNL     1     -34.473  15.712  -6.101  1.00 20.00     0.001 A 
HETATM    2  C2  UNL     1     -33.623  14.867  -5.393  1.00 20.00     0.001 A 
HETATM    3  C3  UNL     1     -34.713  18.688  -2.259  1.00 20.00     0.001 A 
HETATM    4  C4  UNL     1     -33.863  17.843  -1.551  1.00 20.00     0.001 A 
HETATM    5  C5  UNL     1     -34.959  16.875  -5.503  1.00 20.00     0.012 A 
HETATM    6  C6  UNL     1     -33.256  15.182  -4.084  1.00 20.00     0.012 A 
HETATM    7  C7  UNL     1     -35.080  18.373  -3.568  1.00 20.00     0.012 A 
HETATM    8  C8  UNL     1     -33.377  16.681  -2.150  1.00 20.00     0.012 A 
HETATM    9  C9  UNL     1     -34.600  17.207  -4.186  1.00 20.00    -0.026 A 
HETATM   10  C10 UNL     1     -33.735  16.348  -3.467  1.00 20.00    -0.026 A 
ENDROOT
TORSDOF 0
ENDMDL
