MODEL 1
REMARK VINA RESULT:      -2.7      0.000      0.000
REMARK  0 active torsions:
REMARK  status: ('A' for Active; 'I' for Inactive)
ROOT
HETATM    1  C1  UNL     1     -34.707   5.520   5.840  1.00 20.00     0.016 C 
HETATM    2  C2  UNL     1     -34.166   6.804   6.424  1.00 20.00     0.081 C 
HETATM    3 BR3  UNL     1     -33.416   7.909   5.012  1.00 20.00    -0.097 Br
ENDROOT
TORSDOF 0
ENDMDL
MODEL 2
REMARK VINA RESULT:      -2.6      1.960      2.305
REMARK  0 active torsions:
REMARK  status: ('A' for Active; 'I' for Inactive)
ROOT
HETATM    1  C1  UNL     1     -33.477   7.859   5.294  1.00 20.00     0.016 C 
HETATM    2  C2  UNL     1     -34.031   6.893   6.316  1.00 20.00     0.081 C 
HETATM    3 BR3  UNL     1     -34.710   5.305   5.424  1.00 20.00    -0.097 Br
ENDROOT
TORSDOF 0
ENDMDL
MODEL 3
REMARK VINA RESULT:      -2.5      1.230      1.444
REMARK  0 active torsions:
REMARK  status: ('A' for Active; 'I' for Inactive)
ROOT
HETATM    1  C1  UNL     1     -34.531   4.893   4.671  1.00 20.00     0.016 C 
HETATM    2  C2  UNL     1     -34.665   5.417   6.082  1.00 20.00     0.081 C 
HETATM    3 BR3  UNL     1     -33.845   7.173   6.216  1.00 20.00    -0.097 Br
ENDROOT
TORSDOF 0
ENDMDL
MODEL 4
REMARK VINA RESULT:      -2.5      1.152      1.459
REMARK  0 active torsions:
REMARK  status: ('A' for Active; 'I' for Inactive)
ROOT
HETATM    1  C1  UNL     1     -34.073   6.856   6.331  1.00 20.00     0.016 C 
HETATM    2  C2  UNL     1     -33.862   7.064   4.850  1.00 20.00     0.081 C 
HETATM    3 BR3  UNL     1     -32.482   8.401   4.560  1.00 20.00    -0.097 Br
ENDROOT
TORSDOF 0
ENDMDL
MODEL 5
REMARK VINA RESULT:      -2.5      1.837      2.186
REMARK  0 active torsions:
REMARK  status: ('A' for Active; 'I' for Inactive)
ROOT
HETATM    1  C1  UNL     1     -33.965   7.176   6.376  1.00 20.00     0.016 C 
HETATM    2  C2  UNL     1     -34.504   5.765   6.381  1.00 20.00     0.081 C 
HETATM    3 BR3  UNL     1     -34.539   5.064   4.569  1.00 20.00    -0.097 Br
ENDROOT
TORSDOF 0
ENDMDL
MODEL 6
REMARK VINA RESULT:      -2.5      2.199      2.540
REMARK  0 active torsions:
REMARK  status: ('A' for Active; 'I' for Inactive)
ROOT
HETATM    1  C1  UNL     1     -33.282   7.974   5.231  1.00 20.00     0.016 C 
HETATM    2  C2  UNL     1     -33.987   6.754   4.686  1.00 20.00     0.081 C 
HETATM    3 BR3  UNL     1     -34.587   5.628   6.152  1.00 20.00    -0.097 Br
ENDROOT
TORSDOF 0
ENDMDL
MODEL 7
REMARK VINA RESULT:      -2.4      2.740      2.886
REMARK  0 active torsions:
REMARK  status: ('A' for Active; 'I' for Inactive)
ROOT
HETATM    1  C1  UNL     1     -32.269   7.578   3.417  1.00 20.00     0.016 C 
HETATM    2  C2  UNL     1     -32.576   8.305   4.705  1.00 20.00     0.081 C 
HETATM    3 BR3  UNL     1     -33.776   7.235   5.797  1.00 20.00    -0.097 Br
ENDROOT
TORSDOF 0
ENDMDL
MODEL 8
REMARK VINA RESULT:      -2.2      1.971      2.238
REMARK  0 active torsions:
REMARK  status: ('A' for Active; 'I' for Inactive)
ROOT
HETATM    1  C1  UNL     1     -33.717   7.365   5.714  1.00 20.00     0.016 C 
HETATM    2  C2  UNL     1     -32.816   8.339   4.992  1.00 20.00     0.081 C 
HETATM    3 BR3  UNL     1     -32.272   7.592   3.282  1.00 20.00    -0.097 Br
ENDROOT
TORSDOF 0
ENDMDL
MODEL 9
REMARK VINA RESULT:      -2.2      1.682      2.071
REMARK  0 active torsions:
REMARK  status: ('A' for Active; 'I' for Inactive)
ROOT
HETATM    1  C1  UNL     1     -34.281   6.328   6.386  1.00 20.00     0.016 C 
HETATM    2  C2  UNL     1     -34.752   5.259   5.428  1.00 20.00     0.081 C 
HETATM    3 BR3  UNL     1     -33.784   5.403   3.750  1.00 20.00    -0.097 Br
ENDROOT
TORSDOF 0
ENDMDL
