MODEL 1
REMARK VINA RESULT:      -6.8      0.000      0.000
REMARK  0 active torsions:
REMARK  status: ('A' for Active; 'I' for Inactive)
ROOT
HETATM    1  C1  UNL     1     -32.529   7.032   2.887  1.00 20.00     0.199 A 
HETATM    2  C2  UNL     1     -32.835   7.977   3.866  1.00 20.00     0.198 A 
HETATM    3  C3  UNL     1     -32.981   5.719   3.019  1.00 20.00     0.198 A 
HETATM    4  C4  UNL     1     -33.592   7.609   4.977  1.00 20.00     0.182 A 
HETATM    5  C5  UNL     1     -33.739   5.351   4.130  1.00 20.00     0.182 A 
HETATM    6  C6  UNL     1     -34.045   6.296   5.110  1.00 20.00     0.117 A 
HETATM    7  F7  UNL     1     -31.800   7.385   1.820  1.00 20.00    -0.199 F 
HETATM    8  F8  UNL     1     -32.400   9.237   3.740  1.00 20.00    -0.199 F 
HETATM    9  F9  UNL     1     -32.687   4.813   2.078  1.00 20.00    -0.199 F 
HETATM   10  F10 UNL     1     -33.878   8.528   5.910  1.00 20.00    -0.201 F 
HETATM   11  F11 UNL     1     -34.166   4.085   4.244  1.00 20.00    -0.201 F 
HETATM   12 CL12 UNL     1     -34.981   5.841   6.481  1.00 20.00    -0.077 Cl
ENDROOT
TORSDOF 0
ENDMDL
MODEL 2
REMARK VINA RESULT:      -6.8      0.001      3.074
REMARK  0 active torsions:
REMARK  status: ('A' for Active; 'I' for Inactive)
ROOT
HETATM    1  C1  UNL     1     -32.528   7.033   2.887  1.00 20.00     0.199 A 
HETATM    2  C2  UNL     1     -32.981   5.719   3.018  1.00 20.00     0.198 A 
HETATM    3  C3  UNL     1     -32.834   7.977   3.866  1.00 20.00     0.198 A 
HETATM    4  C4  UNL     1     -33.739   5.352   4.129  1.00 20.00     0.182 A 
HETATM    5  C5  UNL     1     -33.592   7.609   4.977  1.00 20.00     0.182 A 
HETATM    6  C6  UNL     1     -34.045   6.297   5.109  1.00 20.00     0.117 A 
HETATM    7  F7  UNL     1     -31.801   7.386   1.819  1.00 20.00    -0.199 F 
HETATM    8  F8  UNL     1     -32.687   4.813   2.078  1.00 20.00    -0.199 F 
HETATM    9  F9  UNL     1     -32.400   9.238   3.739  1.00 20.00    -0.199 F 
HETATM   10  F10 UNL     1     -34.166   4.086   4.242  1.00 20.00    -0.201 F 
HETATM   11  F11 UNL     1     -33.879   8.529   5.911  1.00 20.00    -0.201 F 
HETATM   12 CL12 UNL     1     -34.981   5.842   6.481  1.00 20.00    -0.077 Cl
ENDROOT
TORSDOF 0
ENDMDL
MODEL 3
REMARK VINA RESULT:      -6.7      1.632      3.643
REMARK  0 active torsions:
REMARK  status: ('A' for Active; 'I' for Inactive)
ROOT
HETATM    1  C1  UNL     1     -33.965   5.080   4.301  1.00 20.00     0.199 A 
HETATM    2  C2  UNL     1     -33.148   5.671   3.337  1.00 20.00     0.198 A 
HETATM    3  C3  UNL     1     -34.321   5.793   5.445  1.00 20.00     0.198 A 
HETATM    4  C4  UNL     1     -32.688   6.974   3.518  1.00 20.00     0.182 A 
HETATM    5  C5  UNL     1     -33.862   7.097   5.626  1.00 20.00     0.182 A 
HETATM    6  C6  UNL     1     -33.045   7.689   4.662  1.00 20.00     0.117 A 
HETATM    7  F7  UNL     1     -34.406   3.827   4.128  1.00 20.00    -0.199 F 
HETATM    8  F8  UNL     1     -32.805   4.986   2.238  1.00 20.00    -0.199 F 
HETATM    9  F9  UNL     1     -35.105   5.225   6.370  1.00 20.00    -0.199 F 
HETATM   10  F10 UNL     1     -31.904   7.529   2.582  1.00 20.00    -0.201 F 
HETATM   11  F11 UNL     1     -34.213   7.770   6.731  1.00 20.00    -0.201 F 
HETATM   12 CL12 UNL     1     -32.477   9.299   4.885  1.00 20.00    -0.077 Cl
ENDROOT
TORSDOF 0
ENDMDL
MODEL 4
REMARK VINA RESULT:      -6.7      1.632      3.196
REMARK  0 active torsions:
REMARK  status: ('A' for Active; 'I' for Inactive)
ROOT
HETATM    1  C1  UNL     1     -33.964   5.080   4.301  1.00 20.00     0.199 A 
HETATM    2  C2  UNL     1     -34.321   5.793   5.446  1.00 20.00     0.198 A 
HETATM    3  C3  UNL     1     -33.148   5.671   3.337  1.00 20.00     0.198 A 
HETATM    4  C4  UNL     1     -33.862   7.096   5.626  1.00 20.00     0.182 A 
HETATM    5  C5  UNL     1     -32.688   6.976   3.518  1.00 20.00     0.182 A 
HETATM    6  C6  UNL     1     -33.045   7.689   4.662  1.00 20.00     0.117 A 
HETATM    7  F7  UNL     1     -34.406   3.827   4.127  1.00 20.00    -0.199 F 
HETATM    8  F8  UNL     1     -35.105   5.225   6.371  1.00 20.00    -0.199 F 
HETATM    9  F9  UNL     1     -32.806   4.986   2.239  1.00 20.00    -0.199 F 
HETATM   10  F10 UNL     1     -34.213   7.769   6.731  1.00 20.00    -0.201 F 
HETATM   11  F11 UNL     1     -31.904   7.531   2.582  1.00 20.00    -0.201 F 
HETATM   12 CL12 UNL     1     -32.477   9.299   4.885  1.00 20.00    -0.077 Cl
ENDROOT
TORSDOF 0
ENDMDL
MODEL 5
REMARK VINA RESULT:      -6.7      1.900      3.265
REMARK  0 active torsions:
REMARK  status: ('A' for Active; 'I' for Inactive)
ROOT
HETATM    1  C1  UNL     1     -34.360   5.700   5.604  1.00 20.00     0.199 A 
HETATM    2  C2  UNL     1     -34.025   7.032   5.849  1.00 20.00     0.198 A 
HETATM    3  C3  UNL     1     -33.976   5.092   4.409  1.00 20.00     0.198 A 
HETATM    4  C4  UNL     1     -33.306   7.755   4.899  1.00 20.00     0.182 A 
HETATM    5  C5  UNL     1     -33.256   5.816   3.458  1.00 20.00     0.182 A 
HETATM    6  C6  UNL     1     -32.921   7.148   3.703  1.00 20.00     0.117 A 
HETATM    7  F7  UNL     1     -35.052   5.005   6.517  1.00 20.00    -0.199 F 
HETATM    8  F8  UNL     1     -34.394   7.615   6.997  1.00 20.00    -0.199 F 
HETATM    9  F9  UNL     1     -34.299   3.814   4.174  1.00 20.00    -0.199 F 
HETATM   10  F10 UNL     1     -32.991   9.034   5.149  1.00 20.00    -0.201 F 
HETATM   11  F11 UNL     1     -32.894   5.219   2.314  1.00 20.00    -0.201 F 
HETATM   12 CL12 UNL     1     -32.032   8.042   2.530  1.00 20.00    -0.077 Cl
ENDROOT
TORSDOF 0
ENDMDL
MODEL 6
REMARK VINA RESULT:      -6.7      1.900      4.440
REMARK  0 active torsions:
REMARK  status: ('A' for Active; 'I' for Inactive)
ROOT
HETATM    1  C1  UNL     1     -34.360   5.699   5.603  1.00 20.00     0.199 A 
HETATM    2  C2  UNL     1     -33.976   5.091   4.407  1.00 20.00     0.198 A 
HETATM    3  C3  UNL     1     -34.025   7.030   5.849  1.00 20.00     0.198 A 
HETATM    4  C4  UNL     1     -33.257   5.816   3.458  1.00 20.00     0.182 A 
HETATM    5  C5  UNL     1     -33.306   7.755   4.899  1.00 20.00     0.182 A 
HETATM    6  C6  UNL     1     -32.921   7.148   3.703  1.00 20.00     0.117 A 
HETATM    7  F7  UNL     1     -35.051   5.003   6.516  1.00 20.00    -0.199 F 
HETATM    8  F8  UNL     1     -34.297   3.813   4.172  1.00 20.00    -0.199 F 
HETATM    9  F9  UNL     1     -34.395   7.612   6.997  1.00 20.00    -0.199 F 
HETATM   10  F10 UNL     1     -32.894   5.219   2.314  1.00 20.00    -0.201 F 
HETATM   11  F11 UNL     1     -32.991   9.034   5.149  1.00 20.00    -0.201 F 
HETATM   12 CL12 UNL     1     -32.033   8.043   2.530  1.00 20.00    -0.077 Cl
ENDROOT
TORSDOF 0
ENDMDL
MODEL 7
REMARK VINA RESULT:      -6.6      1.875      4.140
REMARK  0 active torsions:
REMARK  status: ('A' for Active; 'I' for Inactive)
ROOT
HETATM    1  C1  UNL     1     -33.981   7.200   5.936  1.00 20.00     0.199 A 
HETATM    2  C2  UNL     1     -34.408   5.891   5.709  1.00 20.00     0.198 A 
HETATM    3  C3  UNL     1     -33.200   7.854   4.983  1.00 20.00     0.198 A 
HETATM    4  C4  UNL     1     -34.053   5.238   4.530  1.00 20.00     0.182 A 
HETATM    5  C5  UNL     1     -32.845   7.200   3.804  1.00 20.00     0.182 A 
HETATM    6  C6  UNL     1     -33.271   5.891   3.577  1.00 20.00     0.117 A 
HETATM    7  F7  UNL     1     -34.321   7.828   7.069  1.00 20.00    -0.199 F 
HETATM    8  F8  UNL     1     -35.157   5.263   6.624  1.00 20.00    -0.199 F 
HETATM    9  F9  UNL     1     -32.791   9.110   5.202  1.00 20.00    -0.199 F 
HETATM   10  F10 UNL     1     -34.470   3.980   4.326  1.00 20.00    -0.201 F 
HETATM   11  F11 UNL     1     -32.093   7.841   2.898  1.00 20.00    -0.201 F 
HETATM   12 CL12 UNL     1     -32.834   5.084   2.120  1.00 20.00    -0.077 Cl
ENDROOT
TORSDOF 0
ENDMDL
MODEL 8
REMARK VINA RESULT:      -6.6      1.875      3.267
REMARK  0 active torsions:
REMARK  status: ('A' for Active; 'I' for Inactive)
ROOT
HETATM    1  C1  UNL     1     -33.982   7.200   5.936  1.00 20.00     0.199 A 
HETATM    2  C2  UNL     1     -33.200   7.855   4.984  1.00 20.00     0.198 A 
HETATM    3  C3  UNL     1     -34.408   5.891   5.709  1.00 20.00     0.198 A 
HETATM    4  C4  UNL     1     -32.845   7.200   3.806  1.00 20.00     0.182 A 
HETATM    5  C5  UNL     1     -34.052   5.237   4.530  1.00 20.00     0.182 A 
HETATM    6  C6  UNL     1     -33.271   5.891   3.577  1.00 20.00     0.117 A 
HETATM    7  F7  UNL     1     -34.324   7.829   7.069  1.00 20.00    -0.199 F 
HETATM    8  F8  UNL     1     -32.791   9.111   5.202  1.00 20.00    -0.199 F 
HETATM    9  F9  UNL     1     -35.158   5.264   6.624  1.00 20.00    -0.199 F 
HETATM   10  F10 UNL     1     -32.093   7.842   2.899  1.00 20.00    -0.201 F 
HETATM   11  F11 UNL     1     -34.470   3.979   4.326  1.00 20.00    -0.201 F 
HETATM   12 CL12 UNL     1     -32.832   5.083   2.122  1.00 20.00    -0.077 Cl
ENDROOT
TORSDOF 0
ENDMDL
MODEL 9
REMARK VINA RESULT:      -6.2      1.120      3.136
REMARK  0 active torsions:
REMARK  status: ('A' for Active; 'I' for Inactive)
ROOT
HETATM    1  C1  UNL     1     -32.692   8.421   3.898  1.00 20.00     0.199 A 
HETATM    2  C2  UNL     1     -32.461   7.381   2.996  1.00 20.00     0.198 A 
HETATM    3  C3  UNL     1     -33.447   8.192   5.047  1.00 20.00     0.198 A 
HETATM    4  C4  UNL     1     -32.985   6.114   3.246  1.00 20.00     0.182 A 
HETATM    5  C5  UNL     1     -33.972   6.924   5.297  1.00 20.00     0.182 A 
HETATM    6  C6  UNL     1     -33.741   5.884   4.396  1.00 20.00     0.117 A 
HETATM    7  F7  UNL     1     -32.189   9.639   3.658  1.00 20.00    -0.199 F 
HETATM    8  F8  UNL     1     -31.736   7.600   1.892  1.00 20.00    -0.199 F 
HETATM    9  F9  UNL     1     -33.669   9.191   5.912  1.00 20.00    -0.199 F 
HETATM   10  F10 UNL     1     -32.755   5.124   2.370  1.00 20.00    -0.201 F 
HETATM   11  F11 UNL     1     -34.696   6.719   6.407  1.00 20.00    -0.201 F 
HETATM   12 CL12 UNL     1     -34.388   4.319   4.704  1.00 20.00    -0.077 Cl
ENDROOT
TORSDOF 0
ENDMDL
