MODEL 1
REMARK VINA RESULT:      -3.1      0.000      0.000
REMARK  3 active torsions:
REMARK  status: ('A' for Active; 'I' for Inactive)
REMARK    1  A    between atoms: C3_3  and  S5_5 
REMARK    2  A    between atoms: C4_4  and  S6_6 
REMARK    3  A    between atoms: S5_5  and  S6_6 
ROOT
HETATM    1  S5  UNL     1     -35.064   5.747   4.806  1.00 20.00    -0.098 SA
ENDROOT
BRANCH   1   2
HETATM    2  C3  UNL     1     -33.874   4.589   4.087  1.00 20.00     0.081 C 
HETATM    3  C1  UNL     1     -33.170   5.218   2.900  1.00 20.00     0.017 C 
ENDBRANCH   1   2
BRANCH   1   4
HETATM    4  S6  UNL     1     -33.870   6.839   6.077  1.00 20.00    -0.098 SA
BRANCH   4   5
HETATM    5  C4  UNL     1     -33.616   8.358   5.127  1.00 20.00     0.081 C 
HETATM    6  C2  UNL     1     -32.227   8.380   4.519  1.00 20.00     0.017 C 
ENDBRANCH   4   5
ENDBRANCH   1   4
TORSDOF 3
ENDMDL
MODEL 2
REMARK VINA RESULT:      -3.1      0.033      3.323
REMARK  3 active torsions:
REMARK  status: ('A' for Active; 'I' for Inactive)
REMARK    1  A    between atoms: C3_3  and  S5_5 
REMARK    2  A    between atoms: C4_4  and  S6_6 
REMARK    3  A    between atoms: S5_5  and  S6_6 
ROOT
HETATM    1  S5  UNL     1     -33.867   6.848   6.061  1.00 20.00    -0.098 SA
ENDROOT
BRANCH   1   2
HETATM    2  C3  UNL     1     -33.617   8.343   5.073  1.00 20.00     0.081 C 
HETATM    3  C1  UNL     1     -32.202   8.390   4.529  1.00 20.00     0.017 C 
ENDBRANCH   1   2
BRANCH   1   4
HETATM    4  S6  UNL     1     -35.072   5.727   4.827  1.00 20.00    -0.098 SA
BRANCH   4   5
HETATM    5  C4  UNL     1     -33.883   4.572   4.103  1.00 20.00     0.081 C 
HETATM    6  C2  UNL     1     -33.183   5.204   2.915  1.00 20.00     0.017 C 
ENDBRANCH   4   5
ENDBRANCH   1   4
TORSDOF 3
ENDMDL
MODEL 3
REMARK VINA RESULT:      -3.0      2.047      2.898
REMARK  3 active torsions:
REMARK  status: ('A' for Active; 'I' for Inactive)
REMARK    1  A    between atoms: C3_3  and  S5_5 
REMARK    2  A    between atoms: C4_4  and  S6_6 
REMARK    3  A    between atoms: S5_5  and  S6_6 
ROOT
HETATM    1  S5  UNL     1     -32.236   8.175   4.274  1.00 20.00    -0.098 SA
ENDROOT
BRANCH   1   2
HETATM    2  C3  UNL     1     -32.214   7.287   2.698  1.00 20.00     0.081 C 
HETATM    3  C1  UNL     1     -32.812   5.902   2.859  1.00 20.00     0.017 C 
ENDBRANCH   1   2
BRANCH   1   4
HETATM    4  S6  UNL     1     -34.153   7.819   4.928  1.00 20.00    -0.098 SA
BRANCH   4   5
HETATM    5  C4  UNL     1     -33.860   6.761   6.366  1.00 20.00     0.081 C 
HETATM    6  C2  UNL     1     -34.606   5.448   6.222  1.00 20.00     0.017 C 
ENDBRANCH   4   5
ENDBRANCH   1   4
TORSDOF 3
ENDMDL
MODEL 4
REMARK VINA RESULT:      -3.0      2.042      2.995
REMARK  3 active torsions:
REMARK  status: ('A' for Active; 'I' for Inactive)
REMARK    1  A    between atoms: C3_3  and  S5_5 
REMARK    2  A    between atoms: C4_4  and  S6_6 
REMARK    3  A    between atoms: S5_5  and  S6_6 
ROOT
HETATM    1  S5  UNL     1     -34.193   7.772   4.895  1.00 20.00    -0.098 SA
ENDROOT
BRANCH   1   2
HETATM    2  C3  UNL     1     -33.898   6.769   6.371  1.00 20.00     0.081 C 
HETATM    3  C1  UNL     1     -34.593   5.426   6.251  1.00 20.00     0.017 C 
ENDBRANCH   1   2
BRANCH   1   4
HETATM    4  S6  UNL     1     -32.275   8.198   4.288  1.00 20.00    -0.098 SA
BRANCH   4   5
HETATM    5  C4  UNL     1     -32.168   7.277   2.734  1.00 20.00     0.081 C 
HETATM    6  C2  UNL     1     -32.835   5.922   2.871  1.00 20.00     0.017 C 
ENDBRANCH   4   5
ENDBRANCH   1   4
TORSDOF 3
ENDMDL
MODEL 5
REMARK VINA RESULT:      -3.0      1.537      2.046
REMARK  3 active torsions:
REMARK  status: ('A' for Active; 'I' for Inactive)
REMARK    1  A    between atoms: C3_3  and  S5_5 
REMARK    2  A    between atoms: C4_4  and  S6_6 
REMARK    3  A    between atoms: S5_5  and  S6_6 
ROOT
HETATM    1  S5  UNL     1     -33.695   6.787   6.439  1.00 20.00    -0.098 SA
ENDROOT
BRANCH   1   2
HETATM    2  C3  UNL     1     -34.825   5.461   5.952  1.00 20.00     0.081 C 
HETATM    3  C1  UNL     1     -34.437   4.900   4.598  1.00 20.00     0.017 C 
ENDBRANCH   1   2
BRANCH   1   4
HETATM    4  S6  UNL     1     -33.881   8.096   4.863  1.00 20.00    -0.098 SA
BRANCH   4   5
HETATM    5  C4  UNL     1     -32.202   8.103   4.191  1.00 20.00     0.081 C 
HETATM    6  C2  UNL     1     -32.147   7.332   2.886  1.00 20.00     0.017 C 
ENDBRANCH   4   5
ENDBRANCH   1   4
TORSDOF 3
ENDMDL
MODEL 6
REMARK VINA RESULT:      -2.9      1.531      3.018
REMARK  3 active torsions:
REMARK  status: ('A' for Active; 'I' for Inactive)
REMARK    1  A    between atoms: C3_3  and  S5_5 
REMARK    2  A    between atoms: C4_4  and  S6_6 
REMARK    3  A    between atoms: S5_5  and  S6_6 
ROOT
HETATM    1  S5  UNL     1     -33.921   8.045   4.811  1.00 20.00    -0.098 SA
ENDROOT
BRANCH   1   2
HETATM    2  C3  UNL     1     -32.221   8.066   4.192  1.00 20.00     0.081 C 
HETATM    3  C1  UNL     1     -32.129   7.341   2.863  1.00 20.00     0.017 C 
ENDBRANCH   1   2
BRANCH   1   4
HETATM    4  S6  UNL     1     -33.754   6.819   6.453  1.00 20.00    -0.098 SA
BRANCH   4   5
HETATM    5  C4  UNL     1     -34.798   5.421   5.976  1.00 20.00     0.081 C 
HETATM    6  C2  UNL     1     -34.440   4.939   4.583  1.00 20.00     0.017 C 
ENDBRANCH   4   5
ENDBRANCH   1   4
TORSDOF 3
ENDMDL
MODEL 7
REMARK VINA RESULT:      -2.9      1.853      2.376
REMARK  3 active torsions:
REMARK  status: ('A' for Active; 'I' for Inactive)
REMARK    1  A    between atoms: C3_3  and  S5_5 
REMARK    2  A    between atoms: C4_4  and  S6_6 
REMARK    3  A    between atoms: S5_5  and  S6_6 
ROOT
HETATM    1  S5  UNL     1     -33.739   7.163   5.950  1.00 20.00    -0.098 SA
ENDROOT
BRANCH   1   2
HETATM    2  C3  UNL     1     -34.810   6.250   4.813  1.00 20.00     0.081 C 
HETATM    3  C1  UNL     1     -34.524   4.763   4.890  1.00 20.00     0.017 C 
ENDBRANCH   1   2
BRANCH   1   4
HETATM    4  S6  UNL     1     -32.679   8.360   4.655  1.00 20.00    -0.098 SA
BRANCH   4   5
HETATM    5  C4  UNL     1     -32.326   7.215   3.300  1.00 20.00     0.081 C 
HETATM    6  C2  UNL     1     -32.218   7.962   1.985  1.00 20.00     0.017 C 
ENDBRANCH   4   5
ENDBRANCH   1   4
TORSDOF 3
ENDMDL
MODEL 8
REMARK VINA RESULT:      -2.7      2.002      2.301
REMARK  3 active torsions:
REMARK  status: ('A' for Active; 'I' for Inactive)
REMARK    1  A    between atoms: C3_3  and  S5_5 
REMARK    2  A    between atoms: C4_4  and  S6_6 
REMARK    3  A    between atoms: S5_5  and  S6_6 
ROOT
HETATM    1  S5  UNL     1     -33.743   5.120   3.690  1.00 20.00    -0.098 SA
ENDROOT
BRANCH   1   2
HETATM    2  C3  UNL     1     -34.927   5.854   4.845  1.00 20.00     0.081 C 
HETATM    3  C1  UNL     1     -34.609   5.437   6.268  1.00 20.00     0.017 C 
ENDBRANCH   1   2
BRANCH   1   4
HETATM    4  S6  UNL     1     -32.629   6.757   3.135  1.00 20.00    -0.098 SA
BRANCH   4   5
HETATM    5  C4  UNL     1     -33.355   8.060   4.159  1.00 20.00     0.081 C 
HETATM    6  C2  UNL     1     -32.273   8.820   4.901  1.00 20.00     0.017 C 
ENDBRANCH   4   5
ENDBRANCH   1   4
TORSDOF 3
ENDMDL
MODEL 9
REMARK VINA RESULT:      -2.7      2.006      3.519
REMARK  3 active torsions:
REMARK  status: ('A' for Active; 'I' for Inactive)
REMARK    1  A    between atoms: C3_3  and  S5_5 
REMARK    2  A    between atoms: C4_4  and  S6_6 
REMARK    3  A    between atoms: S5_5  and  S6_6 
ROOT
HETATM    1  S5  UNL     1     -32.605   6.798   3.134  1.00 20.00    -0.098 SA
ENDROOT
BRANCH   1   2
HETATM    2  C3  UNL     1     -33.347   8.099   4.149  1.00 20.00     0.081 C 
HETATM    3  C1  UNL     1     -32.279   8.835   4.935  1.00 20.00     0.017 C 
ENDBRANCH   1   2
BRANCH   1   4
HETATM    4  S6  UNL     1     -33.716   5.155   3.681  1.00 20.00    -0.098 SA
BRANCH   4   5
HETATM    5  C4  UNL     1     -34.911   5.885   4.826  1.00 20.00     0.081 C 
HETATM    6  C2  UNL     1     -34.614   5.456   6.250  1.00 20.00     0.017 C 
ENDBRANCH   4   5
ENDBRANCH   1   4
TORSDOF 3
ENDMDL
