MODEL 1
REMARK VINA RESULT:      -4.0      0.000      0.000
REMARK  1 active torsions:
REMARK  status: ('A' for Active; 'I' for Inactive)
REMARK    1  A    between atoms: C4_4  and  S7_7 
ROOT
HETATM    1  C1  UNL     1     -34.705   5.714   6.425  1.00 20.00     0.009 A 
HETATM    2  C2  UNL     1     -33.951   6.915   6.295  1.00 20.00     0.026 A 
HETATM    3  C3  UNL     1     -34.766   5.011   5.241  1.00 20.00     0.051 A 
HETATM    4  C4  UNL     1     -33.463   7.086   5.018  1.00 20.00     0.040 A 
HETATM    5  S6  UNL     1     -33.916   5.800   3.981  1.00 20.00    -0.095 SA
ENDROOT
BRANCH   4   6
HETATM    6  S7  UNL     1     -32.489   8.432   4.457  1.00 20.00    -0.127 SA
HETATM    7  C5  UNL     1     -32.152   7.908   2.756  1.00 20.00     0.096 C 
ENDBRANCH   4   6
TORSDOF 1
ENDMDL
MODEL 2
REMARK VINA RESULT:      -3.9      1.232      1.597
REMARK  1 active torsions:
REMARK  status: ('A' for Active; 'I' for Inactive)
REMARK    1  A    between atoms: C4_4  and  S7_7 
ROOT
HETATM    1  C1  UNL     1     -34.680   4.969   4.877  1.00 20.00     0.009 A 
HETATM    2  C2  UNL     1     -33.963   5.850   4.018  1.00 20.00     0.026 A 
HETATM    3  C3  UNL     1     -34.758   5.451   6.165  1.00 20.00     0.051 A 
HETATM    4  C4  UNL     1     -33.520   6.974   4.681  1.00 20.00     0.040 A 
HETATM    5  S6  UNL     1     -33.969   6.962   6.334  1.00 20.00    -0.095 SA
ENDROOT
BRANCH   4   6
HETATM    6  S7  UNL     1     -32.606   8.294   3.976  1.00 20.00    -0.127 SA
HETATM    7  C5  UNL     1     -32.172   7.576   2.372  1.00 20.00     0.096 C 
ENDBRANCH   4   6
TORSDOF 1
ENDMDL
MODEL 3
REMARK VINA RESULT:      -3.8      1.522      1.868
REMARK  1 active torsions:
REMARK  status: ('A' for Active; 'I' for Inactive)
REMARK    1  A    between atoms: C4_4  and  S7_7 
ROOT
HETATM    1  C1  UNL     1     -34.776   4.891   5.012  1.00 20.00     0.009 A 
HETATM    2  C2  UNL     1     -34.026   5.584   4.019  1.00 20.00     0.026 A 
HETATM    3  C3  UNL     1     -34.765   5.551   6.222  1.00 20.00     0.051 A 
HETATM    4  C4  UNL     1     -33.471   6.747   4.506  1.00 20.00     0.040 A 
HETATM    5  S6  UNL     1     -33.854   6.999   6.156  1.00 20.00    -0.095 SA
ENDROOT
BRANCH   4   6
HETATM    6  S7  UNL     1     -32.483   7.877   3.599  1.00 20.00    -0.127 SA
HETATM    7  C5  UNL     1     -32.185   9.141   4.861  1.00 20.00     0.096 C 
ENDBRANCH   4   6
TORSDOF 1
ENDMDL
MODEL 4
REMARK VINA RESULT:      -3.7      1.056      1.056
REMARK  1 active torsions:
REMARK  status: ('A' for Active; 'I' for Inactive)
REMARK    1  A    between atoms: C4_4  and  S7_7 
ROOT
HETATM    1  C1  UNL     1     -34.611   6.027   6.486  1.00 20.00     0.009 A 
HETATM    2  C2  UNL     1     -33.837   7.099   5.956  1.00 20.00     0.026 A 
HETATM    3  C3  UNL     1     -34.805   5.023   5.563  1.00 20.00     0.051 A 
HETATM    4  C4  UNL     1     -33.468   6.874   4.647  1.00 20.00     0.040 A 
HETATM    5  S6  UNL     1     -34.056   5.375   4.064  1.00 20.00    -0.095 SA
ENDROOT
BRANCH   4   6
HETATM    6  S7  UNL     1     -32.513   7.951   3.645  1.00 20.00    -0.127 SA
HETATM    7  C5  UNL     1     -32.091   9.235   4.850  1.00 20.00     0.096 C 
ENDBRANCH   4   6
TORSDOF 1
ENDMDL
MODEL 5
REMARK VINA RESULT:      -3.6      1.151      3.843
REMARK  1 active torsions:
REMARK  status: ('A' for Active; 'I' for Inactive)
REMARK    1  A    between atoms: C4_4  and  S7_7 
ROOT
HETATM    1  C1  UNL     1     -32.045   7.635   3.008  1.00 20.00     0.009 A 
HETATM    2  C2  UNL     1     -32.833   6.456   3.140  1.00 20.00     0.026 A 
HETATM    3  C3  UNL     1     -32.296   8.541   4.016  1.00 20.00     0.051 A 
HETATM    4  C4  UNL     1     -33.656   6.503   4.244  1.00 20.00     0.040 A 
HETATM    5  S6  UNL     1     -33.477   7.967   5.115  1.00 20.00    -0.095 SA
ENDROOT
BRANCH   4   6
HETATM    6  S7  UNL     1     -34.774   5.251   4.752  1.00 20.00    -0.127 SA
HETATM    7  C5  UNL     1     -34.610   5.373   6.551  1.00 20.00     0.096 C 
ENDBRANCH   4   6
TORSDOF 1
ENDMDL
MODEL 6
REMARK VINA RESULT:      -3.5      1.273      3.507
REMARK  1 active torsions:
REMARK  status: ('A' for Active; 'I' for Inactive)
REMARK    1  A    between atoms: C4_4  and  S7_7 
ROOT
HETATM    1  C1  UNL     1     -32.453   8.780   4.832  1.00 20.00     0.009 A 
HETATM    2  C2  UNL     1     -33.476   7.911   5.309  1.00 20.00     0.026 A 
HETATM    3  C3  UNL     1     -31.904   8.333   3.649  1.00 20.00     0.051 A 
HETATM    4  C4  UNL     1     -33.672   6.833   4.474  1.00 20.00     0.040 A 
HETATM    5  S6  UNL     1     -32.623   6.872   3.120  1.00 20.00    -0.095 SA
ENDROOT
BRANCH   4   6
HETATM    6  S7  UNL     1     -34.838   5.545   4.709  1.00 20.00    -0.127 SA
HETATM    7  C5  UNL     1     -34.672   5.271   6.491  1.00 20.00     0.096 C 
ENDBRANCH   4   6
TORSDOF 1
ENDMDL
MODEL 7
REMARK VINA RESULT:      -3.0     16.009     16.599
REMARK  1 active torsions:
REMARK  status: ('A' for Active; 'I' for Inactive)
REMARK    1  A    between atoms: C4_4  and  S7_7 
ROOT
HETATM    1  C1  UNL     1     -24.287  16.813  11.152  1.00 20.00     0.009 A 
HETATM    2  C2  UNL     1     -23.478  17.224  10.054  1.00 20.00     0.026 A 
HETATM    3  C3  UNL     1     -23.900  17.410  12.332  1.00 20.00     0.051 A 
HETATM    4  C4  UNL     1     -22.504  18.121  10.435  1.00 20.00     0.040 A 
HETATM    5  S6  UNL     1     -22.567  18.462  12.112  1.00 20.00    -0.095 SA
ENDROOT
BRANCH   4   6
HETATM    6  S7  UNL     1     -21.314  18.861   9.380  1.00 20.00    -0.127 SA
HETATM    7  C5  UNL     1     -21.537  17.868   7.883  1.00 20.00     0.096 C 
ENDBRANCH   4   6
TORSDOF 1
ENDMDL
MODEL 8
REMARK VINA RESULT:      -2.9     12.649     13.581
REMARK  1 active torsions:
REMARK  status: ('A' for Active; 'I' for Inactive)
REMARK    1  A    between atoms: C4_4  and  S7_7 
ROOT
HETATM    1  C1  UNL     1     -32.792  17.761  -1.530  1.00 20.00     0.009 A 
HETATM    2  C2  UNL     1     -33.382  16.732  -2.320  1.00 20.00     0.026 A 
HETATM    3  C3  UNL     1     -32.635  18.932  -2.238  1.00 20.00     0.051 A 
HETATM    4  C4  UNL     1     -33.654  17.156  -3.602  1.00 20.00     0.040 A 
HETATM    5  S6  UNL     1     -33.199  18.789  -3.849  1.00 20.00    -0.095 SA
ENDROOT
BRANCH   4   6
HETATM    6  S7  UNL     1     -34.380  16.192  -4.875  1.00 20.00    -0.127 SA
HETATM    7  C5  UNL     1     -34.009  14.523  -4.276  1.00 20.00     0.096 C 
ENDBRANCH   4   6
TORSDOF 1
ENDMDL
MODEL 9
REMARK VINA RESULT:      -2.9     12.966     13.537
REMARK  1 active torsions:
REMARK  status: ('A' for Active; 'I' for Inactive)
REMARK    1  A    between atoms: C4_4  and  S7_7 
ROOT
HETATM    1  C1  UNL     1     -33.363  16.875  -2.385  1.00 20.00     0.009 A 
HETATM    2  C2  UNL     1     -33.325  15.909  -3.431  1.00 20.00     0.026 A 
HETATM    3  C3  UNL     1     -34.192  17.934  -2.688  1.00 20.00     0.051 A 
HETATM    4  C4  UNL     1     -34.127  16.264  -4.493  1.00 20.00     0.040 A 
HETATM    5  S6  UNL     1     -34.921  17.759  -4.227  1.00 20.00    -0.095 SA
ENDROOT
BRANCH   4   6
HETATM    6  S7  UNL     1     -34.354  15.342  -5.967  1.00 20.00    -0.127 SA
HETATM    7  C5  UNL     1     -35.888  14.463  -5.574  1.00 20.00     0.096 C 
ENDBRANCH   4   6
TORSDOF 1
ENDMDL
