MODEL 1
REMARK VINA RESULT:      -5.1      0.000      0.000
REMARK  0 active torsions:
REMARK  status: ('A' for Active; 'I' for Inactive)
ROOT
HETATM    1  C1  UNL     1     -33.557   7.445   5.387  1.00 20.00     0.007 A 
HETATM    2  C2  UNL     1     -32.862   7.988   4.305  1.00 20.00     0.007 A 
HETATM    3  C3  UNL     1     -33.924   5.413   4.133  1.00 20.00     0.007 A 
HETATM    4  C4  UNL     1     -33.230   5.956   3.051  1.00 20.00     0.007 A 
HETATM    5  C5  UNL     1     -34.087   6.158   5.301  1.00 20.00    -0.062 A 
HETATM    6  C6  UNL     1     -32.699   7.242   3.137  1.00 20.00    -0.062 A 
HETATM    7  C7  UNL     1     -34.830   5.577   6.456  1.00 20.00     0.048 C 
HETATM    8  C8  UNL     1     -31.959   7.824   1.980  1.00 20.00     0.048 C 
ENDROOT
TORSDOF 0
ENDMDL
MODEL 2
REMARK VINA RESULT:      -5.1      0.062      3.764
REMARK  0 active torsions:
REMARK  status: ('A' for Active; 'I' for Inactive)
ROOT
HETATM    1  C1  UNL     1     -33.189   5.957   3.000  1.00 20.00     0.007 A 
HETATM    2  C2  UNL     1     -33.879   5.398   4.077  1.00 20.00     0.007 A 
HETATM    3  C3  UNL     1     -32.880   7.997   4.257  1.00 20.00     0.007 A 
HETATM    4  C4  UNL     1     -33.570   7.438   5.333  1.00 20.00     0.007 A 
HETATM    5  C5  UNL     1     -32.690   7.256   3.090  1.00 20.00    -0.062 A 
HETATM    6  C6  UNL     1     -34.069   6.139   5.243  1.00 20.00    -0.062 A 
HETATM    7  C7  UNL     1     -31.953   7.855   1.940  1.00 20.00     0.048 C 
HETATM    8  C8  UNL     1     -34.808   5.542   6.393  1.00 20.00     0.048 C 
ENDROOT
TORSDOF 0
ENDMDL
MODEL 3
REMARK VINA RESULT:      -5.1      0.045      3.354
REMARK  0 active torsions:
REMARK  status: ('A' for Active; 'I' for Inactive)
ROOT
HETATM    1  C1  UNL     1     -32.884   7.983   4.268  1.00 20.00     0.007 A 
HETATM    2  C2  UNL     1     -33.577   7.431   5.346  1.00 20.00     0.007 A 
HETATM    3  C3  UNL     1     -33.205   5.941   3.016  1.00 20.00     0.007 A 
HETATM    4  C4  UNL     1     -33.898   5.390   4.094  1.00 20.00     0.007 A 
HETATM    5  C5  UNL     1     -32.698   7.238   3.104  1.00 20.00    -0.062 A 
HETATM    6  C6  UNL     1     -34.084   6.134   5.259  1.00 20.00    -0.062 A 
HETATM    7  C7  UNL     1     -31.957   7.826   1.950  1.00 20.00     0.048 C 
HETATM    8  C8  UNL     1     -34.823   5.544   6.412  1.00 20.00     0.048 C 
ENDROOT
TORSDOF 0
ENDMDL
MODEL 4
REMARK VINA RESULT:      -5.1      0.034      1.708
REMARK  0 active torsions:
REMARK  status: ('A' for Active; 'I' for Inactive)
ROOT
HETATM    1  C1  UNL     1     -33.893   5.398   4.109  1.00 20.00     0.007 A 
HETATM    2  C2  UNL     1     -33.203   5.955   3.032  1.00 20.00     0.007 A 
HETATM    3  C3  UNL     1     -33.579   7.437   5.366  1.00 20.00     0.007 A 
HETATM    4  C4  UNL     1     -32.889   7.994   4.289  1.00 20.00     0.007 A 
HETATM    5  C5  UNL     1     -34.081   6.139   5.276  1.00 20.00    -0.062 A 
HETATM    6  C6  UNL     1     -32.701   7.254   3.123  1.00 20.00    -0.062 A 
HETATM    7  C7  UNL     1     -34.818   5.544   6.428  1.00 20.00     0.048 C 
HETATM    8  C8  UNL     1     -31.962   7.848   1.972  1.00 20.00     0.048 C 
ENDROOT
TORSDOF 0
ENDMDL
MODEL 5
REMARK VINA RESULT:      -4.5      0.891      2.194
REMARK  0 active torsions:
REMARK  status: ('A' for Active; 'I' for Inactive)
ROOT
HETATM    1  C1  UNL     1     -32.606   7.888   3.973  1.00 20.00     0.007 A 
HETATM    2  C2  UNL     1     -32.394   6.883   3.029  1.00 20.00     0.007 A 
HETATM    3  C3  UNL     1     -34.282   6.524   5.051  1.00 20.00     0.007 A 
HETATM    4  C4  UNL     1     -34.071   5.518   4.107  1.00 20.00     0.007 A 
HETATM    5  C5  UNL     1     -33.550   7.709   4.983  1.00 20.00    -0.062 A 
HETATM    6  C6  UNL     1     -33.127   5.698   3.097  1.00 20.00    -0.062 A 
HETATM    7  C7  UNL     1     -33.777   8.783   5.993  1.00 20.00     0.048 C 
HETATM    8  C8  UNL     1     -32.901   4.624   2.086  1.00 20.00     0.048 C 
ENDROOT
TORSDOF 0
ENDMDL
MODEL 6
REMARK VINA RESULT:      -4.5      0.893      2.896
REMARK  0 active torsions:
REMARK  status: ('A' for Active; 'I' for Inactive)
ROOT
HETATM    1  C1  UNL     1     -32.394   6.868   3.023  1.00 20.00     0.007 A 
HETATM    2  C2  UNL     1     -32.597   7.878   3.964  1.00 20.00     0.007 A 
HETATM    3  C3  UNL     1     -34.068   5.511   4.115  1.00 20.00     0.007 A 
HETATM    4  C4  UNL     1     -34.272   6.521   5.056  1.00 20.00     0.007 A 
HETATM    5  C5  UNL     1     -33.129   5.685   3.098  1.00 20.00    -0.062 A 
HETATM    6  C6  UNL     1     -33.537   7.704   4.981  1.00 20.00    -0.062 A 
HETATM    7  C7  UNL     1     -32.912   4.605   2.093  1.00 20.00     0.048 C 
HETATM    8  C8  UNL     1     -33.753   8.783   5.988  1.00 20.00     0.048 C 
ENDROOT
TORSDOF 0
ENDMDL
MODEL 7
REMARK VINA RESULT:      -4.5      0.889      2.413
REMARK  0 active torsions:
REMARK  status: ('A' for Active; 'I' for Inactive)
ROOT
HETATM    1  C1  UNL     1     -34.287   6.529   5.051  1.00 20.00     0.007 A 
HETATM    2  C2  UNL     1     -34.075   5.526   4.104  1.00 20.00     0.007 A 
HETATM    3  C3  UNL     1     -32.612   7.898   3.975  1.00 20.00     0.007 A 
HETATM    4  C4  UNL     1     -32.401   6.895   3.028  1.00 20.00     0.007 A 
HETATM    5  C5  UNL     1     -33.555   7.714   4.986  1.00 20.00    -0.062 A 
HETATM    6  C6  UNL     1     -33.132   5.710   3.092  1.00 20.00    -0.062 A 
HETATM    7  C7  UNL     1     -33.780   8.787   5.997  1.00 20.00     0.048 C 
HETATM    8  C8  UNL     1     -32.905   4.637   2.082  1.00 20.00     0.048 C 
ENDROOT
TORSDOF 0
ENDMDL
MODEL 8
REMARK VINA RESULT:      -4.5      0.889      3.072
REMARK  0 active torsions:
REMARK  status: ('A' for Active; 'I' for Inactive)
ROOT
HETATM    1  C1  UNL     1     -34.080   5.535   4.113  1.00 20.00     0.007 A 
HETATM    2  C2  UNL     1     -34.290   6.537   5.061  1.00 20.00     0.007 A 
HETATM    3  C3  UNL     1     -32.392   6.895   3.047  1.00 20.00     0.007 A 
HETATM    4  C4  UNL     1     -32.602   7.897   3.994  1.00 20.00     0.007 A 
HETATM    5  C5  UNL     1     -33.132   5.714   3.107  1.00 20.00    -0.062 A 
HETATM    6  C6  UNL     1     -33.550   7.719   5.000  1.00 20.00    -0.062 A 
HETATM    7  C7  UNL     1     -32.907   4.643   2.093  1.00 20.00     0.048 C 
HETATM    8  C8  UNL     1     -33.776   8.791   6.012  1.00 20.00     0.048 C 
ENDROOT
TORSDOF 0
ENDMDL
MODEL 9
REMARK VINA RESULT:      -3.8     16.120     16.839
REMARK  0 active torsions:
REMARK  status: ('A' for Active; 'I' for Inactive)
ROOT
HETATM    1  C1  UNL     1     -24.988  18.973  10.241  1.00 20.00     0.007 A 
HETATM    2  C2  UNL     1     -23.763  18.892   9.577  1.00 20.00     0.007 A 
HETATM    3  C3  UNL     1     -23.889  18.464  12.332  1.00 20.00     0.007 A 
HETATM    4  C4  UNL     1     -22.665  18.384  11.668  1.00 20.00     0.007 A 
HETATM    5  C5  UNL     1     -25.051  18.759  11.617  1.00 20.00    -0.062 A 
HETATM    6  C6  UNL     1     -22.601  18.598  10.292  1.00 20.00    -0.062 A 
HETATM    7  C7  UNL     1     -26.359  18.844  12.328  1.00 20.00     0.048 C 
HETATM    8  C8  UNL     1     -21.293  18.510   9.582  1.00 20.00     0.048 C 
ENDROOT
TORSDOF 0
ENDMDL
