MODEL 1
REMARK VINA RESULT:      -6.4      0.000      0.000
REMARK  0 active torsions:
REMARK  status: ('A' for Active; 'I' for Inactive)
ROOT
HETATM    1  C1  UNL     1     -34.771   5.381   5.994  1.00 20.00     0.001 A 
HETATM    2  C2  UNL     1     -34.423   6.653   6.447  1.00 20.00     0.001 A 
HETATM    3  C3  UNL     1     -34.342   4.945   4.740  1.00 20.00     0.007 A 
HETATM    4  C4  UNL     1     -33.646   7.490   5.646  1.00 20.00     0.007 A 
HETATM    5  C5  UNL     1     -33.565   5.782   3.939  1.00 20.00    -0.056 A 
HETATM    6  C6  UNL     1     -33.217   7.054   4.392  1.00 20.00    -0.056 A 
HETATM    7  C7  UNL     1     -33.117   5.294   2.600  1.00 20.00     0.049 C 
HETATM    8  C8  UNL     1     -32.387   7.969   3.552  1.00 20.00     0.049 C 
ENDROOT
TORSDOF 0
ENDMDL
MODEL 2
REMARK VINA RESULT:      -6.4      0.034      2.251
REMARK  0 active torsions:
REMARK  status: ('A' for Active; 'I' for Inactive)
ROOT
HETATM    1  C1  UNL     1     -34.429   6.637   6.464  1.00 20.00     0.001 A 
HETATM    2  C2  UNL     1     -34.760   5.365   5.998  1.00 20.00     0.001 A 
HETATM    3  C3  UNL     1     -33.664   7.494   5.672  1.00 20.00     0.007 A 
HETATM    4  C4  UNL     1     -34.326   4.949   4.740  1.00 20.00     0.007 A 
HETATM    5  C5  UNL     1     -33.230   7.077   4.413  1.00 20.00    -0.056 A 
HETATM    6  C6  UNL     1     -33.560   5.805   3.948  1.00 20.00    -0.056 A 
HETATM    7  C7  UNL     1     -32.412   8.011   3.582  1.00 20.00     0.049 C 
HETATM    8  C8  UNL     1     -33.106   5.337   2.604  1.00 20.00     0.049 C 
ENDROOT
TORSDOF 0
ENDMDL
MODEL 3
REMARK VINA RESULT:      -6.1      0.936      2.326
REMARK  0 active torsions:
REMARK  status: ('A' for Active; 'I' for Inactive)
ROOT
HETATM    1  C1  UNL     1     -34.665   5.962   6.243  1.00 20.00     0.001 A 
HETATM    2  C2  UNL     1     -34.667   5.085   5.159  1.00 20.00     0.001 A 
HETATM    3  C3  UNL     1     -33.953   7.160   6.171  1.00 20.00     0.007 A 
HETATM    4  C4  UNL     1     -33.956   5.406   4.002  1.00 20.00     0.007 A 
HETATM    5  C5  UNL     1     -33.242   7.480   5.014  1.00 20.00    -0.056 A 
HETATM    6  C6  UNL     1     -33.244   6.603   3.930  1.00 20.00    -0.056 A 
HETATM    7  C7  UNL     1     -32.488   8.768   4.959  1.00 20.00     0.049 C 
HETATM    8  C8  UNL     1     -32.490   6.924   2.681  1.00 20.00     0.049 C 
ENDROOT
TORSDOF 0
ENDMDL
MODEL 4
REMARK VINA RESULT:      -6.1      0.954      1.092
REMARK  0 active torsions:
REMARK  status: ('A' for Active; 'I' for Inactive)
ROOT
HETATM    1  C1  UNL     1     -34.686   5.099   5.205  1.00 20.00     0.001 A 
HETATM    2  C2  UNL     1     -34.675   5.985   6.282  1.00 20.00     0.001 A 
HETATM    3  C3  UNL     1     -33.980   5.405   4.042  1.00 20.00     0.007 A 
HETATM    4  C4  UNL     1     -33.957   7.178   6.196  1.00 20.00     0.007 A 
HETATM    5  C5  UNL     1     -33.262   6.598   3.955  1.00 20.00    -0.056 A 
HETATM    6  C6  UNL     1     -33.251   7.484   5.032  1.00 20.00    -0.056 A 
HETATM    7  C7  UNL     1     -32.512   6.904   2.700  1.00 20.00     0.049 C 
HETATM    8  C8  UNL     1     -32.490   8.768   4.963  1.00 20.00     0.049 C 
ENDROOT
TORSDOF 0
ENDMDL
MODEL 5
REMARK VINA RESULT:      -6.0      0.824      2.717
REMARK  0 active torsions:
REMARK  status: ('A' for Active; 'I' for Inactive)
ROOT
HETATM    1  C1  UNL     1     -33.169   8.503   5.307  1.00 20.00     0.001 A 
HETATM    2  C2  UNL     1     -32.313   8.542   4.207  1.00 20.00     0.001 A 
HETATM    3  C3  UNL     1     -33.973   7.383   5.526  1.00 20.00     0.007 A 
HETATM    4  C4  UNL     1     -32.260   7.462   3.326  1.00 20.00     0.007 A 
HETATM    5  C5  UNL     1     -33.920   6.303   4.645  1.00 20.00    -0.056 A 
HETATM    6  C6  UNL     1     -33.064   6.343   3.545  1.00 20.00    -0.056 A 
HETATM    7  C7  UNL     1     -34.789   5.115   4.900  1.00 20.00     0.049 C 
HETATM    8  C8  UNL     1     -32.990   5.199   2.587  1.00 20.00     0.049 C 
ENDROOT
TORSDOF 0
ENDMDL
MODEL 6
REMARK VINA RESULT:      -6.0      0.837      2.647
REMARK  0 active torsions:
REMARK  status: ('A' for Active; 'I' for Inactive)
ROOT
HETATM    1  C1  UNL     1     -32.287   8.498   4.155  1.00 20.00     0.001 A 
HETATM    2  C2  UNL     1     -33.130   8.464   5.265  1.00 20.00     0.001 A 
HETATM    3  C3  UNL     1     -32.248   7.417   3.273  1.00 20.00     0.007 A 
HETATM    4  C4  UNL     1     -33.936   7.348   5.494  1.00 20.00     0.007 A 
HETATM    5  C5  UNL     1     -33.054   6.301   3.502  1.00 20.00    -0.056 A 
HETATM    6  C6  UNL     1     -33.897   6.267   4.613  1.00 20.00    -0.056 A 
HETATM    7  C7  UNL     1     -32.997   5.156   2.545  1.00 20.00     0.049 C 
HETATM    8  C8  UNL     1     -34.769   5.083   4.879  1.00 20.00     0.049 C 
ENDROOT
TORSDOF 0
ENDMDL
MODEL 7
REMARK VINA RESULT:      -5.7      0.867      2.802
REMARK  0 active torsions:
REMARK  status: ('A' for Active; 'I' for Inactive)
ROOT
HETATM    1  C1  UNL     1     -32.260   7.534   3.000  1.00 20.00     0.001 A 
HETATM    2  C2  UNL     1     -32.331   8.496   4.007  1.00 20.00     0.001 A 
HETATM    3  C3  UNL     1     -32.912   6.310   3.156  1.00 20.00     0.007 A 
HETATM    4  C4  UNL     1     -33.055   8.234   5.170  1.00 20.00     0.007 A 
HETATM    5  C5  UNL     1     -33.636   6.049   4.319  1.00 20.00    -0.056 A 
HETATM    6  C6  UNL     1     -33.707   7.011   5.326  1.00 20.00    -0.056 A 
HETATM    7  C7  UNL     1     -34.327   4.733   4.464  1.00 20.00     0.049 C 
HETATM    8  C8  UNL     1     -34.475   6.754   6.581  1.00 20.00     0.049 C 
ENDROOT
TORSDOF 0
ENDMDL
MODEL 8
REMARK VINA RESULT:      -5.7      0.882      3.503
REMARK  0 active torsions:
REMARK  status: ('A' for Active; 'I' for Inactive)
ROOT
HETATM    1  C1  UNL     1     -32.281   8.453   3.986  1.00 20.00     0.001 A 
HETATM    2  C2  UNL     1     -32.277   7.481   2.986  1.00 20.00     0.001 A 
HETATM    3  C3  UNL     1     -32.987   8.234   5.170  1.00 20.00     0.007 A 
HETATM    4  C4  UNL     1     -32.978   6.290   3.169  1.00 20.00     0.007 A 
HETATM    5  C5  UNL     1     -33.689   7.042   5.353  1.00 20.00    -0.056 A 
HETATM    6  C6  UNL     1     -33.684   6.070   4.352  1.00 20.00    -0.056 A 
HETATM    7  C7  UNL     1     -34.437   6.828   6.628  1.00 20.00     0.049 C 
HETATM    8  C8  UNL     1     -34.428   4.786   4.525  1.00 20.00     0.049 C 
ENDROOT
TORSDOF 0
ENDMDL
MODEL 9
REMARK VINA RESULT:      -5.5      0.824      2.783
REMARK  0 active torsions:
REMARK  status: ('A' for Active; 'I' for Inactive)
ROOT
HETATM    1  C1  UNL     1     -32.962   5.433   2.697  1.00 20.00     0.001 A 
HETATM    2  C2  UNL     1     -32.335   6.675   2.604  1.00 20.00     0.001 A 
HETATM    3  C3  UNL     1     -33.803   5.155   3.775  1.00 20.00     0.007 A 
HETATM    4  C4  UNL     1     -32.547   7.639   3.589  1.00 20.00     0.007 A 
HETATM    5  C5  UNL     1     -34.016   6.119   4.761  1.00 20.00    -0.056 A 
HETATM    6  C6  UNL     1     -33.388   7.361   4.667  1.00 20.00    -0.056 A 
HETATM    7  C7  UNL     1     -34.920   5.800   5.906  1.00 20.00     0.049 C 
HETATM    8  C8  UNL     1     -33.600   8.409   5.710  1.00 20.00     0.049 C 
ENDROOT
TORSDOF 0
ENDMDL
