MODEL 1
REMARK VINA RESULT:      -3.3      0.000      0.000
REMARK  5 active torsions:
REMARK  status: ('A' for Active; 'I' for Inactive)
REMARK    1  A    between atoms: C3_3  and  C5_5 
REMARK    2  A    between atoms: C4_4  and  C6_6 
REMARK    3  A    between atoms: C5_5  and  S7_7 
REMARK    4  A    between atoms: C6_6  and  S8_8 
REMARK    5  A    between atoms: S7_7  and  S8_8 
ROOT
HETATM    1  S7  UNL     1     -33.702   7.313   6.508  1.00 20.00    -0.098 SA
ENDROOT
BRANCH   1   2
HETATM    2  C5  UNL     1     -33.788   8.059   4.855  1.00 20.00     0.086 C 
BRANCH   2   3
HETATM    3  C3  UNL     1     -32.392   8.413   4.356  1.00 20.00     0.006 C 
HETATM    4  C1  UNL     1     -32.415   8.780   2.879  1.00 20.00     0.006 C 
ENDBRANCH   2   3
ENDBRANCH   1   2
BRANCH   1   5
HETATM    5  S8  UNL     1     -34.618   5.501   6.191  1.00 20.00    -0.098 SA
BRANCH   5   6
HETATM    6  C6  UNL     1     -34.776   5.478   4.388  1.00 20.00     0.086 C 
BRANCH   6   7
HETATM    7  C4  UNL     1     -33.778   4.501   3.778  1.00 20.00     0.006 C 
HETATM    8  C2  UNL     1     -32.982   5.157   2.659  1.00 20.00     0.006 C 
ENDBRANCH   6   7
ENDBRANCH   5   6
ENDBRANCH   1   5
TORSDOF 5
ENDMDL
MODEL 2
REMARK VINA RESULT:      -3.3      0.075      3.280
REMARK  5 active torsions:
REMARK  status: ('A' for Active; 'I' for Inactive)
REMARK    1  A    between atoms: C3_3  and  C5_5 
REMARK    2  A    between atoms: C4_4  and  C6_6 
REMARK    3  A    between atoms: C5_5  and  S7_7 
REMARK    4  A    between atoms: C6_6  and  S8_8 
REMARK    5  A    between atoms: S7_7  and  S8_8 
ROOT
HETATM    1  S7  UNL     1     -34.710   5.558   6.205  1.00 20.00    -0.098 SA
ENDROOT
BRANCH   1   2
HETATM    2  C5  UNL     1     -34.790   5.481   4.393  1.00 20.00     0.086 C 
BRANCH   2   3
HETATM    3  C3  UNL     1     -33.732   4.525   3.852  1.00 20.00     0.006 C 
HETATM    4  C1  UNL     1     -33.002   5.133   2.662  1.00 20.00     0.006 C 
ENDBRANCH   2   3
ENDBRANCH   1   2
BRANCH   1   5
HETATM    5  S8  UNL     1     -33.601   7.264   6.497  1.00 20.00    -0.098 SA
BRANCH   5   6
HETATM    6  C6  UNL     1     -33.759   8.084   4.892  1.00 20.00     0.086 C 
BRANCH   6   7
HETATM    7  C4  UNL     1     -32.385   8.446   4.340  1.00 20.00     0.006 C 
HETATM    8  C2  UNL     1     -32.450   8.718   2.844  1.00 20.00     0.006 C 
ENDBRANCH   6   7
ENDBRANCH   5   6
ENDBRANCH   1   5
TORSDOF 5
ENDMDL
MODEL 3
REMARK VINA RESULT:      -3.2      1.880      3.798
REMARK  5 active torsions:
REMARK  status: ('A' for Active; 'I' for Inactive)
REMARK    1  A    between atoms: C3_3  and  C5_5 
REMARK    2  A    between atoms: C4_4  and  C6_6 
REMARK    3  A    between atoms: C5_5  and  S7_7 
REMARK    4  A    between atoms: C6_6  and  S8_8 
REMARK    5  A    between atoms: S7_7  and  S8_8 
ROOT
HETATM    1  S7  UNL     1     -34.088   7.975   5.001  1.00 20.00    -0.098 SA
ENDROOT
BRANCH   1   2
HETATM    2  C5  UNL     1     -33.740   6.821   6.358  1.00 20.00     0.086 C 
BRANCH   2   3
HETATM    3  C3  UNL     1     -34.585   5.559   6.215  1.00 20.00     0.006 C 
HETATM    4  C1  UNL     1     -34.766   5.184   4.751  1.00 20.00     0.006 C 
ENDBRANCH   2   3
ENDBRANCH   1   2
BRANCH   1   5
HETATM    5  S8  UNL     1     -32.208   8.281   4.227  1.00 20.00    -0.098 SA
BRANCH   5   6
HETATM    6  C6  UNL     1     -32.257   7.266   2.731  1.00 20.00     0.086 C 
BRANCH   6   7
HETATM    7  C4  UNL     1     -32.071   8.134   1.491  1.00 20.00     0.006 C 
HETATM    8  C2  UNL     1     -32.862   9.429   1.605  1.00 20.00     0.006 C 
ENDBRANCH   6   7
ENDBRANCH   5   6
ENDBRANCH   1   5
TORSDOF 5
ENDMDL
MODEL 4
REMARK VINA RESULT:      -3.2      1.863      2.639
REMARK  5 active torsions:
REMARK  status: ('A' for Active; 'I' for Inactive)
REMARK    1  A    between atoms: C3_3  and  C5_5 
REMARK    2  A    between atoms: C4_4  and  C6_6 
REMARK    3  A    between atoms: C5_5  and  S7_7 
REMARK    4  A    between atoms: C6_6  and  S8_8 
REMARK    5  A    between atoms: S7_7  and  S8_8 
ROOT
HETATM    1  S7  UNL     1     -32.258   8.275   4.229  1.00 20.00    -0.098 SA
ENDROOT
BRANCH   1   2
HETATM    2  C5  UNL     1     -32.266   7.225   2.749  1.00 20.00     0.086 C 
BRANCH   2   3
HETATM    3  C3  UNL     1     -32.099   8.072   1.492  1.00 20.00     0.006 C 
HETATM    4  C1  UNL     1     -32.847   9.392   1.618  1.00 20.00     0.006 C 
ENDBRANCH   2   3
ENDBRANCH   1   2
BRANCH   1   5
HETATM    5  S8  UNL     1     -34.135   7.928   4.991  1.00 20.00    -0.098 SA
BRANCH   5   6
HETATM    6  C6  UNL     1     -33.772   6.814   6.370  1.00 20.00     0.086 C 
BRANCH   6   7
HETATM    7  C4  UNL     1     -34.573   5.524   6.238  1.00 20.00     0.006 C 
HETATM    8  C2  UNL     1     -34.712   5.112   4.780  1.00 20.00     0.006 C 
ENDBRANCH   6   7
ENDBRANCH   5   6
ENDBRANCH   1   5
TORSDOF 5
ENDMDL
MODEL 5
REMARK VINA RESULT:      -3.2      2.065      3.921
REMARK  5 active torsions:
REMARK  status: ('A' for Active; 'I' for Inactive)
REMARK    1  A    between atoms: C3_3  and  C5_5 
REMARK    2  A    between atoms: C4_4  and  C6_6 
REMARK    3  A    between atoms: C5_5  and  S7_7 
REMARK    4  A    between atoms: C6_6  and  S8_8 
REMARK    5  A    between atoms: S7_7  and  S8_8 
ROOT
HETATM    1  S7  UNL     1     -34.575   6.109   3.942  1.00 20.00    -0.098 SA
ENDROOT
BRANCH   1   2
HETATM    2  C5  UNL     1     -34.540   4.760   5.157  1.00 20.00     0.086 C 
BRANCH   2   3
HETATM    3  C3  UNL     1     -34.505   5.319   6.575  1.00 20.00     0.006 C 
HETATM    4  C1  UNL     1     -34.278   6.824   6.565  1.00 20.00     0.006 C 
ENDBRANCH   2   3
ENDBRANCH   1   2
BRANCH   1   5
HETATM    5  S8  UNL     1     -32.885   5.717   2.840  1.00 20.00    -0.098 SA
BRANCH   5   6
HETATM    6  C6  UNL     1     -32.020   7.303   2.916  1.00 20.00     0.086 C 
BRANCH   6   7
HETATM    7  C4  UNL     1     -32.883   8.350   3.611  1.00 20.00     0.006 C 
HETATM    8  C2  UNL     1     -32.149   8.972   4.789  1.00 20.00     0.006 C 
ENDBRANCH   6   7
ENDBRANCH   5   6
ENDBRANCH   1   5
TORSDOF 5
ENDMDL
MODEL 6
REMARK VINA RESULT:      -3.2      2.080      2.836
REMARK  5 active torsions:
REMARK  status: ('A' for Active; 'I' for Inactive)
REMARK    1  A    between atoms: C3_3  and  C5_5 
REMARK    2  A    between atoms: C4_4  and  C6_6 
REMARK    3  A    between atoms: C5_5  and  S7_7 
REMARK    4  A    between atoms: C6_6  and  S8_8 
REMARK    5  A    between atoms: S7_7  and  S8_8 
ROOT
HETATM    1  S7  UNL     1     -33.006   5.739   2.751  1.00 20.00    -0.098 SA
ENDROOT
BRANCH   1   2
HETATM    2  C5  UNL     1     -32.031   7.252   2.982  1.00 20.00     0.086 C 
BRANCH   2   3
HETATM    3  C3  UNL     1     -32.886   8.348   3.611  1.00 20.00     0.006 C 
HETATM    4  C1  UNL     1     -32.174   8.988   4.793  1.00 20.00     0.006 C 
ENDBRANCH   2   3
ENDBRANCH   1   2
BRANCH   1   5
HETATM    5  S8  UNL     1     -34.623   6.100   3.967  1.00 20.00    -0.098 SA
BRANCH   5   6
HETATM    6  C6  UNL     1     -34.490   4.753   5.168  1.00 20.00     0.086 C 
BRANCH   6   7
HETATM    7  C4  UNL     1     -34.468   5.305   6.588  1.00 20.00     0.006 C 
HETATM    8  C2  UNL     1     -34.293   6.816   6.587  1.00 20.00     0.006 C 
ENDBRANCH   6   7
ENDBRANCH   5   6
ENDBRANCH   1   5
TORSDOF 5
ENDMDL
MODEL 7
REMARK VINA RESULT:      -3.1      1.724      2.900
REMARK  5 active torsions:
REMARK  status: ('A' for Active; 'I' for Inactive)
REMARK    1  A    between atoms: C3_3  and  C5_5 
REMARK    2  A    between atoms: C4_4  and  C6_6 
REMARK    3  A    between atoms: C5_5  and  S7_7 
REMARK    4  A    between atoms: C6_6  and  S8_8 
REMARK    5  A    between atoms: S7_7  and  S8_8 
ROOT
HETATM    1  S7  UNL     1     -32.277   8.573   4.541  1.00 20.00    -0.098 SA
ENDROOT
BRANCH   1   2
HETATM    2  C5  UNL     1     -31.830   7.477   3.165  1.00 20.00     0.086 C 
BRANCH   2   3
HETATM    3  C3  UNL     1     -33.051   6.703   2.681  1.00 20.00     0.006 C 
HETATM    4  C1  UNL     1     -32.764   5.210   2.620  1.00 20.00     0.006 C 
ENDBRANCH   2   3
ENDBRANCH   1   2
BRANCH   1   5
HETATM    5  S8  UNL     1     -34.120   7.836   5.073  1.00 20.00    -0.098 SA
BRANCH   5   6
HETATM    6  C6  UNL     1     -33.697   6.745   6.452  1.00 20.00     0.086 C 
BRANCH   6   7
HETATM    7  C4  UNL     1     -34.557   5.486   6.420  1.00 20.00     0.006 C 
HETATM    8  C2  UNL     1     -35.269   5.343   5.083  1.00 20.00     0.006 C 
ENDBRANCH   6   7
ENDBRANCH   5   6
ENDBRANCH   1   5
TORSDOF 5
ENDMDL
MODEL 8
REMARK VINA RESULT:      -3.1      1.722      3.313
REMARK  5 active torsions:
REMARK  status: ('A' for Active; 'I' for Inactive)
REMARK    1  A    between atoms: C3_3  and  C5_5 
REMARK    2  A    between atoms: C4_4  and  C6_6 
REMARK    3  A    between atoms: C5_5  and  S7_7 
REMARK    4  A    between atoms: C6_6  and  S8_8 
REMARK    5  A    between atoms: S7_7  and  S8_8 
ROOT
HETATM    1  S7  UNL     1     -34.179   7.903   5.058  1.00 20.00    -0.098 SA
ENDROOT
BRANCH   1   2
HETATM    2  C5  UNL     1     -33.736   6.760   6.397  1.00 20.00     0.086 C 
BRANCH   2   3
HETATM    3  C3  UNL     1     -34.542   5.469   6.286  1.00 20.00     0.006 C 
HETATM    4  C1  UNL     1     -35.303   5.411   4.970  1.00 20.00     0.006 C 
ENDBRANCH   2   3
ENDBRANCH   1   2
BRANCH   1   5
HETATM    5  S8  UNL     1     -32.346   8.690   4.564  1.00 20.00    -0.098 SA
BRANCH   5   6
HETATM    6  C6  UNL     1     -31.707   7.446   3.418  1.00 20.00     0.086 C 
BRANCH   6   7
HETATM    7  C4  UNL     1     -32.843   6.834   2.607  1.00 20.00     0.006 C 
HETATM    8  C2  UNL     1     -32.777   5.313   2.632  1.00 20.00     0.006 C 
ENDBRANCH   6   7
ENDBRANCH   5   6
ENDBRANCH   1   5
TORSDOF 5
ENDMDL
MODEL 9
REMARK VINA RESULT:      -3.1      1.301      1.847
REMARK  5 active torsions:
REMARK  status: ('A' for Active; 'I' for Inactive)
REMARK    1  A    between atoms: C3_3  and  C5_5 
REMARK    2  A    between atoms: C4_4  and  C6_6 
REMARK    3  A    between atoms: C5_5  and  S7_7 
REMARK    4  A    between atoms: C6_6  and  S8_8 
REMARK    5  A    between atoms: S7_7  and  S8_8 
ROOT
HETATM    1  S7  UNL     1     -33.754   8.222   4.782  1.00 20.00    -0.098 SA
ENDROOT
BRANCH   1   2
HETATM    2  C5  UNL     1     -32.104   8.090   4.038  1.00 20.00     0.086 C 
BRANCH   2   3
HETATM    3  C3  UNL     1     -32.158   7.253   2.764  1.00 20.00     0.006 C 
HETATM    4  C1  UNL     1     -32.170   8.140   1.527  1.00 20.00     0.006 C 
ENDBRANCH   2   3
ENDBRANCH   1   2
BRANCH   1   5
HETATM    5  S8  UNL     1     -33.561   7.011   6.431  1.00 20.00    -0.098 SA
BRANCH   5   6
HETATM    6  C6  UNL     1     -34.851   5.777   6.136  1.00 20.00     0.086 C 
BRANCH   6   7
HETATM    7  C4  UNL     1     -34.989   5.497   4.644  1.00 20.00     0.006 C 
HETATM    8  C2  UNL     1     -34.002   4.430   4.193  1.00 20.00     0.006 C 
ENDBRANCH   6   7
ENDBRANCH   5   6
ENDBRANCH   1   5
TORSDOF 5
ENDMDL
