MODEL 1
REMARK VINA RESULT:      -3.9      0.000      0.000
REMARK  1 active torsions:
REMARK  status: ('A' for Active; 'I' for Inactive)
REMARK    1  A    between atoms: C4_4  and  S6_6 
ROOT
HETATM    1  C1  UNL     1     -34.718   5.720   6.322  1.00 20.00     0.009 A 
HETATM    2  C2  UNL     1     -33.989   6.943   6.272  1.00 20.00     0.026 A 
HETATM    3  C3  UNL     1     -34.707   5.062   5.111  1.00 20.00     0.051 A 
HETATM    4  C4  UNL     1     -33.448   7.173   5.026  1.00 20.00     0.038 A 
HETATM    5  S5  UNL     1     -33.821   5.919   3.922  1.00 20.00    -0.095 SA
ENDROOT
BRANCH   4   6
HETATM    6  S6  UNL     1     -32.484   8.563   4.561  1.00 20.00    -0.136 SA
HETATM    7  H10 UNL     1     -33.084   9.488   5.333  1.00 20.00     0.107 HD
ENDBRANCH   4   6
TORSDOF 1
ENDMDL
MODEL 2
REMARK VINA RESULT:      -3.7      1.314      1.719
REMARK  1 active torsions:
REMARK  status: ('A' for Active; 'I' for Inactive)
REMARK    1  A    between atoms: C4_4  and  S6_6 
ROOT
HETATM    1  C1  UNL     1     -34.661   4.992   4.846  1.00 20.00     0.009 A 
HETATM    2  C2  UNL     1     -33.943   5.876   3.989  1.00 20.00     0.026 A 
HETATM    3  C3  UNL     1     -34.740   5.472   6.135  1.00 20.00     0.051 A 
HETATM    4  C4  UNL     1     -33.501   6.998   4.655  1.00 20.00     0.038 A 
HETATM    5  S5  UNL     1     -33.951   6.982   6.307  1.00 20.00    -0.095 SA
ENDROOT
BRANCH   4   6
HETATM    6  S6  UNL     1     -32.586   8.319   3.954  1.00 20.00    -0.136 SA
HETATM    7  H10 UNL     1     -33.565   9.242   3.916  1.00 20.00     0.107 HD
ENDBRANCH   4   6
TORSDOF 1
ENDMDL
MODEL 3
REMARK VINA RESULT:      -3.5      1.112      2.241
REMARK  1 active torsions:
REMARK  status: ('A' for Active; 'I' for Inactive)
REMARK    1  A    between atoms: C4_4  and  S6_6 
ROOT
HETATM    1  C1  UNL     1     -34.800   5.649   6.275  1.00 20.00     0.009 A 
HETATM    2  C2  UNL     1     -34.460   5.031   5.037  1.00 20.00     0.026 A 
HETATM    3  C3  UNL     1     -34.284   6.923   6.375  1.00 20.00     0.051 A 
HETATM    4  C4  UNL     1     -33.699   5.856   4.238  1.00 20.00     0.038 A 
HETATM    5  S5  UNL     1     -33.395   7.367   4.981  1.00 20.00    -0.095 SA
ENDROOT
BRANCH   4   6
HETATM    6  S6  UNL     1     -33.084   5.464   2.642  1.00 20.00    -0.136 SA
HETATM    7  H10 UNL     1     -32.275   4.445   2.986  1.00 20.00     0.107 HD
ENDBRANCH   4   6
TORSDOF 1
ENDMDL
MODEL 4
REMARK VINA RESULT:      -3.3      1.760      3.472
REMARK  1 active torsions:
REMARK  status: ('A' for Active; 'I' for Inactive)
REMARK    1  A    between atoms: C4_4  and  S6_6 
ROOT
HETATM    1  C1  UNL     1     -32.132   7.525   3.126  1.00 20.00     0.009 A 
HETATM    2  C2  UNL     1     -32.952   6.372   3.299  1.00 20.00     0.026 A 
HETATM    3  C3  UNL     1     -32.316   8.448   4.133  1.00 20.00     0.051 A 
HETATM    4  C4  UNL     1     -33.731   6.458   4.433  1.00 20.00     0.038 A 
HETATM    5  S5  UNL     1     -33.474   7.923   5.280  1.00 20.00    -0.095 SA
ENDROOT
BRANCH   4   6
HETATM    6  S6  UNL     1     -34.868   5.246   4.995  1.00 20.00    -0.136 SA
HETATM    7  H10 UNL     1     -35.168   5.794   6.188  1.00 20.00     0.107 HD
ENDBRANCH   4   6
TORSDOF 1
ENDMDL
MODEL 5
REMARK VINA RESULT:      -3.3      1.804      3.016
REMARK  1 active torsions:
REMARK  status: ('A' for Active; 'I' for Inactive)
REMARK    1  A    between atoms: C4_4  and  S6_6 
ROOT
HETATM    1  C1  UNL     1     -32.451   8.506   4.356  1.00 20.00     0.009 A 
HETATM    2  C2  UNL     1     -33.405   7.836   5.176  1.00 20.00     0.026 A 
HETATM    3  C3  UNL     1     -32.104   7.759   3.251  1.00 20.00     0.051 A 
HETATM    4  C4  UNL     1     -33.752   6.604   4.666  1.00 20.00     0.038 A 
HETATM    5  S5  UNL     1     -32.927   6.258   3.206  1.00 20.00    -0.095 SA
ENDROOT
BRANCH   4   6
HETATM    6  S6  UNL     1     -34.893   5.478   5.377  1.00 20.00    -0.136 SA
HETATM    7  H10 UNL     1     -34.079   4.412   5.488  1.00 20.00     0.107 HD
ENDBRANCH   4   6
TORSDOF 1
ENDMDL
MODEL 6
REMARK VINA RESULT:      -3.1      1.700      2.014
REMARK  1 active torsions:
REMARK  status: ('A' for Active; 'I' for Inactive)
REMARK    1  A    between atoms: C4_4  and  S6_6 
ROOT
HETATM    1  C1  UNL     1     -34.026   7.282   6.202  1.00 20.00     0.009 A 
HETATM    2  C2  UNL     1     -33.379   7.295   4.933  1.00 20.00     0.026 A 
HETATM    3  C3  UNL     1     -34.717   6.109   6.418  1.00 20.00     0.051 A 
HETATM    4  C4  UNL     1     -33.598   6.131   4.228  1.00 20.00     0.038 A 
HETATM    5  S5  UNL     1     -34.582   5.031   5.095  1.00 20.00    -0.095 SA
ENDROOT
BRANCH   4   6
HETATM    6  S6  UNL     1     -32.972   5.760   2.632  1.00 20.00    -0.136 SA
HETATM    7  H10 UNL     1     -34.112   5.317   2.069  1.00 20.00     0.107 HD
ENDBRANCH   4   6
TORSDOF 1
ENDMDL
MODEL 7
REMARK VINA RESULT:      -3.0      1.728      2.333
REMARK  1 active torsions:
REMARK  status: ('A' for Active; 'I' for Inactive)
REMARK    1  A    between atoms: C4_4  and  S6_6 
ROOT
HETATM    1  C1  UNL     1     -33.092   5.388   2.825  1.00 20.00     0.009 A 
HETATM    2  C2  UNL     1     -32.465   6.652   3.026  1.00 20.00     0.026 A 
HETATM    3  C3  UNL     1     -34.044   5.124   3.786  1.00 20.00     0.051 A 
HETATM    4  C4  UNL     1     -32.963   7.306   4.131  1.00 20.00     0.038 A 
HETATM    5  S5  UNL     1     -34.179   6.398   4.922  1.00 20.00    -0.095 SA
ENDROOT
BRANCH   4   6
HETATM    6  S6  UNL     1     -32.455   8.882   4.711  1.00 20.00    -0.136 SA
HETATM    7  H10 UNL     1     -32.028   9.396   3.542  1.00 20.00     0.107 HD
ENDBRANCH   4   6
TORSDOF 1
ENDMDL
MODEL 8
REMARK VINA RESULT:      -2.7     15.428     15.772
REMARK  1 active torsions:
REMARK  status: ('A' for Active; 'I' for Inactive)
REMARK    1  A    between atoms: C4_4  and  S6_6 
ROOT
HETATM    1  C1  UNL     1     -24.601  16.348  11.745  1.00 20.00     0.009 A 
HETATM    2  C2  UNL     1     -23.909  16.908  10.632  1.00 20.00     0.026 A 
HETATM    3  C3  UNL     1     -25.462  17.252  12.327  1.00 20.00     0.051 A 
HETATM    4  C4  UNL     1     -24.269  18.219  10.405  1.00 20.00     0.038 A 
HETATM    5  S5  UNL     1     -25.434  18.768  11.532  1.00 20.00    -0.095 SA
ENDROOT
BRANCH   4   6
HETATM    6  S6  UNL     1     -23.646  19.252   9.133  1.00 20.00    -0.136 SA
HETATM    7  H10 UNL     1     -23.996  20.443   9.655  1.00 20.00     0.107 HD
ENDBRANCH   4   6
TORSDOF 1
ENDMDL
MODEL 9
REMARK VINA RESULT:      -2.6     16.599     17.073
REMARK  1 active torsions:
REMARK  status: ('A' for Active; 'I' for Inactive)
REMARK    1  A    between atoms: C4_4  and  S6_6 
ROOT
HETATM    1  C1  UNL     1     -22.544  18.492  12.332  1.00 20.00     0.009 A 
HETATM    2  C2  UNL     1     -21.845  18.473  11.090  1.00 20.00     0.026 A 
HETATM    3  C3  UNL     1     -23.896  18.283  12.169  1.00 20.00     0.051 A 
HETATM    4  C4  UNL     1     -22.690  18.248  10.025  1.00 20.00     0.038 A 
HETATM    5  S5  UNL     1     -24.318  18.065  10.524  1.00 20.00    -0.095 SA
ENDROOT
BRANCH   4   6
HETATM    6  S6  UNL     1     -22.219  18.151   8.338  1.00 20.00    -0.136 SA
HETATM    7  H10 UNL     1     -21.086  17.439   8.489  1.00 20.00     0.107 HD
ENDBRANCH   4   6
TORSDOF 1
ENDMDL
