MODEL 1
REMARK VINA RESULT:      -5.9      0.000      0.000
REMARK  3 active torsions:
REMARK  status: ('A' for Active; 'I' for Inactive)
REMARK    1  A    between atoms: C6_6  and  C8_8 
REMARK    2  A    between atoms: C8_8  and  C10_10 
REMARK    3  A    between atoms: C9_9  and  C10_10 
ROOT
HETATM    1  C1  UNL     1     -34.793   5.209   5.748  1.00 20.00     0.000 A 
HETATM    2  C2  UNL     1     -34.400   5.150   4.411  1.00 20.00     0.001 A 
HETATM    3  C3  UNL     1     -34.454   6.317   6.525  1.00 20.00     0.001 A 
HETATM    4  C4  UNL     1     -33.669   6.198   3.852  1.00 20.00     0.007 A 
HETATM    5  C5  UNL     1     -33.723   7.365   5.967  1.00 20.00     0.007 A 
HETATM    6  C6  UNL     1     -33.330   7.305   4.630  1.00 20.00    -0.058 A 
ENDROOT
BRANCH   6   7
HETATM    7  C8  UNL     1     -32.538   8.438   4.026  1.00 20.00     0.038 C 
BRANCH   7   8
HETATM    8  C10 UNL     1     -32.306   8.225   2.528  1.00 20.00     0.004 C 
BRANCH   8   9
HETATM    9  C9  UNL     1     -32.857   9.393   1.710  1.00 20.00    -0.004 C 
HETATM   10  C7  UNL     1     -32.646   9.178   0.219  1.00 20.00     0.005 C 
ENDBRANCH   8   9
ENDBRANCH   7   8
ENDBRANCH   6   7
TORSDOF 3
ENDMDL
MODEL 2
REMARK VINA RESULT:      -5.9      0.014      1.528
REMARK  3 active torsions:
REMARK  status: ('A' for Active; 'I' for Inactive)
REMARK    1  A    between atoms: C6_6  and  C8_8 
REMARK    2  A    between atoms: C8_8  and  C10_10 
REMARK    3  A    between atoms: C9_9  and  C10_10 
ROOT
HETATM    1  C1  UNL     1     -34.808   5.224   5.743  1.00 20.00     0.000 A 
HETATM    2  C2  UNL     1     -34.462   6.328   6.522  1.00 20.00     0.001 A 
HETATM    3  C3  UNL     1     -34.412   5.164   4.406  1.00 20.00     0.001 A 
HETATM    4  C4  UNL     1     -33.722   7.370   5.966  1.00 20.00     0.007 A 
HETATM    5  C5  UNL     1     -33.672   6.206   3.849  1.00 20.00     0.007 A 
HETATM    6  C6  UNL     1     -33.327   7.310   4.629  1.00 20.00    -0.058 A 
ENDROOT
BRANCH   6   7
HETATM    7  C8  UNL     1     -32.527   8.438   4.026  1.00 20.00     0.038 C 
BRANCH   7   8
HETATM    8  C10 UNL     1     -32.300   8.226   2.527  1.00 20.00     0.004 C 
BRANCH   8   9
HETATM    9  C9  UNL     1     -32.875   9.383   1.711  1.00 20.00    -0.004 C 
HETATM   10  C7  UNL     1     -32.638   9.187   0.222  1.00 20.00     0.005 C 
ENDBRANCH   8   9
ENDBRANCH   7   8
ENDBRANCH   6   7
TORSDOF 3
ENDMDL
MODEL 3
REMARK VINA RESULT:      -4.6      1.068      4.851
REMARK  3 active torsions:
REMARK  status: ('A' for Active; 'I' for Inactive)
REMARK    1  A    between atoms: C6_6  and  C8_8 
REMARK    2  A    between atoms: C8_8  and  C10_10 
REMARK    3  A    between atoms: C9_9  and  C10_10 
ROOT
HETATM    1  C1  UNL     1     -32.530   8.869   0.615  1.00 20.00     0.000 A 
HETATM    2  C2  UNL     1     -32.950   9.878   1.481  1.00 20.00     0.001 A 
HETATM    3  C3  UNL     1     -32.113   7.640   1.127  1.00 20.00     0.001 A 
HETATM    4  C4  UNL     1     -32.952   9.659   2.858  1.00 20.00     0.007 A 
HETATM    5  C5  UNL     1     -32.115   7.421   2.504  1.00 20.00     0.007 A 
HETATM    6  C6  UNL     1     -32.534   8.430   3.369  1.00 20.00    -0.058 A 
ENDROOT
BRANCH   6   7
HETATM    7  C8  UNL     1     -32.537   8.192   4.859  1.00 20.00     0.038 C 
BRANCH   7   8
HETATM    8  C10 UNL     1     -33.954   7.951   5.387  1.00 20.00     0.004 C 
BRANCH   8   9
HETATM    9  C9  UNL     1     -33.987   6.779   6.368  1.00 20.00    -0.004 C 
HETATM   10  C7  UNL     1     -34.681   5.568   5.766  1.00 20.00     0.005 C 
ENDBRANCH   8   9
ENDBRANCH   7   8
ENDBRANCH   6   7
TORSDOF 3
ENDMDL
MODEL 4
REMARK VINA RESULT:      -4.4     11.182     11.974
REMARK  3 active torsions:
REMARK  status: ('A' for Active; 'I' for Inactive)
REMARK    1  A    between atoms: C6_6  and  C8_8 
REMARK    2  A    between atoms: C8_8  and  C10_10 
REMARK    3  A    between atoms: C9_9  and  C10_10 
ROOT
HETATM    1  C1  UNL     1     -32.185  18.894   1.520  1.00 20.00     0.000 A 
HETATM    2  C2  UNL     1     -33.477  18.579   1.101  1.00 20.00     0.001 A 
HETATM    3  C3  UNL     1     -31.124  18.827   0.616  1.00 20.00     0.001 A 
HETATM    4  C4  UNL     1     -33.709  18.198  -0.220  1.00 20.00     0.007 A 
HETATM    5  C5  UNL     1     -31.355  18.446  -0.705  1.00 20.00     0.007 A 
HETATM    6  C6  UNL     1     -32.648  18.131  -1.123  1.00 20.00    -0.058 A 
ENDROOT
BRANCH   6   7
HETATM    7  C8  UNL     1     -32.898  17.718  -2.552  1.00 20.00     0.038 C 
BRANCH   7   8
HETATM    8  C10 UNL     1     -33.574  16.347  -2.630  1.00 20.00     0.004 C 
BRANCH   8   9
HETATM    9  C9  UNL     1     -33.108  15.568  -3.861  1.00 20.00    -0.004 C 
HETATM   10  C7  UNL     1     -34.095  14.474  -4.235  1.00 20.00     0.005 C 
ENDBRANCH   8   9
ENDBRANCH   7   8
ENDBRANCH   6   7
TORSDOF 3
ENDMDL
MODEL 5
REMARK VINA RESULT:      -4.3     11.172     11.973
REMARK  3 active torsions:
REMARK  status: ('A' for Active; 'I' for Inactive)
REMARK    1  A    between atoms: C6_6  and  C8_8 
REMARK    2  A    between atoms: C8_8  and  C10_10 
REMARK    3  A    between atoms: C9_9  and  C10_10 
ROOT
HETATM    1  C1  UNL     1     -32.293  18.952   1.551  1.00 20.00     0.000 A 
HETATM    2  C2  UNL     1     -31.201  18.864   0.688  1.00 20.00     0.001 A 
HETATM    3  C3  UNL     1     -33.572  18.640   1.089  1.00 20.00     0.001 A 
HETATM    4  C4  UNL     1     -31.387  18.465  -0.635  1.00 20.00     0.007 A 
HETATM    5  C5  UNL     1     -33.759  18.241  -0.234  1.00 20.00     0.007 A 
HETATM    6  C6  UNL     1     -32.666  18.154  -1.096  1.00 20.00    -0.058 A 
ENDROOT
BRANCH   6   7
HETATM    7  C8  UNL     1     -32.868  17.722  -2.527  1.00 20.00     0.038 C 
BRANCH   7   8
HETATM    8  C10 UNL     1     -33.529  16.344  -2.610  1.00 20.00     0.004 C 
BRANCH   8   9
HETATM    9  C9  UNL     1     -33.135  15.616  -3.896  1.00 20.00    -0.004 C 
HETATM   10  C7  UNL     1     -34.086  14.470  -4.202  1.00 20.00     0.005 C 
ENDBRANCH   8   9
ENDBRANCH   7   8
ENDBRANCH   6   7
TORSDOF 3
ENDMDL
MODEL 6
REMARK VINA RESULT:      -4.3      0.981      4.462
REMARK  3 active torsions:
REMARK  status: ('A' for Active; 'I' for Inactive)
REMARK    1  A    between atoms: C6_6  and  C8_8 
REMARK    2  A    between atoms: C8_8  and  C10_10 
REMARK    3  A    between atoms: C9_9  and  C10_10 
ROOT
HETATM    1  C1  UNL     1     -32.267   8.296   1.287  1.00 20.00     0.000 A 
HETATM    2  C2  UNL     1     -32.143   7.033   1.867  1.00 20.00     0.001 A 
HETATM    3  C3  UNL     1     -32.614   9.393   2.076  1.00 20.00     0.001 A 
HETATM    4  C4  UNL     1     -32.368   6.868   3.233  1.00 20.00     0.007 A 
HETATM    5  C5  UNL     1     -32.838   9.228   3.442  1.00 20.00     0.007 A 
HETATM    6  C6  UNL     1     -32.716   7.966   4.021  1.00 20.00    -0.058 A 
ENDROOT
BRANCH   6   7
HETATM    7  C8  UNL     1     -32.959   7.787   5.499  1.00 20.00     0.038 C 
BRANCH   7   8
HETATM    8  C10 UNL     1     -34.385   7.307   5.779  1.00 20.00     0.004 C 
BRANCH   8   9
HETATM    9  C9  UNL     1     -34.396   5.865   6.287  1.00 20.00    -0.004 C 
HETATM   10  C7  UNL     1     -34.654   4.879   5.159  1.00 20.00     0.005 C 
ENDBRANCH   8   9
ENDBRANCH   7   8
ENDBRANCH   6   7
TORSDOF 3
ENDMDL
MODEL 7
REMARK VINA RESULT:      -4.0     11.403     12.557
REMARK  3 active torsions:
REMARK  status: ('A' for Active; 'I' for Inactive)
REMARK    1  A    between atoms: C6_6  and  C8_8 
REMARK    2  A    between atoms: C8_8  and  C10_10 
REMARK    3  A    between atoms: C9_9  and  C10_10 
ROOT
HETATM    1  C1  UNL     1     -34.352  15.120  -5.539  1.00 20.00     0.000 A 
HETATM    2  C2  UNL     1     -33.629  14.723  -4.414  1.00 20.00     0.001 A 
HETATM    3  C3  UNL     1     -34.724  16.456  -5.692  1.00 20.00     0.001 A 
HETATM    4  C4  UNL     1     -33.278  15.660  -3.444  1.00 20.00     0.007 A 
HETATM    5  C5  UNL     1     -34.373  17.394  -4.722  1.00 20.00     0.007 A 
HETATM    6  C6  UNL     1     -33.651  16.996  -3.597  1.00 20.00    -0.058 A 
ENDROOT
BRANCH   6   7
HETATM    7  C8  UNL     1     -33.273  18.011  -2.547  1.00 20.00     0.038 C 
BRANCH   7   8
HETATM    8  C10 UNL     1     -33.666  17.540  -1.144  1.00 20.00     0.004 C 
BRANCH   8   9
HETATM    9  C9  UNL     1     -32.891  18.299  -0.067  1.00 20.00    -0.004 C 
HETATM   10  C7  UNL     1     -31.437  18.501  -0.465  1.00 20.00     0.005 C 
ENDBRANCH   8   9
ENDBRANCH   7   8
ENDBRANCH   6   7
TORSDOF 3
ENDMDL
MODEL 8
REMARK VINA RESULT:      -3.8     11.115     12.471
REMARK  3 active torsions:
REMARK  status: ('A' for Active; 'I' for Inactive)
REMARK    1  A    between atoms: C6_6  and  C8_8 
REMARK    2  A    between atoms: C8_8  and  C10_10 
REMARK    3  A    between atoms: C9_9  and  C10_10 
ROOT
HETATM    1  C1  UNL     1     -34.622  18.944  -1.658  1.00 20.00     0.000 A 
HETATM    2  C2  UNL     1     -33.930  17.913  -1.023  1.00 20.00     0.001 A 
HETATM    3  C3  UNL     1     -34.817  18.905  -3.039  1.00 20.00     0.001 A 
HETATM    4  C4  UNL     1     -33.433  16.844  -1.768  1.00 20.00     0.007 A 
HETATM    5  C5  UNL     1     -34.320  17.836  -3.784  1.00 20.00     0.007 A 
HETATM    6  C6  UNL     1     -33.628  16.806  -3.149  1.00 20.00    -0.058 A 
ENDROOT
BRANCH   6   7
HETATM    7  C8  UNL     1     -33.090  15.650  -3.955  1.00 20.00     0.038 C 
BRANCH   7   8
HETATM    8  C10 UNL     1     -34.117  14.521  -4.071  1.00 20.00     0.004 C 
BRANCH   8   9
HETATM    9  C9  UNL     1     -34.969  14.674  -5.331  1.00 20.00    -0.004 C 
HETATM   10  C7  UNL     1     -34.149  15.201  -6.498  1.00 20.00     0.005 C 
ENDBRANCH   8   9
ENDBRANCH   7   8
ENDBRANCH   6   7
TORSDOF 3
ENDMDL
MODEL 9
REMARK VINA RESULT:      -3.8      9.705     10.577
REMARK  3 active torsions:
REMARK  status: ('A' for Active; 'I' for Inactive)
REMARK    1  A    between atoms: C6_6  and  C8_8 
REMARK    2  A    between atoms: C8_8  and  C10_10 
REMARK    3  A    between atoms: C9_9  and  C10_10 
ROOT
HETATM    1  C1  UNL     1     -41.036  16.258   8.476  1.00 20.00     0.000 A 
HETATM    2  C2  UNL     1     -40.320  15.124   8.860  1.00 20.00     0.001 A 
HETATM    3  C3  UNL     1     -41.722  16.271   7.261  1.00 20.00     0.001 A 
HETATM    4  C4  UNL     1     -40.288  14.005   8.029  1.00 20.00     0.007 A 
HETATM    5  C5  UNL     1     -41.690  15.151   6.430  1.00 20.00     0.007 A 
HETATM    6  C6  UNL     1     -40.974  14.019   6.814  1.00 20.00    -0.058 A 
ENDROOT
BRANCH   6   7
HETATM    7  C8  UNL     1     -40.940  12.808   5.915  1.00 20.00     0.038 C 
BRANCH   7   8
HETATM    8  C10 UNL     1     -39.766  11.886   6.258  1.00 20.00     0.004 C 
BRANCH   8   9
HETATM    9  C9  UNL     1     -38.606  12.079   5.280  1.00 20.00    -0.004 C 
HETATM   10  C7  UNL     1     -38.982  11.636   3.875  1.00 20.00     0.005 C 
ENDBRANCH   8   9
ENDBRANCH   7   8
ENDBRANCH   6   7
TORSDOF 3
ENDMDL
