MODEL 1
REMARK VINA RESULT:      -5.8      0.000      0.000
REMARK  2 active torsions:
REMARK  status: ('A' for Active; 'I' for Inactive)
REMARK    1  A    between atoms: C6_6  and  C8_8 
REMARK    2  A    between atoms: C8_8  and  C9_9 
ROOT
HETATM    1  C1  UNL     1     -34.807   5.366   5.931  1.00 20.00     0.000 A 
HETATM    2  C2  UNL     1     -34.515   5.075   4.598  1.00 20.00     0.001 A 
HETATM    3  C3  UNL     1     -34.350   6.554   6.501  1.00 20.00     0.001 A 
HETATM    4  C4  UNL     1     -33.766   5.971   3.836  1.00 20.00     0.007 A 
HETATM    5  C5  UNL     1     -33.600   7.450   5.739  1.00 20.00     0.007 A 
HETATM    6  C6  UNL     1     -33.309   7.159   4.406  1.00 20.00    -0.058 A 
ENDROOT
BRANCH   6   7
HETATM    7  C8  UNL     1     -32.508   8.118   3.592  1.00 20.00     0.038 C 
BRANCH   7   8
HETATM    8  C9  UNL     1     -32.166   7.552   2.205  1.00 20.00     0.000 C 
HETATM    9  C7  UNL     1     -32.340   8.590   1.107  1.00 20.00     0.005 C 
ENDBRANCH   7   8
ENDBRANCH   6   7
TORSDOF 2
ENDMDL
MODEL 2
REMARK VINA RESULT:      -5.8      0.007      1.611
REMARK  2 active torsions:
REMARK  status: ('A' for Active; 'I' for Inactive)
REMARK    1  A    between atoms: C6_6  and  C8_8 
REMARK    2  A    between atoms: C8_8  and  C9_9 
ROOT
HETATM    1  C1  UNL     1     -34.806   5.366   5.936  1.00 20.00     0.000 A 
HETATM    2  C2  UNL     1     -34.352   6.557   6.504  1.00 20.00     0.001 A 
HETATM    3  C3  UNL     1     -34.513   5.073   4.604  1.00 20.00     0.001 A 
HETATM    4  C4  UNL     1     -33.606   7.454   5.741  1.00 20.00     0.007 A 
HETATM    5  C5  UNL     1     -33.767   5.971   3.840  1.00 20.00     0.007 A 
HETATM    6  C6  UNL     1     -33.313   7.161   4.409  1.00 20.00    -0.058 A 
ENDROOT
BRANCH   6   7
HETATM    7  C8  UNL     1     -32.515   8.121   3.592  1.00 20.00     0.038 C 
BRANCH   7   8
HETATM    8  C9  UNL     1     -32.175   7.554   2.205  1.00 20.00     0.000 C 
HETATM    9  C7  UNL     1     -32.334   8.596   1.109  1.00 20.00     0.005 C 
ENDBRANCH   7   8
ENDBRANCH   6   7
TORSDOF 2
ENDMDL
MODEL 3
REMARK VINA RESULT:      -4.7      1.131      3.899
REMARK  2 active torsions:
REMARK  status: ('A' for Active; 'I' for Inactive)
REMARK    1  A    between atoms: C6_6  and  C8_8 
REMARK    2  A    between atoms: C8_8  and  C9_9 
ROOT
HETATM    1  C1  UNL     1     -31.825   8.375   3.703  1.00 20.00     0.000 A 
HETATM    2  C2  UNL     1     -32.087   7.228   2.954  1.00 20.00     0.001 A 
HETATM    3  C3  UNL     1     -32.630   8.694   4.796  1.00 20.00     0.001 A 
HETATM    4  C4  UNL     1     -33.155   6.400   3.297  1.00 20.00     0.007 A 
HETATM    5  C5  UNL     1     -33.699   7.865   5.140  1.00 20.00     0.007 A 
HETATM    6  C6  UNL     1     -33.961   6.718   4.390  1.00 20.00    -0.058 A 
ENDROOT
BRANCH   6   7
HETATM    7  C8  UNL     1     -35.103   5.832   4.758  1.00 20.00     0.038 C 
BRANCH   7   8
HETATM    8  C9  UNL     1     -35.056   5.415   6.236  1.00 20.00     0.000 C 
HETATM    9  C7  UNL     1     -33.669   4.951   6.653  1.00 20.00     0.005 C 
ENDBRANCH   7   8
ENDBRANCH   6   7
TORSDOF 2
ENDMDL
MODEL 4
REMARK VINA RESULT:      -4.7      1.126      4.209
REMARK  2 active torsions:
REMARK  status: ('A' for Active; 'I' for Inactive)
REMARK    1  A    between atoms: C6_6  and  C8_8 
REMARK    2  A    between atoms: C8_8  and  C9_9 
ROOT
HETATM    1  C1  UNL     1     -31.824   8.377   3.691  1.00 20.00     0.000 A 
HETATM    2  C2  UNL     1     -32.614   8.701   4.794  1.00 20.00     0.001 A 
HETATM    3  C3  UNL     1     -32.105   7.234   2.943  1.00 20.00     0.001 A 
HETATM    4  C4  UNL     1     -33.685   7.882   5.149  1.00 20.00     0.007 A 
HETATM    5  C5  UNL     1     -33.176   6.414   3.299  1.00 20.00     0.007 A 
HETATM    6  C6  UNL     1     -33.967   6.738   4.402  1.00 20.00    -0.058 A 
ENDROOT
BRANCH   6   7
HETATM    7  C8  UNL     1     -35.112   5.862   4.781  1.00 20.00     0.038 C 
BRANCH   7   8
HETATM    8  C9  UNL     1     -35.054   5.443   6.258  1.00 20.00     0.000 C 
HETATM    9  C7  UNL     1     -33.670   4.954   6.657  1.00 20.00     0.005 C 
ENDBRANCH   7   8
ENDBRANCH   6   7
TORSDOF 2
ENDMDL
MODEL 5
REMARK VINA RESULT:      -4.1      0.886      1.049
REMARK  2 active torsions:
REMARK  status: ('A' for Active; 'I' for Inactive)
REMARK    1  A    between atoms: C6_6  and  C8_8 
REMARK    2  A    between atoms: C8_8  and  C9_9 
ROOT
HETATM    1  C1  UNL     1     -34.924   5.603   6.383  1.00 20.00     0.000 A 
HETATM    2  C2  UNL     1     -35.009   5.391   5.007  1.00 20.00     0.001 A 
HETATM    3  C3  UNL     1     -34.255   6.722   6.876  1.00 20.00     0.001 A 
HETATM    4  C4  UNL     1     -34.425   6.298   4.124  1.00 20.00     0.007 A 
HETATM    5  C5  UNL     1     -33.669   7.630   5.994  1.00 20.00     0.007 A 
HETATM    6  C6  UNL     1     -33.755   7.418   4.617  1.00 20.00    -0.058 A 
ENDROOT
BRANCH   6   7
HETATM    7  C8  UNL     1     -33.130   8.389   3.674  1.00 20.00     0.038 C 
BRANCH   7   8
HETATM    8  C9  UNL     1     -31.958   7.767   2.899  1.00 20.00     0.000 C 
HETATM    9  C7  UNL     1     -32.259   6.344   2.456  1.00 20.00     0.005 C 
ENDBRANCH   7   8
ENDBRANCH   6   7
TORSDOF 2
ENDMDL
MODEL 6
REMARK VINA RESULT:      -4.1     11.917     12.492
REMARK  2 active torsions:
REMARK  status: ('A' for Active; 'I' for Inactive)
REMARK    1  A    between atoms: C6_6  and  C8_8 
REMARK    2  A    between atoms: C8_8  and  C9_9 
ROOT
HETATM    1  C1  UNL     1     -31.872  18.996   1.902  1.00 20.00     0.000 A 
HETATM    2  C2  UNL     1     -33.203  18.953   1.487  1.00 20.00     0.001 A 
HETATM    3  C3  UNL     1     -30.850  18.711   0.997  1.00 20.00     0.001 A 
HETATM    4  C4  UNL     1     -33.512  18.624   0.168  1.00 20.00     0.007 A 
HETATM    5  C5  UNL     1     -31.159  18.382  -0.323  1.00 20.00     0.007 A 
HETATM    6  C6  UNL     1     -32.490  18.339  -0.738  1.00 20.00    -0.058 A 
ENDROOT
BRANCH   6   7
HETATM    7  C8  UNL     1     -32.820  17.987  -2.149  1.00 20.00     0.038 C 
BRANCH   7   8
HETATM    8  C9  UNL     1     -33.541  16.635  -2.253  1.00 20.00     0.000 C 
HETATM    9  C7  UNL     1     -33.257  15.938  -3.575  1.00 20.00     0.005 C 
ENDBRANCH   7   8
ENDBRANCH   6   7
TORSDOF 2
ENDMDL
MODEL 7
REMARK VINA RESULT:      -4.1     12.066     12.689
REMARK  2 active torsions:
REMARK  status: ('A' for Active; 'I' for Inactive)
REMARK    1  A    between atoms: C6_6  and  C8_8 
REMARK    2  A    between atoms: C8_8  and  C9_9 
ROOT
HETATM    1  C1  UNL     1     -33.791  17.792  -0.827  1.00 20.00     0.000 A 
HETATM    2  C2  UNL     1     -33.934  18.157   0.512  1.00 20.00     0.001 A 
HETATM    3  C3  UNL     1     -32.549  17.905  -1.451  1.00 20.00     0.001 A 
HETATM    4  C4  UNL     1     -32.837  18.634   1.227  1.00 20.00     0.007 A 
HETATM    5  C5  UNL     1     -31.450  18.383  -0.736  1.00 20.00     0.007 A 
HETATM    6  C6  UNL     1     -31.594  18.747   0.603  1.00 20.00    -0.058 A 
ENDROOT
BRANCH   6   7
HETATM    7  C8  UNL     1     -30.419  19.257   1.367  1.00 20.00     0.038 C 
BRANCH   7   8
HETATM    8  C9  UNL     1     -30.153  18.431   2.635  1.00 20.00     0.000 C 
HETATM    9  C7  UNL     1     -28.880  18.869   3.342  1.00 20.00     0.005 C 
ENDBRANCH   7   8
ENDBRANCH   6   7
TORSDOF 2
ENDMDL
MODEL 8
REMARK VINA RESULT:      -4.0      1.327      3.964
REMARK  2 active torsions:
REMARK  status: ('A' for Active; 'I' for Inactive)
REMARK    1  A    between atoms: C6_6  and  C8_8 
REMARK    2  A    between atoms: C8_8  and  C9_9 
ROOT
HETATM    1  C1  UNL     1     -32.005   8.965   4.619  1.00 20.00     0.000 A 
HETATM    2  C2  UNL     1     -32.899   8.939   5.690  1.00 20.00     0.001 A 
HETATM    3  C3  UNL     1     -32.119   8.027   3.593  1.00 20.00     0.001 A 
HETATM    4  C4  UNL     1     -33.905   7.975   5.736  1.00 20.00     0.007 A 
HETATM    5  C5  UNL     1     -33.125   7.062   3.639  1.00 20.00     0.007 A 
HETATM    6  C6  UNL     1     -34.018   7.036   4.710  1.00 20.00    -0.058 A 
ENDROOT
BRANCH   6   7
HETATM    7  C8  UNL     1     -35.094   6.005   4.758  1.00 20.00     0.038 C 
BRANCH   7   8
HETATM    8  C9  UNL     1     -34.606   4.690   5.384  1.00 20.00     0.000 C 
HETATM    9  C7  UNL     1     -33.689   3.919   4.447  1.00 20.00     0.005 C 
ENDBRANCH   7   8
ENDBRANCH   6   7
TORSDOF 2
ENDMDL
MODEL 9
REMARK VINA RESULT:      -3.8      1.448      4.459
REMARK  2 active torsions:
REMARK  status: ('A' for Active; 'I' for Inactive)
REMARK    1  A    between atoms: C6_6  and  C8_8 
REMARK    2  A    between atoms: C8_8  and  C9_9 
ROOT
HETATM    1  C1  UNL     1     -32.536   8.815   0.654  1.00 20.00     0.000 A 
HETATM    2  C2  UNL     1     -32.161   7.598   1.223  1.00 20.00     0.001 A 
HETATM    3  C3  UNL     1     -32.915   9.880   1.471  1.00 20.00     0.001 A 
HETATM    4  C4  UNL     1     -32.166   7.445   2.609  1.00 20.00     0.007 A 
HETATM    5  C5  UNL     1     -32.921   9.727   2.858  1.00 20.00     0.007 A 
HETATM    6  C6  UNL     1     -32.546   8.510   3.427  1.00 20.00    -0.058 A 
ENDROOT
BRANCH   6   7
HETATM    7  C8  UNL     1     -32.552   8.347   4.909  1.00 20.00     0.038 C 
BRANCH   7   8
HETATM    8  C9  UNL     1     -33.947   7.989   5.445  1.00 20.00     0.000 C 
HETATM    9  C7  UNL     1     -33.918   6.753   6.330  1.00 20.00     0.005 C 
ENDBRANCH   7   8
ENDBRANCH   6   7
TORSDOF 2
ENDMDL
