MODEL 1
REMARK VINA RESULT:      -5.6      0.000      0.000
REMARK  0 active torsions:
REMARK  status: ('A' for Active; 'I' for Inactive)
ROOT
HETATM    1  C1  UNL     1     -34.639   5.982   5.849  1.00 20.00     0.001 A 
HETATM    2  C2  UNL     1     -34.405   5.197   4.720  1.00 20.00     0.007 A 
HETATM    3  C3  UNL     1     -34.022   7.226   5.974  1.00 20.00     0.007 A 
HETATM    4  C4  UNL     1     -32.937   6.901   3.840  1.00 20.00     0.013 A 
HETATM    5  C5  UNL     1     -33.553   5.657   3.715  1.00 20.00    -0.061 A 
HETATM    6  C6  UNL     1     -33.171   7.686   4.969  1.00 20.00    -0.061 A 
HETATM    7  C7  UNL     1     -33.306   4.818   2.507  1.00 20.00     0.048 C 
HETATM    8  C8  UNL     1     -32.510   9.016   5.103  1.00 20.00     0.048 C 
ENDROOT
TORSDOF 0
ENDMDL
MODEL 2
REMARK VINA RESULT:      -5.6      0.008      3.028
REMARK  0 active torsions:
REMARK  status: ('A' for Active; 'I' for Inactive)
ROOT
HETATM    1  C1  UNL     1     -34.637   5.974   5.855  1.00 20.00     0.001 A 
HETATM    2  C2  UNL     1     -34.021   7.219   5.982  1.00 20.00     0.007 A 
HETATM    3  C3  UNL     1     -34.405   5.193   4.723  1.00 20.00     0.007 A 
HETATM    4  C4  UNL     1     -32.942   6.903   3.844  1.00 20.00     0.013 A 
HETATM    5  C5  UNL     1     -33.173   7.684   4.976  1.00 20.00    -0.061 A 
HETATM    6  C6  UNL     1     -33.557   5.658   3.717  1.00 20.00    -0.061 A 
HETATM    7  C7  UNL     1     -32.514   9.014   5.113  1.00 20.00     0.048 C 
HETATM    8  C8  UNL     1     -33.310   4.823   2.506  1.00 20.00     0.048 C 
ENDROOT
TORSDOF 0
ENDMDL
MODEL 3
REMARK VINA RESULT:      -5.6      0.831      2.344
REMARK  0 active torsions:
REMARK  status: ('A' for Active; 'I' for Inactive)
ROOT
HETATM    1  C1  UNL     1     -32.907   6.014   2.901  1.00 20.00     0.001 A 
HETATM    2  C2  UNL     1     -33.767   5.374   3.794  1.00 20.00     0.007 A 
HETATM    3  C3  UNL     1     -32.383   7.268   3.215  1.00 20.00     0.007 A 
HETATM    4  C4  UNL     1     -33.582   7.243   5.312  1.00 20.00     0.013 A 
HETATM    5  C5  UNL     1     -34.105   5.989   4.999  1.00 20.00    -0.061 A 
HETATM    6  C6  UNL     1     -32.720   7.883   4.421  1.00 20.00    -0.061 A 
HETATM    7  C7  UNL     1     -35.024   5.304   5.953  1.00 20.00     0.048 C 
HETATM    8  C8  UNL     1     -32.162   9.224   4.756  1.00 20.00     0.048 C 
ENDROOT
TORSDOF 0
ENDMDL
MODEL 4
REMARK VINA RESULT:      -5.5      0.830      3.349
REMARK  0 active torsions:
REMARK  status: ('A' for Active; 'I' for Inactive)
ROOT
HETATM    1  C1  UNL     1     -32.913   6.015   2.904  1.00 20.00     0.001 A 
HETATM    2  C2  UNL     1     -32.390   7.270   3.217  1.00 20.00     0.007 A 
HETATM    3  C3  UNL     1     -33.772   5.375   3.797  1.00 20.00     0.007 A 
HETATM    4  C4  UNL     1     -33.583   7.244   5.317  1.00 20.00     0.013 A 
HETATM    5  C5  UNL     1     -32.725   7.884   4.424  1.00 20.00    -0.061 A 
HETATM    6  C6  UNL     1     -34.108   5.989   5.004  1.00 20.00    -0.061 A 
HETATM    7  C7  UNL     1     -32.166   9.226   4.757  1.00 20.00     0.048 C 
HETATM    8  C8  UNL     1     -35.025   5.304   5.959  1.00 20.00     0.048 C 
ENDROOT
TORSDOF 0
ENDMDL
MODEL 5
REMARK VINA RESULT:      -5.4      0.876      2.344
REMARK  0 active torsions:
REMARK  status: ('A' for Active; 'I' for Inactive)
ROOT
HETATM    1  C1  UNL     1     -32.396   8.296   4.038  1.00 20.00     0.001 A 
HETATM    2  C2  UNL     1     -32.331   7.309   3.054  1.00 20.00     0.007 A 
HETATM    3  C3  UNL     1     -33.136   8.075   5.199  1.00 20.00     0.007 A 
HETATM    4  C4  UNL     1     -33.745   5.880   4.392  1.00 20.00     0.013 A 
HETATM    5  C5  UNL     1     -33.006   6.101   3.231  1.00 20.00    -0.061 A 
HETATM    6  C6  UNL     1     -33.811   6.866   5.377  1.00 20.00    -0.061 A 
HETATM    7  C7  UNL     1     -32.933   5.046   2.180  1.00 20.00     0.048 C 
HETATM    8  C8  UNL     1     -34.603   6.631   6.618  1.00 20.00     0.048 C 
ENDROOT
TORSDOF 0
ENDMDL
MODEL 6
REMARK VINA RESULT:      -5.3      0.896      3.426
REMARK  0 active torsions:
REMARK  status: ('A' for Active; 'I' for Inactive)
ROOT
HETATM    1  C1  UNL     1     -32.360   8.329   4.012  1.00 20.00     0.001 A 
HETATM    2  C2  UNL     1     -33.094   8.106   5.177  1.00 20.00     0.007 A 
HETATM    3  C3  UNL     1     -32.304   7.346   3.024  1.00 20.00     0.007 A 
HETATM    4  C4  UNL     1     -33.715   5.917   4.367  1.00 20.00     0.013 A 
HETATM    5  C5  UNL     1     -33.771   6.900   5.355  1.00 20.00    -0.061 A 
HETATM    6  C6  UNL     1     -32.982   6.139   3.202  1.00 20.00    -0.061 A 
HETATM    7  C7  UNL     1     -34.557   6.664   6.600  1.00 20.00     0.048 C 
HETATM    8  C8  UNL     1     -32.921   5.088   2.146  1.00 20.00     0.048 C 
ENDROOT
TORSDOF 0
ENDMDL
MODEL 7
REMARK VINA RESULT:      -5.3      1.052      2.519
REMARK  0 active torsions:
REMARK  status: ('A' for Active; 'I' for Inactive)
ROOT
HETATM    1  C1  UNL     1     -33.125   8.479   5.621  1.00 20.00     0.001 A 
HETATM    2  C2  UNL     1     -33.898   7.383   6.004  1.00 20.00     0.007 A 
HETATM    3  C3  UNL     1     -32.527   8.504   4.362  1.00 20.00     0.007 A 
HETATM    4  C4  UNL     1     -33.474   6.337   3.869  1.00 20.00     0.013 A 
HETATM    5  C5  UNL     1     -34.072   6.312   5.128  1.00 20.00    -0.061 A 
HETATM    6  C6  UNL     1     -32.701   7.433   3.485  1.00 20.00    -0.061 A 
HETATM    7  C7  UNL     1     -34.901   5.142   5.538  1.00 20.00     0.048 C 
HETATM    8  C8  UNL     1     -32.060   7.459   2.139  1.00 20.00     0.048 C 
ENDROOT
TORSDOF 0
ENDMDL
MODEL 8
REMARK VINA RESULT:      -5.2      1.076      2.736
REMARK  0 active torsions:
REMARK  status: ('A' for Active; 'I' for Inactive)
ROOT
HETATM    1  C1  UNL     1     -33.299   8.548   5.654  1.00 20.00     0.001 A 
HETATM    2  C2  UNL     1     -32.661   8.556   4.413  1.00 20.00     0.007 A 
HETATM    3  C3  UNL     1     -34.013   7.423   6.064  1.00 20.00     0.007 A 
HETATM    4  C4  UNL     1     -33.451   6.313   3.993  1.00 20.00     0.013 A 
HETATM    5  C5  UNL     1     -32.738   7.438   3.583  1.00 20.00    -0.061 A 
HETATM    6  C6  UNL     1     -34.089   6.304   5.233  1.00 20.00    -0.061 A 
HETATM    7  C7  UNL     1     -32.053   7.447   2.258  1.00 20.00     0.048 C 
HETATM    8  C8  UNL     1     -34.854   5.101   5.671  1.00 20.00     0.048 C 
ENDROOT
TORSDOF 0
ENDMDL
MODEL 9
REMARK VINA RESULT:      -3.8     15.757     16.305
REMARK  0 active torsions:
REMARK  status: ('A' for Active; 'I' for Inactive)
ROOT
HETATM    1  C1  UNL     1     -24.665  19.263   9.086  1.00 20.00     0.001 A 
HETATM    2  C2  UNL     1     -23.547  19.145   8.260  1.00 20.00     0.007 A 
HETATM    3  C3  UNL     1     -24.792  18.446  10.209  1.00 20.00     0.007 A 
HETATM    4  C4  UNL     1     -22.684  17.391   9.678  1.00 20.00     0.013 A 
HETATM    5  C5  UNL     1     -22.557  18.208   8.555  1.00 20.00    -0.061 A 
HETATM    6  C6  UNL     1     -23.800  17.509  10.505  1.00 20.00    -0.061 A 
HETATM    7  C7  UNL     1     -21.362  18.084   7.672  1.00 20.00     0.048 C 
HETATM    8  C8  UNL     1     -23.937  16.634  11.705  1.00 20.00     0.048 C 
ENDROOT
TORSDOF 0
ENDMDL
