MODEL 1
REMARK VINA RESULT:      -5.1      0.000      0.000
REMARK  0 active torsions:
REMARK  status: ('A' for Active; 'I' for Inactive)
ROOT
HETATM    1  C1  UNL     1     -34.179   6.793   6.490  1.00 20.00     0.000 A 
HETATM    2  C2  UNL     1     -34.701   5.532   6.206  1.00 20.00     0.000 A 
HETATM    3  C3  UNL     1     -33.554   7.532   5.485  1.00 20.00     0.000 A 
HETATM    4  C4  UNL     1     -34.596   5.007   4.918  1.00 20.00     0.000 A 
HETATM    5  C5  UNL     1     -33.450   7.007   4.197  1.00 20.00     0.000 A 
HETATM    6  C6  UNL     1     -33.972   5.745   3.913  1.00 20.00     0.000 A 
ENDROOT
TORSDOF 0
ENDMDL
MODEL 2
REMARK VINA RESULT:      -5.1      0.074      1.973
REMARK  0 active torsions:
REMARK  status: ('A' for Active; 'I' for Inactive)
ROOT
HETATM    1  C1  UNL     1     -34.564   4.973   4.863  1.00 20.00     0.000 A 
HETATM    2  C2  UNL     1     -34.715   5.452   6.164  1.00 20.00     0.000 A 
HETATM    3  C3  UNL     1     -33.928   5.757   3.901  1.00 20.00     0.000 A 
HETATM    4  C4  UNL     1     -34.232   6.716   6.503  1.00 20.00     0.000 A 
HETATM    5  C5  UNL     1     -33.443   7.020   4.240  1.00 20.00     0.000 A 
HETATM    6  C6  UNL     1     -33.595   7.500   5.541  1.00 20.00     0.000 A 
ENDROOT
TORSDOF 0
ENDMDL
MODEL 3
REMARK VINA RESULT:      -5.1      0.022      1.973
REMARK  0 active torsions:
REMARK  status: ('A' for Active; 'I' for Inactive)
ROOT
HETATM    1  C1  UNL     1     -34.677   5.510   6.200  1.00 20.00     0.000 A 
HETATM    2  C2  UNL     1     -34.175   6.780   6.487  1.00 20.00     0.000 A 
HETATM    3  C3  UNL     1     -34.568   4.992   4.910  1.00 20.00     0.000 A 
HETATM    4  C4  UNL     1     -33.566   7.532   5.483  1.00 20.00     0.000 A 
HETATM    5  C5  UNL     1     -33.958   5.745   3.906  1.00 20.00     0.000 A 
HETATM    6  C6  UNL     1     -33.457   7.015   4.193  1.00 20.00     0.000 A 
ENDROOT
TORSDOF 0
ENDMDL
MODEL 4
REMARK VINA RESULT:      -5.1      0.059      1.973
REMARK  0 active torsions:
REMARK  status: ('A' for Active; 'I' for Inactive)
ROOT
HETATM    1  C1  UNL     1     -33.962   5.812   3.889  1.00 20.00     0.000 A 
HETATM    2  C2  UNL     1     -34.600   5.036   4.857  1.00 20.00     0.000 A 
HETATM    3  C3  UNL     1     -33.442   7.061   4.229  1.00 20.00     0.000 A 
HETATM    4  C4  UNL     1     -34.719   5.509   6.164  1.00 20.00     0.000 A 
HETATM    5  C5  UNL     1     -33.560   7.533   5.536  1.00 20.00     0.000 A 
HETATM    6  C6  UNL     1     -34.199   6.757   6.504  1.00 20.00     0.000 A 
ENDROOT
TORSDOF 0
ENDMDL
MODEL 5
REMARK VINA RESULT:      -5.1      0.057      2.789
REMARK  0 active torsions:
REMARK  status: ('A' for Active; 'I' for Inactive)
ROOT
HETATM    1  C1  UNL     1     -33.965   5.811   3.894  1.00 20.00     0.000 A 
HETATM    2  C2  UNL     1     -33.442   7.060   4.232  1.00 20.00     0.000 A 
HETATM    3  C3  UNL     1     -34.605   5.038   4.863  1.00 20.00     0.000 A 
HETATM    4  C4  UNL     1     -33.556   7.534   5.539  1.00 20.00     0.000 A 
HETATM    5  C5  UNL     1     -34.720   5.512   6.169  1.00 20.00     0.000 A 
HETATM    6  C6  UNL     1     -34.195   6.760   6.507  1.00 20.00     0.000 A 
ENDROOT
TORSDOF 0
ENDMDL
MODEL 6
REMARK VINA RESULT:      -5.1      0.041      1.370
REMARK  0 active torsions:
REMARK  status: ('A' for Active; 'I' for Inactive)
ROOT
HETATM    1  C1  UNL     1     -33.560   7.554   5.519  1.00 20.00     0.000 A 
HETATM    2  C2  UNL     1     -34.198   6.798   6.502  1.00 20.00     0.000 A 
HETATM    3  C3  UNL     1     -33.437   7.052   4.224  1.00 20.00     0.000 A 
HETATM    4  C4  UNL     1     -34.712   5.539   6.191  1.00 20.00     0.000 A 
HETATM    5  C5  UNL     1     -33.952   5.794   3.912  1.00 20.00     0.000 A 
HETATM    6  C6  UNL     1     -34.589   5.037   4.896  1.00 20.00     0.000 A 
ENDROOT
TORSDOF 0
ENDMDL
MODEL 7
REMARK VINA RESULT:      -5.1      0.039      1.972
REMARK  0 active torsions:
REMARK  status: ('A' for Active; 'I' for Inactive)
ROOT
HETATM    1  C1  UNL     1     -33.559   7.554   5.519  1.00 20.00     0.000 A 
HETATM    2  C2  UNL     1     -33.437   7.050   4.224  1.00 20.00     0.000 A 
HETATM    3  C3  UNL     1     -34.195   6.800   6.504  1.00 20.00     0.000 A 
HETATM    4  C4  UNL     1     -33.953   5.791   3.914  1.00 20.00     0.000 A 
HETATM    5  C5  UNL     1     -34.711   5.542   6.195  1.00 20.00     0.000 A 
HETATM    6  C6  UNL     1     -34.590   5.037   4.900  1.00 20.00     0.000 A 
ENDROOT
TORSDOF 0
ENDMDL
MODEL 8
REMARK VINA RESULT:      -5.0      0.026      2.419
REMARK  0 active torsions:
REMARK  status: ('A' for Active; 'I' for Inactive)
ROOT
HETATM    1  C1  UNL     1     -33.476   7.027   4.189  1.00 20.00     0.000 A 
HETATM    2  C2  UNL     1     -33.577   7.556   5.476  1.00 20.00     0.000 A 
HETATM    3  C3  UNL     1     -33.988   5.760   3.914  1.00 20.00     0.000 A 
HETATM    4  C4  UNL     1     -34.188   6.816   6.489  1.00 20.00     0.000 A 
HETATM    5  C5  UNL     1     -34.600   5.020   4.926  1.00 20.00     0.000 A 
HETATM    6  C6  UNL     1     -34.700   5.548   6.213  1.00 20.00     0.000 A 
ENDROOT
TORSDOF 0
ENDMDL
MODEL 9
REMARK VINA RESULT:      -5.0      0.049      1.411
REMARK  0 active torsions:
REMARK  status: ('A' for Active; 'I' for Inactive)
ROOT
HETATM    1  C1  UNL     1     -34.681   5.480   6.181  1.00 20.00     0.000 A 
HETATM    2  C2  UNL     1     -34.552   4.962   4.892  1.00 20.00     0.000 A 
HETATM    3  C3  UNL     1     -34.191   6.752   6.474  1.00 20.00     0.000 A 
HETATM    4  C4  UNL     1     -33.932   5.717   3.896  1.00 20.00     0.000 A 
HETATM    5  C5  UNL     1     -33.571   7.507   5.478  1.00 20.00     0.000 A 
HETATM    6  C6  UNL     1     -33.441   6.989   4.189  1.00 20.00     0.000 A 
ENDROOT
TORSDOF 0
ENDMDL
