MODEL 1
REMARK VINA RESULT:      -5.0      0.000      0.000
REMARK  0 active torsions:
REMARK  status: ('A' for Active; 'I' for Inactive)
ROOT
HETATM    1  C1  UNL     1     -33.450   7.625   5.383  1.00 20.00    -0.030 C 
HETATM    2  C2  UNL     1     -33.253   7.066   4.181  1.00 20.00    -0.030 C 
HETATM    3  C3  UNL     1     -34.222   6.958   6.481  1.00 20.00     0.026 C 
HETATM    4  C4  UNL     1     -33.817   5.729   3.798  1.00 20.00     0.026 C 
HETATM    5  C5  UNL     1     -34.480   5.471   6.219  1.00 20.00     0.004 C 
HETATM    6  C6  UNL     1     -34.888   5.227   4.769  1.00 20.00     0.004 C 
ENDROOT
TORSDOF 0
ENDMDL
MODEL 2
REMARK VINA RESULT:      -5.0      0.013      2.081
REMARK  0 active torsions:
REMARK  status: ('A' for Active; 'I' for Inactive)
ROOT
HETATM    1  C1  UNL     1     -33.265   7.067   4.185  1.00 20.00    -0.030 C 
HETATM    2  C2  UNL     1     -33.456   7.628   5.386  1.00 20.00    -0.030 C 
HETATM    3  C3  UNL     1     -33.826   5.729   3.807  1.00 20.00     0.026 C 
HETATM    4  C4  UNL     1     -34.220   6.959   6.490  1.00 20.00     0.026 C 
HETATM    5  C5  UNL     1     -34.888   5.222   4.786  1.00 20.00     0.004 C 
HETATM    6  C6  UNL     1     -34.472   5.472   6.233  1.00 20.00     0.004 C 
ENDROOT
TORSDOF 0
ENDMDL
MODEL 3
REMARK VINA RESULT:      -4.9      0.283      2.081
REMARK  0 active torsions:
REMARK  status: ('A' for Active; 'I' for Inactive)
ROOT
HETATM    1  C1  UNL     1     -34.653   5.520   6.086  1.00 20.00    -0.030 C 
HETATM    2  C2  UNL     1     -34.582   4.992   4.856  1.00 20.00    -0.030 C 
HETATM    3  C3  UNL     1     -34.129   6.883   6.424  1.00 20.00     0.026 C 
HETATM    4  C4  UNL     1     -33.938   5.697   3.699  1.00 20.00     0.026 C 
HETATM    5  C5  UNL     1     -33.809   7.730   5.189  1.00 20.00     0.004 C 
HETATM    6  C6  UNL     1     -33.097   6.904   4.121  1.00 20.00     0.004 C 
ENDROOT
TORSDOF 0
ENDMDL
MODEL 4
REMARK VINA RESULT:      -4.9      0.396      2.876
REMARK  0 active torsions:
REMARK  status: ('A' for Active; 'I' for Inactive)
ROOT
HETATM    1  C1  UNL     1     -34.616   5.023   5.180  1.00 20.00    -0.030 C 
HETATM    2  C2  UNL     1     -34.549   5.725   6.319  1.00 20.00    -0.030 C 
HETATM    3  C3  UNL     1     -34.081   5.527   3.874  1.00 20.00     0.026 C 
HETATM    4  C4  UNL     1     -33.962   7.104   6.398  1.00 20.00     0.026 C 
HETATM    5  C5  UNL     1     -33.175   6.752   4.026  1.00 20.00     0.004 C 
HETATM    6  C6  UNL     1     -33.755   7.749   5.025  1.00 20.00     0.004 C 
ENDROOT
TORSDOF 0
ENDMDL
MODEL 5
REMARK VINA RESULT:      -4.8      0.277      2.542
REMARK  0 active torsions:
REMARK  status: ('A' for Active; 'I' for Inactive)
ROOT
HETATM    1  C1  UNL     1     -34.746   5.652   6.116  1.00 20.00    -0.030 C 
HETATM    2  C2  UNL     1     -34.117   6.773   6.494  1.00 20.00    -0.030 C 
HETATM    3  C3  UNL     1     -34.691   5.113   4.719  1.00 20.00     0.026 C 
HETATM    4  C4  UNL     1     -33.322   7.625   5.548  1.00 20.00     0.026 C 
HETATM    5  C5  UNL     1     -33.606   5.769   3.862  1.00 20.00     0.004 C 
HETATM    6  C6  UNL     1     -33.567   7.279   4.078  1.00 20.00     0.004 C 
ENDROOT
TORSDOF 0
ENDMDL
MODEL 6
REMARK VINA RESULT:      -4.8      0.276      2.079
REMARK  0 active torsions:
REMARK  status: ('A' for Active; 'I' for Inactive)
ROOT
HETATM    1  C1  UNL     1     -34.106   6.769   6.497  1.00 20.00    -0.030 C 
HETATM    2  C2  UNL     1     -34.734   5.645   6.126  1.00 20.00    -0.030 C 
HETATM    3  C3  UNL     1     -33.322   7.622   5.546  1.00 20.00     0.026 C 
HETATM    4  C4  UNL     1     -34.689   5.106   4.726  1.00 20.00     0.026 C 
HETATM    5  C5  UNL     1     -33.575   7.275   4.076  1.00 20.00     0.004 C 
HETATM    6  C6  UNL     1     -33.611   5.765   3.862  1.00 20.00     0.004 C 
ENDROOT
TORSDOF 0
ENDMDL
MODEL 7
REMARK VINA RESULT:      -4.7      0.388      2.084
REMARK  0 active torsions:
REMARK  status: ('A' for Active; 'I' for Inactive)
ROOT
HETATM    1  C1  UNL     1     -33.704   5.736   3.748  1.00 20.00    -0.030 C 
HETATM    2  C2  UNL     1     -33.290   6.992   3.963  1.00 20.00    -0.030 C 
HETATM    3  C3  UNL     1     -34.425   4.923   4.781  1.00 20.00     0.026 C 
HETATM    4  C4  UNL     1     -33.476   7.704   5.271  1.00 20.00     0.026 C 
HETATM    5  C5  UNL     1     -34.926   5.758   5.963  1.00 20.00     0.004 C 
HETATM    6  C6  UNL     1     -33.874   6.767   6.414  1.00 20.00     0.004 C 
ENDROOT
TORSDOF 0
ENDMDL
MODEL 8
REMARK VINA RESULT:      -4.7      0.422      1.494
REMARK  0 active torsions:
REMARK  status: ('A' for Active; 'I' for Inactive)
ROOT
HETATM    1  C1  UNL     1     -33.225   6.956   3.900  1.00 20.00    -0.030 C 
HETATM    2  C2  UNL     1     -33.665   5.708   3.694  1.00 20.00    -0.030 C 
HETATM    3  C3  UNL     1     -33.400   7.684   5.199  1.00 20.00     0.026 C 
HETATM    4  C4  UNL     1     -34.411   4.921   4.732  1.00 20.00     0.026 C 
HETATM    5  C5  UNL     1     -33.828   6.768   6.349  1.00 20.00     0.004 C 
HETATM    6  C6  UNL     1     -34.900   5.779   5.901  1.00 20.00     0.004 C 
ENDROOT
TORSDOF 0
ENDMDL
MODEL 9
REMARK VINA RESULT:      -4.4      1.211      2.570
REMARK  0 active torsions:
REMARK  status: ('A' for Active; 'I' for Inactive)
ROOT
HETATM    1  C1  UNL     1     -33.836   5.624   3.911  1.00 20.00    -0.030 C 
HETATM    2  C2  UNL     1     -32.937   5.999   2.992  1.00 20.00    -0.030 C 
HETATM    3  C3  UNL     1     -34.252   6.498   5.056  1.00 20.00     0.026 C 
HETATM    4  C4  UNL     1     -32.226   7.320   3.034  1.00 20.00     0.026 C 
HETATM    5  C5  UNL     1     -33.808   7.954   4.895  1.00 20.00     0.004 C 
HETATM    6  C6  UNL     1     -32.376   8.042   4.375  1.00 20.00     0.004 C 
ENDROOT
TORSDOF 0
ENDMDL
