MODEL 1
REMARK VINA RESULT:      -4.2      0.000      0.000
REMARK  4 active torsions:
REMARK  status: ('A' for Active; 'I' for Inactive)
REMARK    1  A    between atoms: C2_2  and  C4_4 
REMARK    2  A    between atoms: C4_4  and  O7_7 
REMARK    3  A    between atoms: C5_5  and  C6_6 
REMARK    4  A    between atoms: C6_6  and  O7_7 
ROOT
HETATM    1  O7  UNL     1     -33.958   7.465   5.123  1.00 20.00    -0.388 OA
ENDROOT
BRANCH   1   2
HETATM    2  C4  UNL     1     -32.887   8.399   5.104  1.00 20.00     0.194 C 
BRANCH   2   3
HETATM    3  C2  UNL     1     -32.058   8.154   3.887  1.00 20.00    -0.011 C 
HETATM    4  C1  UNL     1     -32.294   7.173   3.008  1.00 20.00     0.009 C 
ENDBRANCH   2   3
ENDBRANCH   1   2
BRANCH   1   5
HETATM    5  C6  UNL     1     -34.126   6.891   6.412  1.00 20.00     0.167 C 
BRANCH   5   6
HETATM    6  C5  UNL     1     -34.561   5.442   6.253  1.00 20.00     0.022 C 
HETATM    7  C3  UNL     1     -34.741   5.064   4.793  1.00 20.00     0.007 C 
ENDBRANCH   5   6
ENDBRANCH   1   5
TORSDOF 4
ENDMDL
MODEL 2
REMARK VINA RESULT:      -4.2      0.799      3.252
REMARK  4 active torsions:
REMARK  status: ('A' for Active; 'I' for Inactive)
REMARK    1  A    between atoms: C2_2  and  C4_4 
REMARK    2  A    between atoms: C4_4  and  O7_7 
REMARK    3  A    between atoms: C5_5  and  C6_6 
REMARK    4  A    between atoms: C6_6  and  O7_7 
ROOT
HETATM    1  O7  UNL     1     -33.314   7.110   6.192  1.00 20.00    -0.388 OA
ENDROOT
BRANCH   1   2
HETATM    2  C4  UNL     1     -34.486   6.348   6.446  1.00 20.00     0.194 C 
BRANCH   2   3
HETATM    3  C2  UNL     1     -34.937   5.721   5.168  1.00 20.00    -0.011 C 
HETATM    4  C1  UNL     1     -34.327   4.680   4.591  1.00 20.00     0.009 C 
ENDBRANCH   2   3
ENDBRANCH   1   2
BRANCH   1   5
HETATM    5  C6  UNL     1     -33.562   8.153   5.260  1.00 20.00     0.167 C 
BRANCH   5   6
HETATM    6  C5  UNL     1     -32.298   8.401   4.451  1.00 20.00     0.022 C 
HETATM    7  C3  UNL     1     -32.222   7.500   3.232  1.00 20.00     0.007 C 
ENDBRANCH   5   6
ENDBRANCH   1   5
TORSDOF 4
ENDMDL
MODEL 3
REMARK VINA RESULT:      -4.0      0.928      3.858
REMARK  4 active torsions:
REMARK  status: ('A' for Active; 'I' for Inactive)
REMARK    1  A    between atoms: C2_2  and  C4_4 
REMARK    2  A    between atoms: C4_4  and  O7_7 
REMARK    3  A    between atoms: C5_5  and  C6_6 
REMARK    4  A    between atoms: C6_6  and  O7_7 
ROOT
HETATM    1  O7  UNL     1     -34.043   6.098   3.873  1.00 20.00    -0.388 OA
ENDROOT
BRANCH   1   2
HETATM    2  C4  UNL     1     -34.366   4.922   4.603  1.00 20.00     0.194 C 
BRANCH   2   3
HETATM    3  C2  UNL     1     -34.633   5.296   6.023  1.00 20.00    -0.011 C 
HETATM    4  C1  UNL     1     -34.382   6.506   6.536  1.00 20.00     0.009 C 
ENDBRANCH   2   3
ENDBRANCH   1   2
BRANCH   1   5
HETATM    5  C6  UNL     1     -32.881   5.914   3.075  1.00 20.00     0.167 C 
BRANCH   5   6
HETATM    6  C5  UNL     1     -32.198   7.259   2.884  1.00 20.00     0.022 C 
HETATM    7  C3  UNL     1     -32.312   8.132   4.120  1.00 20.00     0.007 C 
ENDBRANCH   5   6
ENDBRANCH   1   5
TORSDOF 4
ENDMDL
MODEL 4
REMARK VINA RESULT:      -3.9      0.890      2.047
REMARK  4 active torsions:
REMARK  status: ('A' for Active; 'I' for Inactive)
REMARK    1  A    between atoms: C2_2  and  C4_4 
REMARK    2  A    between atoms: C4_4  and  O7_7 
REMARK    3  A    between atoms: C5_5  and  C6_6 
REMARK    4  A    between atoms: C6_6  and  O7_7 
ROOT
HETATM    1  O7  UNL     1     -34.061   6.116   3.963  1.00 20.00    -0.388 OA
ENDROOT
BRANCH   1   2
HETATM    2  C4  UNL     1     -32.933   5.957   3.112  1.00 20.00     0.194 C 
BRANCH   2   3
HETATM    3  C2  UNL     1     -32.212   7.261   3.022  1.00 20.00    -0.011 C 
HETATM    4  C1  UNL     1     -32.419   8.287   3.855  1.00 20.00     0.009 C 
ENDBRANCH   2   3
ENDBRANCH   1   2
BRANCH   1   5
HETATM    5  C6  UNL     1     -34.342   4.923   4.683  1.00 20.00     0.167 C 
BRANCH   5   6
HETATM    6  C5  UNL     1     -34.690   5.286   6.118  1.00 20.00     0.022 C 
HETATM    7  C3  UNL     1     -34.242   6.693   6.470  1.00 20.00     0.007 C 
ENDBRANCH   5   6
ENDBRANCH   1   5
TORSDOF 4
ENDMDL
MODEL 5
REMARK VINA RESULT:      -3.9      1.014      1.349
REMARK  4 active torsions:
REMARK  status: ('A' for Active; 'I' for Inactive)
REMARK    1  A    between atoms: C2_2  and  C4_4 
REMARK    2  A    between atoms: C4_4  and  O7_7 
REMARK    3  A    between atoms: C5_5  and  C6_6 
REMARK    4  A    between atoms: C6_6  and  O7_7 
ROOT
HETATM    1  O7  UNL     1     -33.795   7.242   4.422  1.00 20.00    -0.388 OA
ENDROOT
BRANCH   1   2
HETATM    2  C4  UNL     1     -32.570   7.564   3.779  1.00 20.00     0.194 C 
BRANCH   2   3
HETATM    3  C2  UNL     1     -32.346   6.602   2.660  1.00 20.00    -0.011 C 
HETATM    4  C1  UNL     1     -32.880   5.377   2.611  1.00 20.00     0.009 C 
ENDBRANCH   2   3
ENDBRANCH   1   2
BRANCH   1   5
HETATM    5  C6  UNL     1     -33.699   7.388   5.832  1.00 20.00     0.167 C 
BRANCH   5   6
HETATM    6  C5  UNL     1     -34.304   6.160   6.496  1.00 20.00     0.022 C 
HETATM    7  C3  UNL     1     -34.830   5.167   5.475  1.00 20.00     0.007 C 
ENDBRANCH   5   6
ENDBRANCH   1   5
TORSDOF 4
ENDMDL
MODEL 6
REMARK VINA RESULT:      -3.9      1.415      2.160
REMARK  4 active torsions:
REMARK  status: ('A' for Active; 'I' for Inactive)
REMARK    1  A    between atoms: C2_2  and  C4_4 
REMARK    2  A    between atoms: C4_4  and  O7_7 
REMARK    3  A    between atoms: C5_5  and  C6_6 
REMARK    4  A    between atoms: C6_6  and  O7_7 
ROOT
HETATM    1  O7  UNL     1     -34.842   6.103   6.070  1.00 20.00    -0.388 OA
ENDROOT
BRANCH   1   2
HETATM    2  C4  UNL     1     -33.670   6.875   6.291  1.00 20.00     0.194 C 
BRANCH   2   3
HETATM    3  C2  UNL     1     -33.671   8.031   5.347  1.00 20.00    -0.011 C 
HETATM    4  C1  UNL     1     -32.566   8.555   4.806  1.00 20.00     0.009 C 
ENDBRANCH   2   3
ENDBRANCH   1   2
BRANCH   1   5
HETATM    5  C6  UNL     1     -35.043   5.844   4.687  1.00 20.00     0.167 C 
BRANCH   5   6
HETATM    6  C5  UNL     1     -34.112   4.721   4.257  1.00 20.00     0.022 C 
HETATM    7  C3  UNL     1     -33.282   5.108   3.047  1.00 20.00     0.007 C 
ENDBRANCH   5   6
ENDBRANCH   1   5
TORSDOF 4
ENDMDL
MODEL 7
REMARK VINA RESULT:      -3.7      0.911      1.249
REMARK  4 active torsions:
REMARK  status: ('A' for Active; 'I' for Inactive)
REMARK    1  A    between atoms: C2_2  and  C4_4 
REMARK    2  A    between atoms: C4_4  and  O7_7 
REMARK    3  A    between atoms: C5_5  and  C6_6 
REMARK    4  A    between atoms: C6_6  and  O7_7 
ROOT
HETATM    1  O7  UNL     1     -33.441   8.494   5.034  1.00 20.00    -0.388 OA
ENDROOT
BRANCH   1   2
HETATM    2  C4  UNL     1     -32.169   8.450   4.402  1.00 20.00     0.194 C 
BRANCH   2   3
HETATM    3  C2  UNL     1     -32.231   7.487   3.263  1.00 20.00    -0.011 C 
HETATM    4  C1  UNL     1     -32.154   7.846   1.977  1.00 20.00     0.009 C 
ENDBRANCH   2   3
ENDBRANCH   1   2
BRANCH   1   5
HETATM    5  C6  UNL     1     -34.109   7.243   4.950  1.00 20.00     0.167 C 
BRANCH   5   6
HETATM    6  C5  UNL     1     -34.220   6.650   6.346  1.00 20.00     0.022 C 
HETATM    7  C3  UNL     1     -34.560   5.171   6.307  1.00 20.00     0.007 C 
ENDBRANCH   5   6
ENDBRANCH   1   5
TORSDOF 4
ENDMDL
MODEL 8
REMARK VINA RESULT:      -3.6      1.345      2.587
REMARK  4 active torsions:
REMARK  status: ('A' for Active; 'I' for Inactive)
REMARK    1  A    between atoms: C2_2  and  C4_4 
REMARK    2  A    between atoms: C4_4  and  O7_7 
REMARK    3  A    between atoms: C5_5  and  C6_6 
REMARK    4  A    between atoms: C6_6  and  O7_7 
ROOT
HETATM    1  O7  UNL     1     -34.724   5.763   4.410  1.00 20.00    -0.388 OA
ENDROOT
BRANCH   1   2
HETATM    2  C4  UNL     1     -33.884   4.708   3.962  1.00 20.00     0.194 C 
BRANCH   2   3
HETATM    3  C2  UNL     1     -33.109   5.180   2.777  1.00 20.00    -0.011 C 
HETATM    4  C1  UNL     1     -32.490   6.364   2.714  1.00 20.00     0.009 C 
ENDBRANCH   2   3
ENDBRANCH   1   2
BRANCH   1   5
HETATM    5  C6  UNL     1     -34.804   5.800   5.828  1.00 20.00     0.167 C 
BRANCH   5   6
HETATM    6  C5  UNL     1     -33.844   6.860   6.347  1.00 20.00     0.022 C 
HETATM    7  C3  UNL     1     -33.833   8.094   5.463  1.00 20.00     0.007 C 
ENDBRANCH   5   6
ENDBRANCH   1   5
TORSDOF 4
ENDMDL
MODEL 9
REMARK VINA RESULT:      -3.6      1.196      3.113
REMARK  4 active torsions:
REMARK  status: ('A' for Active; 'I' for Inactive)
REMARK    1  A    between atoms: C2_2  and  C4_4 
REMARK    2  A    between atoms: C4_4  and  O7_7 
REMARK    3  A    between atoms: C5_5  and  C6_6 
REMARK    4  A    between atoms: C6_6  and  O7_7 
ROOT
HETATM    1  O7  UNL     1     -32.425   7.948   4.783  1.00 20.00    -0.388 OA
ENDROOT
BRANCH   1   2
HETATM    2  C4  UNL     1     -33.799   7.780   5.104  1.00 20.00     0.194 C 
BRANCH   2   3
HETATM    3  C2  UNL     1     -33.906   6.948   6.339  1.00 20.00    -0.011 C 
HETATM    4  C1  UNL     1     -34.509   5.755   6.385  1.00 20.00     0.009 C 
ENDBRANCH   2   3
ENDBRANCH   1   2
BRANCH   1   5
HETATM    5  C6  UNL     1     -32.137   7.491   3.468  1.00 20.00     0.167 C 
BRANCH   5   6
HETATM    6  C5  UNL     1     -33.278   6.602   2.997  1.00 20.00     0.022 C 
HETATM    7  C3  UNL     1     -32.807   5.190   2.697  1.00 20.00     0.007 C 
ENDBRANCH   5   6
ENDBRANCH   1   5
TORSDOF 4
ENDMDL
