MODEL 1
REMARK VINA RESULT:      -5.1      0.000      0.000
REMARK  3 active torsions:
REMARK  status: ('A' for Active; 'I' for Inactive)
REMARK    1  A    between atoms: C5_5  and  O9_9 
REMARK    2  A    between atoms: C6_6  and  O10_10 
REMARK    3  A    between atoms: C8_8  and  O10_10 
ROOT
HETATM    1  C1  UNL     1     -34.748   5.594   6.018  1.00 20.00     0.003 A 
HETATM    2  C2  UNL     1     -34.240   6.850   6.350  1.00 20.00     0.003 A 
HETATM    3  C3  UNL     1     -34.441   5.023   4.784  1.00 20.00     0.039 A 
HETATM    4  C4  UNL     1     -33.427   7.535   5.449  1.00 20.00     0.039 A 
HETATM    5  C5  UNL     1     -33.626   5.707   3.881  1.00 20.00     0.099 A 
HETATM    6  C6  UNL     1     -33.119   6.963   4.214  1.00 20.00     0.101 A 
ENDROOT
BRANCH   6   7
HETATM    7  O10 UNL     1     -32.323   7.642   3.341  1.00 20.00    -0.349 OA
BRANCH   7   8
HETATM    8  C8  UNL     1     -32.583   9.035   3.176  1.00 20.00     0.171 C 
HETATM    9  C7  UNL     1     -32.792   9.327   1.706  1.00 20.00     0.034 C 
ENDBRANCH   7   8
ENDBRANCH   6   7
BRANCH   5  10
HETATM   10  O9  UNL     1     -33.334   5.138   2.678  1.00 20.00    -0.358 OA
HETATM   11  H20 UNL     1     -33.737   5.650   1.959  1.00 20.00     0.217 HD
ENDBRANCH   5  10
TORSDOF 3
ENDMDL
MODEL 2
REMARK VINA RESULT:      -4.9      0.965      2.181
REMARK  3 active torsions:
REMARK  status: ('A' for Active; 'I' for Inactive)
REMARK    1  A    between atoms: C5_5  and  O9_9 
REMARK    2  A    between atoms: C6_6  and  O10_10 
REMARK    3  A    between atoms: C8_8  and  O10_10 
ROOT
HETATM    1  C1  UNL     1     -34.667   5.968   6.014  1.00 20.00     0.003 A 
HETATM    2  C2  UNL     1     -34.645   5.326   4.776  1.00 20.00     0.003 A 
HETATM    3  C3  UNL     1     -33.872   7.094   6.229  1.00 20.00     0.039 A 
HETATM    4  C4  UNL     1     -33.828   5.808   3.754  1.00 20.00     0.039 A 
HETATM    5  C5  UNL     1     -33.055   7.577   5.207  1.00 20.00     0.099 A 
HETATM    6  C6  UNL     1     -33.033   6.934   3.969  1.00 20.00     0.101 A 
ENDROOT
BRANCH   6   7
HETATM    7  O10 UNL     1     -32.238   7.394   2.963  1.00 20.00    -0.349 OA
BRANCH   7   8
HETATM    8  C8  UNL     1     -32.659   8.584   2.297  1.00 20.00     0.171 C 
HETATM    9  C7  UNL     1     -32.247   8.507   0.843  1.00 20.00     0.034 C 
ENDBRANCH   7   8
ENDBRANCH   6   7
BRANCH   5  10
HETATM   10  O9  UNL     1     -32.283   8.677   5.429  1.00 20.00    -0.358 OA
HETATM   11  H20 UNL     1     -32.342   9.286   4.676  1.00 20.00     0.217 HD
ENDBRANCH   5  10
TORSDOF 3
ENDMDL
MODEL 3
REMARK VINA RESULT:      -4.1     11.760     13.051
REMARK  3 active torsions:
REMARK  status: ('A' for Active; 'I' for Inactive)
REMARK    1  A    between atoms: C5_5  and  O9_9 
REMARK    2  A    between atoms: C6_6  and  O10_10 
REMARK    3  A    between atoms: C8_8  and  O10_10 
ROOT
HETATM    1  C1  UNL     1     -34.599  16.266  -6.906  1.00 20.00     0.003 A 
HETATM    2  C2  UNL     1     -34.772  17.366  -6.065  1.00 20.00     0.003 A 
HETATM    3  C3  UNL     1     -34.066  15.081  -6.402  1.00 20.00     0.039 A 
HETATM    4  C4  UNL     1     -34.413  17.279  -4.721  1.00 20.00     0.039 A 
HETATM    5  C5  UNL     1     -33.707  14.994  -5.057  1.00 20.00     0.099 A 
HETATM    6  C6  UNL     1     -33.880  16.093  -4.216  1.00 20.00     0.101 A 
ENDROOT
BRANCH   6   7
HETATM    7  O10 UNL     1     -33.532  16.022  -2.901  1.00 20.00    -0.349 OA
BRANCH   7   8
HETATM    8  C8  UNL     1     -33.008  17.207  -2.304  1.00 20.00     0.171 C 
HETATM    9  C7  UNL     1     -33.742  17.471  -1.007  1.00 20.00     0.034 C 
ENDBRANCH   7   8
ENDBRANCH   6   7
BRANCH   5  10
HETATM   10  O9  UNL     1     -33.187  13.830  -4.576  1.00 20.00    -0.358 OA
HETATM   11  H20 UNL     1     -33.896  13.261  -4.235  1.00 20.00     0.217 HD
ENDBRANCH   5  10
TORSDOF 3
ENDMDL
MODEL 4
REMARK VINA RESULT:      -4.1      1.440      3.597
REMARK  3 active torsions:
REMARK  status: ('A' for Active; 'I' for Inactive)
REMARK    1  A    between atoms: C5_5  and  O9_9 
REMARK    2  A    between atoms: C6_6  and  O10_10 
REMARK    3  A    between atoms: C8_8  and  O10_10 
ROOT
HETATM    1  C1  UNL     1     -31.806   8.533   3.931  1.00 20.00     0.003 A 
HETATM    2  C2  UNL     1     -32.779   8.804   4.893  1.00 20.00     0.003 A 
HETATM    3  C3  UNL     1     -31.907   7.387   3.142  1.00 20.00     0.039 A 
HETATM    4  C4  UNL     1     -33.851   7.931   5.067  1.00 20.00     0.039 A 
HETATM    5  C5  UNL     1     -32.980   6.513   3.315  1.00 20.00     0.099 A 
HETATM    6  C6  UNL     1     -33.953   6.785   4.278  1.00 20.00     0.101 A 
ENDROOT
BRANCH   6   7
HETATM    7  O10 UNL     1     -35.005   5.939   4.458  1.00 20.00    -0.349 OA
BRANCH   7   8
HETATM    8  C8  UNL     1     -34.784   4.796   5.283  1.00 20.00     0.171 C 
HETATM    9  C7  UNL     1     -34.361   5.257   6.661  1.00 20.00     0.034 C 
ENDBRANCH   7   8
ENDBRANCH   6   7
BRANCH   5  10
HETATM   10  O9  UNL     1     -33.068   5.397   2.539  1.00 20.00    -0.358 OA
HETATM   11  H20 UNL     1     -33.978   5.061   2.537  1.00 20.00     0.217 HD
ENDBRANCH   5  10
TORSDOF 3
ENDMDL
MODEL 5
REMARK VINA RESULT:      -3.9     11.789     13.151
REMARK  3 active torsions:
REMARK  status: ('A' for Active; 'I' for Inactive)
REMARK    1  A    between atoms: C5_5  and  O9_9 
REMARK    2  A    between atoms: C6_6  and  O10_10 
REMARK    3  A    between atoms: C8_8  and  O10_10 
ROOT
HETATM    1  C1  UNL     1     -33.717  17.208  -3.115  1.00 20.00     0.003 A 
HETATM    2  C2  UNL     1     -34.725  17.735  -3.923  1.00 20.00     0.003 A 
HETATM    3  C3  UNL     1     -33.255  15.911  -3.335  1.00 20.00     0.039 A 
HETATM    4  C4  UNL     1     -35.271  16.965  -4.948  1.00 20.00     0.039 A 
HETATM    5  C5  UNL     1     -33.801  15.140  -4.361  1.00 20.00     0.099 A 
HETATM    6  C6  UNL     1     -34.809  15.667  -5.168  1.00 20.00     0.101 A 
ENDROOT
BRANCH   6   7
HETATM    7  O10 UNL     1     -35.351  14.924  -6.173  1.00 20.00    -0.349 OA
BRANCH   7   8
HETATM    8  C8  UNL     1     -35.277  15.464  -7.491  1.00 20.00     0.171 C 
HETATM    9  C7  UNL     1     -33.826  15.530  -7.916  1.00 20.00     0.034 C 
ENDBRANCH   7   8
ENDBRANCH   6   7
BRANCH   5  10
HETATM   10  O9  UNL     1     -33.341  13.874  -4.565  1.00 20.00    -0.358 OA
HETATM   11  H20 UNL     1     -32.384  13.887  -4.729  1.00 20.00     0.217 HD
ENDBRANCH   5  10
TORSDOF 3
ENDMDL
MODEL 6
REMARK VINA RESULT:      -3.8      1.814      4.211
REMARK  3 active torsions:
REMARK  status: ('A' for Active; 'I' for Inactive)
REMARK    1  A    between atoms: C5_5  and  O9_9 
REMARK    2  A    between atoms: C6_6  and  O10_10 
REMARK    3  A    between atoms: C8_8  and  O10_10 
ROOT
HETATM    1  C1  UNL     1     -31.621   8.007   3.279  1.00 20.00     0.003 A 
HETATM    2  C2  UNL     1     -32.104   6.835   2.696  1.00 20.00     0.003 A 
HETATM    3  C3  UNL     1     -32.307   8.589   4.344  1.00 20.00     0.039 A 
HETATM    4  C4  UNL     1     -33.273   6.247   3.178  1.00 20.00     0.039 A 
HETATM    5  C5  UNL     1     -33.475   8.001   4.827  1.00 20.00     0.099 A 
HETATM    6  C6  UNL     1     -33.958   6.829   4.244  1.00 20.00     0.101 A 
ENDROOT
BRANCH   6   7
HETATM    7  O10 UNL     1     -35.099   6.245   4.705  1.00 20.00    -0.349 OA
BRANCH   7   8
HETATM    8  C8  UNL     1     -34.966   4.972   5.337  1.00 20.00     0.171 C 
HETATM    9  C7  UNL     1     -34.248   5.149   6.657  1.00 20.00     0.034 C 
ENDBRANCH   7   8
ENDBRANCH   6   7
BRANCH   5  10
HETATM   10  O9  UNL     1     -34.136   8.579   5.868  1.00 20.00    -0.358 OA
HETATM   11  H20 UNL     1     -34.153   9.544   5.760  1.00 20.00     0.217 HD
ENDBRANCH   5  10
TORSDOF 3
ENDMDL
MODEL 7
REMARK VINA RESULT:      -3.7      9.939     10.667
REMARK  3 active torsions:
REMARK  status: ('A' for Active; 'I' for Inactive)
REMARK    1  A    between atoms: C5_5  and  O9_9 
REMARK    2  A    between atoms: C6_6  and  O10_10 
REMARK    3  A    between atoms: C8_8  and  O10_10 
ROOT
HETATM    1  C1  UNL     1     -42.174  15.708   6.506  1.00 20.00     0.003 A 
HETATM    2  C2  UNL     1     -42.320  14.896   5.381  1.00 20.00     0.003 A 
HETATM    3  C3  UNL     1     -41.354  15.301   7.557  1.00 20.00     0.039 A 
HETATM    4  C4  UNL     1     -41.646  13.678   5.308  1.00 20.00     0.039 A 
HETATM    5  C5  UNL     1     -40.679  14.083   7.485  1.00 20.00     0.099 A 
HETATM    6  C6  UNL     1     -40.824  13.271   6.360  1.00 20.00     0.101 A 
ENDROOT
BRANCH   6   7
HETATM    7  O10 UNL     1     -40.172  12.078   6.277  1.00 20.00    -0.349 OA
BRANCH   7   8
HETATM    8  C8  UNL     1     -38.905  12.076   5.620  1.00 20.00     0.171 C 
HETATM    9  C7  UNL     1     -39.083  11.563   4.208  1.00 20.00     0.034 C 
ENDBRANCH   7   8
ENDBRANCH   6   7
BRANCH   5  10
HETATM   10  O9  UNL     1     -39.880  13.696   8.519  1.00 20.00    -0.358 OA
HETATM   11  H20 UNL     1     -39.453  12.849   8.314  1.00 20.00     0.217 HD
ENDBRANCH   5  10
TORSDOF 3
ENDMDL
MODEL 8
REMARK VINA RESULT:      -3.6     10.100     10.956
REMARK  3 active torsions:
REMARK  status: ('A' for Active; 'I' for Inactive)
REMARK    1  A    between atoms: C5_5  and  O9_9 
REMARK    2  A    between atoms: C6_6  and  O10_10 
REMARK    3  A    between atoms: C8_8  and  O10_10 
ROOT
HETATM    1  C1  UNL     1     -41.529  13.648   4.836  1.00 20.00     0.003 A 
HETATM    2  C2  UNL     1     -42.129  14.527   5.738  1.00 20.00     0.003 A 
HETATM    3  C3  UNL     1     -40.465  12.846   5.248  1.00 20.00     0.039 A 
HETATM    4  C4  UNL     1     -41.665  14.605   7.050  1.00 20.00     0.039 A 
HETATM    5  C5  UNL     1     -40.001  12.923   6.561  1.00 20.00     0.099 A 
HETATM    6  C6  UNL     1     -40.601  13.802   7.463  1.00 20.00     0.101 A 
ENDROOT
BRANCH   6   7
HETATM    7  O10 UNL     1     -40.156  13.888   8.747  1.00 20.00    -0.349 OA
BRANCH   7   8
HETATM    8  C8  UNL     1     -40.145  15.184   9.344  1.00 20.00     0.171 C 
HETATM    9  C7  UNL     1     -40.395  15.044  10.830  1.00 20.00     0.034 C 
ENDBRANCH   7   8
ENDBRANCH   6   7
BRANCH   5  10
HETATM   10  O9  UNL     1     -38.960  12.135   6.951  1.00 20.00    -0.358 OA
HETATM   11  H20 UNL     1     -38.929  11.329   6.410  1.00 20.00     0.217 HD
ENDBRANCH   5  10
TORSDOF 3
ENDMDL
MODEL 9
REMARK VINA RESULT:      -3.6     11.840     13.153
REMARK  3 active torsions:
REMARK  status: ('A' for Active; 'I' for Inactive)
REMARK    1  A    between atoms: C5_5  and  O9_9 
REMARK    2  A    between atoms: C6_6  and  O10_10 
REMARK    3  A    between atoms: C8_8  and  O10_10 
ROOT
HETATM    1  C1  UNL     1     -32.761  18.828  -1.406  1.00 20.00     0.003 A 
HETATM    2  C2  UNL     1     -33.169  17.527  -1.109  1.00 20.00     0.003 A 
HETATM    3  C3  UNL     1     -32.731  19.262  -2.731  1.00 20.00     0.039 A 
HETATM    4  C4  UNL     1     -33.544  16.662  -2.135  1.00 20.00     0.039 A 
HETATM    5  C5  UNL     1     -33.107  18.397  -3.758  1.00 20.00     0.099 A 
HETATM    6  C6  UNL     1     -33.514  17.097  -3.460  1.00 20.00     0.101 A 
ENDROOT
BRANCH   6   7
HETATM    7  O10 UNL     1     -33.883  16.241  -4.454  1.00 20.00    -0.349 OA
BRANCH   7   8
HETATM    8  C8  UNL     1     -33.685  14.848  -4.217  1.00 20.00     0.171 C 
HETATM    9  C7  UNL     1     -34.969  14.108  -4.523  1.00 20.00     0.034 C 
ENDBRANCH   7   8
ENDBRANCH   6   7
BRANCH   5  10
HETATM   10  O9  UNL     1     -33.073  18.833  -5.048  1.00 20.00    -0.358 OA
HETATM   11  H20 UNL     1     -33.622  19.628  -5.148  1.00 20.00     0.217 HD
ENDBRANCH   5  10
TORSDOF 3
ENDMDL
