MODEL 1
REMARK VINA RESULT:      -4.9      0.000      0.000
REMARK  5 active torsions:
REMARK  status: ('A' for Active; 'I' for Inactive)
REMARK    1  A    between atoms: C1_1  and  C5_5 
REMARK    2  A    between atoms: C2_2  and  C6_6 
REMARK    3  A    between atoms: C3_3  and  O9_9 
REMARK    4  A    between atoms: C6_6  and  C7_7 
REMARK    5  A    between atoms: C7_7  and  O9_9 
ROOT
HETATM    1  C6  UNL     1     -33.796   8.099   5.075  1.00 20.00     0.053 C 
ENDROOT
BRANCH   1   2
HETATM    2  C2  UNL     1     -33.836   7.211   6.287  1.00 20.00    -0.029 C 
HETATM    3  C1  UNL     1     -34.391   5.990   6.300  1.00 20.00    -0.031 C 
BRANCH   3   4
HETATM    4  C5  UNL     1     -35.040   5.356   5.106  1.00 20.00     0.022 C 
HETATM    5  C4  UNL     1     -34.064   4.472   4.346  1.00 20.00     0.009 C 
ENDBRANCH   3   4
ENDBRANCH   1   2
BRANCH   1   6
HETATM    6  C7  UNL     1     -32.420   8.725   4.880  1.00 20.00     0.181 C 
BRANCH   6   7
HETATM    7  O9  UNL     1     -31.634   7.896   4.034  1.00 20.00    -0.328 OA
BRANCH   7   8
HETATM    8  C3  UNL     1     -32.270   7.399   2.937  1.00 20.00     0.398 C 
HETATM    9  O8  UNL     1     -32.139   7.763   1.779  1.00 20.00    -0.276 OA
ENDBRANCH   7   8
ENDBRANCH   6   7
ENDBRANCH   1   6
TORSDOF 5
ENDMDL
MODEL 2
REMARK VINA RESULT:      -4.6      2.290      3.770
REMARK  5 active torsions:
REMARK  status: ('A' for Active; 'I' for Inactive)
REMARK    1  A    between atoms: C1_1  and  C5_5 
REMARK    2  A    between atoms: C2_2  and  C6_6 
REMARK    3  A    between atoms: C3_3  and  O9_9 
REMARK    4  A    between atoms: C6_6  and  C7_7 
REMARK    5  A    between atoms: C7_7  and  O9_9 
ROOT
HETATM    1  C6  UNL     1     -34.153   7.604   5.261  1.00 20.00     0.053 C 
ENDROOT
BRANCH   1   2
HETATM    2  C2  UNL     1     -32.876   8.384   5.123  1.00 20.00    -0.029 C 
HETATM    3  C1  UNL     1     -32.016   8.233   4.105  1.00 20.00    -0.031 C 
BRANCH   3   4
HETATM    4  C5  UNL     1     -32.219   7.267   2.977  1.00 20.00     0.022 C 
HETATM    5  C4  UNL     1     -32.190   7.972   1.630  1.00 20.00     0.009 C 
ENDBRANCH   3   4
ENDBRANCH   1   2
BRANCH   1   6
HETATM    6  C7  UNL     1     -34.114   6.665   6.462  1.00 20.00     0.181 C 
BRANCH   6   7
HETATM    7  O9  UNL     1     -34.810   5.465   6.151  1.00 20.00    -0.328 OA
BRANCH   7   8
HETATM    8  C3  UNL     1     -34.754   5.070   4.849  1.00 20.00     0.398 C 
HETATM    9  O8  UNL     1     -34.108   4.143   4.385  1.00 20.00    -0.276 OA
ENDBRANCH   7   8
ENDBRANCH   6   7
ENDBRANCH   1   6
TORSDOF 5
ENDMDL
MODEL 3
REMARK VINA RESULT:      -4.5      1.461      3.059
REMARK  5 active torsions:
REMARK  status: ('A' for Active; 'I' for Inactive)
REMARK    1  A    between atoms: C1_1  and  C5_5 
REMARK    2  A    between atoms: C2_2  and  C6_6 
REMARK    3  A    between atoms: C3_3  and  O9_9 
REMARK    4  A    between atoms: C6_6  and  C7_7 
REMARK    5  A    between atoms: C7_7  and  O9_9 
ROOT
HETATM    1  C6  UNL     1     -35.065   5.376   5.292  1.00 20.00     0.053 C 
ENDROOT
BRANCH   1   2
HETATM    2  C2  UNL     1     -34.368   6.032   6.450  1.00 20.00    -0.029 C 
HETATM    3  C1  UNL     1     -33.800   7.246   6.389  1.00 20.00    -0.031 C 
BRANCH   3   4
HETATM    4  C5  UNL     1     -33.789   8.101   5.158  1.00 20.00     0.022 C 
HETATM    5  C4  UNL     1     -32.412   8.695   4.906  1.00 20.00     0.009 C 
ENDBRANCH   3   4
ENDBRANCH   1   2
BRANCH   1   6
HETATM    6  C7  UNL     1     -34.108   4.526   4.464  1.00 20.00     0.181 C 
BRANCH   6   7
HETATM    7  O9  UNL     1     -34.015   5.056   3.148  1.00 20.00    -0.328 OA
BRANCH   7   8
HETATM    8  C3  UNL     1     -32.761   5.389   2.733  1.00 20.00     0.398 C 
HETATM    9  O8  UNL     1     -32.356   6.499   2.424  1.00 20.00    -0.276 OA
ENDBRANCH   7   8
ENDBRANCH   6   7
ENDBRANCH   1   6
TORSDOF 5
ENDMDL
MODEL 4
REMARK VINA RESULT:      -4.4      2.219      3.647
REMARK  5 active torsions:
REMARK  status: ('A' for Active; 'I' for Inactive)
REMARK    1  A    between atoms: C1_1  and  C5_5 
REMARK    2  A    between atoms: C2_2  and  C6_6 
REMARK    3  A    between atoms: C3_3  and  O9_9 
REMARK    4  A    between atoms: C6_6  and  C7_7 
REMARK    5  A    between atoms: C7_7  and  O9_9 
ROOT
HETATM    1  C6  UNL     1     -33.498   6.996   6.321  1.00 20.00     0.053 C 
ENDROOT
BRANCH   1   2
HETATM    2  C2  UNL     1     -33.782   8.253   5.549  1.00 20.00    -0.029 C 
HETATM    3  C1  UNL     1     -33.097   8.629   4.459  1.00 20.00    -0.031 C 
BRANCH   3   4
HETATM    4  C5  UNL     1     -31.962   7.844   3.873  1.00 20.00     0.022 C 
HETATM    5  C4  UNL     1     -32.241   7.455   2.430  1.00 20.00     0.009 C 
ENDBRANCH   3   4
ENDBRANCH   1   2
BRANCH   1   6
HETATM    6  C7  UNL     1     -34.706   6.066   6.351  1.00 20.00     0.181 C 
BRANCH   6   7
HETATM    7  O9  UNL     1     -35.194   5.876   5.029  1.00 20.00    -0.328 OA
BRANCH   7   8
HETATM    8  C3  UNL     1     -34.457   5.042   4.243  1.00 20.00     0.398 C 
HETATM    9  O8  UNL     1     -34.034   3.934   4.533  1.00 20.00    -0.276 OA
ENDBRANCH   7   8
ENDBRANCH   6   7
ENDBRANCH   1   6
TORSDOF 5
ENDMDL
MODEL 5
REMARK VINA RESULT:      -4.3      1.271      2.267
REMARK  5 active torsions:
REMARK  status: ('A' for Active; 'I' for Inactive)
REMARK    1  A    between atoms: C1_1  and  C5_5 
REMARK    2  A    between atoms: C2_2  and  C6_6 
REMARK    3  A    between atoms: C3_3  and  O9_9 
REMARK    4  A    between atoms: C6_6  and  C7_7 
REMARK    5  A    between atoms: C7_7  and  O9_9 
ROOT
HETATM    1  C6  UNL     1     -34.750   6.357   6.312  1.00 20.00     0.053 C 
ENDROOT
BRANCH   1   2
HETATM    2  C2  UNL     1     -34.424   4.933   5.961  1.00 20.00    -0.029 C 
HETATM    3  C1  UNL     1     -34.133   4.518   4.719  1.00 20.00    -0.031 C 
BRANCH   3   4
HETATM    4  C5  UNL     1     -34.095   5.423   3.524  1.00 20.00     0.022 C 
HETATM    5  C4  UNL     1     -32.908   5.110   2.627  1.00 20.00     0.009 C 
ENDBRANCH   3   4
ENDBRANCH   1   2
BRANCH   1   6
HETATM    6  C7  UNL     1     -33.498   7.226   6.363  1.00 20.00     0.181 C 
BRANCH   6   7
HETATM    7  O9  UNL     1     -33.635   8.313   5.456  1.00 20.00    -0.328 OA
BRANCH   7   8
HETATM    8  C3  UNL     1     -32.491   8.708   4.831  1.00 20.00     0.398 C 
HETATM    9  O8  UNL     1     -31.846   8.080   4.005  1.00 20.00    -0.276 OA
ENDBRANCH   7   8
ENDBRANCH   6   7
ENDBRANCH   1   6
TORSDOF 5
ENDMDL
MODEL 6
REMARK VINA RESULT:      -4.1      1.282      1.830
REMARK  5 active torsions:
REMARK  status: ('A' for Active; 'I' for Inactive)
REMARK    1  A    between atoms: C1_1  and  C5_5 
REMARK    2  A    between atoms: C2_2  and  C6_6 
REMARK    3  A    between atoms: C3_3  and  O9_9 
REMARK    4  A    between atoms: C6_6  and  C7_7 
REMARK    5  A    between atoms: C7_7  and  O9_9 
ROOT
HETATM    1  C6  UNL     1     -32.321   8.061   4.713  1.00 20.00     0.053 C 
ENDROOT
BRANCH   1   2
HETATM    2  C2  UNL     1     -33.575   8.398   5.469  1.00 20.00    -0.029 C 
HETATM    3  C1  UNL     1     -34.263   7.513   6.204  1.00 20.00    -0.031 C 
BRANCH   3   4
HETATM    4  C5  UNL     1     -33.868   6.076   6.367  1.00 20.00     0.022 C 
HETATM    5  C4  UNL     1     -34.779   5.156   5.569  1.00 20.00     0.009 C 
ENDBRANCH   3   4
ENDBRANCH   1   2
BRANCH   1   6
HETATM    6  C7  UNL     1     -32.466   8.345   3.223  1.00 20.00     0.181 C 
BRANCH   6   7
HETATM    7  O9  UNL     1     -32.145   7.175   2.481  1.00 20.00    -0.328 OA
BRANCH   7   8
HETATM    8  C3  UNL     1     -32.960   6.103   2.688  1.00 20.00     0.398 C 
HETATM    9  O8  UNL     1     -32.655   4.922   2.634  1.00 20.00    -0.276 OA
ENDBRANCH   7   8
ENDBRANCH   6   7
ENDBRANCH   1   6
TORSDOF 5
ENDMDL
MODEL 7
REMARK VINA RESULT:      -4.0      1.260      1.715
REMARK  5 active torsions:
REMARK  status: ('A' for Active; 'I' for Inactive)
REMARK    1  A    between atoms: C1_1  and  C5_5 
REMARK    2  A    between atoms: C2_2  and  C6_6 
REMARK    3  A    between atoms: C3_3  and  O9_9 
REMARK    4  A    between atoms: C6_6  and  C7_7 
REMARK    5  A    between atoms: C7_7  and  O9_9 
ROOT
HETATM    1  C6  UNL     1     -32.589   7.601   4.400  1.00 20.00     0.053 C 
ENDROOT
BRANCH   1   2
HETATM    2  C2  UNL     1     -33.517   8.048   5.494  1.00 20.00    -0.029 C 
HETATM    3  C1  UNL     1     -34.255   7.210   6.236  1.00 20.00    -0.031 C 
BRANCH   3   4
HETATM    4  C5  UNL     1     -34.248   5.720   6.068  1.00 20.00     0.022 C 
HETATM    5  C4  UNL     1     -35.057   5.295   4.852  1.00 20.00     0.009 C 
ENDBRANCH   3   4
ENDBRANCH   1   2
BRANCH   1   6
HETATM    6  C7  UNL     1     -32.665   8.518   3.185  1.00 20.00     0.181 C 
BRANCH   6   7
HETATM    7  O9  UNL     1     -32.156   7.841   2.043  1.00 20.00    -0.328 OA
BRANCH   7   8
HETATM    8  C3  UNL     1     -32.237   8.523   0.867  1.00 20.00     0.398 C 
HETATM    9  O8  UNL     1     -32.744   9.618   0.682  1.00 20.00    -0.276 OA
ENDBRANCH   7   8
ENDBRANCH   6   7
ENDBRANCH   1   6
TORSDOF 5
ENDMDL
MODEL 8
REMARK VINA RESULT:      -4.0      1.246      2.746
REMARK  5 active torsions:
REMARK  status: ('A' for Active; 'I' for Inactive)
REMARK    1  A    between atoms: C1_1  and  C5_5 
REMARK    2  A    between atoms: C2_2  and  C6_6 
REMARK    3  A    between atoms: C3_3  and  O9_9 
REMARK    4  A    between atoms: C6_6  and  C7_7 
REMARK    5  A    between atoms: C7_7  and  O9_9 
ROOT
HETATM    1  C6  UNL     1     -33.177   6.316   2.516  1.00 20.00     0.053 C 
ENDROOT
BRANCH   1   2
HETATM    2  C2  UNL     1     -33.142   4.932   3.102  1.00 20.00    -0.029 C 
HETATM    3  C1  UNL     1     -33.917   4.534   4.121  1.00 20.00    -0.031 C 
BRANCH   3   4
HETATM    4  C5  UNL     1     -34.917   5.417   4.804  1.00 20.00     0.022 C 
HETATM    5  C4  UNL     1     -34.670   5.479   6.304  1.00 20.00     0.009 C 
ENDBRANCH   3   4
ENDBRANCH   1   2
BRANCH   1   6
HETATM    6  C7  UNL     1     -32.014   7.168   3.011  1.00 20.00     0.181 C 
BRANCH   6   7
HETATM    7  O9  UNL     1     -32.510   8.391   3.541  1.00 20.00    -0.328 OA
BRANCH   7   8
HETATM    8  C3  UNL     1     -32.692   8.419   4.891  1.00 20.00     0.398 C 
HETATM    9  O8  UNL     1     -33.722   8.683   5.492  1.00 20.00    -0.276 OA
ENDBRANCH   7   8
ENDBRANCH   6   7
ENDBRANCH   1   6
TORSDOF 5
ENDMDL
MODEL 9
REMARK VINA RESULT:      -4.0      2.431      4.313
REMARK  5 active torsions:
REMARK  status: ('A' for Active; 'I' for Inactive)
REMARK    1  A    between atoms: C1_1  and  C5_5 
REMARK    2  A    between atoms: C2_2  and  C6_6 
REMARK    3  A    between atoms: C3_3  and  O9_9 
REMARK    4  A    between atoms: C6_6  and  C7_7 
REMARK    5  A    between atoms: C7_7  and  O9_9 
ROOT
HETATM    1  C6  UNL     1     -34.131   5.733   3.687  1.00 20.00     0.053 C 
ENDROOT
BRANCH   1   2
HETATM    2  C2  UNL     1     -32.787   5.964   3.056  1.00 20.00    -0.029 C 
HETATM    3  C1  UNL     1     -32.197   7.166   2.975  1.00 20.00    -0.031 C 
BRANCH   3   4
HETATM    4  C5  UNL     1     -32.805   8.431   3.502  1.00 20.00     0.022 C 
HETATM    5  C4  UNL     1     -32.215   8.810   4.852  1.00 20.00     0.009 C 
ENDBRANCH   3   4
ENDBRANCH   1   2
BRANCH   1   6
HETATM    6  C7  UNL     1     -34.135   4.489   4.568  1.00 20.00     0.181 C 
BRANCH   6   7
HETATM    7  O9  UNL     1     -34.188   4.874   5.936  1.00 20.00    -0.328 OA
BRANCH   7   8
HETATM    8  C3  UNL     1     -34.809   6.059   6.192  1.00 20.00     0.398 C 
HETATM    9  O8  UNL     1     -34.359   7.010   6.810  1.00 20.00    -0.276 OA
ENDBRANCH   7   8
ENDBRANCH   6   7
ENDBRANCH   1   6
TORSDOF 5
ENDMDL
