MODEL 1
REMARK VINA RESULT:      -5.8      0.000      0.000
REMARK  0 active torsions:
REMARK  status: ('A' for Active; 'I' for Inactive)
ROOT
HETATM    1  C1  UNL     1     -32.028   7.905   2.145  1.00 20.00     0.018 C 
HETATM    2  C2  UNL     1     -32.625   7.418   3.067  1.00 20.00    -0.078 C 
HETATM    3  C3  UNL     1     -34.720   5.704   6.303  1.00 20.00     0.000 A 
HETATM    4  C4  UNL     1     -34.652   5.032   5.082  1.00 20.00     0.001 A 
HETATM    5  C5  UNL     1     -34.095   6.942   6.453  1.00 20.00     0.001 A 
HETATM    6  C6  UNL     1     -33.958   5.599   4.012  1.00 20.00     0.020 A 
HETATM    7  C7  UNL     1     -33.403   7.508   5.384  1.00 20.00     0.020 A 
HETATM    8  C8  UNL     1     -33.334   6.837   4.163  1.00 20.00     0.016 A 
ENDROOT
TORSDOF 0
ENDMDL
MODEL 2
REMARK VINA RESULT:      -5.8      0.014      1.708
REMARK  0 active torsions:
REMARK  status: ('A' for Active; 'I' for Inactive)
ROOT
HETATM    1  C1  UNL     1     -32.026   7.924   2.161  1.00 20.00     0.018 C 
HETATM    2  C2  UNL     1     -32.624   7.429   3.077  1.00 20.00    -0.078 C 
HETATM    3  C3  UNL     1     -34.725   5.692   6.297  1.00 20.00     0.000 A 
HETATM    4  C4  UNL     1     -34.108   6.934   6.455  1.00 20.00     0.001 A 
HETATM    5  C5  UNL     1     -34.647   5.026   5.074  1.00 20.00     0.001 A 
HETATM    6  C6  UNL     1     -33.414   7.508   5.390  1.00 20.00     0.020 A 
HETATM    7  C7  UNL     1     -33.952   5.600   4.010  1.00 20.00     0.020 A 
HETATM    8  C8  UNL     1     -33.335   6.841   4.168  1.00 20.00     0.016 A 
ENDROOT
TORSDOF 0
ENDMDL
MODEL 3
REMARK VINA RESULT:      -5.3      1.167      1.686
REMARK  0 active torsions:
REMARK  status: ('A' for Active; 'I' for Inactive)
ROOT
HETATM    1  C1  UNL     1     -32.916   4.890   1.777  1.00 20.00     0.018 C 
HETATM    2  C2  UNL     1     -33.247   5.329   2.845  1.00 20.00    -0.078 C 
HETATM    3  C3  UNL     1     -34.408   6.868   6.597  1.00 20.00     0.000 A 
HETATM    4  C4  UNL     1     -34.735   5.557   6.249  1.00 20.00     0.001 A 
HETATM    5  C5  UNL     1     -33.696   7.669   5.703  1.00 20.00     0.001 A 
HETATM    6  C6  UNL     1     -34.351   5.048   5.008  1.00 20.00     0.020 A 
HETATM    7  C7  UNL     1     -33.313   7.160   4.464  1.00 20.00     0.020 A 
HETATM    8  C8  UNL     1     -33.640   5.850   4.115  1.00 20.00     0.016 A 
ENDROOT
TORSDOF 0
ENDMDL
MODEL 4
REMARK VINA RESULT:      -5.3      1.168      2.186
REMARK  0 active torsions:
REMARK  status: ('A' for Active; 'I' for Inactive)
ROOT
HETATM    1  C1  UNL     1     -32.917   4.889   1.777  1.00 20.00     0.018 C 
HETATM    2  C2  UNL     1     -33.247   5.327   2.846  1.00 20.00    -0.078 C 
HETATM    3  C3  UNL     1     -34.408   6.866   6.598  1.00 20.00     0.000 A 
HETATM    4  C4  UNL     1     -33.696   7.667   5.706  1.00 20.00     0.001 A 
HETATM    5  C5  UNL     1     -34.736   5.556   6.249  1.00 20.00     0.001 A 
HETATM    6  C6  UNL     1     -33.312   7.159   4.464  1.00 20.00     0.020 A 
HETATM    7  C7  UNL     1     -34.352   5.047   5.010  1.00 20.00     0.020 A 
HETATM    8  C8  UNL     1     -33.640   5.848   4.117  1.00 20.00     0.016 A 
ENDROOT
TORSDOF 0
ENDMDL
MODEL 5
REMARK VINA RESULT:      -5.0      0.884      3.499
REMARK  0 active torsions:
REMARK  status: ('A' for Active; 'I' for Inactive)
ROOT
HETATM    1  C1  UNL     1     -35.026   5.404   6.663  1.00 20.00     0.018 C 
HETATM    2  C2  UNL     1     -34.380   5.978   5.828  1.00 20.00    -0.078 C 
HETATM    3  C3  UNL     1     -32.112   7.991   2.896  1.00 20.00     0.000 A 
HETATM    4  C4  UNL     1     -32.546   6.685   2.667  1.00 20.00     0.001 A 
HETATM    5  C5  UNL     1     -32.429   8.631   4.094  1.00 20.00     0.001 A 
HETATM    6  C6  UNL     1     -33.296   6.019   3.637  1.00 20.00     0.020 A 
HETATM    7  C7  UNL     1     -33.178   7.965   5.063  1.00 20.00     0.020 A 
HETATM    8  C8  UNL     1     -33.612   6.660   4.835  1.00 20.00     0.016 A 
ENDROOT
TORSDOF 0
ENDMDL
MODEL 6
REMARK VINA RESULT:      -5.0      0.884      3.887
REMARK  0 active torsions:
REMARK  status: ('A' for Active; 'I' for Inactive)
ROOT
HETATM    1  C1  UNL     1     -35.026   5.403   6.662  1.00 20.00     0.018 C 
HETATM    2  C2  UNL     1     -34.381   5.977   5.827  1.00 20.00    -0.078 C 
HETATM    3  C3  UNL     1     -32.112   7.991   2.895  1.00 20.00     0.000 A 
HETATM    4  C4  UNL     1     -32.429   8.631   4.094  1.00 20.00     0.001 A 
HETATM    5  C5  UNL     1     -32.546   6.685   2.667  1.00 20.00     0.001 A 
HETATM    6  C6  UNL     1     -33.179   7.965   5.064  1.00 20.00     0.020 A 
HETATM    7  C7  UNL     1     -33.295   6.019   3.636  1.00 20.00     0.020 A 
HETATM    8  C8  UNL     1     -33.613   6.659   4.834  1.00 20.00     0.016 A 
ENDROOT
TORSDOF 0
ENDMDL
MODEL 7
REMARK VINA RESULT:      -3.9     12.533     13.011
REMARK  0 active torsions:
REMARK  status: ('A' for Active; 'I' for Inactive)
ROOT
HETATM    1  C1  UNL     1     -29.550  19.259   2.542  1.00 20.00     0.018 C 
HETATM    2  C2  UNL     1     -30.451  18.989   1.794  1.00 20.00    -0.078 C 
HETATM    3  C3  UNL     1     -33.616  18.045  -0.829  1.00 20.00     0.000 A 
HETATM    4  C4  UNL     1     -33.881  18.322   0.512  1.00 20.00     0.001 A 
HETATM    5  C5  UNL     1     -32.304  18.080  -1.302  1.00 20.00     0.001 A 
HETATM    6  C6  UNL     1     -32.834  18.635   1.380  1.00 20.00     0.020 A 
HETATM    7  C7  UNL     1     -31.258  18.392  -0.435  1.00 20.00     0.020 A 
HETATM    8  C8  UNL     1     -31.523  18.669   0.906  1.00 20.00     0.016 A 
ENDROOT
TORSDOF 0
ENDMDL
MODEL 8
REMARK VINA RESULT:      -3.8     16.204     16.970
REMARK  0 active torsions:
REMARK  status: ('A' for Active; 'I' for Inactive)
ROOT
HETATM    1  C1  UNL     1     -21.407  18.192   7.577  1.00 20.00     0.018 C 
HETATM    2  C2  UNL     1     -21.978  18.272   8.631  1.00 20.00    -0.078 C 
HETATM    3  C3  UNL     1     -23.985  18.551  12.331  1.00 20.00     0.000 A 
HETATM    4  C4  UNL     1     -24.715  18.514  11.143  1.00 20.00     0.001 A 
HETATM    5  C5  UNL     1     -22.591  18.497  12.295  1.00 20.00     0.001 A 
HETATM    6  C6  UNL     1     -24.051  18.421   9.919  1.00 20.00     0.020 A 
HETATM    7  C7  UNL     1     -21.928  18.405  11.072  1.00 20.00     0.020 A 
HETATM    8  C8  UNL     1     -22.658  18.367   9.884  1.00 20.00     0.016 A 
ENDROOT
TORSDOF 0
ENDMDL
MODEL 9
REMARK VINA RESULT:      -3.8     11.976     13.263
REMARK  0 active torsions:
REMARK  status: ('A' for Active; 'I' for Inactive)
ROOT
HETATM    1  C1  UNL     1     -33.852  14.615  -4.257  1.00 20.00     0.018 C 
HETATM    2  C2  UNL     1     -33.657  15.645  -3.671  1.00 20.00    -0.078 C 
HETATM    3  C3  UNL     1     -32.971  19.263  -1.612  1.00 20.00     0.000 A 
HETATM    4  C4  UNL     1     -33.273  18.101  -0.900  1.00 20.00     0.001 A 
HETATM    5  C5  UNL     1     -32.897  19.227  -3.004  1.00 20.00     0.001 A 
HETATM    6  C6  UNL     1     -33.499  16.905  -1.581  1.00 20.00     0.020 A 
HETATM    7  C7  UNL     1     -33.124  18.032  -3.684  1.00 20.00     0.020 A 
HETATM    8  C8  UNL     1     -33.425  16.871  -2.974  1.00 20.00     0.016 A 
ENDROOT
TORSDOF 0
ENDMDL
