MODEL 1
REMARK VINA RESULT:      -5.3      0.000      0.000
REMARK  1 active torsions:
REMARK  status: ('A' for Active; 'I' for Inactive)
REMARK    1  A    between atoms: C1_1  and  C8_8 
ROOT
HETATM    1  C1  UNL     1     -32.855   7.367   2.954  1.00 20.00    -0.067 C 
HETATM    2  C2  UNL     1     -32.360   7.833   1.965  1.00 20.00    -0.105 C 
HETATM    3  C9  UNL     1     -31.758   8.400   0.760  1.00 20.00     0.112 C 
ENDROOT
BRANCH   1   4
HETATM    4  C8  UNL     1     -33.448   6.812   4.131  1.00 20.00     0.017 A 
HETATM    5  C6  UNL     1     -34.038   5.549   4.085  1.00 20.00     0.020 A 
HETATM    6  C4  UNL     1     -34.616   5.007   5.233  1.00 20.00     0.001 A 
HETATM    7  C3  UNL     1     -34.604   5.728   6.427  1.00 20.00     0.000 A 
HETATM    8  C5  UNL     1     -34.013   6.991   6.473  1.00 20.00     0.001 A 
HETATM    9  C7  UNL     1     -33.435   7.532   5.325  1.00 20.00     0.020 A 
ENDBRANCH   1   4
TORSDOF 1
ENDMDL
MODEL 2
REMARK VINA RESULT:      -4.4     11.978     12.428
REMARK  1 active torsions:
REMARK  status: ('A' for Active; 'I' for Inactive)
REMARK    1  A    between atoms: C1_1  and  C8_8 
ROOT
HETATM    1  C1  UNL     1     -33.222  16.834  -2.347  1.00 20.00    -0.067 C 
HETATM    2  C2  UNL     1     -33.422  16.143  -3.308  1.00 20.00    -0.105 C 
HETATM    3  C9  UNL     1     -33.664  15.302  -4.479  1.00 20.00     0.112 C 
ENDROOT
BRANCH   1   4
HETATM    4  C8  UNL     1     -32.982  17.657  -1.202  1.00 20.00     0.017 A 
HETATM    5  C6  UNL     1     -31.737  18.261  -1.027  1.00 20.00     0.020 A 
HETATM    6  C4  UNL     1     -31.503  19.063   0.090  1.00 20.00     0.001 A 
HETATM    7  C3  UNL     1     -32.513  19.261   1.031  1.00 20.00     0.000 A 
HETATM    8  C5  UNL     1     -33.757  18.657   0.855  1.00 20.00     0.001 A 
HETATM    9  C7  UNL     1     -33.992  17.855  -0.261  1.00 20.00     0.020 A 
ENDBRANCH   1   4
TORSDOF 1
ENDMDL
MODEL 3
REMARK VINA RESULT:      -4.4     11.943     12.402
REMARK  1 active torsions:
REMARK  status: ('A' for Active; 'I' for Inactive)
REMARK    1  A    between atoms: C1_1  and  C8_8 
ROOT
HETATM    1  C1  UNL     1     -33.228  16.794  -2.378  1.00 20.00    -0.067 C 
HETATM    2  C2  UNL     1     -33.427  16.090  -3.330  1.00 20.00    -0.105 C 
HETATM    3  C9  UNL     1     -33.669  15.232  -4.489  1.00 20.00     0.112 C 
ENDROOT
BRANCH   1   4
HETATM    4  C8  UNL     1     -32.992  17.630  -1.243  1.00 20.00     0.017 A 
HETATM    5  C6  UNL     1     -33.990  17.802  -0.284  1.00 20.00     0.020 A 
HETATM    6  C4  UNL     1     -33.760  18.617   0.824  1.00 20.00     0.001 A 
HETATM    7  C3  UNL     1     -32.531  19.262   0.973  1.00 20.00     0.000 A 
HETATM    8  C5  UNL     1     -31.534  19.090   0.013  1.00 20.00     0.001 A 
HETATM    9  C7  UNL     1     -31.764  18.274  -1.094  1.00 20.00     0.020 A 
ENDBRANCH   1   4
TORSDOF 1
ENDMDL
MODEL 4
REMARK VINA RESULT:      -4.2     12.306     12.824
REMARK  1 active torsions:
REMARK  status: ('A' for Active; 'I' for Inactive)
REMARK    1  A    between atoms: C1_1  and  C8_8 
ROOT
HETATM    1  C1  UNL     1     -30.317  18.588   2.133  1.00 20.00    -0.067 C 
HETATM    2  C2  UNL     1     -29.436  18.637   2.947  1.00 20.00    -0.105 C 
HETATM    3  C9  UNL     1     -28.362  18.697   3.936  1.00 20.00     0.112 C 
ENDROOT
BRANCH   1   4
HETATM    4  C8  UNL     1     -31.366  18.531   1.162  1.00 20.00     0.017 A 
HETATM    5  C6  UNL     1     -32.698  18.602   1.570  1.00 20.00     0.020 A 
HETATM    6  C4  UNL     1     -33.720  18.547   0.623  1.00 20.00     0.001 A 
HETATM    7  C3  UNL     1     -33.412  18.421  -0.731  1.00 20.00     0.000 A 
HETATM    8  C5  UNL     1     -32.080  18.350  -1.138  1.00 20.00     0.001 A 
HETATM    9  C7  UNL     1     -31.057  18.405  -0.191  1.00 20.00     0.020 A 
ENDBRANCH   1   4
TORSDOF 1
ENDMDL
MODEL 5
REMARK VINA RESULT:      -4.2     12.365     12.814
REMARK  1 active torsions:
REMARK  status: ('A' for Active; 'I' for Inactive)
REMARK    1  A    between atoms: C1_1  and  C8_8 
ROOT
HETATM    1  C1  UNL     1     -30.355  18.614   2.104  1.00 20.00    -0.067 C 
HETATM    2  C2  UNL     1     -29.466  18.661   2.910  1.00 20.00    -0.105 C 
HETATM    3  C9  UNL     1     -28.384  18.719   3.890  1.00 20.00     0.112 C 
ENDROOT
BRANCH   1   4
HETATM    4  C8  UNL     1     -31.411  18.558   1.142  1.00 20.00     0.017 A 
HETATM    5  C6  UNL     1     -31.114  18.386  -0.210  1.00 20.00     0.020 A 
HETATM    6  C4  UNL     1     -32.145  18.331  -1.148  1.00 20.00     0.001 A 
HETATM    7  C3  UNL     1     -33.472  18.450  -0.736  1.00 20.00     0.000 A 
HETATM    8  C5  UNL     1     -33.768  18.622   0.617  1.00 20.00     0.001 A 
HETATM    9  C7  UNL     1     -32.737  18.677   1.555  1.00 20.00     0.020 A 
ENDBRANCH   1   4
TORSDOF 1
ENDMDL
MODEL 6
REMARK VINA RESULT:      -3.9     11.813     13.099
REMARK  1 active torsions:
REMARK  status: ('A' for Active; 'I' for Inactive)
REMARK    1  A    between atoms: C1_1  and  C8_8 
ROOT
HETATM    1  C1  UNL     1     -33.264  17.280  -2.277  1.00 20.00    -0.067 C 
HETATM    2  C2  UNL     1     -32.939  17.801  -1.245  1.00 20.00    -0.105 C 
HETATM    3  C9  UNL     1     -32.544  18.438   0.010  1.00 20.00     0.112 C 
ENDROOT
BRANCH   1   4
HETATM    4  C8  UNL     1     -33.650  16.660  -3.506  1.00 20.00     0.017 A 
HETATM    5  C6  UNL     1     -34.276  17.414  -4.499  1.00 20.00     0.020 A 
HETATM    6  C4  UNL     1     -34.652  16.810  -5.699  1.00 20.00     0.001 A 
HETATM    7  C3  UNL     1     -34.404  15.453  -5.905  1.00 20.00     0.000 A 
HETATM    8  C5  UNL     1     -33.778  14.700  -4.912  1.00 20.00     0.001 A 
HETATM    9  C7  UNL     1     -33.402  15.304  -3.712  1.00 20.00     0.020 A 
ENDBRANCH   1   4
TORSDOF 1
ENDMDL
MODEL 7
REMARK VINA RESULT:      -3.9     11.811     13.051
REMARK  1 active torsions:
REMARK  status: ('A' for Active; 'I' for Inactive)
REMARK    1  A    between atoms: C1_1  and  C8_8 
ROOT
HETATM    1  C1  UNL     1     -33.267  17.279  -2.274  1.00 20.00    -0.067 C 
HETATM    2  C2  UNL     1     -32.946  17.801  -1.242  1.00 20.00    -0.105 C 
HETATM    3  C9  UNL     1     -32.556  18.438   0.015  1.00 20.00     0.112 C 
ENDROOT
BRANCH   1   4
HETATM    4  C8  UNL     1     -33.651  16.659  -3.504  1.00 20.00     0.017 A 
HETATM    5  C6  UNL     1     -33.399  15.303  -3.709  1.00 20.00     0.020 A 
HETATM    6  C4  UNL     1     -33.774  14.698  -4.909  1.00 20.00     0.001 A 
HETATM    7  C3  UNL     1     -34.401  15.449  -5.903  1.00 20.00     0.000 A 
HETATM    8  C5  UNL     1     -34.653  16.805  -5.697  1.00 20.00     0.001 A 
HETATM    9  C7  UNL     1     -34.277  17.410  -4.498  1.00 20.00     0.020 A 
ENDBRANCH   1   4
TORSDOF 1
ENDMDL
MODEL 8
REMARK VINA RESULT:      -3.9     12.186     13.484
REMARK  1 active torsions:
REMARK  status: ('A' for Active; 'I' for Inactive)
REMARK    1  A    between atoms: C1_1  and  C8_8 
ROOT
HETATM    1  C1  UNL     1     -31.921  18.387  -0.821  1.00 20.00    -0.067 C 
HETATM    2  C2  UNL     1     -31.321  18.594   0.198  1.00 20.00    -0.105 C 
HETATM    3  C9  UNL     1     -30.590  18.847   1.438  1.00 20.00     0.112 C 
ENDROOT
BRANCH   1   4
HETATM    4  C8  UNL     1     -32.634  18.142  -2.036  1.00 20.00     0.017 A 
HETATM    5  C6  UNL     1     -33.181  16.882  -2.281  1.00 20.00     0.020 A 
HETATM    6  C4  UNL     1     -33.876  16.643  -3.466  1.00 20.00     0.001 A 
HETATM    7  C3  UNL     1     -34.024  17.662  -4.407  1.00 20.00     0.000 A 
HETATM    8  C5  UNL     1     -33.477  18.922  -4.161  1.00 20.00     0.001 A 
HETATM    9  C7  UNL     1     -32.782  19.161  -2.976  1.00 20.00     0.020 A 
ENDBRANCH   1   4
TORSDOF 1
ENDMDL
MODEL 9
REMARK VINA RESULT:      -3.9     12.193     13.557
REMARK  1 active torsions:
REMARK  status: ('A' for Active; 'I' for Inactive)
REMARK    1  A    between atoms: C1_1  and  C8_8 
ROOT
HETATM    1  C1  UNL     1     -31.907  18.402  -0.824  1.00 20.00    -0.067 C 
HETATM    2  C2  UNL     1     -31.308  18.613   0.194  1.00 20.00    -0.105 C 
HETATM    3  C9  UNL     1     -30.579  18.872   1.434  1.00 20.00     0.112 C 
ENDROOT
BRANCH   1   4
HETATM    4  C8  UNL     1     -32.622  18.152  -2.037  1.00 20.00     0.017 A 
HETATM    5  C6  UNL     1     -32.776  19.170  -2.978  1.00 20.00     0.020 A 
HETATM    6  C4  UNL     1     -33.474  18.927  -4.161  1.00 20.00     0.001 A 
HETATM    7  C3  UNL     1     -34.018  17.665  -4.403  1.00 20.00     0.000 A 
HETATM    8  C5  UNL     1     -33.864  16.648  -3.462  1.00 20.00     0.001 A 
HETATM    9  C7  UNL     1     -33.166  16.891  -2.279  1.00 20.00     0.020 A 
ENDBRANCH   1   4
TORSDOF 1
ENDMDL
