MODEL 1
REMARK VINA RESULT:      -6.0      0.000      0.000
REMARK  0 active torsions:
REMARK  status: ('A' for Active; 'I' for Inactive)
ROOT
HETATM    1  C1  UNL     1     -34.531   6.160   6.564  1.00 20.00     0.001 A 
HETATM    2  C2  UNL     1     -34.679   5.033   5.751  1.00 20.00     0.003 A 
HETATM    3  C3  UNL     1     -33.887   7.312   6.092  1.00 20.00     0.014 A 
HETATM    4  C4  UNL     1     -34.191   5.015   4.442  1.00 20.00     0.038 A 
HETATM    5  C5  UNL     1     -32.700   8.245   3.955  1.00 20.00     0.046 A 
HETATM    6  C6  UNL     1     -33.388   7.315   4.778  1.00 20.00     0.000 A 
HETATM    7  C7  UNL     1     -33.556   6.173   4.001  1.00 20.00     0.086 A 
HETATM    8  C8  UNL     1     -32.497   7.618   2.747  1.00 20.00     0.050 A 
HETATM    9  C9  UNL     1     -31.855   8.040   1.494  1.00 20.00     0.077 C 
HETATM   10  O10 UNL     1     -33.012   6.362   2.765  1.00 20.00    -0.315 OA
ENDROOT
TORSDOF 0
ENDMDL
MODEL 2
REMARK VINA RESULT:      -4.7      1.460      2.409
REMARK  0 active torsions:
REMARK  status: ('A' for Active; 'I' for Inactive)
ROOT
HETATM    1  C1  UNL     1     -34.464   4.636   4.501  1.00 20.00     0.001 A 
HETATM    2  C2  UNL     1     -34.848   5.045   5.781  1.00 20.00     0.003 A 
HETATM    3  C3  UNL     1     -33.666   5.454   3.690  1.00 20.00     0.014 A 
HETATM    4  C4  UNL     1     -34.452   6.283   6.295  1.00 20.00     0.038 A 
HETATM    5  C5  UNL     1     -32.475   7.784   3.701  1.00 20.00     0.046 A 
HETATM    6  C6  UNL     1     -33.256   6.703   4.188  1.00 20.00     0.000 A 
HETATM    7  C7  UNL     1     -33.660   7.074   5.466  1.00 20.00     0.086 A 
HETATM    8  C8  UNL     1     -32.454   8.729   4.701  1.00 20.00     0.050 A 
HETATM    9  C9  UNL     1     -31.826  10.053   4.816  1.00 20.00     0.077 C 
HETATM   10  O10 UNL     1     -33.170   8.308   5.776  1.00 20.00    -0.315 OA
ENDROOT
TORSDOF 0
ENDMDL
MODEL 3
REMARK VINA RESULT:      -4.5      1.463      2.090
REMARK  0 active torsions:
REMARK  status: ('A' for Active; 'I' for Inactive)
ROOT
HETATM    1  C1  UNL     1     -33.808   8.029   6.247  1.00 20.00     0.001 A 
HETATM    2  C2  UNL     1     -34.494   6.888   6.673  1.00 20.00     0.003 A 
HETATM    3  C3  UNL     1     -33.141   8.052   5.015  1.00 20.00     0.014 A 
HETATM    4  C4  UNL     1     -34.540   5.734   5.887  1.00 20.00     0.038 A 
HETATM    5  C5  UNL     1     -32.647   6.533   2.942  1.00 20.00     0.046 A 
HETATM    6  C6  UNL     1     -33.174   6.902   4.207  1.00 20.00     0.000 A 
HETATM    7  C7  UNL     1     -33.868   5.787   4.668  1.00 20.00     0.086 A 
HETATM    8  C8  UNL     1     -33.049   5.237   2.716  1.00 20.00     0.050 A 
HETATM    9  C9  UNL     1     -32.835   4.300   1.605  1.00 20.00     0.077 C 
HETATM   10  O10 UNL     1     -33.790   4.775   3.757  1.00 20.00    -0.315 OA
ENDROOT
TORSDOF 0
ENDMDL
MODEL 4
REMARK VINA RESULT:      -4.5      1.102      3.733
REMARK  0 active torsions:
REMARK  status: ('A' for Active; 'I' for Inactive)
ROOT
HETATM    1  C1  UNL     1     -32.084   8.757   3.159  1.00 20.00     0.001 A 
HETATM    2  C2  UNL     1     -32.193   7.627   2.344  1.00 20.00     0.003 A 
HETATM    3  C3  UNL     1     -32.612   8.766   4.457  1.00 20.00     0.014 A 
HETATM    4  C4  UNL     1     -32.832   6.468   2.794  1.00 20.00     0.038 A 
HETATM    5  C5  UNL     1     -33.902   7.229   6.136  1.00 20.00     0.046 A 
HETATM    6  C6  UNL     1     -33.258   7.611   4.930  1.00 20.00     0.000 A 
HETATM    7  C7  UNL     1     -33.347   6.507   4.088  1.00 20.00     0.086 A 
HETATM    8  C8  UNL     1     -34.334   5.935   5.954  1.00 20.00     0.050 A 
HETATM    9  C9  UNL     1     -35.057   4.989   6.814  1.00 20.00     0.077 C 
HETATM   10  O10 UNL     1     -34.002   5.488   4.715  1.00 20.00    -0.315 OA
ENDROOT
TORSDOF 0
ENDMDL
MODEL 5
REMARK VINA RESULT:      -4.4      1.478      2.064
REMARK  0 active torsions:
REMARK  status: ('A' for Active; 'I' for Inactive)
ROOT
HETATM    1  C1  UNL     1     -34.748   4.673   4.990  1.00 20.00     0.001 A 
HETATM    2  C2  UNL     1     -34.032   4.527   3.799  1.00 20.00     0.003 A 
HETATM    3  C3  UNL     1     -34.660   5.849   5.746  1.00 20.00     0.014 A 
HETATM    4  C4  UNL     1     -33.204   5.547   3.322  1.00 20.00     0.038 A 
HETATM    5  C5  UNL     1     -33.484   8.186   5.739  1.00 20.00     0.046 A 
HETATM    6  C6  UNL     1     -33.834   6.888   5.284  1.00 20.00     0.000 A 
HETATM    7  C7  UNL     1     -33.137   6.704   4.095  1.00 20.00     0.086 A 
HETATM    8  C8  UNL     1     -32.610   8.702   4.810  1.00 20.00     0.050 A 
HETATM    9  C9  UNL     1     -31.899   9.983   4.704  1.00 20.00     0.077 C 
HETATM   10  O10 UNL     1     -32.393   7.810   3.808  1.00 20.00    -0.315 OA
ENDROOT
TORSDOF 0
ENDMDL
MODEL 6
REMARK VINA RESULT:      -4.4      1.370      2.545
REMARK  0 active torsions:
REMARK  status: ('A' for Active; 'I' for Inactive)
ROOT
HETATM    1  C1  UNL     1     -34.340   7.243   6.678  1.00 20.00     0.001 A 
HETATM    2  C2  UNL     1     -33.608   8.237   6.022  1.00 20.00     0.003 A 
HETATM    3  C3  UNL     1     -34.530   5.983   6.096  1.00 20.00     0.014 A 
HETATM    4  C4  UNL     1     -33.043   8.010   4.764  1.00 20.00     0.038 A 
HETATM    5  C5  UNL     1     -33.937   4.632   3.935  1.00 20.00     0.046 A 
HETATM    6  C6  UNL     1     -33.970   5.733   4.831  1.00 20.00     0.000 A 
HETATM    7  C7  UNL     1     -33.250   6.748   4.211  1.00 20.00     0.086 A 
HETATM    8  C8  UNL     1     -33.207   5.043   2.843  1.00 20.00     0.050 A 
HETATM    9  C9  UNL     1     -32.816   4.379   1.592  1.00 20.00     0.077 C 
HETATM   10  O10 UNL     1     -32.786   6.325   3.001  1.00 20.00    -0.315 OA
ENDROOT
TORSDOF 0
ENDMDL
MODEL 7
REMARK VINA RESULT:      -4.2     15.429     15.939
REMARK  0 active torsions:
REMARK  status: ('A' for Active; 'I' for Inactive)
ROOT
HETATM    1  C1  UNL     1     -25.470  17.074  12.332  1.00 20.00     0.001 A 
HETATM    2  C2  UNL     1     -25.933  18.362  12.050  1.00 20.00     0.003 A 
HETATM    3  C3  UNL     1     -24.433  16.500  11.585  1.00 20.00     0.014 A 
HETATM    4  C4  UNL     1     -25.380  19.121  11.015  1.00 20.00     0.038 A 
HETATM    5  C5  UNL     1     -22.834  17.033   9.583  1.00 20.00     0.046 A 
HETATM    6  C6  UNL     1     -23.862  17.246  10.538  1.00 20.00     0.000 A 
HETATM    7  C7  UNL     1     -24.351  18.523  10.290  1.00 20.00     0.086 A 
HETATM    8  C8  UNL     1     -22.764  18.179   8.826  1.00 20.00     0.050 A 
HETATM    9  C9  UNL     1     -21.918  18.584   7.695  1.00 20.00     0.077 C 
HETATM   10  O10 UNL     1     -23.681  19.090   9.247  1.00 20.00    -0.315 OA
ENDROOT
TORSDOF 0
ENDMDL
MODEL 8
REMARK VINA RESULT:      -4.1     12.611     13.055
REMARK  0 active torsions:
REMARK  status: ('A' for Active; 'I' for Inactive)
ROOT
HETATM    1  C1  UNL     1     -32.197  18.371  -1.297  1.00 20.00     0.001 A 
HETATM    2  C2  UNL     1     -33.451  18.773  -0.830  1.00 20.00     0.003 A 
HETATM    3  C3  UNL     1     -31.100  18.277  -0.431  1.00 20.00     0.014 A 
HETATM    4  C4  UNL     1     -33.655  19.095   0.514  1.00 20.00     0.038 A 
HETATM    5  C5  UNL     1     -30.458  18.629   2.082  1.00 20.00     0.046 A 
HETATM    6  C6  UNL     1     -31.282  18.596   0.926  1.00 20.00     0.000 A 
HETATM    7  C7  UNL     1     -32.546  18.992   1.351  1.00 20.00     0.086 A 
HETATM    8  C8  UNL     1     -31.263  19.036   3.121  1.00 20.00     0.050 A 
HETATM    9  C9  UNL     1     -31.015  19.263   4.551  1.00 20.00     0.077 C 
HETATM   10  O10 UNL     1     -32.531  19.259   2.688  1.00 20.00    -0.315 OA
ENDROOT
TORSDOF 0
ENDMDL
MODEL 9
REMARK VINA RESULT:      -4.0     12.166     13.323
REMARK  0 active torsions:
REMARK  status: ('A' for Active; 'I' for Inactive)
ROOT
HETATM    1  C1  UNL     1     -33.754  14.946  -5.409  1.00 20.00     0.001 A 
HETATM    2  C2  UNL     1     -34.534  15.931  -6.021  1.00 20.00     0.003 A 
HETATM    3  C3  UNL     1     -33.302  15.099  -4.091  1.00 20.00     0.014 A 
HETATM    4  C4  UNL     1     -34.890  17.100  -5.343  1.00 20.00     0.038 A 
HETATM    5  C5  UNL     1     -33.399  16.784  -2.092  1.00 20.00     0.046 A 
HETATM    6  C6  UNL     1     -33.648  16.267  -3.390  1.00 20.00     0.000 A 
HETATM    7  C7  UNL     1     -34.425  17.223  -4.035  1.00 20.00     0.086 A 
HETATM    8  C8  UNL     1     -34.033  18.003  -2.031  1.00 20.00     0.050 A 
HETATM    9  C9  UNL     1     -34.154  19.019  -0.976  1.00 20.00     0.077 C 
HETATM   10  O10 UNL     1     -34.658  18.279  -3.205  1.00 20.00    -0.315 OA
ENDROOT
TORSDOF 0
ENDMDL
