MODEL 1
REMARK VINA RESULT:      -5.3      0.000      0.000
REMARK  1 active torsions:
REMARK  status: ('A' for Active; 'I' for Inactive)
REMARK    1  A    between atoms: C3_3  and  C8_8 
ROOT
HETATM    1  C1  UNL     1     -34.063  17.199  -3.621  1.00 20.00    -0.026 C 
HETATM    2  C2  UNL     1     -33.381  16.067  -3.849  1.00 20.00    -0.024 C 
HETATM    3  C4  UNL     1     -35.113  15.528  -2.426  1.00 20.00     0.018 C 
HETATM    4  C5  UNL     1     -36.193  16.227  -4.435  1.00 20.00     0.029 C 
HETATM    5  C6  UNL     1     -35.459  16.804  -3.198  1.00 20.00     0.010 C 
HETATM    6  C7  UNL     1     -34.330  14.915  -3.601  1.00 20.00     0.027 C 
HETATM    7  C8  UNL     1     -35.413  14.909  -4.705  1.00 20.00     0.052 C 
HETATM    8  C9  UNL     1     -34.903  14.770  -6.133  1.00 20.00     0.027 C 
ENDROOT
BRANCH   7   9
HETATM    9  C3  UNL     1     -36.333  13.703  -4.534  1.00 20.00     0.182 C 
HETATM   10  O10 UNL     1     -37.566  13.967  -4.496  1.00 20.00    -0.647 OA
HETATM   11  O11 UNL     1     -35.738  12.592  -4.451  1.00 20.00    -0.647 OA
ENDBRANCH   7   9
TORSDOF 1
ENDMDL
MODEL 2
REMARK VINA RESULT:      -4.8      1.275      2.687
REMARK  1 active torsions:
REMARK  status: ('A' for Active; 'I' for Inactive)
REMARK    1  A    between atoms: C3_3  and  C8_8 
ROOT
HETATM    1  C1  UNL     1     -34.462  16.985  -6.297  1.00 20.00    -0.026 C 
HETATM    2  C2  UNL     1     -35.660  17.214  -5.738  1.00 20.00    -0.024 C 
HETATM    3  C4  UNL     1     -35.869  15.300  -7.007  1.00 20.00     0.018 C 
HETATM    4  C5  UNL     1     -34.296  14.718  -5.310  1.00 20.00     0.029 C 
HETATM    5  C6  UNL     1     -34.399  15.514  -6.636  1.00 20.00     0.010 C 
HETATM    6  C7  UNL     1     -36.388  15.889  -5.684  1.00 20.00     0.027 C 
HETATM    7  C8  UNL     1     -35.684  14.970  -4.657  1.00 20.00     0.052 C 
HETATM    8  C9  UNL     1     -35.612  15.502  -3.232  1.00 20.00     0.027 C 
ENDROOT
BRANCH   7   9
HETATM    9  C3  UNL     1     -36.450  13.658  -4.511  1.00 20.00     0.182 C 
HETATM   10  O10 UNL     1     -37.705  13.772  -4.439  1.00 20.00    -0.647 OA
HETATM   11  O11 UNL     1     -35.726  12.623  -4.481  1.00 20.00    -0.647 OA
ENDBRANCH   7   9
TORSDOF 1
ENDMDL
MODEL 3
REMARK VINA RESULT:      -4.8      1.150      1.831
REMARK  1 active torsions:
REMARK  status: ('A' for Active; 'I' for Inactive)
REMARK    1  A    between atoms: C3_3  and  C8_8 
ROOT
HETATM    1  C1  UNL     1     -33.990  17.058  -3.206  1.00 20.00    -0.026 C 
HETATM    2  C2  UNL     1     -34.153  17.209  -4.528  1.00 20.00    -0.024 C 
HETATM    3  C4  UNL     1     -33.354  15.073  -4.193  1.00 20.00     0.018 C 
HETATM    4  C5  UNL     1     -35.485  15.084  -3.121  1.00 20.00     0.029 C 
HETATM    5  C6  UNL     1     -34.031  15.576  -2.915  1.00 20.00     0.010 C 
HETATM    6  C7  UNL     1     -34.324  15.827  -5.118  1.00 20.00     0.027 C 
HETATM    7  C8  UNL     1     -35.683  15.248  -4.655  1.00 20.00     0.052 C 
HETATM    8  C9  UNL     1     -36.914  16.057  -5.040  1.00 20.00     0.027 C 
ENDROOT
BRANCH   7   9
HETATM    9  C3  UNL     1     -35.927  13.891  -5.308  1.00 20.00     0.182 C 
HETATM   10  O10 UNL     1     -36.042  12.921  -4.509  1.00 20.00    -0.647 OA
HETATM   11  O11 UNL     1     -35.982  13.913  -6.570  1.00 20.00    -0.647 OA
ENDBRANCH   7   9
TORSDOF 1
ENDMDL
MODEL 4
REMARK VINA RESULT:      -4.8      1.530      2.625
REMARK  1 active torsions:
REMARK  status: ('A' for Active; 'I' for Inactive)
REMARK    1  A    between atoms: C3_3  and  C8_8 
ROOT
HETATM    1  C1  UNL     1     -34.422  15.979  -2.285  1.00 20.00    -0.026 C 
HETATM    2  C2  UNL     1     -35.644  16.169  -2.803  1.00 20.00    -0.024 C 
HETATM    3  C4  UNL     1     -34.130  16.909  -4.376  1.00 20.00     0.018 C 
HETATM    4  C5  UNL     1     -33.696  14.570  -4.190  1.00 20.00     0.029 C 
HETATM    5  C6  UNL     1     -33.452  15.904  -3.441  1.00 20.00     0.010 C 
HETATM    6  C7  UNL     1     -35.492  16.198  -4.308  1.00 20.00     0.027 C 
HETATM    7  C8  UNL     1     -35.110  14.782  -4.802  1.00 20.00     0.052 C 
HETATM    8  C9  UNL     1     -36.102  13.674  -4.472  1.00 20.00     0.027 C 
ENDROOT
BRANCH   7   9
HETATM    9  C3  UNL     1     -35.039  14.757  -6.326  1.00 20.00     0.182 C 
HETATM   10  O10 UNL     1     -33.875  14.708  -6.811  1.00 20.00    -0.647 OA
HETATM   11  O11 UNL     1     -36.160  14.789  -6.909  1.00 20.00    -0.647 OA
ENDBRANCH   7   9
TORSDOF 1
ENDMDL
MODEL 5
REMARK VINA RESULT:      -4.8      0.958      1.257
REMARK  1 active torsions:
REMARK  status: ('A' for Active; 'I' for Inactive)
REMARK    1  A    between atoms: C3_3  and  C8_8 
ROOT
HETATM    1  C1  UNL     1     -33.175  16.058  -3.861  1.00 20.00    -0.026 C 
HETATM    2  C2  UNL     1     -33.417  14.752  -4.047  1.00 20.00    -0.024 C 
HETATM    3  C4  UNL     1     -35.002  15.520  -2.559  1.00 20.00     0.018 C 
HETATM    4  C5  UNL     1     -35.456  16.711  -4.577  1.00 20.00     0.029 C 
HETATM    5  C6  UNL     1     -34.463  16.690  -3.387  1.00 20.00     0.010 C 
HETATM    6  C7  UNL     1     -34.875  14.516  -3.718  1.00 20.00     0.027 C 
HETATM    7  C8  UNL     1     -35.750  15.199  -4.797  1.00 20.00     0.052 C 
HETATM    8  C9  UNL     1     -35.529  14.726  -6.227  1.00 20.00     0.027 C 
ENDROOT
BRANCH   7   9
HETATM    9  C3  UNL     1     -37.225  14.902  -4.544  1.00 20.00     0.182 C 
HETATM   10  O10 UNL     1     -37.971  15.915  -4.454  1.00 20.00    -0.647 OA
HETATM   11  O11 UNL     1     -37.510  13.674  -4.456  1.00 20.00    -0.647 OA
ENDBRANCH   7   9
TORSDOF 1
ENDMDL
MODEL 6
REMARK VINA RESULT:      -4.7      1.169      1.594
REMARK  1 active torsions:
REMARK  status: ('A' for Active; 'I' for Inactive)
REMARK    1  A    between atoms: C3_3  and  C8_8 
ROOT
HETATM    1  C1  UNL     1     -34.271  17.336  -2.989  1.00 20.00    -0.026 C 
HETATM    2  C2  UNL     1     -34.245  16.167  -2.333  1.00 20.00    -0.024 C 
HETATM    3  C4  UNL     1     -36.322  16.332  -3.319  1.00 20.00     0.018 C 
HETATM    4  C5  UNL     1     -34.800  16.252  -5.154  1.00 20.00     0.029 C 
HETATM    5  C6  UNL     1     -35.325  17.222  -4.066  1.00 20.00     0.010 C 
HETATM    6  C7  UNL     1     -35.267  15.263  -2.988  1.00 20.00     0.027 C 
HETATM    7  C8  UNL     1     -34.771  14.889  -4.405  1.00 20.00     0.052 C 
HETATM    8  C9  UNL     1     -33.430  14.172  -4.471  1.00 20.00     0.027 C 
ENDROOT
BRANCH   7   9
HETATM    9  C3  UNL     1     -35.737  13.904  -5.057  1.00 20.00     0.182 C 
HETATM   10  O10 UNL     1     -35.874  12.804  -4.454  1.00 20.00    -0.647 OA
HETATM   11  O11 UNL     1     -36.276  14.317  -6.122  1.00 20.00    -0.647 OA
ENDBRANCH   7   9
TORSDOF 1
ENDMDL
MODEL 7
REMARK VINA RESULT:      -4.6      1.850      2.258
REMARK  1 active torsions:
REMARK  status: ('A' for Active; 'I' for Inactive)
REMARK    1  A    between atoms: C3_3  and  C8_8 
ROOT
HETATM    1  C1  UNL     1     -34.475  15.919  -2.507  1.00 20.00    -0.026 C 
HETATM    2  C2  UNL     1     -33.382  16.023  -3.277  1.00 20.00    -0.024 C 
HETATM    3  C4  UNL     1     -34.423  14.050  -3.858  1.00 20.00     0.018 C 
HETATM    4  C5  UNL     1     -35.989  15.746  -4.462  1.00 20.00     0.029 C 
HETATM    5  C6  UNL     1     -35.440  15.000  -3.220  1.00 20.00     0.010 C 
HETATM    6  C7  UNL     1     -33.627  15.190  -4.516  1.00 20.00     0.027 C 
HETATM    7  C8  UNL     1     -34.729  15.866  -5.366  1.00 20.00     0.052 C 
HETATM    8  C9  UNL     1     -34.432  17.285  -5.831  1.00 20.00     0.027 C 
ENDROOT
BRANCH   7   9
HETATM    9  C3  UNL     1     -34.935  15.098  -6.669  1.00 20.00     0.182 C 
HETATM   10  O10 UNL     1     -36.093  14.629  -6.841  1.00 20.00    -0.647 OA
HETATM   11  O11 UNL     1     -33.914  15.030  -7.410  1.00 20.00    -0.647 OA
ENDBRANCH   7   9
TORSDOF 1
ENDMDL
MODEL 8
REMARK VINA RESULT:      -4.5     10.260     11.703
REMARK  1 active torsions:
REMARK  status: ('A' for Active; 'I' for Inactive)
REMARK    1  A    between atoms: C3_3  and  C8_8 
ROOT
HETATM    1  C1  UNL     1     -42.272   8.904   0.466  1.00 20.00    -0.026 C 
HETATM    2  C2  UNL     1     -43.406   8.236   0.209  1.00 20.00    -0.024 C 
HETATM    3  C4  UNL     1     -42.060   8.003  -1.647  1.00 20.00     0.018 C 
HETATM    4  C5  UNL     1     -40.861   6.900   0.097  1.00 20.00     0.029 C 
HETATM    5  C6  UNL     1     -41.198   8.321  -0.423  1.00 20.00     0.010 C 
HETATM    6  C7  UNL     1     -43.083   7.190  -0.835  1.00 20.00     0.027 C 
HETATM    7  C8  UNL     1     -42.169   6.114  -0.202  1.00 20.00     0.052 C 
HETATM    8  C9  UNL     1     -42.743   5.382   1.003  1.00 20.00     0.027 C 
ENDROOT
BRANCH   7   9
HETATM    9  C3  UNL     1     -41.900   4.996  -1.205  1.00 20.00     0.182 C 
HETATM   10  O10 UNL     1     -42.926   4.400  -1.636  1.00 20.00    -0.647 OA
HETATM   11  O11 UNL     1     -40.680   4.809  -1.475  1.00 20.00    -0.647 OA
ENDBRANCH   7   9
TORSDOF 1
ENDMDL
MODEL 9
REMARK VINA RESULT:      -4.4     10.493     11.803
REMARK  1 active torsions:
REMARK  status: ('A' for Active; 'I' for Inactive)
REMARK    1  A    between atoms: C3_3  and  C8_8 
ROOT
HETATM    1  C1  UNL     1     -41.664   9.037  -0.189  1.00 20.00    -0.026 C 
HETATM    2  C2  UNL     1     -41.139   8.196   0.714  1.00 20.00    -0.024 C 
HETATM    3  C4  UNL     1     -43.417   7.845   0.720  1.00 20.00     0.018 C 
HETATM    4  C5  UNL     1     -42.724   7.199  -1.469  1.00 20.00     0.029 C 
HETATM    5  C6  UNL     1     -42.995   8.463  -0.615  1.00 20.00     0.010 C 
HETATM    6  C7  UNL     1     -42.110   7.047   0.874  1.00 20.00     0.027 C 
HETATM    7  C8  UNL     1     -42.120   6.213  -0.430  1.00 20.00     0.052 C 
HETATM    8  C9  UNL     1     -40.783   5.616  -0.845  1.00 20.00     0.027 C 
ENDROOT
BRANCH   7   9
HETATM    9  C3  UNL     1     -43.023   4.993  -0.267  1.00 20.00     0.182 C 
HETATM   10  O10 UNL     1     -43.407   4.460  -1.344  1.00 20.00    -0.647 OA
HETATM   11  O11 UNL     1     -43.270   4.674   0.929  1.00 20.00    -0.647 OA
ENDBRANCH   7   9
TORSDOF 1
ENDMDL
