MODEL 1
REMARK VINA RESULT:      -4.5      0.000      0.000
REMARK  1 active torsions:
REMARK  status: ('A' for Active; 'I' for Inactive)
REMARK    1  A    between atoms: C8_8  and  N9_9 
ROOT
HETATM    1  C1  UNL     1     -24.875  18.977   7.060  1.00 20.00     0.158 C 
HETATM    2  N9  UNL     1     -23.786  18.761   7.446  1.00 20.00    -0.270 NA
HETATM    3  S10 UNL     1     -26.341  19.263   6.508  1.00 20.00    -0.055 SA
ENDROOT
BRANCH   2   4
HETATM    4  C8  UNL     1     -23.598  18.937   8.888  1.00 20.00     0.118 C 
HETATM    5  C5  UNL     1     -22.110  18.684   9.263  1.00 20.00     0.036 C 
HETATM    6  C6  UNL     1     -22.203  17.480  10.228  1.00 20.00     0.010 C 
HETATM    7  C2  UNL     1     -22.935  17.931  11.472  1.00 20.00    -0.026 C 
HETATM    8  C4  UNL     1     -23.324  16.665   9.578  1.00 20.00     0.019 C 
HETATM    9  C3  UNL     1     -24.217  18.129  11.128  1.00 20.00    -0.024 C 
HETATM   10  C7  UNL     1     -24.337  17.815   9.654  1.00 20.00     0.033 C 
ENDBRANCH   2   4
TORSDOF 1
ENDMDL
MODEL 2
REMARK VINA RESULT:      -4.3     23.173     24.421
REMARK  1 active torsions:
REMARK  status: ('A' for Active; 'I' for Inactive)
REMARK    1  A    between atoms: C8_8  and  N9_9 
ROOT
HETATM    1  C1  UNL     1     -43.018   4.194  -2.021  1.00 20.00     0.158 C 
HETATM    2  N9  UNL     1     -43.412   4.983  -1.245  1.00 20.00    -0.270 NA
HETATM    3  S10 UNL     1     -42.503   3.104  -3.061  1.00 20.00    -0.055 SA
ENDROOT
BRANCH   2   4
HETATM    4  C8  UNL     1     -42.749   6.288  -1.302  1.00 20.00     0.118 C 
HETATM    5  C5  UNL     1     -41.273   6.154  -0.832  1.00 20.00     0.036 C 
HETATM    6  C6  UNL     1     -41.227   7.077   0.409  1.00 20.00     0.010 C 
HETATM    7  C2  UNL     1     -41.449   8.498  -0.056  1.00 20.00    -0.026 C 
HETATM    8  C4  UNL     1     -42.603   6.813   1.025  1.00 20.00     0.019 C 
HETATM    9  C3  UNL     1     -42.731   8.593  -0.443  1.00 20.00    -0.024 C 
HETATM   10  C7  UNL     1     -43.360   7.234  -0.242  1.00 20.00     0.033 C 
ENDBRANCH   2   4
TORSDOF 1
ENDMDL
MODEL 3
REMARK VINA RESULT:      -4.3      1.369      2.233
REMARK  1 active torsions:
REMARK  status: ('A' for Active; 'I' for Inactive)
REMARK    1  A    between atoms: C8_8  and  N9_9 
ROOT
HETATM    1  C1  UNL     1     -24.750  19.009   7.871  1.00 20.00     0.158 C 
HETATM    2  N9  UNL     1     -24.191  18.838   8.891  1.00 20.00    -0.270 NA
HETATM    3  S10 UNL     1     -25.485  19.262   6.482  1.00 20.00    -0.055 SA
ENDROOT
BRANCH   2   4
HETATM    4  C8  UNL     1     -24.845  17.894   9.800  1.00 20.00     0.118 C 
HETATM    5  C5  UNL     1     -25.385  18.648  11.049  1.00 20.00     0.036 C 
HETATM    6  C6  UNL     1     -24.601  17.989  12.208  1.00 20.00     0.010 C 
HETATM    7  C2  UNL     1     -25.033  16.544  12.304  1.00 20.00    -0.026 C 
HETATM    8  C4  UNL     1     -23.231  17.783  11.559  1.00 20.00     0.019 C 
HETATM    9  C3  UNL     1     -24.545  15.911  11.226  1.00 20.00    -0.024 C 
HETATM   10  C7  UNL     1     -23.794  16.937  10.409  1.00 20.00     0.033 C 
ENDBRANCH   2   4
TORSDOF 1
ENDMDL
MODEL 4
REMARK VINA RESULT:      -4.3     16.161     16.963
REMARK  1 active torsions:
REMARK  status: ('A' for Active; 'I' for Inactive)
REMARK    1  A    between atoms: C8_8  and  N9_9 
ROOT
HETATM    1  C1  UNL     1     -32.856   6.808   1.835  1.00 20.00     0.158 C 
HETATM    2  N9  UNL     1     -33.160   5.732   2.195  1.00 20.00    -0.270 NA
HETATM    3  S10 UNL     1     -32.446   8.257   1.318  1.00 20.00    -0.055 SA
ENDROOT
BRANCH   2   4
HETATM    4  C8  UNL     1     -33.216   5.561   3.648  1.00 20.00     0.118 C 
HETATM    5  C5  UNL     1     -33.930   4.224   3.998  1.00 20.00     0.036 C 
HETATM    6  C6  UNL     1     -35.160   4.698   4.806  1.00 20.00     0.010 C 
HETATM    7  C2  UNL     1     -34.665   5.320   6.091  1.00 20.00    -0.026 C 
HETATM    8  C4  UNL     1     -35.534   5.977   4.054  1.00 20.00     0.019 C 
HETATM    9  C3  UNL     1     -34.066   6.477   5.767  1.00 20.00    -0.024 C 
HETATM   10  C7  UNL     1     -34.157   6.621   4.265  1.00 20.00     0.033 C 
ENDBRANCH   2   4
TORSDOF 1
ENDMDL
MODEL 5
REMARK VINA RESULT:      -4.1     16.858     18.146
REMARK  1 active torsions:
REMARK  status: ('A' for Active; 'I' for Inactive)
REMARK    1  A    between atoms: C8_8  and  N9_9 
ROOT
HETATM    1  C1  UNL     1     -37.984  15.214  -4.764  1.00 20.00     0.158 C 
HETATM    2  N9  UNL     1     -36.940  15.110  -5.292  1.00 20.00    -0.270 NA
HETATM    3  S10 UNL     1     -39.413  15.339  -4.072  1.00 20.00    -0.055 SA
ENDROOT
BRANCH   2   4
HETATM    4  C8  UNL     1     -35.841  15.816  -4.628  1.00 20.00     0.118 C 
HETATM    5  C5  UNL     1     -34.549  15.715  -5.488  1.00 20.00     0.036 C 
HETATM    6  C6  UNL     1     -33.576  14.964  -4.549  1.00 20.00     0.010 C 
HETATM    7  C2  UNL     1     -33.286  15.856  -3.364  1.00 20.00    -0.026 C 
HETATM    8  C4  UNL     1     -34.523  13.972  -3.872  1.00 20.00     0.019 C 
HETATM    9  C3  UNL     1     -34.408  15.917  -2.630  1.00 20.00    -0.024 C 
HETATM   10  C7  UNL     1     -35.447  15.072  -3.331  1.00 20.00     0.033 C 
ENDBRANCH   2   4
TORSDOF 1
ENDMDL
MODEL 6
REMARK VINA RESULT:      -4.0     15.285     16.519
REMARK  1 active torsions:
REMARK  status: ('A' for Active; 'I' for Inactive)
REMARK    1  A    between atoms: C8_8  and  N9_9 
ROOT
HETATM    1  C1  UNL     1     -35.438  17.321  -0.476  1.00 20.00     0.158 C 
HETATM    2  N9  UNL     1     -35.659  17.034  -1.594  1.00 20.00    -0.270 NA
HETATM    3  S10 UNL     1     -35.158  17.731   1.037  1.00 20.00    -0.055 SA
ENDROOT
BRANCH   2   4
HETATM    4  C8  UNL     1     -34.842  15.939  -2.122  1.00 20.00     0.118 C 
HETATM    5  C5  UNL     1     -33.483  16.493  -2.640  1.00 20.00     0.036 C 
HETATM    6  C6  UNL     1     -33.519  16.130  -4.142  1.00 20.00     0.010 C 
HETATM    7  C2  UNL     1     -33.492  14.623  -4.261  1.00 20.00    -0.026 C 
HETATM    8  C4  UNL     1     -34.995  16.365  -4.469  1.00 20.00     0.019 C 
HETATM    9  C3  UNL     1     -34.677  14.169  -3.823  1.00 20.00    -0.024 C 
HETATM   10  C7  UNL     1     -35.490  15.373  -3.407  1.00 20.00     0.033 C 
ENDBRANCH   2   4
TORSDOF 1
ENDMDL
MODEL 7
REMARK VINA RESULT:      -4.0     17.904     18.911
REMARK  1 active torsions:
REMARK  status: ('A' for Active; 'I' for Inactive)
REMARK    1  A    between atoms: C8_8  and  N9_9 
ROOT
HETATM    1  C1  UNL     1     -38.823  14.791  -4.307  1.00 20.00     0.158 C 
HETATM    2  N9  UNL     1     -37.930  14.040  -4.167  1.00 20.00    -0.270 NA
HETATM    3  S10 UNL     1     -40.050  15.790  -4.481  1.00 20.00    -0.055 SA
ENDROOT
BRANCH   2   4
HETATM    4  C8  UNL     1     -36.686  14.430  -4.834  1.00 20.00     0.118 C 
HETATM    5  C5  UNL     1     -35.522  13.511  -4.365  1.00 20.00     0.036 C 
HETATM    6  C6  UNL     1     -34.546  14.512  -3.704  1.00 20.00     0.010 C 
HETATM    7  C2  UNL     1     -34.018  15.433  -4.780  1.00 20.00    -0.026 C 
HETATM    8  C4  UNL     1     -35.523  15.476  -3.028  1.00 20.00     0.019 C 
HETATM    9  C3  UNL     1     -35.034  16.224  -5.159  1.00 20.00    -0.024 C 
HETATM   10  C7  UNL     1     -36.239  15.825  -4.339  1.00 20.00     0.033 C 
ENDBRANCH   2   4
TORSDOF 1
ENDMDL
MODEL 8
REMARK VINA RESULT:      -3.9     16.623     17.620
REMARK  1 active torsions:
REMARK  status: ('A' for Active; 'I' for Inactive)
REMARK    1  A    between atoms: C8_8  and  N9_9 
ROOT
HETATM    1  C1  UNL     1     -35.480  14.800  -6.421  1.00 20.00     0.158 C 
HETATM    2  N9  UNL     1     -35.250  14.446  -5.325  1.00 20.00    -0.270 NA
HETATM    3  S10 UNL     1     -35.785  15.252  -7.917  1.00 20.00    -0.055 SA
ENDROOT
BRANCH   2   4
HETATM    4  C8  UNL     1     -35.381  15.485  -4.301  1.00 20.00     0.118 C 
HETATM    5  C5  UNL     1     -34.766  16.818  -4.816  1.00 20.00     0.036 C 
HETATM    6  C6  UNL     1     -33.630  17.081  -3.800  1.00 20.00     0.010 C 
HETATM    7  C2  UNL     1     -34.258  17.340  -2.451  1.00 20.00    -0.026 C 
HETATM    8  C4  UNL     1     -33.118  15.660  -3.554  1.00 20.00     0.019 C 
HETATM    9  C3  UNL     1     -34.769  16.176  -2.020  1.00 20.00    -0.024 C 
HETATM   10  C7  UNL     1     -34.486  15.144  -3.087  1.00 20.00     0.033 C 
ENDBRANCH   2   4
TORSDOF 1
ENDMDL
MODEL 9
REMARK VINA RESULT:      -3.9     18.156     19.315
REMARK  1 active torsions:
REMARK  status: ('A' for Active; 'I' for Inactive)
REMARK    1  A    between atoms: C8_8  and  N9_9 
ROOT
HETATM    1  C1  UNL     1     -39.188  14.833  -4.178  1.00 20.00     0.158 C 
HETATM    2  N9  UNL     1     -38.270  14.129  -4.384  1.00 20.00    -0.270 NA
HETATM    3  S10 UNL     1     -40.450  15.767  -3.914  1.00 20.00    -0.055 SA
ENDROOT
BRANCH   2   4
HETATM    4  C8  UNL     1     -36.975  14.667  -3.963  1.00 20.00     0.118 C 
HETATM    5  C5  UNL     1     -36.733  16.051  -4.631  1.00 20.00     0.036 C 
HETATM    6  C6  UNL     1     -35.460  15.803  -5.473  1.00 20.00     0.010 C 
HETATM    7  C2  UNL     1     -34.316  15.530  -4.523  1.00 20.00    -0.026 C 
HETATM    8  C4  UNL     1     -35.704  14.375  -5.966  1.00 20.00     0.019 C 
HETATM    9  C3  UNL     1     -34.538  14.327  -3.971  1.00 20.00    -0.024 C 
HETATM   10  C7  UNL     1     -35.833  13.803  -4.548  1.00 20.00     0.033 C 
ENDBRANCH   2   4
TORSDOF 1
ENDMDL
