MODEL 1
REMARK VINA RESULT:      -4.7      0.000      0.000
REMARK  2 active torsions:
REMARK  status: ('A' for Active; 'I' for Inactive)
REMARK    1  A    between atoms: C3_3  and  O11_11 
REMARK    2  A    between atoms: C8_8  and  O11_11 
ROOT
HETATM    1  C1  UNL     1     -34.647  18.079  -3.274  1.00 20.00    -0.025 C 
HETATM    2  C2  UNL     1     -34.432  17.341  -4.374  1.00 20.00    -0.023 C 
HETATM    3  C4  UNL     1     -32.944  16.596  -2.770  1.00 20.00     0.019 C 
HETATM    4  C5  UNL     1     -35.109  16.090  -1.893  1.00 20.00     0.042 C 
HETATM    5  C6  UNL     1     -34.141  17.279  -2.098  1.00 20.00     0.011 C 
HETATM    6  C7  UNL     1     -33.787  16.048  -3.928  1.00 20.00     0.038 C 
HETATM    7  C8  UNL     1     -34.812  15.204  -3.135  1.00 20.00     0.140 C 
ENDROOT
BRANCH   7   8
HETATM    8  O11 UNL     1     -35.985  14.934  -3.881  1.00 20.00    -0.316 OA
BRANCH   8   9
HETATM    9  C3  UNL     1     -35.911  13.885  -4.759  1.00 20.00     0.255 C 
HETATM   10  C9  UNL     1     -35.897  14.393  -6.169  1.00 20.00     0.126 C 
HETATM   11  O10 UNL     1     -35.864  12.700  -4.457  1.00 20.00    -0.266 OA
ENDBRANCH   8   9
ENDBRANCH   7   8
TORSDOF 2
ENDMDL
MODEL 2
REMARK VINA RESULT:      -4.6      1.749      2.506
REMARK  2 active torsions:
REMARK  status: ('A' for Active; 'I' for Inactive)
REMARK    1  A    between atoms: C3_3  and  O11_11 
REMARK    2  A    between atoms: C8_8  and  O11_11 
ROOT
HETATM    1  C1  UNL     1     -33.303  15.119  -4.156  1.00 20.00    -0.025 C 
HETATM    2  C2  UNL     1     -34.319  14.388  -3.672  1.00 20.00    -0.023 C 
HETATM    3  C4  UNL     1     -34.131  16.247  -2.312  1.00 20.00     0.019 C 
HETATM    4  C5  UNL     1     -34.733  17.106  -4.460  1.00 20.00     0.042 C 
HETATM    5  C6  UNL     1     -33.518  16.539  -3.688  1.00 20.00     0.011 C 
HETATM    6  C7  UNL     1     -35.210  15.322  -2.885  1.00 20.00     0.038 C 
HETATM    7  C8  UNL     1     -35.916  16.301  -3.852  1.00 20.00     0.140 C 
ENDROOT
BRANCH   7   8
HETATM    8  O11 UNL     1     -36.665  15.634  -4.850  1.00 20.00    -0.316 OA
BRANCH   8   9
HETATM    9  C3  UNL     1     -37.826  15.036  -4.432  1.00 20.00     0.255 C 
HETATM   10  C9  UNL     1     -38.832  16.077  -4.045  1.00 20.00     0.126 C 
HETATM   11  O10 UNL     1     -38.030  13.831  -4.377  1.00 20.00    -0.266 OA
ENDBRANCH   8   9
ENDBRANCH   7   8
TORSDOF 2
ENDMDL
MODEL 3
REMARK VINA RESULT:      -4.6      1.533      1.743
REMARK  2 active torsions:
REMARK  status: ('A' for Active; 'I' for Inactive)
REMARK    1  A    between atoms: C3_3  and  O11_11 
REMARK    2  A    between atoms: C8_8  and  O11_11 
ROOT
HETATM    1  C1  UNL     1     -33.763  17.396  -3.992  1.00 20.00    -0.025 C 
HETATM    2  C2  UNL     1     -34.372  16.799  -5.028  1.00 20.00    -0.023 C 
HETATM    3  C4  UNL     1     -33.127  15.171  -3.959  1.00 20.00     0.019 C 
HETATM    4  C5  UNL     1     -34.773  15.845  -2.362  1.00 20.00     0.042 C 
HETATM    5  C6  UNL     1     -33.439  16.316  -2.987  1.00 20.00     0.011 C 
HETATM    6  C7  UNL     1     -34.454  15.322  -4.711  1.00 20.00     0.038 C 
HETATM    7  C8  UNL     1     -35.448  15.098  -3.546  1.00 20.00     0.140 C 
ENDROOT
BRANCH   7   8
HETATM    8  O11 UNL     1     -36.737  15.612  -3.826  1.00 20.00    -0.316 OA
BRANCH   8   9
HETATM    9  C3  UNL     1     -37.676  14.697  -4.226  1.00 20.00     0.255 C 
HETATM   10  C9  UNL     1     -39.032  15.333  -4.263  1.00 20.00     0.126 C 
HETATM   11  O10 UNL     1     -37.458  13.528  -4.514  1.00 20.00    -0.266 OA
ENDBRANCH   8   9
ENDBRANCH   7   8
TORSDOF 2
ENDMDL
MODEL 4
REMARK VINA RESULT:      -4.5      1.022      1.687
REMARK  2 active torsions:
REMARK  status: ('A' for Active; 'I' for Inactive)
REMARK    1  A    between atoms: C3_3  and  O11_11 
REMARK    2  A    between atoms: C8_8  and  O11_11 
ROOT
HETATM    1  C1  UNL     1     -33.265  17.408  -3.397  1.00 20.00    -0.025 C 
HETATM    2  C2  UNL     1     -33.264  16.101  -3.093  1.00 20.00    -0.023 C 
HETATM    3  C4  UNL     1     -34.692  17.130  -1.596  1.00 20.00     0.019 C 
HETATM    4  C5  UNL     1     -35.708  17.440  -3.737  1.00 20.00     0.042 C 
HETATM    5  C6  UNL     1     -34.554  17.985  -2.862  1.00 20.00     0.011 C 
HETATM    6  C7  UNL     1     -34.553  15.809  -2.360  1.00 20.00     0.038 C 
HETATM    7  C8  UNL     1     -35.745  15.939  -3.337  1.00 20.00     0.140 C 
ENDROOT
BRANCH   7   8
HETATM    8  O11 UNL     1     -35.620  15.091  -4.463  1.00 20.00    -0.316 OA
BRANCH   8   9
HETATM    9  C3  UNL     1     -36.449  14.000  -4.491  1.00 20.00     0.255 C 
HETATM   10  C9  UNL     1     -37.875  14.431  -4.328  1.00 20.00     0.126 C 
HETATM   11  O10 UNL     1     -36.096  12.836  -4.629  1.00 20.00    -0.266 OA
ENDBRANCH   8   9
ENDBRANCH   7   8
TORSDOF 2
ENDMDL
MODEL 5
REMARK VINA RESULT:      -4.4      0.942      1.685
REMARK  2 active torsions:
REMARK  status: ('A' for Active; 'I' for Inactive)
REMARK    1  A    between atoms: C3_3  and  O11_11 
REMARK    2  A    between atoms: C8_8  and  O11_11 
ROOT
HETATM    1  C1  UNL     1     -34.179  16.909  -1.578  1.00 20.00    -0.025 C 
HETATM    2  C2  UNL     1     -35.430  16.942  -2.061  1.00 20.00    -0.023 C 
HETATM    3  C4  UNL     1     -34.071  17.900  -3.667  1.00 20.00     0.019 C 
HETATM    4  C5  UNL     1     -33.347  15.627  -3.514  1.00 20.00     0.042 C 
HETATM    5  C6  UNL     1     -33.245  16.975  -2.763  1.00 20.00     0.011 C 
HETATM    6  C7  UNL     1     -35.328  17.028  -3.568  1.00 20.00     0.038 C 
HETATM    7  C8  UNL     1     -34.774  15.696  -4.126  1.00 20.00     0.140 C 
ENDROOT
BRANCH   7   8
HETATM    8  O11 UNL     1     -35.562  14.582  -3.751  1.00 20.00    -0.316 OA
BRANCH   8   9
HETATM    9  C3  UNL     1     -36.460  14.137  -4.686  1.00 20.00     0.255 C 
HETATM   10  C9  UNL     1     -35.904  14.321  -6.065  1.00 20.00     0.126 C 
HETATM   11  O10 UNL     1     -37.561  13.658  -4.449  1.00 20.00    -0.266 OA
ENDBRANCH   8   9
ENDBRANCH   7   8
TORSDOF 2
ENDMDL
MODEL 6
REMARK VINA RESULT:      -4.3      1.500      2.111
REMARK  2 active torsions:
REMARK  status: ('A' for Active; 'I' for Inactive)
REMARK    1  A    between atoms: C3_3  and  O11_11 
REMARK    2  A    between atoms: C8_8  and  O11_11 
ROOT
HETATM    1  C1  UNL     1     -33.105  17.047  -2.757  1.00 20.00    -0.025 C 
HETATM    2  C2  UNL     1     -33.133  15.878  -3.414  1.00 20.00    -0.023 C 
HETATM    3  C4  UNL     1     -34.994  15.915  -2.044  1.00 20.00     0.019 C 
HETATM    4  C5  UNL     1     -35.330  17.700  -3.598  1.00 20.00     0.042 C 
HETATM    5  C6  UNL     1     -34.522  17.347  -2.327  1.00 20.00     0.011 C 
HETATM    6  C7  UNL     1     -34.568  15.402  -3.424  1.00 20.00     0.038 C 
HETATM    7  C8  UNL     1     -35.415  16.329  -4.327  1.00 20.00     0.140 C 
ENDROOT
BRANCH   7   8
HETATM    8  O11 UNL     1     -34.914  16.404  -5.649  1.00 20.00    -0.316 OA
BRANCH   8   9
HETATM    9  C3  UNL     1     -35.075  15.282  -6.418  1.00 20.00     0.255 C 
HETATM   10  C9  UNL     1     -33.822  15.003  -7.192  1.00 20.00     0.126 C 
HETATM   11  O10 UNL     1     -36.085  14.594  -6.478  1.00 20.00    -0.266 OA
ENDBRANCH   8   9
ENDBRANCH   7   8
TORSDOF 2
ENDMDL
MODEL 7
REMARK VINA RESULT:      -4.2      1.335      1.643
REMARK  2 active torsions:
REMARK  status: ('A' for Active; 'I' for Inactive)
REMARK    1  A    between atoms: C3_3  and  O11_11 
REMARK    2  A    between atoms: C8_8  and  O11_11 
ROOT
HETATM    1  C1  UNL     1     -35.520  17.520  -2.355  1.00 20.00    -0.025 C 
HETATM    2  C2  UNL     1     -34.942  18.051  -3.443  1.00 20.00    -0.023 C 
HETATM    3  C4  UNL     1     -33.330  16.773  -2.388  1.00 20.00     0.019 C 
HETATM    4  C5  UNL     1     -35.010  15.216  -3.071  1.00 20.00     0.042 C 
HETATM    5  C6  UNL     1     -34.729  16.286  -1.990  1.00 20.00     0.011 C 
HETATM    6  C7  UNL     1     -33.767  17.168  -3.803  1.00 20.00     0.038 C 
HETATM    7  C8  UNL     1     -34.284  15.803  -4.314  1.00 20.00     0.140 C 
ENDROOT
BRANCH   7   8
HETATM    8  O11 UNL     1     -35.157  15.932  -5.420  1.00 20.00    -0.316 OA
BRANCH   8   9
HETATM    9  C3  UNL     1     -35.118  14.917  -6.341  1.00 20.00     0.255 C 
HETATM   10  C9  UNL     1     -33.996  15.141  -7.308  1.00 20.00     0.126 C 
HETATM   11  O10 UNL     1     -35.879  13.960  -6.383  1.00 20.00    -0.266 OA
ENDBRANCH   8   9
ENDBRANCH   7   8
TORSDOF 2
ENDMDL
MODEL 8
REMARK VINA RESULT:      -4.1      2.552      4.492
REMARK  2 active torsions:
REMARK  status: ('A' for Active; 'I' for Inactive)
REMARK    1  A    between atoms: C3_3  and  O11_11 
REMARK    2  A    between atoms: C8_8  and  O11_11 
ROOT
HETATM    1  C1  UNL     1     -34.304  14.310  -3.816  1.00 20.00    -0.025 C 
HETATM    2  C2  UNL     1     -33.377  15.127  -4.338  1.00 20.00    -0.023 C 
HETATM    3  C4  UNL     1     -35.418  16.179  -4.604  1.00 20.00     0.019 C 
HETATM    4  C5  UNL     1     -35.098  16.032  -2.240  1.00 20.00     0.042 C 
HETATM    5  C6  UNL     1     -35.496  15.164  -3.457  1.00 20.00     0.011 C 
HETATM    6  C7  UNL     1     -33.952  16.526  -4.322  1.00 20.00     0.038 C 
HETATM    7  C8  UNL     1     -34.071  17.020  -2.861  1.00 20.00     0.140 C 
ENDROOT
BRANCH   7   8
HETATM    8  O11 UNL     1     -32.833  16.992  -2.176  1.00 20.00    -0.316 OA
BRANCH   8   9
HETATM    9  C3  UNL     1     -32.447  18.165  -1.581  1.00 20.00     0.255 C 
HETATM   10  C9  UNL     1     -33.002  18.247  -0.192  1.00 20.00     0.126 C 
HETATM   11  O10 UNL     1     -31.750  19.031  -2.094  1.00 20.00    -0.266 OA
ENDBRANCH   8   9
ENDBRANCH   7   8
TORSDOF 2
ENDMDL
MODEL 9
REMARK VINA RESULT:      -3.9      2.331      4.182
REMARK  2 active torsions:
REMARK  status: ('A' for Active; 'I' for Inactive)
REMARK    1  A    between atoms: C3_3  and  O11_11 
REMARK    2  A    between atoms: C8_8  and  O11_11 
ROOT
HETATM    1  C1  UNL     1     -34.720  15.763  -5.475  1.00 20.00    -0.025 C 
HETATM    2  C2  UNL     1     -35.653  16.135  -4.585  1.00 20.00    -0.023 C 
HETATM    3  C4  UNL     1     -34.864  14.073  -3.900  1.00 20.00     0.019 C 
HETATM    4  C5  UNL     1     -32.987  15.545  -3.733  1.00 20.00     0.042 C 
HETATM    5  C6  UNL     1     -33.818  14.769  -4.782  1.00 20.00     0.011 C 
HETATM    6  C7  UNL     1     -35.370  15.390  -3.300  1.00 20.00     0.038 C 
HETATM    7  C8  UNL     1     -34.060  15.919  -2.672  1.00 20.00     0.140 C 
ENDROOT
BRANCH   7   8
HETATM    8  O11 UNL     1     -34.097  17.314  -2.432  1.00 20.00    -0.316 OA
BRANCH   8   9
HETATM    9  C3  UNL     1     -33.672  17.724  -1.195  1.00 20.00     0.255 C 
HETATM   10  C9  UNL     1     -32.247  18.180  -1.264  1.00 20.00     0.126 C 
HETATM   11  O10 UNL     1     -34.344  17.725  -0.172  1.00 20.00    -0.266 OA
ENDBRANCH   8   9
ENDBRANCH   7   8
TORSDOF 2
ENDMDL
