MODEL 1
REMARK VINA RESULT:      -4.2      0.000      0.000
REMARK  0 active torsions:
REMARK  status: ('A' for Active; 'I' for Inactive)
ROOT
HETATM    1  C1  UNL     1     -22.801  17.838   8.705  1.00 20.00     0.029 C 
HETATM    2  C2  UNL     1     -23.198  16.665   9.602  1.00 20.00     0.048 C 
HETATM    3  C3  UNL     1     -23.973  18.790   8.513  1.00 20.00     0.170 C 
HETATM    4  C4  UNL     1     -24.995  18.144  10.555  1.00 20.00     0.255 C 
HETATM    5  C5  UNL     1     -23.878  17.138  10.897  1.00 20.00     0.152 C 
HETATM    6  O6  UNL     1     -24.486  19.226   9.771  1.00 20.00    -0.367 OA
HETATM    7 CL7  UNL     1     -25.796  18.837  11.997  1.00 20.00    -0.092 Cl
HETATM    8 CL8  UNL     1     -24.550  15.706  11.750  1.00 20.00    -0.098 Cl
HETATM    9 CL9  UNL     1     -22.637  17.886  11.970  1.00 20.00    -0.098 Cl
ENDROOT
TORSDOF 0
ENDMDL
MODEL 2
REMARK VINA RESULT:      -3.9      1.842      3.094
REMARK  0 active torsions:
REMARK  status: ('A' for Active; 'I' for Inactive)
ROOT
HETATM    1  C1  UNL     1     -25.904  18.344  12.188  1.00 20.00     0.029 C 
HETATM    2  C2  UNL     1     -24.396  18.143  12.331  1.00 20.00     0.048 C 
HETATM    3  C3  UNL     1     -26.217  19.262  11.015  1.00 20.00     0.170 C 
HETATM    4  C4  UNL     1     -24.199  18.721   9.891  1.00 20.00     0.255 C 
HETATM    5  C5  UNL     1     -23.741  17.749  10.996  1.00 20.00     0.152 C 
HETATM    6  O6  UNL     1     -25.625  18.772   9.814  1.00 20.00    -0.367 OA
HETATM    7 CL7  UNL     1     -23.572  18.302   8.269  1.00 20.00    -0.092 Cl
HETATM    8 CL8  UNL     1     -21.956  17.803  11.194  1.00 20.00    -0.098 Cl
HETATM    9 CL9  UNL     1     -24.200  16.052  10.598  1.00 20.00    -0.098 Cl
ENDROOT
TORSDOF 0
ENDMDL
MODEL 3
REMARK VINA RESULT:      -3.7     17.971     18.728
REMARK  0 active torsions:
REMARK  status: ('A' for Active; 'I' for Inactive)
ROOT
HETATM    1  C1  UNL     1     -37.102  14.726  -4.093  1.00 20.00     0.029 C 
HETATM    2  C2  UNL     1     -36.418  16.072  -4.331  1.00 20.00     0.048 C 
HETATM    3  C3  UNL     1     -36.322  13.599  -4.756  1.00 20.00     0.170 C 
HETATM    4  C4  UNL     1     -34.275  14.798  -4.669  1.00 20.00     0.255 C 
HETATM    5  C5  UNL     1     -34.920  16.021  -3.987  1.00 20.00     0.152 C 
HETATM    6  O6  UNL     1     -34.964  13.595  -4.318  1.00 20.00    -0.367 OA
HETATM    7 CL7  UNL     1     -32.547  14.583  -4.263  1.00 20.00    -0.092 Cl
HETATM    8 CL8  UNL     1     -34.149  17.544  -4.551  1.00 20.00    -0.098 Cl
HETATM    9 CL9  UNL     1     -34.732  15.939  -2.196  1.00 20.00    -0.098 Cl
ENDROOT
TORSDOF 0
ENDMDL
MODEL 4
REMARK VINA RESULT:      -3.7     23.512     24.080
REMARK  0 active torsions:
REMARK  status: ('A' for Active; 'I' for Inactive)
ROOT
HETATM    1  C1  UNL     1     -41.220   8.357  -0.626  1.00 20.00     0.029 C 
HETATM    2  C2  UNL     1     -41.977   7.489  -1.631  1.00 20.00     0.048 C 
HETATM    3  C3  UNL     1     -41.926   8.360   0.723  1.00 20.00     0.170 C 
HETATM    4  C4  UNL     1     -42.948   6.254   0.334  1.00 20.00     0.255 C 
HETATM    5  C5  UNL     1     -42.302   6.099  -1.057  1.00 20.00     0.152 C 
HETATM    6  O6  UNL     1     -42.116   7.029   1.200  1.00 20.00    -0.367 OA
HETATM    7 CL7  UNL     1     -43.285   4.694   1.141  1.00 20.00    -0.092 Cl
HETATM    8 CL8  UNL     1     -43.417   5.257  -2.187  1.00 20.00    -0.098 Cl
HETATM    9 CL9  UNL     1     -40.782   5.135  -0.963  1.00 20.00    -0.098 Cl
ENDROOT
TORSDOF 0
ENDMDL
MODEL 5
REMARK VINA RESULT:      -3.6     17.225     17.913
REMARK  0 active torsions:
REMARK  status: ('A' for Active; 'I' for Inactive)
ROOT
HETATM    1  C1  UNL     1     -33.422  16.986  -2.312  1.00 20.00     0.029 C 
HETATM    2  C2  UNL     1     -33.492  17.091  -3.835  1.00 20.00     0.048 C 
HETATM    3  C3  UNL     1     -34.762  16.548  -1.739  1.00 20.00     0.170 C 
HETATM    4  C4  UNL     1     -35.407  15.463  -3.749  1.00 20.00     0.255 C 
HETATM    5  C5  UNL     1     -34.093  15.826  -4.469  1.00 20.00     0.152 C 
HETATM    6  O6  UNL     1     -35.198  15.330  -2.341  1.00 20.00    -0.367 OA
HETATM    7 CL7  UNL     1     -36.151  13.949  -4.342  1.00 20.00    -0.092 Cl
HETATM    8 CL8  UNL     1     -34.389  16.142  -6.213  1.00 20.00    -0.098 Cl
HETATM    9 CL9  UNL     1     -32.895  14.484  -4.348  1.00 20.00    -0.098 Cl
ENDROOT
TORSDOF 0
ENDMDL
MODEL 6
REMARK VINA RESULT:      -3.6     17.704     18.405
REMARK  0 active torsions:
REMARK  status: ('A' for Active; 'I' for Inactive)
ROOT
HETATM    1  C1  UNL     1     -34.417  16.550  -2.276  1.00 20.00     0.029 C 
HETATM    2  C2  UNL     1     -35.291  15.349  -2.637  1.00 20.00     0.048 C 
HETATM    3  C3  UNL     1     -33.072  16.471  -2.985  1.00 20.00     0.170 C 
HETATM    4  C4  UNL     1     -33.939  15.139  -4.747  1.00 20.00     0.255 C 
HETATM    5  C5  UNL     1     -35.363  15.129  -4.157  1.00 20.00     0.152 C 
HETATM    6  O6  UNL     1     -33.248  16.339  -4.395  1.00 20.00    -0.367 OA
HETATM    7 CL7  UNL     1     -33.905  14.985  -6.529  1.00 20.00    -0.092 Cl
HETATM    8 CL8  UNL     1     -36.173  13.556  -4.472  1.00 20.00    -0.098 Cl
HETATM    9 CL9  UNL     1     -36.378  16.427  -4.889  1.00 20.00    -0.098 Cl
ENDROOT
TORSDOF 0
ENDMDL
MODEL 7
REMARK VINA RESULT:      -3.6     17.821     18.503
REMARK  0 active torsions:
REMARK  status: ('A' for Active; 'I' for Inactive)
ROOT
HETATM    1  C1  UNL     1     -35.470  16.546  -2.500  1.00 20.00     0.029 C 
HETATM    2  C2  UNL     1     -34.179  15.757  -2.714  1.00 20.00     0.048 C 
HETATM    3  C3  UNL     1     -35.758  17.444  -3.695  1.00 20.00     0.170 C 
HETATM    4  C4  UNL     1     -34.530  16.064  -5.185  1.00 20.00     0.255 C 
HETATM    5  C5  UNL     1     -34.157  15.055  -4.082  1.00 20.00     0.152 C 
HETATM    6  O6  UNL     1     -35.786  16.687  -4.904  1.00 20.00    -0.367 OA
HETATM    7 CL7  UNL     1     -34.629  15.335  -6.816  1.00 20.00    -0.092 Cl
HETATM    8 CL8  UNL     1     -32.511  14.388  -4.359  1.00 20.00    -0.098 Cl
HETATM    9 CL9  UNL     1     -35.313  13.672  -4.049  1.00 20.00    -0.098 Cl
ENDROOT
TORSDOF 0
ENDMDL
MODEL 8
REMARK VINA RESULT:      -3.5     18.403     19.093
REMARK  0 active torsions:
REMARK  status: ('A' for Active; 'I' for Inactive)
ROOT
HETATM    1  C1  UNL     1     -33.731  15.780  -3.120  1.00 20.00     0.029 C 
HETATM    2  C2  UNL     1     -35.209  15.406  -2.997  1.00 20.00     0.048 C 
HETATM    3  C3  UNL     1     -33.061  14.973  -4.223  1.00 20.00     0.170 C 
HETATM    4  C4  UNL     1     -35.101  14.640  -5.390  1.00 20.00     0.255 C 
HETATM    5  C5  UNL     1     -35.922  15.438  -4.359  1.00 20.00     0.152 C 
HETATM    6  O6  UNL     1     -33.757  15.125  -5.459  1.00 20.00    -0.367 OA
HETATM    7 CL7  UNL     1     -35.790  14.687  -7.040  1.00 20.00    -0.092 Cl
HETATM    8 CL8  UNL     1     -37.562  14.728  -4.164  1.00 20.00    -0.098 Cl
HETATM    9 CL9  UNL     1     -36.123  17.153  -4.875  1.00 20.00    -0.098 Cl
ENDROOT
TORSDOF 0
ENDMDL
MODEL 9
REMARK VINA RESULT:      -3.5     16.568     17.263
REMARK  0 active torsions:
REMARK  status: ('A' for Active; 'I' for Inactive)
ROOT
HETATM    1  C1  UNL     1     -33.858  14.650  -4.635  1.00 20.00     0.029 C 
HETATM    2  C2  UNL     1     -32.918  15.512  -3.794  1.00 20.00     0.048 C 
HETATM    3  C3  UNL     1     -35.037  14.167  -3.803  1.00 20.00     0.170 C 
HETATM    4  C4  UNL     1     -34.878  15.991  -2.292  1.00 20.00     0.255 C 
HETATM    5  C5  UNL     1     -33.676  16.612  -3.032  1.00 20.00     0.152 C 
HETATM    6  O6  UNL     1     -35.715  15.266  -3.196  1.00 20.00    -0.367 OA
HETATM    7 CL7  UNL     1     -35.893  17.195  -1.444  1.00 20.00    -0.092 Cl
HETATM    8 CL8  UNL     1     -32.547  17.391  -1.871  1.00 20.00    -0.098 Cl
HETATM    9 CL9  UNL     1     -34.216  17.871  -4.204  1.00 20.00    -0.098 Cl
ENDROOT
TORSDOF 0
ENDMDL
