MODEL 1
REMARK VINA RESULT:      -4.0      0.000      0.000
REMARK  2 active torsions:
REMARK  status: ('A' for Active; 'I' for Inactive)
REMARK    1  A    between atoms: C3_3  and  C5_5 
REMARK    2  A    between atoms: C5_5  and  C6_6 
ROOT
HETATM    1  C1  UNL     1     -35.100   4.852   4.571  1.00 20.00     0.179 C 
HETATM    2  C2  UNL     1     -34.477   5.089   5.936  1.00 20.00     0.103 C 
HETATM    3  C3  UNL     1     -33.883   6.741   4.013  1.00 20.00     0.182 C 
HETATM    4  O7  UNL     1     -34.228   5.416   3.585  1.00 20.00    -0.375 OA
HETATM    5  S8  UNL     1     -33.914   6.796   5.825  1.00 20.00    -0.135 SA
ENDROOT
BRANCH   3   6
HETATM    6  C5  UNL     1     -32.507   7.086   3.473  1.00 20.00     0.042 C 
BRANCH   6   7
HETATM    7  C6  UNL     1     -32.446   6.938   1.954  1.00 20.00    -0.001 C 
HETATM    8  C4  UNL     1     -32.693   8.263   1.252  1.00 20.00     0.005 C 
ENDBRANCH   6   7
ENDBRANCH   3   6
TORSDOF 2
ENDMDL
MODEL 2
REMARK VINA RESULT:      -3.5     11.706     12.051
REMARK  2 active torsions:
REMARK  status: ('A' for Active; 'I' for Inactive)
REMARK    1  A    between atoms: C3_3  and  C5_5 
REMARK    2  A    between atoms: C5_5  and  C6_6 
ROOT
HETATM    1  C1  UNL     1     -36.215  13.510  -4.600  1.00 20.00     0.179 C 
HETATM    2  C2  UNL     1     -36.957  14.779  -4.217  1.00 20.00     0.103 C 
HETATM    3  C3  UNL     1     -34.402  14.949  -4.695  1.00 20.00     0.182 C 
HETATM    4  O7  UNL     1     -34.844  13.669  -4.219  1.00 20.00    -0.375 OA
HETATM    5  S8  UNL     1     -35.822  16.076  -4.738  1.00 20.00    -0.135 SA
ENDROOT
BRANCH   3   6
HETATM    6  C5  UNL     1     -33.314  15.465  -3.772  1.00 20.00     0.042 C 
BRANCH   6   7
HETATM    7  C6  UNL     1     -33.900  16.148  -2.538  1.00 20.00    -0.001 C 
HETATM    8  C4  UNL     1     -33.058  17.336  -2.103  1.00 20.00     0.005 C 
ENDBRANCH   6   7
ENDBRANCH   3   6
TORSDOF 2
ENDMDL
MODEL 3
REMARK VINA RESULT:      -3.5      1.513      1.691
REMARK  2 active torsions:
REMARK  status: ('A' for Active; 'I' for Inactive)
REMARK    1  A    between atoms: C3_3  and  C5_5 
REMARK    2  A    between atoms: C5_5  and  C6_6 
ROOT
HETATM    1  C1  UNL     1     -33.993   6.420   5.816  1.00 20.00     0.179 C 
HETATM    2  C2  UNL     1     -35.055   5.407   5.425  1.00 20.00     0.103 C 
HETATM    3  C3  UNL     1     -33.209   5.985   3.681  1.00 20.00     0.182 C 
HETATM    4  O7  UNL     1     -33.505   7.031   4.618  1.00 20.00    -0.375 OA
HETATM    5  S8  UNL     1     -34.316   4.585   4.003  1.00 20.00    -0.135 SA
ENDROOT
BRANCH   3   6
HETATM    6  C5  UNL     1     -33.393   6.522   2.274  1.00 20.00     0.042 C 
BRANCH   6   7
HETATM    7  C6  UNL     1     -32.353   7.590   1.940  1.00 20.00    -0.001 C 
HETATM    8  C4  UNL     1     -32.795   8.456   0.771  1.00 20.00     0.005 C 
ENDBRANCH   6   7
ENDBRANCH   3   6
TORSDOF 2
ENDMDL
MODEL 4
REMARK VINA RESULT:      -3.4     16.153     16.736
REMARK  2 active torsions:
REMARK  status: ('A' for Active; 'I' for Inactive)
REMARK    1  A    between atoms: C3_3  and  C5_5 
REMARK    2  A    between atoms: C5_5  and  C6_6 
ROOT
HETATM    1  C1  UNL     1     -23.323  16.965   9.799  1.00 20.00     0.179 C 
HETATM    2  C2  UNL     1     -22.219  17.739  10.499  1.00 20.00     0.103 C 
HETATM    3  C3  UNL     1     -24.501  17.477  11.726  1.00 20.00     0.182 C 
HETATM    4  O7  UNL     1     -24.578  17.444  10.294  1.00 20.00    -0.375 OA
HETATM    5  S8  UNL     1     -22.778  17.770  12.210  1.00 20.00    -0.135 SA
ENDROOT
BRANCH   3   6
HETATM    6  C5  UNL     1     -25.414  18.575  12.240  1.00 20.00     0.042 C 
BRANCH   6   7
HETATM    7  C6  UNL     1     -26.880  18.145  12.214  1.00 20.00    -0.001 C 
HETATM    8  C4  UNL     1     -27.731  19.106  11.400  1.00 20.00     0.005 C 
ENDBRANCH   6   7
ENDBRANCH   3   6
TORSDOF 2
ENDMDL
MODEL 5
REMARK VINA RESULT:      -3.4     11.758     12.365
REMARK  2 active torsions:
REMARK  status: ('A' for Active; 'I' for Inactive)
REMARK    1  A    between atoms: C3_3  and  C5_5 
REMARK    2  A    between atoms: C5_5  and  C6_6 
ROOT
HETATM    1  C1  UNL     1     -38.890  14.763  -4.367  1.00 20.00     0.179 C 
HETATM    2  C2  UNL     1     -38.437  16.153  -3.956  1.00 20.00     0.103 C 
HETATM    3  C3  UNL     1     -36.647  14.502  -4.880  1.00 20.00     0.182 C 
HETATM    4  O7  UNL     1     -37.771  13.879  -4.241  1.00 20.00    -0.375 OA
HETATM    5  S8  UNL     1     -36.833  16.302  -4.760  1.00 20.00    -0.135 SA
ENDROOT
BRANCH   3   6
HETATM    6  C5  UNL     1     -35.375  14.031  -4.199  1.00 20.00     0.042 C 
BRANCH   6   7
HETATM    7  C6  UNL     1     -34.795  15.108  -3.284  1.00 20.00    -0.001 C 
HETATM    8  C4  UNL     1     -33.365  15.454  -3.663  1.00 20.00     0.005 C 
ENDBRANCH   6   7
ENDBRANCH   3   6
TORSDOF 2
ENDMDL
MODEL 6
REMARK VINA RESULT:      -3.4     15.640     16.263
REMARK  2 active torsions:
REMARK  status: ('A' for Active; 'I' for Inactive)
REMARK    1  A    between atoms: C3_3  and  C5_5 
REMARK    2  A    between atoms: C5_5  and  C6_6 
ROOT
HETATM    1  C1  UNL     1     -24.672  16.063  11.567  1.00 20.00     0.179 C 
HETATM    2  C2  UNL     1     -25.186  17.270  12.332  1.00 20.00     0.103 C 
HETATM    3  C3  UNL     1     -24.214  17.652   9.946  1.00 20.00     0.182 C 
HETATM    4  O7  UNL     1     -23.678  16.517  10.642  1.00 20.00    -0.375 OA
HETATM    5  S8  UNL     1     -25.382  18.506  11.038  1.00 20.00    -0.135 SA
ENDROOT
BRANCH   3   6
HETATM    6  C5  UNL     1     -23.069  18.562   9.542  1.00 20.00     0.042 C 
BRANCH   6   7
HETATM    7  C6  UNL     1     -21.795  17.770   9.254  1.00 20.00    -0.001 C 
HETATM    8  C4  UNL     1     -21.709  17.359   7.793  1.00 20.00     0.005 C 
ENDBRANCH   6   7
ENDBRANCH   3   6
TORSDOF 2
ENDMDL
MODEL 7
REMARK VINA RESULT:      -3.4     12.043     13.049
REMARK  2 active torsions:
REMARK  status: ('A' for Active; 'I' for Inactive)
REMARK    1  A    between atoms: C3_3  and  C5_5 
REMARK    2  A    between atoms: C5_5  and  C6_6 
ROOT
HETATM    1  C1  UNL     1     -35.704  14.683  -6.756  1.00 20.00     0.179 C 
HETATM    2  C2  UNL     1     -36.169  16.095  -6.443  1.00 20.00     0.103 C 
HETATM    3  C3  UNL     1     -33.969  15.252  -5.333  1.00 20.00     0.182 C 
HETATM    4  O7  UNL     1     -34.916  14.223  -5.653  1.00 20.00    -0.375 OA
HETATM    5  S8  UNL     1     -34.686  16.860  -5.766  1.00 20.00    -0.135 SA
ENDROOT
BRANCH   3   6
HETATM    6  C5  UNL     1     -33.643  15.173  -3.853  1.00 20.00     0.042 C 
BRANCH   6   7
HETATM    7  C6  UNL     1     -34.900  15.288  -2.993  1.00 20.00    -0.001 C 
HETATM    8  C4  UNL     1     -34.744  16.346  -1.913  1.00 20.00     0.005 C 
ENDBRANCH   6   7
ENDBRANCH   3   6
TORSDOF 2
ENDMDL
MODEL 8
REMARK VINA RESULT:      -3.4     12.079     13.239
REMARK  2 active torsions:
REMARK  status: ('A' for Active; 'I' for Inactive)
REMARK    1  A    between atoms: C3_3  and  C5_5 
REMARK    2  A    between atoms: C5_5  and  C6_6 
ROOT
HETATM    1  C1  UNL     1     -34.045  15.112  -7.408  1.00 20.00     0.179 C 
HETATM    2  C2  UNL     1     -35.560  15.198  -7.458  1.00 20.00     0.103 C 
HETATM    3  C3  UNL     1     -34.389  15.507  -5.152  1.00 20.00     0.182 C 
HETATM    4  O7  UNL     1     -33.670  14.694  -6.091  1.00 20.00    -0.375 OA
HETATM    5  S8  UNL     1     -35.964  16.006  -5.900  1.00 20.00    -0.135 SA
ENDROOT
BRANCH   3   6
HETATM    6  C5  UNL     1     -34.609  14.709  -3.881  1.00 20.00     0.042 C 
BRANCH   6   7
HETATM    7  C6  UNL     1     -34.598  15.605  -2.644  1.00 20.00    -0.001 C 
HETATM    8  C4  UNL     1     -33.405  16.547  -2.646  1.00 20.00     0.005 C 
ENDBRANCH   6   7
ENDBRANCH   3   6
TORSDOF 2
ENDMDL
MODEL 9
REMARK VINA RESULT:      -3.3     11.602     12.437
REMARK  2 active torsions:
REMARK  status: ('A' for Active; 'I' for Inactive)
REMARK    1  A    between atoms: C3_3  and  C5_5 
REMARK    2  A    between atoms: C5_5  and  C6_6 
ROOT
HETATM    1  C1  UNL     1     -38.209  15.006  -4.517  1.00 20.00     0.179 C 
HETATM    2  C2  UNL     1     -37.576  16.121  -5.332  1.00 20.00     0.103 C 
HETATM    3  C3  UNL     1     -36.090  14.086  -4.673  1.00 20.00     0.182 C 
HETATM    4  O7  UNL     1     -37.172  14.361  -3.771  1.00 20.00    -0.375 OA
HETATM    5  S8  UNL     1     -36.087  15.343  -5.979  1.00 20.00    -0.135 SA
ENDROOT
BRANCH   3   6
HETATM    6  C5  UNL     1     -34.788  14.097  -3.892  1.00 20.00     0.042 C 
BRANCH   6   7
HETATM    7  C6  UNL     1     -34.677  15.333  -3.002  1.00 20.00    -0.001 C 
HETATM    8  C4  UNL     1     -33.356  16.055  -3.209  1.00 20.00     0.005 C 
ENDBRANCH   6   7
ENDBRANCH   3   6
TORSDOF 2
ENDMDL
