MODEL 1
REMARK VINA RESULT:      -4.4      0.000      0.000
REMARK  2 active torsions:
REMARK  status: ('A' for Active; 'I' for Inactive)
REMARK    1  A    between atoms: C3_3  and  C5_5 
REMARK    2  A    between atoms: C5_5  and  C6_6 
ROOT
HETATM    1  C1  UNL     1     -34.157   6.658   6.172  1.00 20.00     0.179 C 
HETATM    2  C2  UNL     1     -34.577   5.203   6.056  1.00 20.00     0.103 C 
HETATM    3  C3  UNL     1     -34.054   6.506   3.863  1.00 20.00     0.182 C 
HETATM    4  O7  UNL     1     -33.359   6.977   5.025  1.00 20.00    -0.375 OA
HETATM    5  S8  UNL     1     -35.047   5.060   4.324  1.00 20.00    -0.135 SA
ENDROOT
BRANCH   3   6
HETATM    6  C5  UNL     1     -33.037   6.158   2.791  1.00 20.00     0.042 C 
BRANCH   6   7
HETATM    7  C6  UNL     1     -32.147   7.354   2.452  1.00 20.00    -0.001 C 
HETATM    8  C4  UNL     1     -32.618   8.062   1.191  1.00 20.00     0.005 C 
ENDBRANCH   6   7
ENDBRANCH   3   6
TORSDOF 2
ENDMDL
MODEL 2
REMARK VINA RESULT:      -3.5      1.753      2.117
REMARK  2 active torsions:
REMARK  status: ('A' for Active; 'I' for Inactive)
REMARK    1  A    between atoms: C3_3  and  C5_5 
REMARK    2  A    between atoms: C5_5  and  C6_6 
ROOT
HETATM    1  C1  UNL     1     -34.073   4.550   3.345  1.00 20.00     0.179 C 
HETATM    2  C2  UNL     1     -34.942   5.303   4.337  1.00 20.00     0.103 C 
HETATM    3  C3  UNL     1     -32.829   6.502   3.401  1.00 20.00     0.182 C 
HETATM    4  O7  UNL     1     -33.399   5.516   2.530  1.00 20.00    -0.375 OA
HETATM    5  S8  UNL     1     -33.859   6.631   4.888  1.00 20.00    -0.135 SA
ENDROOT
BRANCH   3   6
HETATM    6  C5  UNL     1     -32.758   7.826   2.661  1.00 20.00     0.042 C 
BRANCH   6   7
HETATM    7  C6  UNL     1     -32.454   7.625   1.177  1.00 20.00    -0.001 C 
HETATM    8  C4  UNL     1     -32.924   8.807   0.345  1.00 20.00     0.005 C 
ENDBRANCH   6   7
ENDBRANCH   3   6
TORSDOF 2
ENDMDL
MODEL 3
REMARK VINA RESULT:      -3.5     15.781     16.271
REMARK  2 active torsions:
REMARK  status: ('A' for Active; 'I' for Inactive)
REMARK    1  A    between atoms: C3_3  and  C5_5 
REMARK    2  A    between atoms: C5_5  and  C6_6 
ROOT
HETATM    1  C1  UNL     1     -24.588  16.106  11.244  1.00 20.00     0.179 C 
HETATM    2  C2  UNL     1     -24.357  17.139  12.332  1.00 20.00     0.103 C 
HETATM    3  C3  UNL     1     -22.895  17.275  10.182  1.00 20.00     0.182 C 
HETATM    4  O7  UNL     1     -24.188  16.684   9.995  1.00 20.00    -0.375 OA
HETATM    5  S8  UNL     1     -22.741  17.811  11.907  1.00 20.00    -0.135 SA
ENDROOT
BRANCH   3   6
HETATM    6  C5  UNL     1     -22.749  18.444   9.225  1.00 20.00     0.042 C 
BRANCH   6   7
HETATM    7  C6  UNL     1     -24.095  19.109   8.938  1.00 20.00    -0.001 C 
HETATM    8  C4  UNL     1     -24.445  19.051   7.460  1.00 20.00     0.005 C 
ENDBRANCH   6   7
ENDBRANCH   3   6
TORSDOF 2
ENDMDL
MODEL 4
REMARK VINA RESULT:      -3.4     11.930     13.205
REMARK  2 active torsions:
REMARK  status: ('A' for Active; 'I' for Inactive)
REMARK    1  A    between atoms: C3_3  and  C5_5 
REMARK    2  A    between atoms: C5_5  and  C6_6 
ROOT
HETATM    1  C1  UNL     1     -34.023  15.243  -7.136  1.00 20.00     0.179 C 
HETATM    2  C2  UNL     1     -34.521  16.624  -6.748  1.00 20.00     0.103 C 
HETATM    3  C3  UNL     1     -35.113  14.625  -5.189  1.00 20.00     0.182 C 
HETATM    4  O7  UNL     1     -33.901  14.467  -5.938  1.00 20.00    -0.375 OA
HETATM    5  S8  UNL     1     -35.810  16.260  -5.546  1.00 20.00    -0.135 SA
ENDROOT
BRANCH   3   6
HETATM    6  C5  UNL     1     -34.800  14.468  -3.712  1.00 20.00     0.042 C 
BRANCH   6   7
HETATM    7  C6  UNL     1     -34.177  15.737  -3.131  1.00 20.00    -0.001 C 
HETATM    8  C4  UNL     1     -34.899  16.189  -1.872  1.00 20.00     0.005 C 
ENDBRANCH   6   7
ENDBRANCH   3   6
TORSDOF 2
ENDMDL
MODEL 5
REMARK VINA RESULT:      -3.4     15.892     16.563
REMARK  2 active torsions:
REMARK  status: ('A' for Active; 'I' for Inactive)
REMARK    1  A    between atoms: C3_3  and  C5_5 
REMARK    2  A    between atoms: C5_5  and  C6_6 
ROOT
HETATM    1  C1  UNL     1     -22.651  16.957   9.338  1.00 20.00     0.179 C 
HETATM    2  C2  UNL     1     -22.922  18.351   8.799  1.00 20.00     0.103 C 
HETATM    3  C3  UNL     1     -24.449  17.457  10.710  1.00 20.00     0.182 C 
HETATM    4  O7  UNL     1     -23.124  16.909  10.690  1.00 20.00    -0.375 OA
HETATM    5  S8  UNL     1     -24.591  18.687   9.385  1.00 20.00    -0.135 SA
ENDROOT
BRANCH   3   6
HETATM    6  C5  UNL     1     -24.701  18.079  12.072  1.00 20.00     0.042 C 
BRANCH   6   7
HETATM    7  C6  UNL     1     -25.966  18.936  12.072  1.00 20.00    -0.001 C 
HETATM    8  C4  UNL     1     -27.216  18.090  12.253  1.00 20.00     0.005 C 
ENDBRANCH   6   7
ENDBRANCH   3   6
TORSDOF 2
ENDMDL
MODEL 6
REMARK VINA RESULT:      -3.4     15.899     16.722
REMARK  2 active torsions:
REMARK  status: ('A' for Active; 'I' for Inactive)
REMARK    1  A    between atoms: C3_3  and  C5_5 
REMARK    2  A    between atoms: C5_5  and  C6_6 
ROOT
HETATM    1  C1  UNL     1     -23.450  18.190   8.210  1.00 20.00     0.179 C 
HETATM    2  C2  UNL     1     -22.079  17.549   8.085  1.00 20.00     0.103 C 
HETATM    3  C3  UNL     1     -22.955  18.115  10.470  1.00 20.00     0.182 C 
HETATM    4  O7  UNL     1     -23.977  17.854   9.499  1.00 20.00    -0.375 OA
HETATM    5  S8  UNL     1     -21.335  17.883   9.689  1.00 20.00    -0.135 SA
ENDROOT
BRANCH   3   6
HETATM    6  C5  UNL     1     -23.143  17.171  11.644  1.00 20.00     0.042 C 
BRANCH   6   7
HETATM    7  C6  UNL     1     -24.290  16.191  11.400  1.00 20.00    -0.001 C 
HETATM    8  C4  UNL     1     -25.461  16.456  12.332  1.00 20.00     0.005 C 
ENDBRANCH   6   7
ENDBRANCH   3   6
TORSDOF 2
ENDMDL
MODEL 7
REMARK VINA RESULT:      -3.3     11.791     12.505
REMARK  2 active torsions:
REMARK  status: ('A' for Active; 'I' for Inactive)
REMARK    1  A    between atoms: C3_3  and  C5_5 
REMARK    2  A    between atoms: C5_5  and  C6_6 
ROOT
HETATM    1  C1  UNL     1     -34.783  15.092  -6.350  1.00 20.00     0.179 C 
HETATM    2  C2  UNL     1     -35.958  14.460  -5.625  1.00 20.00     0.103 C 
HETATM    3  C3  UNL     1     -33.830  15.038  -4.240  1.00 20.00     0.182 C 
HETATM    4  O7  UNL     1     -34.039  15.860  -5.396  1.00 20.00    -0.375 OA
HETATM    5  S8  UNL     1     -35.214  13.876  -4.093  1.00 20.00    -0.135 SA
ENDROOT
BRANCH   3   6
HETATM    6  C5  UNL     1     -33.727  15.931  -3.017  1.00 20.00     0.042 C 
BRANCH   6   7
HETATM    7  C6  UNL     1     -35.027  15.937  -2.213  1.00 20.00    -0.001 C 
HETATM    8  C4  UNL     1     -34.988  16.965  -1.094  1.00 20.00     0.005 C 
ENDBRANCH   6   7
ENDBRANCH   3   6
TORSDOF 2
ENDMDL
MODEL 8
REMARK VINA RESULT:      -3.3      9.257      9.797
REMARK  2 active torsions:
REMARK  status: ('A' for Active; 'I' for Inactive)
REMARK    1  A    between atoms: C3_3  and  C5_5 
REMARK    2  A    between atoms: C5_5  and  C6_6 
ROOT
HETATM    1  C1  UNL     1     -41.674   4.921  -1.579  1.00 20.00     0.179 C 
HETATM    2  C2  UNL     1     -43.083   4.874  -1.017  1.00 20.00     0.103 C 
HETATM    3  C3  UNL     1     -41.273   6.184   0.319  1.00 20.00     0.182 C 
HETATM    4  O7  UNL     1     -41.046   6.114  -1.095  1.00 20.00    -0.375 OA
HETATM    5  S8  UNL     1     -42.844   5.362   0.699  1.00 20.00    -0.135 SA
ENDROOT
BRANCH   3   6
HETATM    6  C5  UNL     1     -41.297   7.643   0.740  1.00 20.00     0.042 C 
BRANCH   6   7
HETATM    7  C6  UNL     1     -41.681   8.557  -0.424  1.00 20.00    -0.001 C 
HETATM    8  C4  UNL     1     -43.165   8.891  -0.406  1.00 20.00     0.005 C 
ENDBRANCH   6   7
ENDBRANCH   3   6
TORSDOF 2
ENDMDL
MODEL 9
REMARK VINA RESULT:      -3.3     11.645     12.626
REMARK  2 active torsions:
REMARK  status: ('A' for Active; 'I' for Inactive)
REMARK    1  A    between atoms: C3_3  and  C5_5 
REMARK    2  A    between atoms: C5_5  and  C6_6 
ROOT
HETATM    1  C1  UNL     1     -39.316  14.925  -4.333  1.00 20.00     0.179 C 
HETATM    2  C2  UNL     1     -38.888  16.126  -5.157  1.00 20.00     0.103 C 
HETATM    3  C3  UNL     1     -37.031  14.671  -4.056  1.00 20.00     0.182 C 
HETATM    4  O7  UNL     1     -38.247  13.972  -4.356  1.00 20.00    -0.375 OA
HETATM    5  S8  UNL     1     -37.185  16.382  -4.634  1.00 20.00    -0.135 SA
ENDROOT
BRANCH   3   6
HETATM    6  C5  UNL     1     -35.876  13.959  -4.737  1.00 20.00     0.042 C 
BRANCH   6   7
HETATM    7  C6  UNL     1     -34.610  13.995  -3.881  1.00 20.00    -0.001 C 
HETATM    8  C4  UNL     1     -33.475  14.715  -4.591  1.00 20.00     0.005 C 
ENDBRANCH   6   7
ENDBRANCH   3   6
TORSDOF 2
ENDMDL
