MODEL 1
REMARK VINA RESULT:      -3.5      0.000      0.000
REMARK  0 active torsions:
REMARK  status: ('A' for Active; 'I' for Inactive)
ROOT
HETATM    1  C1  UNL     1     -41.506   9.147   0.419  1.00 20.00     0.075 C 
HETATM    2  C2  UNL     1     -43.044   4.956  -0.504  1.00 20.00     0.084 C 
HETATM    3  C3  UNL     1     -41.670   5.306  -1.052  1.00 20.00     0.085 C 
HETATM    4  C4  UNL     1     -43.070   7.325   0.932  1.00 20.00     0.104 C 
HETATM    5  C5  UNL     1     -41.686   7.685   0.388  1.00 20.00     0.163 C 
HETATM    6  N6  UNL     1     -41.364  10.299   0.443  1.00 20.00    -0.196 NA
HETATM    7  S7  UNL     1     -43.289   5.538   1.199  1.00 20.00    -0.166 SA
HETATM    8  S8  UNL     1     -41.455   7.090  -1.326  1.00 20.00    -0.148 SA
ENDROOT
TORSDOF 0
ENDMDL
MODEL 2
REMARK VINA RESULT:      -3.5     22.990     23.819
REMARK  0 active torsions:
REMARK  status: ('A' for Active; 'I' for Inactive)
ROOT
HETATM    1  C1  UNL     1     -23.872  18.811   7.851  1.00 20.00     0.075 C 
HETATM    2  C2  UNL     1     -23.232  17.119  12.036  1.00 20.00     0.084 C 
HETATM    3  C3  UNL     1     -22.030  17.786  11.387  1.00 20.00     0.085 C 
HETATM    4  C4  UNL     1     -24.838  18.004   9.960  1.00 20.00     0.104 C 
HETATM    5  C5  UNL     1     -23.636  18.681   9.300  1.00 20.00     0.163 C 
HETATM    6  N6  UNL     1     -24.059  18.914   6.710  1.00 20.00    -0.196 NA
HETATM    7  S7  UNL     1     -24.773  18.045  11.778  1.00 20.00    -0.166 SA
HETATM    8  S8  UNL     1     -22.093  17.736   9.571  1.00 20.00    -0.148 SA
ENDROOT
TORSDOF 0
ENDMDL
MODEL 3
REMARK VINA RESULT:      -3.4     10.382     11.838
REMARK  0 active torsions:
REMARK  status: ('A' for Active; 'I' for Inactive)
ROOT
HETATM    1  C1  UNL     1     -37.224  14.366  -4.155  1.00 20.00     0.075 C 
HETATM    2  C2  UNL     1     -33.128  16.277  -3.558  1.00 20.00     0.084 C 
HETATM    3  C3  UNL     1     -34.066  16.302  -2.360  1.00 20.00     0.085 C 
HETATM    4  C4  UNL     1     -34.900  14.628  -4.904  1.00 20.00     0.104 C 
HETATM    5  C5  UNL     1     -35.849  14.644  -3.705  1.00 20.00     0.163 C 
HETATM    6  N6  UNL     1     -38.307  14.146  -4.510  1.00 20.00    -0.196 NA
HETATM    7  S7  UNL     1     -33.144  14.683  -4.428  1.00 20.00    -0.166 SA
HETATM    8  S8  UNL     1     -35.818  16.256  -2.839  1.00 20.00    -0.148 SA
ENDROOT
TORSDOF 0
ENDMDL
MODEL 4
REMARK VINA RESULT:      -3.4     10.395     11.917
REMARK  0 active torsions:
REMARK  status: ('A' for Active; 'I' for Inactive)
ROOT
HETATM    1  C1  UNL     1     -37.224  14.622  -4.295  1.00 20.00     0.075 C 
HETATM    2  C2  UNL     1     -33.347  16.487  -2.789  1.00 20.00     0.084 C 
HETATM    3  C3  UNL     1     -33.213  15.459  -3.902  1.00 20.00     0.085 C 
HETATM    4  C4  UNL     1     -36.101  16.434  -3.076  1.00 20.00     0.104 C 
HETATM    5  C5  UNL     1     -35.978  15.402  -4.199  1.00 20.00     0.163 C 
HETATM    6  N6  UNL     1     -38.207  14.009  -4.372  1.00 20.00    -0.196 NA
HETATM    7  S7  UNL     1     -34.732  17.632  -3.053  1.00 20.00    -0.166 SA
HETATM    8  S8  UNL     1     -34.577  14.259  -3.917  1.00 20.00    -0.148 SA
ENDROOT
TORSDOF 0
ENDMDL
MODEL 5
REMARK VINA RESULT:      -3.4     22.950     23.728
REMARK  0 active torsions:
REMARK  status: ('A' for Active; 'I' for Inactive)
ROOT
HETATM    1  C1  UNL     1     -22.375  17.414   8.710  1.00 20.00     0.075 C 
HETATM    2  C2  UNL     1     -25.631  18.294  11.777  1.00 20.00     0.084 C 
HETATM    3  C3  UNL     1     -24.216  18.149  12.317  1.00 20.00     0.085 C 
HETATM    4  C4  UNL     1     -24.645  18.217   9.189  1.00 20.00     0.104 C 
HETATM    5  C5  UNL     1     -23.218  18.073   9.722  1.00 20.00     0.163 C 
HETATM    6  N6  UNL     1     -21.710  16.896   7.912  1.00 20.00    -0.196 NA
HETATM    7  S7  UNL     1     -25.699  19.263  10.241  1.00 20.00    -0.166 SA
HETATM    8  S8  UNL     1     -23.169  17.097  11.269  1.00 20.00    -0.148 SA
ENDROOT
TORSDOF 0
ENDMDL
MODEL 6
REMARK VINA RESULT:      -3.3     11.129     12.750
REMARK  0 active torsions:
REMARK  status: ('A' for Active; 'I' for Inactive)
ROOT
HETATM    1  C1  UNL     1     -35.625  13.932  -4.262  1.00 20.00     0.075 C 
HETATM    2  C2  UNL     1     -33.646  18.037  -4.131  1.00 20.00     0.084 C 
HETATM    3  C3  UNL     1     -35.124  18.011  -4.493  1.00 20.00     0.085 C 
HETATM    4  C4  UNL     1     -33.754  15.337  -3.519  1.00 20.00     0.104 C 
HETATM    5  C5  UNL     1     -35.241  15.301  -3.878  1.00 20.00     0.163 C 
HETATM    6  N6  UNL     1     -35.929  12.853  -4.564  1.00 20.00    -0.196 NA
HETATM    7  S7  UNL     1     -33.239  16.911  -2.765  1.00 20.00    -0.166 SA
HETATM    8  S8  UNL     1     -35.634  16.441  -5.253  1.00 20.00    -0.148 SA
ENDROOT
TORSDOF 0
ENDMDL
MODEL 7
REMARK VINA RESULT:      -3.3     10.836     12.685
REMARK  0 active torsions:
REMARK  status: ('A' for Active; 'I' for Inactive)
ROOT
HETATM    1  C1  UNL     1     -36.670  14.535  -4.454  1.00 20.00     0.075 C 
HETATM    2  C2  UNL     1     -33.676  17.917  -3.834  1.00 20.00     0.084 C 
HETATM    3  C3  UNL     1     -33.288  16.560  -3.268  1.00 20.00     0.085 C 
HETATM    4  C4  UNL     1     -35.857  16.763  -5.092  1.00 20.00     0.104 C 
HETATM    5  C5  UNL     1     -35.474  15.393  -4.530  1.00 20.00     0.163 C 
HETATM    6  N6  UNL     1     -37.611  13.860  -4.394  1.00 20.00    -0.196 NA
HETATM    7  S7  UNL     1     -34.416  17.801  -5.489  1.00 20.00    -0.166 SA
HETATM    8  S8  UNL     1     -34.728  15.529  -2.864  1.00 20.00    -0.148 SA
ENDROOT
TORSDOF 0
ENDMDL
MODEL 8
REMARK VINA RESULT:      -3.2     22.544     23.508
REMARK  0 active torsions:
REMARK  status: ('A' for Active; 'I' for Inactive)
ROOT
HETATM    1  C1  UNL     1     -26.702  18.878  11.380  1.00 20.00     0.075 C 
HETATM    2  C2  UNL     1     -22.520  17.501  10.198  1.00 20.00     0.084 C 
HETATM    3  C3  UNL     1     -23.065  18.714   9.459  1.00 20.00     0.085 C 
HETATM    4  C4  UNL     1     -24.688  17.581  11.920  1.00 20.00     0.104 C 
HETATM    5  C5  UNL     1     -25.244  18.803  11.186  1.00 20.00     0.163 C 
HETATM    6  N6  UNL     1     -27.851  18.937  11.534  1.00 20.00    -0.196 NA
HETATM    7  S7  UNL     1     -22.870  17.549  11.980  1.00 20.00    -0.166 SA
HETATM    8  S8  UNL     1     -24.881  18.739   9.394  1.00 20.00    -0.148 SA
ENDROOT
TORSDOF 0
ENDMDL
MODEL 9
REMARK VINA RESULT:      -3.0     11.224     11.882
REMARK  0 active torsions:
REMARK  status: ('A' for Active; 'I' for Inactive)
ROOT
HETATM    1  C1  UNL     1     -35.153  16.598  -1.409  1.00 20.00     0.075 C 
HETATM    2  C2  UNL     1     -34.457  14.829  -5.553  1.00 20.00     0.084 C 
HETATM    3  C3  UNL     1     -33.291  14.747  -4.580  1.00 20.00     0.085 C 
HETATM    4  C4  UNL     1     -36.091  15.742  -3.511  1.00 20.00     0.104 C 
HETATM    5  C5  UNL     1     -34.925  15.662  -2.523  1.00 20.00     0.163 C 
HETATM    6  N6  UNL     1     -35.332  17.336  -0.531  1.00 20.00    -0.196 NA
HETATM    7  S7  UNL     1     -36.050  14.433  -4.774  1.00 20.00    -0.166 SA
HETATM    8  S8  UNL     1     -33.330  16.061  -3.325  1.00 20.00    -0.148 SA
ENDROOT
TORSDOF 0
ENDMDL
