MODEL 1
REMARK VINA RESULT:      -4.0      0.000      0.000
REMARK  0 active torsions:
REMARK  status: ('A' for Active; 'I' for Inactive)
ROOT
HETATM    1  C1  UNL     1     -22.661  17.945   8.850  1.00 20.00     0.056 A 
HETATM    2  C2  UNL     1     -23.489  18.147   9.934  1.00 20.00     0.077 A 
HETATM    3  C3  UNL     1     -24.394  18.777   7.793  1.00 20.00     0.072 A 
HETATM    4  C4  UNL     1     -21.293  17.388   8.878  1.00 20.00     0.072 C 
HETATM    5  C5  UNL     1     -25.265  19.263   6.702  1.00 20.00     0.079 C 
HETATM    6  N6  UNL     1     -23.179  18.305   7.620  1.00 20.00    -0.249 NA
HETATM    7  S7  UNL     1     -24.977  18.817   9.406  1.00 20.00    -0.066 SA
HETATM    8 BR8  UNL     1     -23.085  17.761  11.745  1.00 20.00    -0.041 Br
ENDROOT
TORSDOF 0
ENDMDL
MODEL 2
REMARK VINA RESULT:      -3.9      2.271      2.939
REMARK  0 active torsions:
REMARK  status: ('A' for Active; 'I' for Inactive)
ROOT
HETATM    1  C1  UNL     1     -24.189  16.900  10.552  1.00 20.00     0.056 A 
HETATM    2  C2  UNL     1     -24.687  18.172  10.362  1.00 20.00     0.077 A 
HETATM    3  C3  UNL     1     -22.905  17.511   8.882  1.00 20.00     0.072 A 
HETATM    4  C4  UNL     1     -24.639  15.920  11.562  1.00 20.00     0.072 C 
HETATM    5  C5  UNL     1     -21.869  17.474   7.828  1.00 20.00     0.079 C 
HETATM    6  N6  UNL     1     -23.167  16.519   9.703  1.00 20.00    -0.249 NA
HETATM    7  S7  UNL     1     -23.847  18.933   9.074  1.00 20.00    -0.066 SA
HETATM    8 BR8  UNL     1     -26.079  18.995  11.350  1.00 20.00    -0.041 Br
ENDROOT
TORSDOF 0
ENDMDL
MODEL 3
REMARK VINA RESULT:      -3.8      2.851      3.414
REMARK  0 active torsions:
REMARK  status: ('A' for Active; 'I' for Inactive)
ROOT
HETATM    1  C1  UNL     1     -23.215  18.012  11.533  1.00 20.00     0.056 A 
HETATM    2  C2  UNL     1     -23.268  18.177  10.165  1.00 20.00     0.077 A 
HETATM    3  C3  UNL     1     -25.340  18.525  11.345  1.00 20.00     0.072 A 
HETATM    4  C4  UNL     1     -22.025  17.648  12.331  1.00 20.00     0.072 C 
HETATM    5  C5  UNL     1     -26.746  18.811  11.700  1.00 20.00     0.079 C 
HETATM    6  N6  UNL     1     -24.402  18.212  12.212  1.00 20.00    -0.249 NA
HETATM    7  S7  UNL     1     -24.864  18.596   9.697  1.00 20.00    -0.066 SA
HETATM    8 BR8  UNL     1     -21.827  17.977   8.951  1.00 20.00    -0.041 Br
ENDROOT
TORSDOF 0
ENDMDL
MODEL 4
REMARK VINA RESULT:      -3.7      1.877      2.640
REMARK  0 active torsions:
REMARK  status: ('A' for Active; 'I' for Inactive)
ROOT
HETATM    1  C1  UNL     1     -25.118  18.736  10.473  1.00 20.00     0.056 A 
HETATM    2  C2  UNL     1     -23.858  18.178  10.494  1.00 20.00     0.077 A 
HETATM    3  C3  UNL     1     -24.634  18.934   8.342  1.00 20.00     0.072 A 
HETATM    4  C4  UNL     1     -26.024  18.911  11.628  1.00 20.00     0.072 C 
HETATM    5  C5  UNL     1     -24.753  19.263   6.906  1.00 20.00     0.079 C 
HETATM    6  N6  UNL     1     -25.565  19.171   9.240  1.00 20.00    -0.249 NA
HETATM    7  S7  UNL     1     -23.196  18.190   8.911  1.00 20.00    -0.066 SA
HETATM    8 BR8  UNL     1     -22.957  17.489  12.013  1.00 20.00    -0.041 Br
ENDROOT
TORSDOF 0
ENDMDL
MODEL 5
REMARK VINA RESULT:      -3.7      2.367      3.315
REMARK  0 active torsions:
REMARK  status: ('A' for Active; 'I' for Inactive)
ROOT
HETATM    1  C1  UNL     1     -24.469  18.774   8.694  1.00 20.00     0.056 A 
HETATM    2  C2  UNL     1     -23.421  18.045   9.215  1.00 20.00     0.077 A 
HETATM    3  C3  UNL     1     -25.158  18.645  10.773  1.00 20.00     0.072 A 
HETATM    4  C4  UNL     1     -24.625  19.214   7.292  1.00 20.00     0.072 C 
HETATM    5  C5  UNL     1     -25.989  18.814  11.984  1.00 20.00     0.079 C 
HETATM    6  N6  UNL     1     -25.467  19.118   9.586  1.00 20.00    -0.249 NA
HETATM    7  S7  UNL     1     -23.682  17.777  10.889  1.00 20.00    -0.066 SA
HETATM    8 BR8  UNL     1     -21.904  17.420   8.267  1.00 20.00    -0.041 Br
ENDROOT
TORSDOF 0
ENDMDL
MODEL 6
REMARK VINA RESULT:      -3.4      3.209      4.494
REMARK  0 active torsions:
REMARK  status: ('A' for Active; 'I' for Inactive)
ROOT
HETATM    1  C1  UNL     1     -25.710  18.774  10.752  1.00 20.00     0.056 A 
HETATM    2  C2  UNL     1     -25.066  18.780   9.533  1.00 20.00     0.077 A 
HETATM    3  C3  UNL     1     -23.733  18.097  11.420  1.00 20.00     0.072 A 
HETATM    4  C4  UNL     1     -27.119  19.142  11.006  1.00 20.00     0.072 C 
HETATM    5  C5  UNL     1     -22.634  17.640  12.296  1.00 20.00     0.079 C 
HETATM    6  N6  UNL     1     -24.948  18.381  11.836  1.00 20.00    -0.249 NA
HETATM    7  S7  UNL     1     -23.438  18.279   9.739  1.00 20.00    -0.066 SA
HETATM    8 BR8  UNL     1     -25.822  19.263   7.864  1.00 20.00    -0.041 Br
ENDROOT
TORSDOF 0
ENDMDL
MODEL 7
REMARK VINA RESULT:      -3.3     14.977     15.657
REMARK  0 active torsions:
REMARK  status: ('A' for Active; 'I' for Inactive)
ROOT
HETATM    1  C1  UNL     1     -34.571  16.937  -1.389  1.00 20.00     0.056 A 
HETATM    2  C2  UNL     1     -33.372  17.280  -1.978  1.00 20.00     0.077 A 
HETATM    3  C3  UNL     1     -34.572  15.468  -3.018  1.00 20.00     0.072 A 
HETATM    4  C4  UNL     1     -35.179  17.567  -0.198  1.00 20.00     0.072 C 
HETATM    5  C5  UNL     1     -34.994  14.362  -3.904  1.00 20.00     0.079 C 
HETATM    6  N6  UNL     1     -35.261  15.898  -1.985  1.00 20.00    -0.249 NA
HETATM    7  S7  UNL     1     -33.085  16.266  -3.331  1.00 20.00    -0.066 SA
HETATM    8 BR8  UNL     1     -32.191  18.649  -1.412  1.00 20.00    -0.041 Br
ENDROOT
TORSDOF 0
ENDMDL
MODEL 8
REMARK VINA RESULT:      -3.3     15.335     16.428
REMARK  0 active torsions:
REMARK  status: ('A' for Active; 'I' for Inactive)
ROOT
HETATM    1  C1  UNL     1     -33.769  15.371  -3.605  1.00 20.00     0.056 A 
HETATM    2  C2  UNL     1     -35.131  15.386  -3.391  1.00 20.00     0.077 A 
HETATM    3  C3  UNL     1     -33.845  16.937  -2.071  1.00 20.00     0.072 A 
HETATM    4  C4  UNL     1     -33.035  14.507  -4.554  1.00 20.00     0.072 C 
HETATM    5  C5  UNL     1     -33.417  17.983  -1.117  1.00 20.00     0.079 C 
HETATM    6  N6  UNL     1     -33.030  16.261  -2.849  1.00 20.00    -0.249 NA
HETATM    7  S7  UNL     1     -35.514  16.554  -2.195  1.00 20.00    -0.066 SA
HETATM    8 BR8  UNL     1     -36.418  14.298  -4.259  1.00 20.00    -0.041 Br
ENDROOT
TORSDOF 0
ENDMDL
MODEL 9
REMARK VINA RESULT:      -3.3     14.559     15.673
REMARK  0 active torsions:
REMARK  status: ('A' for Active; 'I' for Inactive)
ROOT
HETATM    1  C1  UNL     1     -33.300  17.055  -2.171  1.00 20.00     0.056 A 
HETATM    2  C2  UNL     1     -34.562  16.688  -1.754  1.00 20.00     0.077 A 
HETATM    3  C3  UNL     1     -33.760  15.605  -3.751  1.00 20.00     0.072 A 
HETATM    4  C4  UNL     1     -32.408  18.036  -1.518  1.00 20.00     0.072 C 
HETATM    5  C5  UNL     1     -33.624  14.761  -4.957  1.00 20.00     0.079 C 
HETATM    6  N6  UNL     1     -32.838  16.434  -3.316  1.00 20.00    -0.249 NA
HETATM    7  S7  UNL     1     -35.208  15.521  -2.833  1.00 20.00    -0.066 SA
HETATM    8 BR8  UNL     1     -35.481  17.347  -0.234  1.00 20.00    -0.041 Br
ENDROOT
TORSDOF 0
ENDMDL
