MODEL 1
REMARK VINA RESULT:      -4.4      0.000      0.000
REMARK  0 active torsions:
REMARK  status: ('A' for Active; 'I' for Inactive)
ROOT
HETATM    1  C1  UNL     1     -32.200   7.314   2.414  1.00 20.00     0.136 A 
HETATM    2  C2  UNL     1     -32.725   6.230   1.754  1.00 20.00     0.136 A 
HETATM    3  C3  UNL     1     -33.300   6.690   4.335  1.00 20.00     0.059 A 
HETATM    4  C4  UNL     1     -33.823   5.586   3.671  1.00 20.00     0.059 A 
HETATM    5  C5  UNL     1     -33.566   6.938   5.793  1.00 20.00     0.061 C 
HETATM    6  C6  UNL     1     -34.775   4.636   4.341  1.00 20.00     0.061 C 
HETATM    7  C7  UNL     1     -34.781   6.176   6.318  1.00 20.00     0.006 C 
HETATM    8  C8  UNL     1     -34.735   4.721   5.866  1.00 20.00     0.006 C 
HETATM    9  N9  UNL     1     -32.474   7.560   3.709  1.00 20.00    -0.262 NA
HETATM   10  N10 UNL     1     -33.544   5.354   2.367  1.00 20.00    -0.262 NA
ENDROOT
TORSDOF 0
ENDMDL
MODEL 2
REMARK VINA RESULT:      -4.4      0.026      2.137
REMARK  0 active torsions:
REMARK  status: ('A' for Active; 'I' for Inactive)
ROOT
HETATM    1  C1  UNL     1     -32.716   6.245   1.775  1.00 20.00     0.136 A 
HETATM    2  C2  UNL     1     -32.181   7.319   2.444  1.00 20.00     0.136 A 
HETATM    3  C3  UNL     1     -33.828   5.600   3.682  1.00 20.00     0.059 A 
HETATM    4  C4  UNL     1     -33.296   6.693   4.357  1.00 20.00     0.059 A 
HETATM    5  C5  UNL     1     -34.793   4.655   4.342  1.00 20.00     0.061 C 
HETATM    6  C6  UNL     1     -33.565   6.933   5.815  1.00 20.00     0.061 C 
HETATM    7  C7  UNL     1     -34.756   4.728   5.867  1.00 20.00     0.006 C 
HETATM    8  C8  UNL     1     -34.790   6.180   6.332  1.00 20.00     0.006 C 
HETATM    9  N9  UNL     1     -33.547   5.373   2.379  1.00 20.00    -0.262 NA
HETATM   10  N10 UNL     1     -32.457   7.559   3.740  1.00 20.00    -0.262 NA
ENDROOT
TORSDOF 0
ENDMDL
MODEL 3
REMARK VINA RESULT:      -4.4     15.704     16.424
REMARK  0 active torsions:
REMARK  status: ('A' for Active; 'I' for Inactive)
ROOT
HETATM    1  C1  UNL     1     -24.819  19.242   6.455  1.00 20.00     0.136 A 
HETATM    2  C2  UNL     1     -25.929  19.263   7.266  1.00 20.00     0.136 A 
HETATM    3  C3  UNL     1     -23.541  18.484   8.210  1.00 20.00     0.059 A 
HETATM    4  C4  UNL     1     -24.666  18.493   9.027  1.00 20.00     0.059 A 
HETATM    5  C5  UNL     1     -22.206  18.001   8.704  1.00 20.00     0.061 C 
HETATM    6  C6  UNL     1     -24.591  18.129  10.483  1.00 20.00     0.061 C 
HETATM    7  C7  UNL     1     -22.102  17.983  10.227  1.00 20.00     0.006 C 
HETATM    8  C8  UNL     1     -23.336  17.331  10.839  1.00 20.00     0.006 C 
HETATM    9  N9  UNL     1     -23.614  18.851   6.910  1.00 20.00    -0.262 NA
HETATM   10  N10 UNL     1     -25.871  18.894   8.559  1.00 20.00    -0.262 NA
ENDROOT
TORSDOF 0
ENDMDL
MODEL 4
REMARK VINA RESULT:      -4.4     11.665     12.741
REMARK  0 active torsions:
REMARK  status: ('A' for Active; 'I' for Inactive)
ROOT
HETATM    1  C1  UNL     1     -38.817  16.104  -3.951  1.00 20.00     0.136 A 
HETATM    2  C2  UNL     1     -38.891  14.784  -4.326  1.00 20.00     0.136 A 
HETATM    3  C3  UNL     1     -36.543  15.906  -3.673  1.00 20.00     0.059 A 
HETATM    4  C4  UNL     1     -36.616  14.573  -4.064  1.00 20.00     0.059 A 
HETATM    5  C5  UNL     1     -35.232  16.568  -3.354  1.00 20.00     0.061 C 
HETATM    6  C6  UNL     1     -35.403  13.685  -4.083  1.00 20.00     0.061 C 
HETATM    7  C7  UNL     1     -34.115  15.571  -3.050  1.00 20.00     0.006 C 
HETATM    8  C8  UNL     1     -34.089  14.464  -4.098  1.00 20.00     0.006 C 
HETATM    9  N9  UNL     1     -37.648  16.685  -3.623  1.00 20.00    -0.262 NA
HETATM   10  N10 UNL     1     -37.798  14.000  -4.386  1.00 20.00    -0.262 NA
ENDROOT
TORSDOF 0
ENDMDL
MODEL 5
REMARK VINA RESULT:      -4.4     11.681     12.911
REMARK  0 active torsions:
REMARK  status: ('A' for Active; 'I' for Inactive)
ROOT
HETATM    1  C1  UNL     1     -38.906  14.777  -4.320  1.00 20.00     0.136 A 
HETATM    2  C2  UNL     1     -38.837  16.095  -3.938  1.00 20.00     0.136 A 
HETATM    3  C3  UNL     1     -36.629  14.577  -4.070  1.00 20.00     0.059 A 
HETATM    4  C4  UNL     1     -36.560  15.908  -3.672  1.00 20.00     0.059 A 
HETATM    5  C5  UNL     1     -35.412  13.695  -4.100  1.00 20.00     0.061 C 
HETATM    6  C6  UNL     1     -35.251  16.574  -3.356  1.00 20.00     0.061 C 
HETATM    7  C7  UNL     1     -34.102  14.481  -4.118  1.00 20.00     0.006 C 
HETATM    8  C8  UNL     1     -34.126  15.582  -3.064  1.00 20.00     0.006 C 
HETATM    9  N9  UNL     1     -37.809  13.999  -4.389  1.00 20.00    -0.262 NA
HETATM   10  N10 UNL     1     -37.669  16.681  -3.613  1.00 20.00    -0.262 NA
ENDROOT
TORSDOF 0
ENDMDL
MODEL 6
REMARK VINA RESULT:      -4.4     16.121     16.680
REMARK  0 active torsions:
REMARK  status: ('A' for Active; 'I' for Inactive)
ROOT
HETATM    1  C1  UNL     1     -25.440  19.263   7.980  1.00 20.00     0.136 A 
HETATM    2  C2  UNL     1     -24.204  18.899   7.501  1.00 20.00     0.136 A 
HETATM    3  C3  UNL     1     -24.819  18.617  10.098  1.00 20.00     0.059 A 
HETATM    4  C4  UNL     1     -23.564  18.259   9.616  1.00 20.00     0.059 A 
HETATM    5  C5  UNL     1     -25.166  18.516  11.557  1.00 20.00     0.061 C 
HETATM    6  C6  UNL     1     -22.519  17.647  10.505  1.00 20.00     0.061 C 
HETATM    7  C7  UNL     1     -24.233  17.587  12.332  1.00 20.00     0.006 C 
HETATM    8  C8  UNL     1     -22.778  17.887  11.991  1.00 20.00     0.006 C 
HETATM    9  N9  UNL     1     -25.765  19.132   9.280  1.00 20.00    -0.262 NA
HETATM   10  N10 UNL     1     -23.252  18.391   8.306  1.00 20.00    -0.262 NA
ENDROOT
TORSDOF 0
ENDMDL
MODEL 7
REMARK VINA RESULT:      -4.3     15.822     16.534
REMARK  0 active torsions:
REMARK  status: ('A' for Active; 'I' for Inactive)
ROOT
HETATM    1  C1  UNL     1     -25.858  17.431  12.287  1.00 20.00     0.136 A 
HETATM    2  C2  UNL     1     -24.995  16.363  12.332  1.00 20.00     0.136 A 
HETATM    3  C3  UNL     1     -24.782  18.232  10.419  1.00 20.00     0.059 A 
HETATM    4  C4  UNL     1     -23.916  17.146  10.457  1.00 20.00     0.059 A 
HETATM    5  C5  UNL     1     -24.715  19.262   9.326  1.00 20.00     0.061 C 
HETATM    6  C6  UNL     1     -22.789  16.995   9.474  1.00 20.00     0.061 C 
HETATM    7  C7  UNL     1     -23.379  19.263   8.586  1.00 20.00     0.006 C 
HETATM    8  C8  UNL     1     -22.973  17.841   8.215  1.00 20.00     0.006 C 
HETATM    9  N9  UNL     1     -25.769  18.377  11.333  1.00 20.00    -0.262 NA
HETATM   10  N10 UNL     1     -24.012  16.205  11.425  1.00 20.00    -0.262 NA
ENDROOT
TORSDOF 0
ENDMDL
MODEL 8
REMARK VINA RESULT:      -4.2     12.163     12.454
REMARK  0 active torsions:
REMARK  status: ('A' for Active; 'I' for Inactive)
ROOT
HETATM    1  C1  UNL     1     -37.123  14.325  -4.527  1.00 20.00     0.136 A 
HETATM    2  C2  UNL     1     -36.056  13.756  -5.181  1.00 20.00     0.136 A 
HETATM    3  C3  UNL     1     -35.685  15.653  -3.319  1.00 20.00     0.059 A 
HETATM    4  C4  UNL     1     -34.606  15.086  -3.989  1.00 20.00     0.059 A 
HETATM    5  C5  UNL     1     -35.503  16.753  -2.312  1.00 20.00     0.061 C 
HETATM    6  C6  UNL     1     -33.187  15.459  -3.665  1.00 20.00     0.061 C 
HETATM    7  C7  UNL     1     -34.076  16.844  -1.775  1.00 20.00     0.006 C 
HETATM    8  C8  UNL     1     -33.071  16.788  -2.919  1.00 20.00     0.006 C 
HETATM    9  N9  UNL     1     -36.957  15.280  -3.593  1.00 20.00    -0.262 NA
HETATM   10  N10 UNL     1     -34.787  14.122  -4.922  1.00 20.00    -0.262 NA
ENDROOT
TORSDOF 0
ENDMDL
MODEL 9
REMARK VINA RESULT:      -4.2      1.306      3.413
REMARK  0 active torsions:
REMARK  status: ('A' for Active; 'I' for Inactive)
ROOT
HETATM    1  C1  UNL     1     -34.790   5.780   6.226  1.00 20.00     0.136 A 
HETATM    2  C2  UNL     1     -35.164   4.845   5.291  1.00 20.00     0.136 A 
HETATM    3  C3  UNL     1     -33.381   6.760   4.695  1.00 20.00     0.059 A 
HETATM    4  C4  UNL     1     -33.769   5.821   3.745  1.00 20.00     0.059 A 
HETATM    5  C5  UNL     1     -32.425   7.872   4.366  1.00 20.00     0.061 C 
HETATM    6  C6  UNL     1     -33.171   5.794   2.367  1.00 20.00     0.061 C 
HETATM    7  C7  UNL     1     -31.600   7.601   3.110  1.00 20.00     0.006 C 
HETATM    8  C8  UNL     1     -32.496   7.110   1.979  1.00 20.00     0.006 C 
HETATM    9  N9  UNL     1     -33.899   6.750   5.945  1.00 20.00    -0.262 NA
HETATM   10  N10 UNL     1     -34.660   4.848   4.043  1.00 20.00    -0.262 NA
ENDROOT
TORSDOF 0
ENDMDL
