MODEL 1
REMARK VINA RESULT:      -4.2      0.000      0.000
REMARK  1 active torsions:
REMARK  status: ('A' for Active; 'I' for Inactive)
REMARK    1  A    between atoms: C4_4  and  C5_5 
ROOT
HETATM    1  C1  UNL     1     -34.388   6.460   6.166  1.00 20.00     0.029 C 
HETATM    2  C2  UNL     1     -33.501   6.827   5.004  1.00 20.00     0.035 C 
HETATM    3  C3  UNL     1     -34.715   5.013   5.865  1.00 20.00     0.168 C 
HETATM    4  C4  UNL     1     -34.167   6.077   3.864  1.00 20.00     0.131 C 
HETATM    5  O6  UNL     1     -34.695   4.868   4.436  1.00 20.00    -0.385 OA
ENDROOT
BRANCH   4   6
HETATM    6  C5  UNL     1     -33.222   5.739   2.728  1.00 20.00     0.117 C 
HETATM    7 BR7  UNL     1     -32.438   7.368   2.019  1.00 20.00    -0.094 Br
ENDBRANCH   4   6
TORSDOF 1
ENDMDL
MODEL 2
REMARK VINA RESULT:      -3.7      2.131      3.381
REMARK  1 active torsions:
REMARK  status: ('A' for Active; 'I' for Inactive)
REMARK    1  A    between atoms: C4_4  and  C5_5 
ROOT
HETATM    1  C1  UNL     1     -33.267   4.690   2.251  1.00 20.00     0.029 C 
HETATM    2  C2  UNL     1     -33.891   4.178   3.524  1.00 20.00     0.035 C 
HETATM    3  C3  UNL     1     -32.889   6.105   2.635  1.00 20.00     0.168 C 
HETATM    4  C4  UNL     1     -34.634   5.408   4.014  1.00 20.00     0.131 C 
HETATM    5  O6  UNL     1     -33.839   6.539   3.620  1.00 20.00    -0.385 OA
ENDROOT
BRANCH   4   6
HETATM    6  C5  UNL     1     -34.850   5.427   5.515  1.00 20.00     0.117 C 
HETATM    7 BR7  UNL     1     -33.895   6.928   6.296  1.00 20.00    -0.094 Br
ENDBRANCH   4   6
TORSDOF 1
ENDMDL
MODEL 3
REMARK VINA RESULT:      -3.7      2.544      3.443
REMARK  1 active torsions:
REMARK  status: ('A' for Active; 'I' for Inactive)
REMARK    1  A    between atoms: C4_4  and  C5_5 
ROOT
HETATM    1  C1  UNL     1     -32.490   6.564   2.106  1.00 20.00     0.029 C 
HETATM    2  C2  UNL     1     -33.148   5.245   2.421  1.00 20.00     0.035 C 
HETATM    3  C3  UNL     1     -32.546   7.269   3.445  1.00 20.00     0.168 C 
HETATM    4  C4  UNL     1     -34.245   5.674   3.379  1.00 20.00     0.131 C 
HETATM    5  O6  UNL     1     -33.714   6.782   4.125  1.00 20.00    -0.385 OA
ENDROOT
BRANCH   4   6
HETATM    6  C5  UNL     1     -34.683   4.576   4.329  1.00 20.00     0.117 C 
HETATM    7 BR7  UNL     1     -34.741   5.263   6.145  1.00 20.00    -0.094 Br
ENDBRANCH   4   6
TORSDOF 1
ENDMDL
MODEL 4
REMARK VINA RESULT:      -3.4     16.215     16.885
REMARK  1 active torsions:
REMARK  status: ('A' for Active; 'I' for Inactive)
REMARK    1  A    between atoms: C4_4  and  C5_5 
ROOT
HETATM    1  C1  UNL     1     -24.353  16.220  11.506  1.00 20.00     0.029 C 
HETATM    2  C2  UNL     1     -23.959  16.642  10.114  1.00 20.00     0.035 C 
HETATM    3  C3  UNL     1     -24.042  17.465  12.310  1.00 20.00     0.168 C 
HETATM    4  C4  UNL     1     -22.722  17.478  10.389  1.00 20.00     0.131 C 
HETATM    5  O6  UNL     1     -22.949  18.124  11.653  1.00 20.00    -0.385 OA
ENDROOT
BRANCH   4   6
HETATM    6  C5  UNL     1     -22.444  18.518   9.322  1.00 20.00     0.117 C 
HETATM    7 BR7  UNL     1     -24.119  19.260   8.676  1.00 20.00    -0.094 Br
ENDBRANCH   4   6
TORSDOF 1
ENDMDL
MODEL 5
REMARK VINA RESULT:      -3.4     16.649     16.998
REMARK  1 active torsions:
REMARK  status: ('A' for Active; 'I' for Inactive)
REMARK    1  A    between atoms: C4_4  and  C5_5 
ROOT
HETATM    1  C1  UNL     1     -23.569  18.412   8.339  1.00 20.00     0.029 C 
HETATM    2  C2  UNL     1     -24.125  18.246   9.731  1.00 20.00     0.035 C 
HETATM    3  C3  UNL     1     -22.435  17.409   8.334  1.00 20.00     0.168 C 
HETATM    4  C4  UNL     1     -22.858  18.033  10.540  1.00 20.00     0.131 C 
HETATM    5  O6  UNL     1     -21.953  17.317   9.683  1.00 20.00    -0.385 OA
ENDROOT
BRANCH   4   6
HETATM    6  C5  UNL     1     -23.082  17.251  11.820  1.00 20.00     0.117 C 
HETATM    7 BR7  UNL     1     -24.563  16.017  11.586  1.00 20.00    -0.094 Br
ENDBRANCH   4   6
TORSDOF 1
ENDMDL
MODEL 6
REMARK VINA RESULT:      -3.3     15.903     16.680
REMARK  1 active torsions:
REMARK  status: ('A' for Active; 'I' for Inactive)
REMARK    1  A    between atoms: C4_4  and  C5_5 
ROOT
HETATM    1  C1  UNL     1     -22.346  17.689  11.098  1.00 20.00     0.029 C 
HETATM    2  C2  UNL     1     -23.453  17.854  12.108  1.00 20.00     0.035 C 
HETATM    3  C3  UNL     1     -23.085  17.093   9.919  1.00 20.00     0.168 C 
HETATM    4  C4  UNL     1     -24.278  16.603  11.861  1.00 20.00     0.131 C 
HETATM    5  O6  UNL     1     -24.178  16.331  10.452  1.00 20.00    -0.385 OA
ENDROOT
BRANCH   4   6
HETATM    6  C5  UNL     1     -25.735  16.750  12.255  1.00 20.00     0.117 C 
HETATM    7 BR7  UNL     1     -26.307  18.586  11.979  1.00 20.00    -0.094 Br
ENDBRANCH   4   6
TORSDOF 1
ENDMDL
MODEL 7
REMARK VINA RESULT:      -3.3     16.371     16.880
REMARK  1 active torsions:
REMARK  status: ('A' for Active; 'I' for Inactive)
REMARK    1  A    between atoms: C4_4  and  C5_5 
ROOT
HETATM    1  C1  UNL     1     -23.172  18.154   8.213  1.00 20.00     0.029 C 
HETATM    2  C2  UNL     1     -22.763  17.157   9.266  1.00 20.00     0.035 C 
HETATM    3  C3  UNL     1     -24.078  19.082   8.995  1.00 20.00     0.168 C 
HETATM    4  C4  UNL     1     -24.049  17.008  10.059  1.00 20.00     0.131 C 
HETATM    5  O6  UNL     1     -24.688  18.295  10.029  1.00 20.00    -0.385 OA
ENDROOT
BRANCH   4   6
HETATM    6  C5  UNL     1     -23.828  16.575  11.495  1.00 20.00     0.117 C 
HETATM    7 BR7  UNL     1     -22.504  17.724  12.331  1.00 20.00    -0.094 Br
ENDBRANCH   4   6
TORSDOF 1
ENDMDL
MODEL 8
REMARK VINA RESULT:      -3.3     12.111     12.445
REMARK  1 active torsions:
REMARK  status: ('A' for Active; 'I' for Inactive)
REMARK    1  A    between atoms: C4_4  and  C5_5 
ROOT
HETATM    1  C1  UNL     1     -33.990  15.818  -2.748  1.00 20.00     0.029 C 
HETATM    2  C2  UNL     1     -35.381  15.466  -3.213  1.00 20.00     0.035 C 
HETATM    3  C3  UNL     1     -33.141  15.328  -3.902  1.00 20.00     0.168 C 
HETATM    4  C4  UNL     1     -35.142  14.132  -3.899  1.00 20.00     0.131 C 
HETATM    5  O6  UNL     1     -33.832  14.213  -4.485  1.00 20.00    -0.385 OA
ENDROOT
BRANCH   4   6
HETATM    6  C5  UNL     1     -36.167  13.811  -4.970  1.00 20.00     0.117 C 
HETATM    7 BR7  UNL     1     -35.744  14.785  -6.596  1.00 20.00    -0.094 Br
ENDBRANCH   4   6
TORSDOF 1
ENDMDL
MODEL 9
REMARK VINA RESULT:      -3.3     11.896     12.305
REMARK  1 active torsions:
REMARK  status: ('A' for Active; 'I' for Inactive)
REMARK    1  A    between atoms: C4_4  and  C5_5 
ROOT
HETATM    1  C1  UNL     1     -33.728  15.759  -2.974  1.00 20.00     0.029 C 
HETATM    2  C2  UNL     1     -35.178  15.430  -3.222  1.00 20.00     0.035 C 
HETATM    3  C3  UNL     1     -33.054  15.126  -4.173  1.00 20.00     0.168 C 
HETATM    4  C4  UNL     1     -35.077  14.029  -3.799  1.00 20.00     0.131 C 
HETATM    5  O6  UNL     1     -33.852  13.995  -4.552  1.00 20.00    -0.385 OA
ENDROOT
BRANCH   4   6
HETATM    6  C5  UNL     1     -36.242  13.657  -4.695  1.00 20.00     0.117 C 
HETATM    7 BR7  UNL     1     -37.740  14.845  -4.350  1.00 20.00    -0.094 Br
ENDBRANCH   4   6
TORSDOF 1
ENDMDL
