MODEL 1
REMARK VINA RESULT:      -5.3      0.000      0.000
REMARK  0 active torsions:
REMARK  status: ('A' for Active; 'I' for Inactive)
ROOT
HETATM    1  C1  UNL     1     -34.368   6.390   6.161  1.00 20.00    -0.030 C 
HETATM    2  C2  UNL     1     -34.737   5.116   5.892  1.00 20.00    -0.029 C 
HETATM    3  C3  UNL     1     -32.839   6.612   2.616  1.00 20.00     0.224 C 
HETATM    4  C4  UNL     1     -33.656   7.295   5.155  1.00 20.00     0.043 C 
HETATM    5  C5  UNL     1     -34.545   4.450   4.530  1.00 20.00     0.053 C 
HETATM    6  C6  UNL     1     -33.098   6.371   4.101  1.00 20.00     0.104 C 
HETATM    7  C7  UNL     1     -34.319   5.585   3.565  1.00 20.00     0.101 C 
HETATM    8  N8  UNL     1     -33.553   5.463   2.337  1.00 20.00    -0.355 N 
HETATM    9  O9  UNL     1     -32.229   7.396   1.930  1.00 20.00    -0.273 OA
HETATM   10  H18 UNL     1     -33.804   5.116   1.421  1.00 20.00     0.162 HD
ENDROOT
TORSDOF 0
ENDMDL
MODEL 2
REMARK VINA RESULT:      -5.0     11.687     12.188
REMARK  0 active torsions:
REMARK  status: ('A' for Active; 'I' for Inactive)
ROOT
HETATM    1  C1  UNL     1     -33.010  15.989  -3.316  1.00 20.00    -0.030 C 
HETATM    2  C2  UNL     1     -33.796  16.540  -2.361  1.00 20.00    -0.029 C 
HETATM    3  C3  UNL     1     -36.009  13.806  -4.409  1.00 20.00     0.224 C 
HETATM    4  C4  UNL     1     -33.501  14.938  -4.311  1.00 20.00     0.043 C 
HETATM    5  C5  UNL     1     -35.284  16.229  -2.207  1.00 20.00     0.053 C 
HETATM    6  C6  UNL     1     -34.774  14.381  -3.722  1.00 20.00     0.104 C 
HETATM    7  C7  UNL     1     -35.694  15.609  -3.517  1.00 20.00     0.101 C 
HETATM    8  N8  UNL     1     -36.789  14.663  -3.658  1.00 20.00    -0.355 N 
HETATM    9  O9  UNL     1     -36.265  12.937  -5.207  1.00 20.00    -0.273 OA
HETATM   10  H18 UNL     1     -37.787  14.800  -3.740  1.00 20.00     0.162 HD
ENDROOT
TORSDOF 0
ENDMDL
MODEL 3
REMARK VINA RESULT:      -4.9      1.191      2.015
REMARK  0 active torsions:
REMARK  status: ('A' for Active; 'I' for Inactive)
ROOT
HETATM    1  C1  UNL     1     -34.905   4.759   4.837  1.00 20.00    -0.030 C 
HETATM    2  C2  UNL     1     -34.798   5.598   5.894  1.00 20.00    -0.029 C 
HETATM    3  C3  UNL     1     -32.652   7.157   2.806  1.00 20.00     0.224 C 
HETATM    4  C4  UNL     1     -34.205   4.992   3.498  1.00 20.00     0.043 C 
HETATM    5  C5  UNL     1     -33.912   6.844   5.898  1.00 20.00     0.053 C 
HETATM    6  C6  UNL     1     -33.820   6.451   3.488  1.00 20.00     0.104 C 
HETATM    7  C7  UNL     1     -32.951   6.648   4.754  1.00 20.00     0.101 C 
HETATM    8  N8  UNL     1     -32.335   7.738   4.018  1.00 20.00    -0.355 N 
HETATM    9  O9  UNL     1     -32.197   7.263   1.693  1.00 20.00    -0.273 OA
HETATM   10  H18 UNL     1     -31.527   8.312   4.221  1.00 20.00     0.162 HD
ENDROOT
TORSDOF 0
ENDMDL
MODEL 4
REMARK VINA RESULT:      -4.9     11.713     12.188
REMARK  0 active torsions:
REMARK  status: ('A' for Active; 'I' for Inactive)
ROOT
HETATM    1  C1  UNL     1     -34.089  16.251  -2.553  1.00 20.00    -0.030 C 
HETATM    2  C2  UNL     1     -33.192  15.720  -3.417  1.00 20.00    -0.029 C 
HETATM    3  C3  UNL     1     -36.864  14.202  -4.302  1.00 20.00     0.224 C 
HETATM    4  C4  UNL     1     -35.575  15.893  -2.552  1.00 20.00     0.043 C 
HETATM    5  C5  UNL     1     -33.543  14.650  -4.450  1.00 20.00     0.053 C 
HETATM    6  C6  UNL     1     -35.843  15.262  -3.896  1.00 20.00     0.104 C 
HETATM    7  C7  UNL     1     -34.856  14.073  -3.988  1.00 20.00     0.101 C 
HETATM    8  N8  UNL     1     -35.838  13.480  -4.880  1.00 20.00    -0.355 N 
HETATM    9  O9  UNL     1     -38.059  14.042  -4.241  1.00 20.00    -0.273 OA
HETATM   10  H18 UNL     1     -35.904  12.556  -5.285  1.00 20.00     0.162 HD
ENDROOT
TORSDOF 0
ENDMDL
MODEL 5
REMARK VINA RESULT:      -4.9     16.173     16.524
REMARK  0 active torsions:
REMARK  status: ('A' for Active; 'I' for Inactive)
ROOT
HETATM    1  C1  UNL     1     -25.384  18.565  11.328  1.00 20.00    -0.030 C 
HETATM    2  C2  UNL     1     -24.710  17.760  12.183  1.00 20.00    -0.029 C 
HETATM    3  C3  UNL     1     -22.813  17.671   8.582  1.00 20.00     0.224 C 
HETATM    4  C4  UNL     1     -24.990  18.764   9.864  1.00 20.00     0.043 C 
HETATM    5  C5  UNL     1     -23.515  16.902  11.770  1.00 20.00     0.053 C 
HETATM    6  C6  UNL     1     -23.562  18.289   9.759  1.00 20.00     0.104 C 
HETATM    7  C7  UNL     1     -23.584  16.827  10.267  1.00 20.00     0.101 C 
HETATM    8  N8  UNL     1     -22.425  16.637   9.412  1.00 20.00    -0.355 N 
HETATM    9  O9  UNL     1     -22.566  17.948   7.433  1.00 20.00    -0.273 OA
HETATM   10  H18 UNL     1     -21.919  15.803   9.142  1.00 20.00     0.162 HD
ENDROOT
TORSDOF 0
ENDMDL
MODEL 6
REMARK VINA RESULT:      -4.7      9.059      9.413
REMARK  0 active torsions:
REMARK  status: ('A' for Active; 'I' for Inactive)
ROOT
HETATM    1  C1  UNL     1     -43.123   5.677   0.870  1.00 20.00    -0.030 C 
HETATM    2  C2  UNL     1     -42.211   5.062   0.080  1.00 20.00    -0.029 C 
HETATM    3  C3  UNL     1     -41.438   9.059   0.046  1.00 20.00     0.224 C 
HETATM    4  C4  UNL     1     -43.174   7.190   1.082  1.00 20.00     0.043 C 
HETATM    5  C5  UNL     1     -41.168   5.811  -0.748  1.00 20.00     0.053 C 
HETATM    6  C6  UNL     1     -41.828   7.709   0.643  1.00 20.00     0.104 C 
HETATM    7  C7  UNL     1     -41.668   7.231  -0.821  1.00 20.00     0.101 C 
HETATM    8  N8  UNL     1     -40.803   8.387  -0.980  1.00 20.00    -0.355 N 
HETATM    9  O9  UNL     1     -41.542  10.227   0.332  1.00 20.00    -0.273 OA
HETATM   10  H18 UNL     1     -40.378   8.799  -1.800  1.00 20.00     0.162 HD
ENDROOT
TORSDOF 0
ENDMDL
MODEL 7
REMARK VINA RESULT:      -4.7     16.065     16.983
REMARK  0 active torsions:
REMARK  status: ('A' for Active; 'I' for Inactive)
ROOT
HETATM    1  C1  UNL     1     -23.701  19.033   9.027  1.00 20.00    -0.030 C 
HETATM    2  C2  UNL     1     -22.383  18.736   9.108  1.00 20.00    -0.029 C 
HETATM    3  C3  UNL     1     -24.386  16.371  11.746  1.00 20.00     0.224 C 
HETATM    4  C4  UNL     1     -24.772  18.370   9.893  1.00 20.00     0.043 C 
HETATM    5  C5  UNL     1     -21.798  17.752  10.121  1.00 20.00     0.053 C 
HETATM    6  C6  UNL     1     -24.136  17.115  10.438  1.00 20.00     0.104 C 
HETATM    7  C7  UNL     1     -22.863  17.595  11.176  1.00 20.00     0.101 C 
HETATM    8  N8  UNL     1     -23.027  16.402  11.989  1.00 20.00    -0.355 N 
HETATM    9  O9  UNL     1     -25.321  15.880  12.332  1.00 20.00    -0.273 OA
HETATM   10  H18 UNL     1     -22.556  16.092  12.828  1.00 20.00     0.162 HD
ENDROOT
TORSDOF 0
ENDMDL
MODEL 8
REMARK VINA RESULT:      -4.4     12.234     12.663
REMARK  0 active torsions:
REMARK  status: ('A' for Active; 'I' for Inactive)
ROOT
HETATM    1  C1  UNL     1     -35.153  16.106  -2.157  1.00 20.00    -0.030 C 
HETATM    2  C2  UNL     1     -33.863  16.517  -2.169  1.00 20.00    -0.029 C 
HETATM    3  C3  UNL     1     -34.689  14.798  -5.766  1.00 20.00     0.224 C 
HETATM    4  C4  UNL     1     -35.821  15.382  -3.326  1.00 20.00     0.043 C 
HETATM    5  C5  UNL     1     -32.901  16.247  -3.326  1.00 20.00     0.053 C 
HETATM    6  C6  UNL     1     -34.944  15.647  -4.524  1.00 20.00     0.104 C 
HETATM    7  C7  UNL     1     -33.541  15.136  -4.119  1.00 20.00     0.101 C 
HETATM    8  N8  UNL     1     -33.332  14.935  -5.543  1.00 20.00    -0.355 N 
HETATM    9  O9  UNL     1     -35.336  14.273  -6.640  1.00 20.00    -0.273 OA
HETATM   10  H18 UNL     1     -32.587  14.481  -6.054  1.00 20.00     0.162 HD
ENDROOT
TORSDOF 0
ENDMDL
MODEL 9
REMARK VINA RESULT:      -4.4     16.101     16.677
REMARK  0 active torsions:
REMARK  status: ('A' for Active; 'I' for Inactive)
ROOT
HETATM    1  C1  UNL     1     -22.233  17.763  11.158  1.00 20.00    -0.030 C 
HETATM    2  C2  UNL     1     -23.411  17.429  11.735  1.00 20.00    -0.029 C 
HETATM    3  C3  UNL     1     -24.146  18.537   7.888  1.00 20.00     0.224 C 
HETATM    4  C4  UNL     1     -22.108  18.264   9.719  1.00 20.00     0.043 C 
HETATM    5  C5  UNL     1     -24.765  17.576  11.041  1.00 20.00     0.053 C 
HETATM    6  C6  UNL     1     -23.396  17.871   9.038  1.00 20.00     0.104 C 
HETATM    7  C7  UNL     1     -24.516  18.516   9.890  1.00 20.00     0.101 C 
HETATM    8  N8  UNL     1     -25.291  18.512   8.660  1.00 20.00    -0.355 N 
HETATM    9  O9  UNL     1     -23.918  18.887   6.755  1.00 20.00    -0.273 OA
HETATM   10  H18 UNL     1     -26.184  18.925   8.429  1.00 20.00     0.162 HD
ENDROOT
TORSDOF 0
ENDMDL
