MODEL 1
REMARK VINA RESULT:      -4.7      0.000      0.000
REMARK  1 active torsions:
REMARK  status: ('A' for Active; 'I' for Inactive)
REMARK    1  A    between atoms: C9_9  and  C10_10 
ROOT
HETATM    1  C1  UNL     1     -35.161  16.272  -1.676  1.00 20.00     0.015 C 
HETATM    2  C2  UNL     1     -32.939  16.593  -2.881  1.00 20.00     0.015 C 
HETATM    3  C5  UNL     1     -35.156  17.674  -1.080  1.00 20.00     0.074 C 
HETATM    4  C6  UNL     1     -32.758  18.021  -2.381  1.00 20.00     0.074 C 
HETATM    5  C9  UNL     1     -34.413  16.180  -3.014  1.00 20.00    -0.009 C 
HETATM    6  S11 UNL     1     -33.475  18.256  -0.731  1.00 20.00    -0.169 SA
ENDROOT
BRANCH   5   7
HETATM    7  C10 UNL     1     -34.513  14.760  -3.577  1.00 20.00    -0.009 C 
HETATM    8  C3  UNL     1     -35.966  14.371  -3.892  1.00 20.00     0.015 C 
HETATM    9  C7  UNL     1     -36.583  15.114  -5.071  1.00 20.00     0.074 C 
HETATM   10  S12 UNL     1     -35.662  14.832  -6.609  1.00 20.00    -0.169 SA
HETATM   11  C8  UNL     1     -34.009  15.317  -6.042  1.00 20.00     0.074 C 
HETATM   12  C4  UNL     1     -33.590  14.559  -4.788  1.00 20.00     0.015 C 
ENDBRANCH   5   7
TORSDOF 1
ENDMDL
MODEL 2
REMARK VINA RESULT:      -4.0      1.565      1.827
REMARK  1 active torsions:
REMARK  status: ('A' for Active; 'I' for Inactive)
REMARK    1  A    between atoms: C9_9  and  C10_10 
ROOT
HETATM    1  C1  UNL     1     -35.269  16.914  -0.479  1.00 20.00     0.015 C 
HETATM    2  C2  UNL     1     -33.011  17.768  -1.292  1.00 20.00     0.015 C 
HETATM    3  C5  UNL     1     -35.516  18.120   0.419  1.00 20.00     0.074 C 
HETATM    4  C6  UNL     1     -33.079  19.043  -0.459  1.00 20.00     0.074 C 
HETATM    5  C9  UNL     1     -34.394  17.237  -1.699  1.00 20.00    -0.009 C 
HETATM    6  S11 UNL     1     -33.972  18.785   1.099  1.00 20.00    -0.169 SA
ENDROOT
BRANCH   5   7
HETATM    7  C10 UNL     1     -34.242  15.995  -2.581  1.00 20.00    -0.009 C 
HETATM    8  C3  UNL     1     -35.602  15.365  -2.920  1.00 20.00     0.015 C 
HETATM    9  C7  UNL     1     -36.471  16.191  -3.860  1.00 20.00     0.074 C 
HETATM   10  S12 UNL     1     -35.661  16.481  -5.457  1.00 20.00    -0.169 SA
HETATM   11  C8  UNL     1     -34.103  17.192  -4.860  1.00 20.00     0.074 C 
HETATM   12  C4  UNL     1     -33.415  16.288  -3.843  1.00 20.00     0.015 C 
ENDBRANCH   5   7
TORSDOF 1
ENDMDL
MODEL 3
REMARK VINA RESULT:      -4.0      0.911      4.948
REMARK  1 active torsions:
REMARK  status: ('A' for Active; 'I' for Inactive)
REMARK    1  A    between atoms: C9_9  and  C10_10 
ROOT
HETATM    1  C1  UNL     1     -33.902  15.843  -4.753  1.00 20.00     0.015 C 
HETATM    2  C2  UNL     1     -36.073  15.151  -3.615  1.00 20.00     0.015 C 
HETATM    3  C5  UNL     1     -34.508  15.820  -6.151  1.00 20.00     0.074 C 
HETATM    4  C6  UNL     1     -36.853  15.073  -4.922  1.00 20.00     0.074 C 
HETATM    5  C9  UNL     1     -34.925  16.170  -3.655  1.00 20.00    -0.009 C 
HETATM    6  S11 UNL     1     -35.801  14.557  -6.307  1.00 20.00    -0.169 SA
ENDROOT
BRANCH   5   7
HETATM    7  C10 UNL     1     -34.231  16.234  -2.292  1.00 20.00    -0.009 C 
HETATM    8  C3  UNL     1     -32.990  17.139  -2.325  1.00 20.00     0.015 C 
HETATM    9  C7  UNL     1     -33.288  18.625  -2.485  1.00 20.00     0.074 C 
HETATM   10  S12 UNL     1     -34.315  19.262  -1.131  1.00 20.00    -0.169 SA
HETATM   11  C8  UNL     1     -35.687  18.081  -1.237  1.00 20.00     0.074 C 
HETATM   12  C4  UNL     1     -35.204  16.636  -1.173  1.00 20.00     0.015 C 
ENDBRANCH   5   7
TORSDOF 1
ENDMDL
MODEL 4
REMARK VINA RESULT:      -3.8      2.566      4.387
REMARK  1 active torsions:
REMARK  status: ('A' for Active; 'I' for Inactive)
REMARK    1  A    between atoms: C9_9  and  C10_10 
ROOT
HETATM    1  C1  UNL     1     -31.562  18.777  -0.424  1.00 20.00     0.015 C 
HETATM    2  C2  UNL     1     -33.748  18.556   0.865  1.00 20.00     0.015 C 
HETATM    3  C5  UNL     1     -30.697  18.454   0.787  1.00 20.00     0.074 C 
HETATM    4  C6  UNL     1     -33.057  18.215   2.180  1.00 20.00     0.074 C 
HETATM    5  C9  UNL     1     -32.948  18.118  -0.371  1.00 20.00    -0.009 C 
HETATM    6  S11 UNL     1     -31.447  19.040   2.331  1.00 20.00    -0.169 SA
ENDROOT
BRANCH   5   7
HETATM    7  C10 UNL     1     -33.733  18.438  -1.646  1.00 20.00    -0.009 C 
HETATM    8  C3  UNL     1     -33.002  17.947  -2.905  1.00 20.00     0.015 C 
HETATM    9  C7  UNL     1     -32.948  16.432  -3.061  1.00 20.00     0.074 C 
HETATM   10  S12 UNL     1     -34.605  15.698  -3.146  1.00 20.00    -0.169 SA
HETATM   11  C8  UNL     1     -35.302  16.394  -1.623  1.00 20.00     0.074 C 
HETATM   12  C4  UNL     1     -35.174  17.912  -1.578  1.00 20.00     0.015 C 
ENDBRANCH   5   7
TORSDOF 1
ENDMDL
MODEL 5
REMARK VINA RESULT:      -3.8      1.816      5.211
REMARK  1 active torsions:
REMARK  status: ('A' for Active; 'I' for Inactive)
REMARK    1  A    between atoms: C9_9  and  C10_10 
ROOT
HETATM    1  C1  UNL     1     -35.237  16.797  -2.227  1.00 20.00     0.015 C 
HETATM    2  C2  UNL     1     -32.922  16.914  -3.284  1.00 20.00     0.015 C 
HETATM    3  C5  UNL     1     -35.477  15.359  -2.668  1.00 20.00     0.074 C 
HETATM    4  C6  UNL     1     -32.978  15.485  -3.809  1.00 20.00     0.074 C 
HETATM    5  C9  UNL     1     -33.752  17.124  -2.008  1.00 20.00    -0.009 C 
HETATM    6  S11 UNL     1     -34.668  14.992  -4.249  1.00 20.00    -0.169 SA
ENDROOT
BRANCH   5   7
HETATM    7  C10 UNL     1     -33.597  18.562  -1.510  1.00 20.00    -0.009 C 
HETATM    8  C3  UNL     1     -34.338  18.790  -0.183  1.00 20.00     0.015 C 
HETATM    9  C7  UNL     1     -33.728  18.080   1.018  1.00 20.00     0.074 C 
HETATM   10  S12 UNL     1     -32.018  18.605   1.323  1.00 20.00    -0.169 SA
HETATM   11  C8  UNL     1     -31.326  18.286  -0.323  1.00 20.00     0.074 C 
HETATM   12  C4  UNL     1     -32.122  18.981  -1.422  1.00 20.00     0.015 C 
ENDBRANCH   5   7
TORSDOF 1
ENDMDL
MODEL 6
REMARK VINA RESULT:      -3.6      1.203      4.912
REMARK  1 active torsions:
REMARK  status: ('A' for Active; 'I' for Inactive)
REMARK    1  A    between atoms: C9_9  and  C10_10 
ROOT
HETATM    1  C1  UNL     1     -34.424  16.274  -5.714  1.00 20.00     0.015 C 
HETATM    2  C2  UNL     1     -36.618  15.988  -4.452  1.00 20.00     0.015 C 
HETATM    3  C5  UNL     1     -35.084  16.941  -6.915  1.00 20.00     0.074 C 
HETATM    4  C6  UNL     1     -37.453  16.633  -5.551  1.00 20.00     0.074 C 
HETATM    5  C9  UNL     1     -35.176  16.516  -4.397  1.00 20.00    -0.009 C 
HETATM    6  S11 UNL     1     -36.762  16.315  -7.199  1.00 20.00    -0.169 SA
ENDROOT
BRANCH   5   7
HETATM    7  C10 UNL     1     -34.422  15.868  -3.234  1.00 20.00    -0.009 C 
HETATM    8  C3  UNL     1     -32.970  16.364  -3.147  1.00 20.00     0.015 C 
HETATM    9  C7  UNL     1     -32.818  17.818  -2.718  1.00 20.00     0.074 C 
HETATM   10  S12 UNL     1     -33.532  18.123  -1.078  1.00 20.00    -0.169 SA
HETATM   11  C8  UNL     1     -35.199  17.469  -1.369  1.00 20.00     0.074 C 
HETATM   12  C4  UNL     1     -35.167  16.041  -1.902  1.00 20.00     0.015 C 
ENDBRANCH   5   7
TORSDOF 1
ENDMDL
MODEL 7
REMARK VINA RESULT:      -3.5      1.852      3.329
REMARK  1 active torsions:
REMARK  status: ('A' for Active; 'I' for Inactive)
REMARK    1  A    between atoms: C9_9  and  C10_10 
ROOT
HETATM    1  C1  UNL     1     -33.408  18.370  -0.742  1.00 20.00     0.015 C 
HETATM    2  C2  UNL     1     -35.804  17.533  -0.523  1.00 20.00     0.015 C 
HETATM    3  C5  UNL     1     -33.116  18.235   0.747  1.00 20.00     0.074 C 
HETATM    4  C6  UNL     1     -35.703  17.331   0.985  1.00 20.00     0.074 C 
HETATM    5  C9  UNL     1     -34.459  17.370  -1.247  1.00 20.00    -0.009 C 
HETATM    6  S11 UNL     1     -34.592  18.540   1.756  1.00 20.00    -0.169 SA
ENDROOT
BRANCH   5   7
HETATM    7  C10 UNL     1     -34.652  17.527  -2.757  1.00 20.00    -0.009 C 
HETATM    8  C3  UNL     1     -33.362  17.221  -3.533  1.00 20.00     0.015 C 
HETATM    9  C7  UNL     1     -32.943  15.757  -3.521  1.00 20.00     0.074 C 
HETATM   10  S12 UNL     1     -34.210  14.680  -4.247  1.00 20.00    -0.169 SA
HETATM   11  C8  UNL     1     -35.628  15.190  -3.236  1.00 20.00     0.074 C 
HETATM   12  C4  UNL     1     -35.840  16.699  -3.270  1.00 20.00     0.015 C 
ENDBRANCH   5   7
TORSDOF 1
ENDMDL
MODEL 8
REMARK VINA RESULT:      -3.5      1.262      1.621
REMARK  1 active torsions:
REMARK  status: ('A' for Active; 'I' for Inactive)
REMARK    1  A    between atoms: C9_9  and  C10_10 
ROOT
HETATM    1  C1  UNL     1     -34.773  16.353  -1.589  1.00 20.00     0.015 C 
HETATM    2  C2  UNL     1     -34.456  18.282  -3.222  1.00 20.00     0.015 C 
HETATM    3  C5  UNL     1     -35.606  17.179  -0.617  1.00 20.00     0.074 C 
HETATM    4  C6  UNL     1     -35.265  19.261  -2.381  1.00 20.00     0.074 C 
HETATM    5  C9  UNL     1     -34.900  16.822  -3.046  1.00 20.00    -0.009 C 
HETATM    6  S11 UNL     1     -35.104  18.921  -0.606  1.00 20.00    -0.169 SA
ENDROOT
BRANCH   5   7
HETATM    7  C10 UNL     1     -34.084  15.910  -3.966  1.00 20.00    -0.009 C 
HETATM    8  C3  UNL     1     -34.458  14.431  -3.781  1.00 20.00     0.015 C 
HETATM    9  C7  UNL     1     -35.847  14.056  -4.283  1.00 20.00     0.074 C 
HETATM   10  S12 UNL     1     -36.040  14.385  -6.057  1.00 20.00    -0.169 SA
HETATM   11  C8  UNL     1     -35.547  16.131  -6.076  1.00 20.00     0.074 C 
HETATM   12  C4  UNL     1     -34.180  16.345  -5.435  1.00 20.00     0.015 C 
ENDBRANCH   5   7
TORSDOF 1
ENDMDL
MODEL 9
REMARK VINA RESULT:      -3.4      1.243      2.455
REMARK  1 active torsions:
REMARK  status: ('A' for Active; 'I' for Inactive)
REMARK    1  A    between atoms: C9_9  and  C10_10 
ROOT
HETATM    1  C1  UNL     1     -32.947  17.672  -2.262  1.00 20.00     0.015 C 
HETATM    2  C2  UNL     1     -35.336  16.847  -1.943  1.00 20.00     0.015 C 
HETATM    3  C5  UNL     1     -32.745  17.973  -0.782  1.00 20.00     0.074 C 
HETATM    4  C6  UNL     1     -35.324  17.083  -0.437  1.00 20.00     0.074 C 
HETATM    5  C9  UNL     1     -33.946  16.534  -2.518  1.00 20.00    -0.009 C 
HETATM    6  S11 UNL     1     -34.285  18.499   0.018  1.00 20.00    -0.169 SA
ENDROOT
BRANCH   5   7
HETATM    7  C10 UNL     1     -34.049  16.251  -4.018  1.00 20.00    -0.009 C 
HETATM    8  C3  UNL     1     -33.606  14.820  -4.362  1.00 20.00     0.015 C 
HETATM    9  C7  UNL     1     -34.546  13.727  -3.872  1.00 20.00     0.074 C 
HETATM   10  S12 UNL     1     -36.212  13.898  -4.571  1.00 20.00    -0.169 SA
HETATM   11  C8  UNL     1     -36.546  15.615  -4.090  1.00 20.00     0.074 C 
HETATM   12  C4  UNL     1     -35.450  16.564  -4.564  1.00 20.00     0.015 C 
ENDBRANCH   5   7
TORSDOF 1
ENDMDL
