MODEL 1
REMARK VINA RESULT:      -4.2      0.000      0.000
REMARK  0 active torsions:
REMARK  status: ('A' for Active; 'I' for Inactive)
ROOT
HETATM    1  C1  UNL     1     -21.739  17.478   9.516  1.00 20.00     0.038 A 
HETATM    2  C2  UNL     1     -23.946  18.434   9.579  1.00 20.00     0.058 A 
HETATM    3  C3  UNL     1     -21.796  17.574   8.135  1.00 20.00     0.119 A 
HETATM    4  C4  UNL     1     -22.839  17.919  10.244  1.00 20.00     0.015 A 
HETATM    5  C5  UNL     1     -23.904  18.487   8.196  1.00 20.00     0.104 A 
HETATM    6  N6  UNL     1     -22.854  18.069   7.454  1.00 20.00    -0.254 NA
HETATM    7 BR7  UNL     1     -22.827  17.819  12.131  1.00 20.00    -0.051 Br
HETATM    8 BR8  UNL     1     -25.404  19.188   7.266  1.00 20.00    -0.029 Br
ENDROOT
TORSDOF 0
ENDMDL
MODEL 2
REMARK VINA RESULT:      -3.9      0.935      1.051
REMARK  0 active torsions:
REMARK  status: ('A' for Active; 'I' for Inactive)
ROOT
HETATM    1  C1  UNL     1     -22.767  17.639   9.884  1.00 20.00     0.038 A 
HETATM    2  C2  UNL     1     -24.834  18.619   9.138  1.00 20.00     0.058 A 
HETATM    3  C3  UNL     1     -22.343  17.662   8.566  1.00 20.00     0.119 A 
HETATM    4  C4  UNL     1     -24.038  18.129  10.168  1.00 20.00     0.015 A 
HETATM    5  C5  UNL     1     -24.317  18.598   7.853  1.00 20.00     0.104 A 
HETATM    6  N6  UNL     1     -23.088  18.131   7.539  1.00 20.00    -0.254 NA
HETATM    7 BR7  UNL     1     -24.678  18.128  11.945  1.00 20.00    -0.051 Br
HETATM    8 BR8  UNL     1     -25.386  19.263   6.431  1.00 20.00    -0.029 Br
ENDROOT
TORSDOF 0
ENDMDL
MODEL 3
REMARK VINA RESULT:      -3.8     17.614     18.756
REMARK  0 active torsions:
REMARK  status: ('A' for Active; 'I' for Inactive)
ROOT
HETATM    1  C1  UNL     1     -34.834  14.049  -3.931  1.00 20.00     0.038 A 
HETATM    2  C2  UNL     1     -36.483  15.752  -3.519  1.00 20.00     0.058 A 
HETATM    3  C3  UNL     1     -35.843  13.283  -4.490  1.00 20.00     0.119 A 
HETATM    4  C4  UNL     1     -35.167  15.306  -3.439  1.00 20.00     0.015 A 
HETATM    5  C5  UNL     1     -37.418  14.909  -4.096  1.00 20.00     0.104 A 
HETATM    6  N6  UNL     1     -37.132  13.682  -4.585  1.00 20.00    -0.254 NA
HETATM    7 BR7  UNL     1     -33.838  16.404  -2.665  1.00 20.00    -0.051 Br
HETATM    8 BR8  UNL     1     -39.220  15.497  -4.217  1.00 20.00    -0.029 Br
ENDROOT
TORSDOF 0
ENDMDL
MODEL 4
REMARK VINA RESULT:      -3.7      2.785      3.423
REMARK  0 active torsions:
REMARK  status: ('A' for Active; 'I' for Inactive)
ROOT
HETATM    1  C1  UNL     1     -24.646  17.950  12.332  1.00 20.00     0.038 A 
HETATM    2  C2  UNL     1     -24.561  18.334   9.958  1.00 20.00     0.058 A 
HETATM    3  C3  UNL     1     -23.395  17.364  12.227  1.00 20.00     0.119 A 
HETATM    4  C4  UNL     1     -25.233  18.442  11.171  1.00 20.00     0.015 A 
HETATM    5  C5  UNL     1     -23.314  17.731   9.960  1.00 20.00     0.104 A 
HETATM    6  N6  UNL     1     -22.711  17.242  11.067  1.00 20.00    -0.254 NA
HETATM    7 BR7  UNL     1     -26.937  19.254  11.243  1.00 20.00    -0.051 Br
HETATM    8 BR8  UNL     1     -22.377  17.574   8.316  1.00 20.00    -0.029 Br
ENDROOT
TORSDOF 0
ENDMDL
MODEL 5
REMARK VINA RESULT:      -3.7     14.466     15.837
REMARK  0 active torsions:
REMARK  status: ('A' for Active; 'I' for Inactive)
ROOT
HETATM    1  C1  UNL     1     -35.072  15.869  -2.273  1.00 20.00     0.038 A 
HETATM    2  C2  UNL     1     -32.896  16.855  -2.556  1.00 20.00     0.058 A 
HETATM    3  C3  UNL     1     -35.273  16.747  -1.220  1.00 20.00     0.119 A 
HETATM    4  C4  UNL     1     -33.859  15.931  -2.949  1.00 20.00     0.015 A 
HETATM    5  C5  UNL     1     -33.194  17.688  -1.491  1.00 20.00     0.104 A 
HETATM    6  N6  UNL     1     -34.362  17.658  -0.810  1.00 20.00    -0.254 NA
HETATM    7 BR7  UNL     1     -33.520  14.764  -4.396  1.00 20.00    -0.051 Br
HETATM    8 BR8  UNL     1     -31.895  18.958  -0.938  1.00 20.00    -0.029 Br
ENDROOT
TORSDOF 0
ENDMDL
MODEL 6
REMARK VINA RESULT:      -3.7     15.049     16.054
REMARK  0 active torsions:
REMARK  status: ('A' for Active; 'I' for Inactive)
ROOT
HETATM    1  C1  UNL     1     -33.080  16.338  -3.114  1.00 20.00     0.038 A 
HETATM    2  C2  UNL     1     -35.131  16.069  -1.885  1.00 20.00     0.058 A 
HETATM    3  C3  UNL     1     -32.768  17.383  -2.260  1.00 20.00     0.119 A 
HETATM    4  C4  UNL     1     -34.285  15.673  -2.916  1.00 20.00     0.015 A 
HETATM    5  C5  UNL     1     -34.727  17.126  -1.086  1.00 20.00     0.104 A 
HETATM    6  N6  UNL     1     -33.564  17.796  -1.247  1.00 20.00    -0.254 NA
HETATM    7 BR7  UNL     1     -34.772  14.238  -4.044  1.00 20.00    -0.051 Br
HETATM    8 BR8  UNL     1     -35.865  17.683   0.329  1.00 20.00    -0.029 Br
ENDROOT
TORSDOF 0
ENDMDL
MODEL 7
REMARK VINA RESULT:      -3.7      1.367      3.329
REMARK  0 active torsions:
REMARK  status: ('A' for Active; 'I' for Inactive)
ROOT
HETATM    1  C1  UNL     1     -22.786  17.950   8.022  1.00 20.00     0.038 A 
HETATM    2  C2  UNL     1     -24.561  18.503   9.550  1.00 20.00     0.058 A 
HETATM    3  C3  UNL     1     -22.092  17.430   9.102  1.00 20.00     0.119 A 
HETATM    4  C4  UNL     1     -24.044  18.494   8.258  1.00 20.00     0.015 A 
HETATM    5  C5  UNL     1     -23.787  17.958  10.561  1.00 20.00     0.104 A 
HETATM    6  N6  UNL     1     -22.562  17.420  10.370  1.00 20.00    -0.254 NA
HETATM    7 BR7  UNL     1     -25.045  19.220   6.830  1.00 20.00    -0.051 Br
HETATM    8 BR8  UNL     1     -24.473  17.958  12.332  1.00 20.00    -0.029 Br
ENDROOT
TORSDOF 0
ENDMDL
MODEL 8
REMARK VINA RESULT:      -3.6     15.699     16.833
REMARK  0 active torsions:
REMARK  status: ('A' for Active; 'I' for Inactive)
ROOT
HETATM    1  C1  UNL     1     -33.197  16.566  -2.592  1.00 20.00     0.038 A 
HETATM    2  C2  UNL     1     -35.417  15.641  -2.652  1.00 20.00     0.058 A 
HETATM    3  C3  UNL     1     -32.909  15.807  -3.715  1.00 20.00     0.119 A 
HETATM    4  C4  UNL     1     -34.477  16.476  -2.057  1.00 20.00     0.015 A 
HETATM    5  C5  UNL     1     -35.029  14.924  -3.772  1.00 20.00     0.104 A 
HETATM    6  N6  UNL     1     -33.796  14.986  -4.321  1.00 20.00    -0.254 NA
HETATM    7 BR7  UNL     1     -34.938  17.484  -0.527  1.00 20.00    -0.051 Br
HETATM    8 BR8  UNL     1     -36.296  13.778  -4.603  1.00 20.00    -0.029 Br
ENDROOT
TORSDOF 0
ENDMDL
MODEL 9
REMARK VINA RESULT:      -3.6     14.951     15.808
REMARK  0 active torsions:
REMARK  status: ('A' for Active; 'I' for Inactive)
ROOT
HETATM    1  C1  UNL     1     -33.499  17.857  -1.197  1.00 20.00     0.038 A 
HETATM    2  C2  UNL     1     -35.046  16.118  -1.807  1.00 20.00     0.058 A 
HETATM    3  C3  UNL     1     -32.721  17.470  -2.276  1.00 20.00     0.119 A 
HETATM    4  C4  UNL     1     -34.682  17.164  -0.965  1.00 20.00     0.015 A 
HETATM    5  C5  UNL     1     -34.198  15.808  -2.858  1.00 20.00     0.104 A 
HETATM    6  N6  UNL     1     -33.042  16.459  -3.115  1.00 20.00    -0.254 NA
HETATM    7 BR7  UNL     1     -35.791  17.643   0.488  1.00 20.00    -0.051 Br
HETATM    8 BR8  UNL     1     -34.675  14.384  -4.021  1.00 20.00    -0.029 Br
ENDROOT
TORSDOF 0
ENDMDL
