MODEL 1
REMARK VINA RESULT:      -3.4      0.000      0.000
REMARK  0 active torsions:
REMARK  status: ('A' for Active; 'I' for Inactive)
ROOT
HETATM    1  C1  UNL     1     -24.205  16.381  11.658  1.00 20.00     0.197 C 
HETATM    2  C2  UNL     1     -22.996  17.201  12.020  1.00 20.00     0.197 C 
HETATM    3  C3  UNL     1     -23.462  17.481   9.818  1.00 20.00     0.156 C 
HETATM    4  C4  UNL     1     -24.481  18.397   9.153  1.00 20.00     0.078 C 
HETATM    5  C5  UNL     1     -22.335  17.118   8.861  1.00 20.00     0.078 C 
HETATM    6  O6  UNL     1     -24.114  16.271  10.238  1.00 20.00    -0.354 OA
HETATM    7  O7  UNL     1     -22.916  18.157  10.963  1.00 20.00    -0.354 OA
ENDROOT
TORSDOF 0
ENDMDL
MODEL 2
REMARK VINA RESULT:      -3.4      0.032      2.008
REMARK  0 active torsions:
REMARK  status: ('A' for Active; 'I' for Inactive)
ROOT
HETATM    1  C1  UNL     1     -22.998  17.196  12.049  1.00 20.00     0.197 C 
HETATM    2  C2  UNL     1     -24.216  16.390  11.688  1.00 20.00     0.197 C 
HETATM    3  C3  UNL     1     -23.461  17.476   9.847  1.00 20.00     0.156 C 
HETATM    4  C4  UNL     1     -22.336  17.098   8.892  1.00 20.00     0.078 C 
HETATM    5  C5  UNL     1     -24.467  18.404   9.178  1.00 20.00     0.078 C 
HETATM    6  O6  UNL     1     -22.908  18.148  10.990  1.00 20.00    -0.354 OA
HETATM    7  O7  UNL     1     -24.128  16.276  10.268  1.00 20.00    -0.354 OA
ENDROOT
TORSDOF 0
ENDMDL
MODEL 3
REMARK VINA RESULT:      -3.4      1.221      2.596
REMARK  0 active torsions:
REMARK  status: ('A' for Active; 'I' for Inactive)
ROOT
HETATM    1  C1  UNL     1     -22.928  17.047   9.443  1.00 20.00     0.197 C 
HETATM    2  C2  UNL     1     -22.192  17.778  10.532  1.00 20.00     0.197 C 
HETATM    3  C3  UNL     1     -24.216  17.113  11.309  1.00 20.00     0.156 C 
HETATM    4  C4  UNL     1     -24.648  15.756  11.849  1.00 20.00     0.078 C 
HETATM    5  C5  UNL     1     -25.114  18.228  11.828  1.00 20.00     0.078 C 
HETATM    6  O6  UNL     1     -24.288  17.098   9.874  1.00 20.00    -0.354 OA
HETATM    7  O7  UNL     1     -22.862  17.362  11.722  1.00 20.00    -0.354 OA
ENDROOT
TORSDOF 0
ENDMDL
MODEL 4
REMARK VINA RESULT:      -3.4      1.025      2.698
REMARK  0 active torsions:
REMARK  status: ('A' for Active; 'I' for Inactive)
ROOT
HETATM    1  C1  UNL     1     -24.541  18.446   9.438  1.00 20.00     0.197 C 
HETATM    2  C2  UNL     1     -23.185  17.940   9.028  1.00 20.00     0.197 C 
HETATM    3  C3  UNL     1     -23.691  17.146  11.091  1.00 20.00     0.156 C 
HETATM    4  C4  UNL     1     -24.549  15.950  11.485  1.00 20.00     0.078 C 
HETATM    5  C5  UNL     1     -22.697  17.499  12.188  1.00 20.00     0.078 C 
HETATM    6  O6  UNL     1     -24.538  18.282  10.856  1.00 20.00    -0.354 OA
HETATM    7  O7  UNL     1     -22.976  16.820   9.887  1.00 20.00    -0.354 OA
ENDROOT
TORSDOF 0
ENDMDL
MODEL 5
REMARK VINA RESULT:      -3.4      1.067      2.782
REMARK  0 active torsions:
REMARK  status: ('A' for Active; 'I' for Inactive)
ROOT
HETATM    1  C1  UNL     1     -23.140  18.130   9.155  1.00 20.00     0.197 C 
HETATM    2  C2  UNL     1     -24.560  18.491   9.500  1.00 20.00     0.197 C 
HETATM    3  C3  UNL     1     -23.669  17.255  11.180  1.00 20.00     0.156 C 
HETATM    4  C4  UNL     1     -22.771  17.690  12.331  1.00 20.00     0.078 C 
HETATM    5  C5  UNL     1     -24.419  15.974  11.517  1.00 20.00     0.078 C 
HETATM    6  O6  UNL     1     -22.865  17.023  10.012  1.00 20.00    -0.354 OA
HETATM    7  O7  UNL     1     -24.614  18.305  10.914  1.00 20.00    -0.354 OA
ENDROOT
TORSDOF 0
ENDMDL
MODEL 6
REMARK VINA RESULT:      -3.2     22.759     23.633
REMARK  0 active torsions:
REMARK  status: ('A' for Active; 'I' for Inactive)
ROOT
HETATM    1  C1  UNL     1     -41.146   5.908  -0.975  1.00 20.00     0.197 C 
HETATM    2  C2  UNL     1     -41.553   5.908   0.473  1.00 20.00     0.197 C 
HETATM    3  C3  UNL     1     -42.142   7.883  -0.474  1.00 20.00     0.156 C 
HETATM    4  C4  UNL     1     -43.363   8.227  -1.316  1.00 20.00     0.078 C 
HETATM    5  C5  UNL     1     -41.557   9.124   0.187  1.00 20.00     0.078 C 
HETATM    6  O6  UNL     1     -41.136   7.294  -1.314  1.00 20.00    -0.354 OA
HETATM    7  O7  UNL     1     -42.534   6.943   0.540  1.00 20.00    -0.354 OA
ENDROOT
TORSDOF 0
ENDMDL
MODEL 7
REMARK VINA RESULT:      -3.2     22.759     23.641
REMARK  0 active torsions:
REMARK  status: ('A' for Active; 'I' for Inactive)
ROOT
HETATM    1  C1  UNL     1     -41.550   5.909   0.474  1.00 20.00     0.197 C 
HETATM    2  C2  UNL     1     -41.144   5.907  -0.974  1.00 20.00     0.197 C 
HETATM    3  C3  UNL     1     -42.141   7.881  -0.476  1.00 20.00     0.156 C 
HETATM    4  C4  UNL     1     -41.556   9.123   0.186  1.00 20.00     0.078 C 
HETATM    5  C5  UNL     1     -43.364   8.226  -1.316  1.00 20.00     0.078 C 
HETATM    6  O6  UNL     1     -42.532   6.942   0.539  1.00 20.00    -0.354 OA
HETATM    7  O7  UNL     1     -41.136   7.292  -1.317  1.00 20.00    -0.354 OA
ENDROOT
TORSDOF 0
ENDMDL
MODEL 8
REMARK VINA RESULT:      -3.2     22.913     23.803
REMARK  0 active torsions:
REMARK  status: ('A' for Active; 'I' for Inactive)
ROOT
HETATM    1  C1  UNL     1     -41.915   8.501   0.400  1.00 20.00     0.197 C 
HETATM    2  C2  UNL     1     -42.605   8.254  -0.914  1.00 20.00     0.197 C 
HETATM    3  C3  UNL     1     -41.881   6.281  -0.063  1.00 20.00     0.156 C 
HETATM    4  C4  UNL     1     -42.522   5.387   0.991  1.00 20.00     0.078 C 
HETATM    5  C5  UNL     1     -40.936   5.491  -0.958  1.00 20.00     0.078 C 
HETATM    6  O6  UNL     1     -41.134   7.321   0.588  1.00 20.00    -0.354 OA
HETATM    7  O7  UNL     1     -42.921   6.863  -0.865  1.00 20.00    -0.354 OA
ENDROOT
TORSDOF 0
ENDMDL
MODEL 9
REMARK VINA RESULT:      -3.2      1.770      2.727
REMARK  0 active torsions:
REMARK  status: ('A' for Active; 'I' for Inactive)
ROOT
HETATM    1  C1  UNL     1     -25.860  18.412  12.193  1.00 20.00     0.197 C 
HETATM    2  C2  UNL     1     -26.137  16.938  12.312  1.00 20.00     0.197 C 
HETATM    3  C3  UNL     1     -24.060  17.246  11.456  1.00 20.00     0.156 C 
HETATM    4  C4  UNL     1     -22.751  17.547  12.175  1.00 20.00     0.078 C 
HETATM    5  C5  UNL     1     -23.810  16.601  10.099  1.00 20.00     0.078 C 
HETATM    6  O6  UNL     1     -24.784  18.470  11.256  1.00 20.00    -0.354 OA
HETATM    7  O7  UNL     1     -24.836  16.353  12.272  1.00 20.00    -0.354 OA
ENDROOT
TORSDOF 0
ENDMDL
