MODEL 1
REMARK VINA RESULT:      -4.4      0.000      0.000
REMARK  0 active torsions:
REMARK  status: ('A' for Active; 'I' for Inactive)
ROOT
HETATM    1  C1  UNL     1     -35.062  15.892  -2.287  1.00 20.00     0.006 C 
HETATM    2  C2  UNL     1     -33.656  16.481  -2.414  1.00 20.00     0.006 C 
HETATM    3  C3  UNL     1     -35.219  14.911  -3.445  1.00 20.00     0.068 C 
HETATM    4  C4  UNL     1     -33.036  15.836  -3.652  1.00 20.00     0.068 C 
HETATM    5  C5  UNL     1     -34.997  16.077  -6.515  1.00 20.00     0.197 C 
HETATM    6  C6  UNL     1     -33.937  15.024  -6.695  1.00 20.00     0.197 C 
HETATM    7  C7  UNL     1     -34.234  15.413  -4.493  1.00 20.00     0.164 C 
HETATM    8  O8  UNL     1     -34.770  16.548  -5.188  1.00 20.00    -0.353 OA
HETATM    9  O9  UNL     1     -33.892  14.383  -5.420  1.00 20.00    -0.353 OA
ENDROOT
TORSDOF 0
ENDMDL
MODEL 2
REMARK VINA RESULT:      -4.1      1.011      1.020
REMARK  0 active torsions:
REMARK  status: ('A' for Active; 'I' for Inactive)
ROOT
HETATM    1  C1  UNL     1     -34.494  16.192  -2.260  1.00 20.00     0.006 C 
HETATM    2  C2  UNL     1     -33.164  16.207  -3.015  1.00 20.00     0.006 C 
HETATM    3  C3  UNL     1     -35.405  15.236  -3.024  1.00 20.00     0.068 C 
HETATM    4  C4  UNL     1     -33.341  15.269  -4.207  1.00 20.00     0.068 C 
HETATM    5  C5  UNL     1     -36.143  15.952  -6.151  1.00 20.00     0.197 C 
HETATM    6  C6  UNL     1     -35.625  14.571  -6.449  1.00 20.00     0.197 C 
HETATM    7  C7  UNL     1     -34.846  15.242  -4.441  1.00 20.00     0.164 C 
HETATM    8  O8  UNL     1     -35.254  16.426  -5.141  1.00 20.00    -0.353 OA
HETATM    9  O9  UNL     1     -35.248  14.078  -5.163  1.00 20.00    -0.353 OA
ENDROOT
TORSDOF 0
ENDMDL
MODEL 3
REMARK VINA RESULT:      -4.0     16.957     18.508
REMARK  0 active torsions:
REMARK  status: ('A' for Active; 'I' for Inactive)
ROOT
HETATM    1  C1  UNL     1     -23.698  18.481   7.912  1.00 20.00     0.006 C 
HETATM    2  C2  UNL     1     -22.376  17.710   7.898  1.00 20.00     0.006 C 
HETATM    3  C3  UNL     1     -24.015  18.755   9.378  1.00 20.00     0.068 C 
HETATM    4  C4  UNL     1     -21.967  17.544   9.360  1.00 20.00     0.068 C 
HETATM    5  C5  UNL     1     -24.444  16.183  11.387  1.00 20.00     0.197 C 
HETATM    6  C6  UNL     1     -23.379  16.833  12.228  1.00 20.00     0.197 C 
HETATM    7  C7  UNL     1     -23.276  17.655  10.130  1.00 20.00     0.164 C 
HETATM    8  O8  UNL     1     -23.997  16.417  10.052  1.00 20.00    -0.353 OA
HETATM    9  O9  UNL     1     -23.058  18.015  11.494  1.00 20.00    -0.353 OA
ENDROOT
TORSDOF 0
ENDMDL
MODEL 4
REMARK VINA RESULT:      -3.8      1.926      3.325
REMARK  0 active torsions:
REMARK  status: ('A' for Active; 'I' for Inactive)
ROOT
HETATM    1  C1  UNL     1     -34.274  14.671  -4.054  1.00 20.00     0.006 C 
HETATM    2  C2  UNL     1     -35.367  15.166  -3.105  1.00 20.00     0.006 C 
HETATM    3  C3  UNL     1     -33.006  15.430  -3.675  1.00 20.00     0.068 C 
HETATM    4  C4  UNL     1     -34.708  16.210  -2.206  1.00 20.00     0.068 C 
HETATM    5  C5  UNL     1     -33.018  18.711  -3.934  1.00 20.00     0.197 C 
HETATM    6  C6  UNL     1     -32.591  18.693  -2.492  1.00 20.00     0.197 C 
HETATM    7  C7  UNL     1     -33.519  16.706  -3.019  1.00 20.00     0.164 C 
HETATM    8  O8  UNL     1     -33.960  17.643  -4.012  1.00 20.00    -0.353 OA
HETATM    9  O9  UNL     1     -32.521  17.300  -2.188  1.00 20.00    -0.353 OA
ENDROOT
TORSDOF 0
ENDMDL
MODEL 5
REMARK VINA RESULT:      -3.8     11.575     12.677
REMARK  0 active torsions:
REMARK  status: ('A' for Active; 'I' for Inactive)
ROOT
HETATM    1  C1  UNL     1     -41.564   8.005   0.828  1.00 20.00     0.006 C 
HETATM    2  C2  UNL     1     -41.588   8.646  -0.560  1.00 20.00     0.006 C 
HETATM    3  C3  UNL     1     -41.275   6.523   0.608  1.00 20.00     0.068 C 
HETATM    4  C4  UNL     1     -41.324   7.516  -1.554  1.00 20.00     0.068 C 
HETATM    5  C5  UNL     1     -43.417   4.765  -1.168  1.00 20.00     0.197 C 
HETATM    6  C6  UNL     1     -42.219   4.398  -2.001  1.00 20.00     0.197 C 
HETATM    7  C7  UNL     1     -41.757   6.258  -0.812  1.00 20.00     0.164 C 
HETATM    8  O8  UNL     1     -43.186   6.136  -0.847  1.00 20.00    -0.353 OA
HETATM    9  O9  UNL     1     -41.148   5.087  -1.357  1.00 20.00    -0.353 OA
ENDROOT
TORSDOF 0
ENDMDL
MODEL 6
REMARK VINA RESULT:      -3.8      2.161      3.333
REMARK  0 active torsions:
REMARK  status: ('A' for Active; 'I' for Inactive)
ROOT
HETATM    1  C1  UNL     1     -33.727  14.758  -4.584  1.00 20.00     0.006 C 
HETATM    2  C2  UNL     1     -34.149  14.965  -6.040  1.00 20.00     0.006 C 
HETATM    3  C3  UNL     1     -34.933  14.148  -3.876  1.00 20.00     0.068 C 
HETATM    4  C4  UNL     1     -35.594  14.483  -6.137  1.00 20.00     0.068 C 
HETATM    5  C5  UNL     1     -37.725  15.889  -3.775  1.00 20.00     0.197 C 
HETATM    6  C6  UNL     1     -38.353  14.664  -4.381  1.00 20.00     0.197 C 
HETATM    7  C7  UNL     1     -36.123  14.599  -4.713  1.00 20.00     0.164 C 
HETATM    8  O8  UNL     1     -36.457  15.964  -4.424  1.00 20.00    -0.353 OA
HETATM    9  O9  UNL     1     -37.257  13.758  -4.500  1.00 20.00    -0.353 OA
ENDROOT
TORSDOF 0
ENDMDL
MODEL 7
REMARK VINA RESULT:      -3.7      1.606      2.692
REMARK  0 active torsions:
REMARK  status: ('A' for Active; 'I' for Inactive)
ROOT
HETATM    1  C1  UNL     1     -33.202  16.598  -3.505  1.00 20.00     0.006 C 
HETATM    2  C2  UNL     1     -33.855  16.511  -2.124  1.00 20.00     0.006 C 
HETATM    3  C3  UNL     1     -34.324  16.404  -4.519  1.00 20.00     0.068 C 
HETATM    4  C4  UNL     1     -35.340  16.257  -2.373  1.00 20.00     0.068 C 
HETATM    5  C5  UNL     1     -35.990  13.566  -4.479  1.00 20.00     0.197 C 
HETATM    6  C6  UNL     1     -37.209  14.438  -4.354  1.00 20.00     0.197 C 
HETATM    7  C7  UNL     1     -35.384  15.620  -3.756  1.00 20.00     0.164 C 
HETATM    8  O8  UNL     1     -35.023  14.234  -3.670  1.00 20.00    -0.353 OA
HETATM    9  O9  UNL     1     -36.670  15.759  -4.362  1.00 20.00    -0.353 OA
ENDROOT
TORSDOF 0
ENDMDL
MODEL 8
REMARK VINA RESULT:      -3.7     12.045     13.300
REMARK  0 active torsions:
REMARK  status: ('A' for Active; 'I' for Inactive)
ROOT
HETATM    1  C1  UNL     1     -41.519   8.879   0.337  1.00 20.00     0.006 C 
HETATM    2  C2  UNL     1     -42.823   9.044  -0.446  1.00 20.00     0.006 C 
HETATM    3  C3  UNL     1     -41.227   7.382   0.365  1.00 20.00     0.068 C 
HETATM    4  C4  UNL     1     -43.261   7.635  -0.842  1.00 20.00     0.068 C 
HETATM    5  C5  UNL     1     -43.414   5.393   1.813  1.00 20.00     0.197 C 
HETATM    6  C6  UNL     1     -43.406   4.653   0.504  1.00 20.00     0.197 C 
HETATM    7  C7  UNL     1     -42.593   6.732   0.187  1.00 20.00     0.164 C 
HETATM    8  O8  UNL     1     -43.331   6.762   1.417  1.00 20.00    -0.353 OA
HETATM    9  O9  UNL     1     -42.473   5.391  -0.285  1.00 20.00    -0.353 OA
ENDROOT
TORSDOF 0
ENDMDL
MODEL 9
REMARK VINA RESULT:      -3.5      1.502      1.974
REMARK  0 active torsions:
REMARK  status: ('A' for Active; 'I' for Inactive)
ROOT
HETATM    1  C1  UNL     1     -33.225  16.377  -2.962  1.00 20.00     0.006 C 
HETATM    2  C2  UNL     1     -33.906  17.517  -3.720  1.00 20.00     0.006 C 
HETATM    3  C3  UNL     1     -33.337  15.145  -3.856  1.00 20.00     0.068 C 
HETATM    4  C4  UNL     1     -34.408  16.915  -5.031  1.00 20.00     0.068 C 
HETATM    5  C5  UNL     1     -36.342  14.052  -4.634  1.00 20.00     0.197 C 
HETATM    6  C6  UNL     1     -35.870  14.170  -6.057  1.00 20.00     0.197 C 
HETATM    7  C7  UNL     1     -34.552  15.429  -4.729  1.00 20.00     0.164 C 
HETATM    8  O8  UNL     1     -35.765  15.193  -4.000  1.00 20.00    -0.353 OA
HETATM    9  O9  UNL     1     -34.530  14.643  -5.920  1.00 20.00    -0.353 OA
ENDROOT
TORSDOF 0
ENDMDL
