MODEL 1
REMARK VINA RESULT:      -4.4      0.000      0.000
REMARK  0 active torsions:
REMARK  status: ('A' for Active; 'I' for Inactive)
ROOT
HETATM    1  C1  UNL     1     -23.036  17.764   8.270  1.00 20.00     0.000 C 
HETATM    2  C2  UNL     1     -23.881  18.941   8.238  1.00 20.00     0.017 C 
HETATM    3  C3  UNL     1     -22.827  17.100   9.422  1.00 20.00     0.010 C 
HETATM    4  C4  UNL     1     -24.630  19.237   9.313  1.00 20.00     0.092 C 
HETATM    5  C5  UNL     1     -25.463  17.225  12.195  1.00 20.00     0.072 C 
HETATM    6  C6  UNL     1     -25.594  18.319  11.421  1.00 20.00     0.015 C 
HETATM    7  C7  UNL     1     -23.418  17.594  10.713  1.00 20.00     0.178 C 
HETATM    8  C8  UNL     1     -26.748  19.262  11.515  1.00 20.00     0.069 C 
HETATM    9  N9  UNL     1     -24.577  18.488  10.477  1.00 20.00    -0.343 N 
HETATM   10  S10 UNL     1     -24.061  16.264  11.797  1.00 20.00    -0.110 SA
ENDROOT
TORSDOF 0
ENDMDL
MODEL 2
REMARK VINA RESULT:      -4.2     16.123     16.720
REMARK  0 active torsions:
REMARK  status: ('A' for Active; 'I' for Inactive)
ROOT
HETATM    1  C1  UNL     1     -34.783   5.196   6.162  1.00 20.00     0.000 C 
HETATM    2  C2  UNL     1     -34.224   6.520   6.346  1.00 20.00     0.017 C 
HETATM    3  C3  UNL     1     -34.924   4.675   4.929  1.00 20.00     0.010 C 
HETATM    4  C4  UNL     1     -33.645   7.135   5.303  1.00 20.00     0.092 C 
HETATM    5  C5  UNL     1     -32.603   5.813   2.106  1.00 20.00     0.072 C 
HETATM    6  C6  UNL     1     -32.663   6.783   3.038  1.00 20.00     0.015 C 
HETATM    7  C7  UNL     1     -34.559   5.475   3.710  1.00 20.00     0.178 C 
HETATM    8  C8  UNL     1     -31.760   7.974   3.048  1.00 20.00     0.069 C 
HETATM    9  N9  UNL     1     -33.617   6.571   4.038  1.00 20.00    -0.343 N 
HETATM   10  S10 UNL     1     -33.718   4.504   2.403  1.00 20.00    -0.110 SA
ENDROOT
TORSDOF 0
ENDMDL
MODEL 3
REMARK VINA RESULT:      -4.1     14.168     14.876
REMARK  0 active torsions:
REMARK  status: ('A' for Active; 'I' for Inactive)
ROOT
HETATM    1  C1  UNL     1     -33.817  15.898  -2.990  1.00 20.00     0.000 C 
HETATM    2  C2  UNL     1     -35.069  15.903  -2.259  1.00 20.00     0.017 C 
HETATM    3  C3  UNL     1     -32.891  16.849  -2.771  1.00 20.00     0.010 C 
HETATM    4  C4  UNL     1     -35.209  16.727  -1.209  1.00 20.00     0.092 C 
HETATM    5  C5  UNL     1     -32.724  18.595   0.633  1.00 20.00     0.072 C 
HETATM    6  C6  UNL     1     -33.971  18.123   0.447  1.00 20.00     0.015 C 
HETATM    7  C7  UNL     1     -33.153  17.972  -1.805  1.00 20.00     0.178 C 
HETATM    8  C8  UNL     1     -35.009  18.086   1.521  1.00 20.00     0.069 C 
HETATM    9  N9  UNL     1     -34.217  17.620  -0.835  1.00 20.00    -0.343 N 
HETATM   10  S10 UNL     1     -31.707  18.425  -0.776  1.00 20.00    -0.110 SA
ENDROOT
TORSDOF 0
ENDMDL
MODEL 4
REMARK VINA RESULT:      -4.1     17.369     18.179
REMARK  0 active torsions:
REMARK  status: ('A' for Active; 'I' for Inactive)
ROOT
HETATM    1  C1  UNL     1     -33.315  16.695  -2.588  1.00 20.00     0.000 C 
HETATM    2  C2  UNL     1     -34.567  16.451  -1.901  1.00 20.00     0.017 C 
HETATM    3  C3  UNL     1     -32.997  16.009  -3.702  1.00 20.00     0.010 C 
HETATM    4  C4  UNL     1     -35.505  15.700  -2.501  1.00 20.00     0.092 C 
HETATM    5  C5  UNL     1     -35.777  14.620  -5.937  1.00 20.00     0.072 C 
HETATM    6  C6  UNL     1     -36.257  14.768  -4.688  1.00 20.00     0.015 C 
HETATM    7  C7  UNL     1     -33.907  14.935  -4.229  1.00 20.00     0.178 C 
HETATM    8  C8  UNL     1     -37.704  14.642  -4.340  1.00 20.00     0.069 C 
HETATM    9  N9  UNL     1     -35.293  15.099  -3.731  1.00 20.00    -0.343 N 
HETATM   10  S10 UNL     1     -34.061  14.916  -6.055  1.00 20.00    -0.110 SA
ENDROOT
TORSDOF 0
ENDMDL
MODEL 5
REMARK VINA RESULT:      -4.1      1.839      2.550
REMARK  0 active torsions:
REMARK  status: ('A' for Active; 'I' for Inactive)
ROOT
HETATM    1  C1  UNL     1     -21.469  17.985   9.260  1.00 20.00     0.000 C 
HETATM    2  C2  UNL     1     -21.655  17.679  10.664  1.00 20.00     0.017 C 
HETATM    3  C3  UNL     1     -22.528  18.130   8.442  1.00 20.00     0.010 C 
HETATM    4  C4  UNL     1     -22.887  17.758  11.192  1.00 20.00     0.092 C 
HETATM    5  C5  UNL     1     -25.894  19.263   9.870  1.00 20.00     0.072 C 
HETATM    6  C6  UNL     1     -25.178  18.684  10.853  1.00 20.00     0.015 C 
HETATM    7  C7  UNL     1     -23.927  17.921   8.951  1.00 20.00     0.178 C 
HETATM    8  C8  UNL     1     -25.567  18.729  12.294  1.00 20.00     0.069 C 
HETATM    9  N9  UNL     1     -24.000  18.064  10.425  1.00 20.00    -0.343 N 
HETATM   10  S10 UNL     1     -25.146  19.124   8.299  1.00 20.00    -0.110 SA
ENDROOT
TORSDOF 0
ENDMDL
MODEL 6
REMARK VINA RESULT:      -4.1      1.208      3.276
REMARK  0 active torsions:
REMARK  status: ('A' for Active; 'I' for Inactive)
ROOT
HETATM    1  C1  UNL     1     -26.214  19.253  10.663  1.00 20.00     0.000 C 
HETATM    2  C2  UNL     1     -25.834  19.202   9.265  1.00 20.00     0.017 C 
HETATM    3  C3  UNL     1     -25.523  18.561  11.588  1.00 20.00     0.010 C 
HETATM    4  C4  UNL     1     -24.660  18.644   8.928  1.00 20.00     0.092 C 
HETATM    5  C5  UNL     1     -21.832  17.743  10.988  1.00 20.00     0.072 C 
HETATM    6  C6  UNL     1     -22.435  17.928   9.798  1.00 20.00     0.015 C 
HETATM    7  C7  UNL     1     -24.376  17.676  11.189  1.00 20.00     0.178 C 
HETATM    8  C8  UNL     1     -21.695  18.038   8.506  1.00 20.00     0.069 C 
HETATM    9  N9  UNL     1     -23.826  18.057   9.866  1.00 20.00    -0.343 N 
HETATM   10  S10 UNL     1     -22.945  17.746  12.332  1.00 20.00    -0.110 SA
ENDROOT
TORSDOF 0
ENDMDL
MODEL 7
REMARK VINA RESULT:      -4.0      1.404      1.932
REMARK  0 active torsions:
REMARK  status: ('A' for Active; 'I' for Inactive)
ROOT
HETATM    1  C1  UNL     1     -24.893  18.890   7.291  1.00 20.00     0.000 C 
HETATM    2  C2  UNL     1     -26.036  19.263   8.101  1.00 20.00     0.017 C 
HETATM    3  C3  UNL     1     -23.690  18.680   7.857  1.00 20.00     0.010 C 
HETATM    4  C4  UNL     1     -25.944  19.181   9.438  1.00 20.00     0.092 C 
HETATM    5  C5  UNL     1     -23.477  17.541  11.505  1.00 20.00     0.072 C 
HETATM    6  C6  UNL     1     -24.644  18.185  11.319  1.00 20.00     0.015 C 
HETATM    7  C7  UNL     1     -23.488  18.881   9.333  1.00 20.00     0.178 C 
HETATM    8  C8  UNL     1     -25.747  18.204  12.327  1.00 20.00     0.069 C 
HETATM    9  N9  UNL     1     -24.771  18.811  10.074  1.00 20.00    -0.343 N 
HETATM   10  S10 UNL     1     -22.419  17.618  10.120  1.00 20.00    -0.110 SA
ENDROOT
TORSDOF 0
ENDMDL
MODEL 8
REMARK VINA RESULT:      -3.9      1.531      2.478
REMARK  0 active torsions:
REMARK  status: ('A' for Active; 'I' for Inactive)
ROOT
HETATM    1  C1  UNL     1     -22.706  18.747   8.598  1.00 20.00     0.000 C 
HETATM    2  C2  UNL     1     -22.382  17.364   8.888  1.00 20.00     0.017 C 
HETATM    3  C3  UNL     1     -23.897  19.263   8.954  1.00 20.00     0.010 C 
HETATM    4  C4  UNL     1     -23.184  16.664   9.707  1.00 20.00     0.092 C 
HETATM    5  C5  UNL     1     -25.792  17.793  11.938  1.00 20.00     0.072 C 
HETATM    6  C6  UNL     1     -24.966  16.852  11.441  1.00 20.00     0.015 C 
HETATM    7  C7  UNL     1     -24.942  18.405   9.610  1.00 20.00     0.178 C 
HETATM    8  C8  UNL     1     -24.684  15.556  12.127  1.00 20.00     0.069 C 
HETATM    9  N9  UNL     1     -24.346  17.201  10.237  1.00 20.00    -0.343 N 
HETATM   10  S10 UNL     1     -25.853  19.239  10.963  1.00 20.00    -0.110 SA
ENDROOT
TORSDOF 0
ENDMDL
MODEL 9
REMARK VINA RESULT:      -3.9     13.566     14.507
REMARK  0 active torsions:
REMARK  status: ('A' for Active; 'I' for Inactive)
ROOT
HETATM    1  C1  UNL     1     -31.926  18.673   1.168  1.00 20.00     0.000 C 
HETATM    2  C2  UNL     1     -31.172  18.525  -0.061  1.00 20.00     0.017 C 
HETATM    3  C3  UNL     1     -33.269  18.594   1.164  1.00 20.00     0.010 C 
HETATM    4  C4  UNL     1     -31.801  18.089  -1.164  1.00 20.00     0.092 C 
HETATM    5  C5  UNL     1     -35.044  16.541  -1.537  1.00 20.00     0.072 C 
HETATM    6  C6  UNL     1     -33.841  16.925  -2.003  1.00 20.00     0.015 C 
HETATM    7  C7  UNL     1     -34.025  18.405  -0.122  1.00 20.00     0.178 C 
HETATM    8  C8  UNL     1     -33.239  16.400  -3.266  1.00 20.00     0.069 C 
HETATM    9  N9  UNL     1     -33.162  17.833  -1.184  1.00 20.00    -0.343 N 
HETATM   10  S10 UNL     1     -35.443  17.253   0.006  1.00 20.00    -0.110 SA
ENDROOT
TORSDOF 0
ENDMDL
