MODEL 1
REMARK VINA RESULT:      -5.0      0.000      0.000
REMARK  3 active torsions:
REMARK  status: ('A' for Active; 'I' for Inactive)
REMARK    1  A    between atoms: C2_2  and  C5_5 
REMARK    2  A    between atoms: C2_2  and  O10_10 
REMARK    3  A    between atoms: C7_7  and  O10_10 
ROOT
HETATM    1  C1  UNL     1     -32.704   8.488   1.068  1.00 20.00     0.065 C 
HETATM    2  C3  UNL     1     -31.971   7.289   3.169  1.00 20.00     0.036 A 
HETATM    3  C4  UNL     1     -32.433   7.251   1.738  1.00 20.00     0.107 A 
HETATM    4  C5  UNL     1     -33.360   6.810   2.847  1.00 20.00     0.104 A 
HETATM    5  N8  UNL     1     -32.923   9.489   0.524  1.00 20.00    -0.197 NA
ENDROOT
BRANCH   4   6
HETATM    6  C2  UNL     1     -33.679   5.384   2.988  1.00 20.00     0.264 C 
HETATM    7  O9  UNL     1     -33.000   4.481   2.518  1.00 20.00    -0.265 OA
BRANCH   6   8
HETATM    8  O10 UNL     1     -34.827   5.242   3.710  1.00 20.00    -0.322 OA
BRANCH   8   9
HETATM    9  C7  UNL     1     -34.665   4.695   5.022  1.00 20.00     0.174 C 
HETATM   10  C6  UNL     1     -34.585   5.829   6.023  1.00 20.00     0.034 C 
ENDBRANCH   8   9
ENDBRANCH   6   8
ENDBRANCH   4   6
TORSDOF 3
ENDMDL
MODEL 2
REMARK VINA RESULT:      -4.6     16.690     17.065
REMARK  3 active torsions:
REMARK  status: ('A' for Active; 'I' for Inactive)
REMARK    1  A    between atoms: C2_2  and  C5_5 
REMARK    2  A    between atoms: C2_2  and  O10_10 
REMARK    3  A    between atoms: C7_7  and  O10_10 
ROOT
HETATM    1  C1  UNL     1     -21.850  17.467   8.066  1.00 20.00     0.065 C 
HETATM    2  C3  UNL     1     -23.651  18.729   9.315  1.00 20.00     0.036 A 
HETATM    3  C4  UNL     1     -22.238  18.222   9.222  1.00 20.00     0.107 A 
HETATM    4  C5  UNL     1     -23.204  17.600  10.202  1.00 20.00     0.104 A 
HETATM    5  N8  UNL     1     -21.535  16.856   7.132  1.00 20.00    -0.197 NA
ENDROOT
BRANCH   4   6
HETATM    6  C2  UNL     1     -23.022  17.845  11.638  1.00 20.00     0.264 C 
HETATM    7  O9  UNL     1     -21.980  17.630  12.243  1.00 20.00    -0.265 OA
BRANCH   6   8
HETATM    8  O10 UNL     1     -24.178  18.336  12.168  1.00 20.00    -0.322 OA
BRANCH   8   9
HETATM    9  C7  UNL     1     -25.234  17.384  12.330  1.00 20.00     0.174 C 
HETATM   10  C6  UNL     1     -26.565  18.094  12.194  1.00 20.00     0.034 C 
ENDBRANCH   8   9
ENDBRANCH   6   8
ENDBRANCH   4   6
TORSDOF 3
ENDMDL
MODEL 3
REMARK VINA RESULT:      -4.5     10.810     11.915
REMARK  3 active torsions:
REMARK  status: ('A' for Active; 'I' for Inactive)
REMARK    1  A    between atoms: C2_2  and  C5_5 
REMARK    2  A    between atoms: C2_2  and  O10_10 
REMARK    3  A    between atoms: C7_7  and  O10_10 
ROOT
HETATM    1  C1  UNL     1     -35.182  16.387  -1.860  1.00 20.00     0.065 C 
HETATM    2  C3  UNL     1     -34.004  15.054  -3.656  1.00 20.00     0.036 A 
HETATM    3  C4  UNL     1     -35.169  15.891  -3.205  1.00 20.00     0.107 A 
HETATM    4  C5  UNL     1     -35.343  14.408  -3.430  1.00 20.00     0.104 A 
HETATM    5  N8  UNL     1     -35.194  16.790  -0.772  1.00 20.00    -0.197 NA
ENDROOT
BRANCH   4   6
HETATM    6  C2  UNL     1     -36.122  13.947  -4.586  1.00 20.00     0.264 C 
HETATM    7  O9  UNL     1     -37.312  13.664  -4.542  1.00 20.00    -0.265 OA
BRANCH   6   8
HETATM    8  O10 UNL     1     -35.317  13.887  -5.685  1.00 20.00    -0.322 OA
BRANCH   8   9
HETATM    9  C7  UNL     1     -35.690  14.746  -6.768  1.00 20.00     0.174 C 
HETATM   10  C6  UNL     1     -34.439  15.349  -7.372  1.00 20.00     0.034 C 
ENDBRANCH   8   9
ENDBRANCH   6   8
ENDBRANCH   4   6
TORSDOF 3
ENDMDL
MODEL 4
REMARK VINA RESULT:      -4.3     15.872     16.568
REMARK  3 active torsions:
REMARK  status: ('A' for Active; 'I' for Inactive)
REMARK    1  A    between atoms: C2_2  and  C5_5 
REMARK    2  A    between atoms: C2_2  and  O10_10 
REMARK    3  A    between atoms: C7_7  and  O10_10 
ROOT
HETATM    1  C1  UNL     1     -22.016  17.330   7.801  1.00 20.00     0.065 C 
HETATM    2  C3  UNL     1     -22.092  17.862  10.271  1.00 20.00     0.036 A 
HETATM    3  C4  UNL     1     -22.732  17.279   9.042  1.00 20.00     0.107 A 
HETATM    4  C5  UNL     1     -23.253  18.569   9.630  1.00 20.00     0.104 A 
HETATM    5  N8  UNL     1     -21.437  17.370   6.796  1.00 20.00    -0.197 NA
ENDROOT
BRANCH   4   6
HETATM    6  C2  UNL     1     -24.555  18.571  10.307  1.00 20.00     0.264 C 
HETATM    7  O9  UNL     1     -25.594  18.966   9.794  1.00 20.00    -0.265 OA
BRANCH   6   8
HETATM    8  O10 UNL     1     -24.415  18.075  11.569  1.00 20.00    -0.322 OA
BRANCH   8   9
HETATM    9  C7  UNL     1     -25.354  17.061  11.940  1.00 20.00     0.174 C 
HETATM   10  C6  UNL     1     -24.694  15.704  11.807  1.00 20.00     0.034 C 
ENDBRANCH   8   9
ENDBRANCH   6   8
ENDBRANCH   4   6
TORSDOF 3
ENDMDL
MODEL 5
REMARK VINA RESULT:      -4.3     11.038     11.873
REMARK  3 active torsions:
REMARK  status: ('A' for Active; 'I' for Inactive)
REMARK    1  A    between atoms: C2_2  and  C5_5 
REMARK    2  A    between atoms: C2_2  and  O10_10 
REMARK    3  A    between atoms: C7_7  and  O10_10 
ROOT
HETATM    1  C1  UNL     1     -34.539  16.726  -5.602  1.00 20.00     0.065 C 
HETATM    2  C3  UNL     1     -34.296  14.995  -3.776  1.00 20.00     0.036 A 
HETATM    3  C4  UNL     1     -34.623  15.353  -5.199  1.00 20.00     0.107 A 
HETATM    4  C5  UNL     1     -35.722  14.943  -4.248  1.00 20.00     0.104 A 
HETATM    5  N8  UNL     1     -34.471  17.837  -5.930  1.00 20.00    -0.197 NA
ENDROOT
BRANCH   4   6
HETATM    6  C2  UNL     1     -36.373  13.639  -4.427  1.00 20.00     0.264 C 
HETATM    7  O9  UNL     1     -35.769  12.577  -4.505  1.00 20.00    -0.265 OA
BRANCH   6   8
HETATM    8  O10 UNL     1     -37.724  13.808  -4.490  1.00 20.00    -0.322 OA
BRANCH   8   9
HETATM    9  C7  UNL     1     -38.177  15.165  -4.461  1.00 20.00     0.174 C 
HETATM   10  C6  UNL     1     -39.607  15.198  -3.962  1.00 20.00     0.034 C 
ENDBRANCH   8   9
ENDBRANCH   6   8
ENDBRANCH   4   6
TORSDOF 3
ENDMDL
MODEL 6
REMARK VINA RESULT:      -4.3     10.829     11.521
REMARK  3 active torsions:
REMARK  status: ('A' for Active; 'I' for Inactive)
REMARK    1  A    between atoms: C2_2  and  C5_5 
REMARK    2  A    between atoms: C2_2  and  O10_10 
REMARK    3  A    between atoms: C7_7  and  O10_10 
ROOT
HETATM    1  C1  UNL     1     -34.288  16.160  -2.717  1.00 20.00     0.065 C 
HETATM    2  C3  UNL     1     -33.904  14.082  -4.104  1.00 20.00     0.036 A 
HETATM    3  C4  UNL     1     -34.558  15.422  -3.915  1.00 20.00     0.107 A 
HETATM    4  C5  UNL     1     -35.378  14.157  -3.818  1.00 20.00     0.104 A 
HETATM    5  N8  UNL     1     -34.069  16.758  -1.747  1.00 20.00    -0.197 NA
ENDROOT
BRANCH   4   6
HETATM    6  C2  UNL     1     -36.334  13.840  -4.886  1.00 20.00     0.264 C 
HETATM    7  O9  UNL     1     -36.012  13.575  -6.037  1.00 20.00    -0.265 OA
BRANCH   6   8
HETATM    8  O10 UNL     1     -37.604  13.892  -4.392  1.00 20.00    -0.322 OA
BRANCH   8   9
HETATM    9  C7  UNL     1     -38.208  15.190  -4.384  1.00 20.00     0.174 C 
HETATM   10  C6  UNL     1     -39.714  15.033  -4.367  1.00 20.00     0.034 C 
ENDBRANCH   8   9
ENDBRANCH   6   8
ENDBRANCH   4   6
TORSDOF 3
ENDMDL
MODEL 7
REMARK VINA RESULT:      -4.3     11.037     12.177
REMARK  3 active torsions:
REMARK  status: ('A' for Active; 'I' for Inactive)
REMARK    1  A    between atoms: C2_2  and  C5_5 
REMARK    2  A    between atoms: C2_2  and  O10_10 
REMARK    3  A    between atoms: C7_7  and  O10_10 
ROOT
HETATM    1  C1  UNL     1     -32.950  17.600  -3.078  1.00 20.00     0.065 C 
HETATM    2  C3  UNL     1     -34.648  15.849  -2.413  1.00 20.00     0.036 A 
HETATM    3  C4  UNL     1     -33.316  16.216  -3.006  1.00 20.00     0.107 A 
HETATM    4  C5  UNL     1     -34.430  15.714  -3.895  1.00 20.00     0.104 A 
HETATM    5  N8  UNL     1     -32.653  18.720  -3.136  1.00 20.00    -0.197 NA
ENDROOT
BRANCH   4   6
HETATM    6  C2  UNL     1     -34.324  14.375  -4.486  1.00 20.00     0.264 C 
HETATM    7  O9  UNL     1     -34.701  13.350  -3.933  1.00 20.00    -0.265 OA
BRANCH   6   8
HETATM    8  O10 UNL     1     -33.751  14.464  -5.720  1.00 20.00    -0.322 OA
BRANCH   8   9
HETATM    9  C7  UNL     1     -34.337  15.427  -6.602  1.00 20.00     0.174 C 
HETATM   10  C6  UNL     1     -35.614  14.854  -7.179  1.00 20.00     0.034 C 
ENDBRANCH   8   9
ENDBRANCH   6   8
ENDBRANCH   4   6
TORSDOF 3
ENDMDL
MODEL 8
REMARK VINA RESULT:      -4.1     10.865     11.391
REMARK  3 active torsions:
REMARK  status: ('A' for Active; 'I' for Inactive)
REMARK    1  A    between atoms: C2_2  and  C5_5 
REMARK    2  A    between atoms: C2_2  and  O10_10 
REMARK    3  A    between atoms: C7_7  and  O10_10 
ROOT
HETATM    1  C1  UNL     1     -35.043  16.734  -1.512  1.00 20.00     0.065 C 
HETATM    2  C3  UNL     1     -33.235  16.590  -3.273  1.00 20.00     0.036 A 
HETATM    3  C4  UNL     1     -34.678  16.459  -2.871  1.00 20.00     0.107 A 
HETATM    4  C5  UNL     1     -33.858  15.225  -3.165  1.00 20.00     0.104 A 
HETATM    5  N8  UNL     1     -35.340  16.956  -0.412  1.00 20.00    -0.197 NA
ENDROOT
BRANCH   4   6
HETATM    6  C2  UNL     1     -34.130  14.461  -4.388  1.00 20.00     0.264 C 
HETATM    7  O9  UNL     1     -33.527  14.617  -5.442  1.00 20.00    -0.265 OA
BRANCH   6   8
HETATM    8  O10 UNL     1     -35.141  13.575  -4.158  1.00 20.00    -0.322 OA
BRANCH   8   9
HETATM    9  C7  UNL     1     -36.281  13.708  -5.012  1.00 20.00     0.174 C 
HETATM   10  C6  UNL     1     -37.376  14.438  -4.263  1.00 20.00     0.034 C 
ENDBRANCH   8   9
ENDBRANCH   6   8
ENDBRANCH   4   6
TORSDOF 3
ENDMDL
MODEL 9
REMARK VINA RESULT:      -4.1     11.288     11.831
REMARK  3 active torsions:
REMARK  status: ('A' for Active; 'I' for Inactive)
REMARK    1  A    between atoms: C2_2  and  C5_5 
REMARK    2  A    between atoms: C2_2  and  O10_10 
REMARK    3  A    between atoms: C7_7  and  O10_10 
ROOT
HETATM    1  C1  UNL     1     -37.086  14.108  -4.409  1.00 20.00     0.065 C 
HETATM    2  C3  UNL     1     -34.990  14.835  -5.621  1.00 20.00     0.036 A 
HETATM    3  C4  UNL     1     -35.654  14.148  -4.460  1.00 20.00     0.107 A 
HETATM    4  C5  UNL     1     -34.959  15.474  -4.261  1.00 20.00     0.104 A 
HETATM    5  N8  UNL     1     -38.245  14.075  -4.367  1.00 20.00    -0.197 NA
ENDROOT
BRANCH   4   6
HETATM    6  C2  UNL     1     -33.696  15.515  -3.514  1.00 20.00     0.264 C 
HETATM    7  O9  UNL     1     -32.623  15.133  -3.962  1.00 20.00    -0.265 OA
BRANCH   6   8
HETATM    8  O10 UNL     1     -33.915  16.033  -2.272  1.00 20.00    -0.322 OA
BRANCH   8   9
HETATM    9  C7  UNL     1     -33.867  17.461  -2.185  1.00 20.00     0.174 C 
HETATM   10  C6  UNL     1     -32.506  17.878  -1.667  1.00 20.00     0.034 C 
ENDBRANCH   8   9
ENDBRANCH   6   8
ENDBRANCH   4   6
TORSDOF 3
ENDMDL
