MODEL 1
REMARK VINA RESULT:      -4.8      0.000      0.000
REMARK  0 active torsions:
REMARK  status: ('A' for Active; 'I' for Inactive)
ROOT
HETATM    1  C1  UNL     1     -33.975  16.234  -2.256  1.00 20.00    -0.028 C 
HETATM    2  C2  UNL     1     -35.302  16.109  -2.356  1.00 20.00    -0.023 C 
HETATM    3  C3  UNL     1     -35.571  13.657  -4.357  1.00 20.00     0.259 C 
HETATM    4  C4  UNL     1     -33.307  16.159  -3.591  1.00 20.00     0.060 C 
HETATM    5  C5  UNL     1     -36.583  14.719  -4.045  1.00 20.00     0.122 C 
HETATM    6  C6  UNL     1     -35.741  15.946  -3.781  1.00 20.00     0.047 C 
HETATM    7  C7  UNL     1     -34.431  15.656  -4.498  1.00 20.00     0.143 C 
HETATM    8  O8  UNL     1     -35.799  12.459  -4.412  1.00 20.00    -0.265 OA
HETATM    9  O9  UNL     1     -34.356  14.225  -4.613  1.00 20.00    -0.315 OA
ENDROOT
TORSDOF 0
ENDMDL
MODEL 2
REMARK VINA RESULT:      -4.5     17.645     18.538
REMARK  0 active torsions:
REMARK  status: ('A' for Active; 'I' for Inactive)
ROOT
HETATM    1  C1  UNL     1     -24.477  17.542  12.332  1.00 20.00    -0.028 C 
HETATM    2  C2  UNL     1     -23.640  16.699  11.719  1.00 20.00    -0.023 C 
HETATM    3  C3  UNL     1     -22.619  18.462   9.282  1.00 20.00     0.259 C 
HETATM    4  C4  UNL     1     -25.376  18.238  11.361  1.00 20.00     0.060 C 
HETATM    5  C5  UNL     1     -22.615  16.969   9.416  1.00 20.00     0.122 C 
HETATM    6  C6  UNL     1     -23.853  16.682  10.234  1.00 20.00     0.047 C 
HETATM    7  C7  UNL     1     -24.733  17.904  10.014  1.00 20.00     0.143 C 
HETATM    8  O8  UNL     1     -21.681  19.137   8.888  1.00 20.00    -0.265 OA
HETATM    9  O9  UNL     1     -23.840  18.964   9.629  1.00 20.00    -0.315 OA
ENDROOT
TORSDOF 0
ENDMDL
MODEL 3
REMARK VINA RESULT:      -4.4     17.157     18.395
REMARK  0 active torsions:
REMARK  status: ('A' for Active; 'I' for Inactive)
ROOT
HETATM    1  C1  UNL     1     -24.013  16.608  11.522  1.00 20.00    -0.028 C 
HETATM    2  C2  UNL     1     -24.629  17.181  10.484  1.00 20.00    -0.023 C 
HETATM    3  C3  UNL     1     -22.274  17.369   8.361  1.00 20.00     0.259 C 
HETATM    4  C4  UNL     1     -22.682  17.233  11.794  1.00 20.00     0.060 C 
HETATM    5  C5  UNL     1     -23.542  18.168   8.417  1.00 20.00     0.122 C 
HETATM    6  C6  UNL     1     -23.815  18.296   9.898  1.00 20.00     0.047 C 
HETATM    7  C7  UNL     1     -22.454  18.085  10.545  1.00 20.00     0.143 C 
HETATM    8  O8  UNL     1     -21.816  16.844   7.358  1.00 20.00    -0.265 OA
HETATM    9  O9  UNL     1     -21.677  17.343   9.588  1.00 20.00    -0.315 OA
ENDROOT
TORSDOF 0
ENDMDL
MODEL 4
REMARK VINA RESULT:      -4.3      1.289      1.437
REMARK  0 active torsions:
REMARK  status: ('A' for Active; 'I' for Inactive)
ROOT
HETATM    1  C1  UNL     1     -33.607  15.751  -3.264  1.00 20.00    -0.028 C 
HETATM    2  C2  UNL     1     -34.675  16.486  -3.589  1.00 20.00    -0.023 C 
HETATM    3  C3  UNL     1     -36.669  14.275  -4.694  1.00 20.00     0.259 C 
HETATM    4  C4  UNL     1     -33.264  14.767  -4.335  1.00 20.00     0.060 C 
HETATM    5  C5  UNL     1     -36.677  15.751  -4.958  1.00 20.00     0.122 C 
HETATM    6  C6  UNL     1     -35.213  16.123  -4.941  1.00 20.00     0.047 C 
HETATM    7  C7  UNL     1     -34.495  14.815  -5.240  1.00 20.00     0.143 C 
HETATM    8  O8  UNL     1     -37.648  13.606  -4.402  1.00 20.00    -0.265 OA
HETATM    9  O9  UNL     1     -35.412  13.772  -4.865  1.00 20.00    -0.315 OA
ENDROOT
TORSDOF 0
ENDMDL
MODEL 5
REMARK VINA RESULT:      -4.3     11.765     12.552
REMARK  0 active torsions:
REMARK  status: ('A' for Active; 'I' for Inactive)
ROOT
HETATM    1  C1  UNL     1     -34.171   4.602   5.989  1.00 20.00    -0.028 C 
HETATM    2  C2  UNL     1     -34.115   4.149   4.732  1.00 20.00    -0.023 C 
HETATM    3  C3  UNL     1     -32.831   6.625   3.212  1.00 20.00     0.259 C 
HETATM    4  C4  UNL     1     -34.703   5.997   6.054  1.00 20.00     0.060 C 
HETATM    5  C5  UNL     1     -33.644   5.502   2.641  1.00 20.00     0.122 C 
HETATM    6  C6  UNL     1     -34.615   5.166   3.750  1.00 20.00     0.047 C 
HETATM    7  C7  UNL     1     -34.671   6.434   4.588  1.00 20.00     0.143 C 
HETATM    8  O8  UNL     1     -31.788   7.051   2.741  1.00 20.00    -0.265 OA
HETATM    9  O9  UNL     1     -33.445   7.136   4.320  1.00 20.00    -0.315 OA
ENDROOT
TORSDOF 0
ENDMDL
MODEL 6
REMARK VINA RESULT:      -4.3     10.655     11.764
REMARK  0 active torsions:
REMARK  status: ('A' for Active; 'I' for Inactive)
ROOT
HETATM    1  C1  UNL     1     -42.476   8.837  -0.188  1.00 20.00    -0.028 C 
HETATM    2  C2  UNL     1     -41.320   8.213  -0.438  1.00 20.00    -0.023 C 
HETATM    3  C3  UNL     1     -42.306   5.263  -1.078  1.00 20.00     0.259 C 
HETATM    4  C4  UNL     1     -43.360   8.032   0.708  1.00 20.00     0.060 C 
HETATM    5  C5  UNL     1     -40.946   5.714  -0.638  1.00 20.00     0.122 C 
HETATM    6  C6  UNL     1     -41.237   6.891   0.265  1.00 20.00     0.047 C 
HETATM    7  C7  UNL     1     -42.673   6.666   0.714  1.00 20.00     0.143 C 
HETATM    8  O8  UNL     1     -42.529   4.481  -1.990  1.00 20.00    -0.265 OA
HETATM    9  O9  UNL     1     -43.268   5.821  -0.287  1.00 20.00    -0.315 OA
ENDROOT
TORSDOF 0
ENDMDL
MODEL 7
REMARK VINA RESULT:      -4.3     18.102     18.839
REMARK  0 active torsions:
REMARK  status: ('A' for Active; 'I' for Inactive)
ROOT
HETATM    1  C1  UNL     1     -25.759  17.615  12.332  1.00 20.00    -0.028 C 
HETATM    2  C2  UNL     1     -24.628  18.328  12.330  1.00 20.00    -0.023 C 
HETATM    3  C3  UNL     1     -23.123  17.143   9.797  1.00 20.00     0.259 C 
HETATM    4  C4  UNL     1     -25.499  16.160  12.111  1.00 20.00     0.060 C 
HETATM    5  C5  UNL     1     -22.539  17.875  10.968  1.00 20.00     0.122 C 
HETATM    6  C6  UNL     1     -23.422  17.461  12.122  1.00 20.00     0.047 C 
HETATM    7  C7  UNL     1     -24.036  16.147  11.664  1.00 20.00     0.143 C 
HETATM    8  O8  UNL     1     -22.857  17.362   8.625  1.00 20.00    -0.265 OA
HETATM    9  O9  UNL     1     -23.970  16.164  10.227  1.00 20.00    -0.315 OA
ENDROOT
TORSDOF 0
ENDMDL
MODEL 8
REMARK VINA RESULT:      -4.2     10.852     11.992
REMARK  0 active torsions:
REMARK  status: ('A' for Active; 'I' for Inactive)
ROOT
HETATM    1  C1  UNL     1     -42.253   5.004  -1.451  1.00 20.00    -0.028 C 
HETATM    2  C2  UNL     1     -43.195   5.279  -0.542  1.00 20.00    -0.023 C 
HETATM    3  C3  UNL     1     -42.437   8.248   0.293  1.00 20.00     0.259 C 
HETATM    4  C4  UNL     1     -40.896   5.430  -0.991  1.00 20.00     0.060 C 
HETATM    5  C5  UNL     1     -43.245   7.243   1.059  1.00 20.00     0.122 C 
HETATM    6  C6  UNL     1     -42.616   5.922   0.684  1.00 20.00     0.047 C 
HETATM    7  C7  UNL     1     -41.214   6.296   0.228  1.00 20.00     0.143 C 
HETATM    8  O8  UNL     1     -42.742   9.419   0.128  1.00 20.00    -0.265 OA
HETATM    9  O9  UNL     1     -41.285   7.677  -0.165  1.00 20.00    -0.315 OA
ENDROOT
TORSDOF 0
ENDMDL
MODEL 9
REMARK VINA RESULT:      -4.2      1.710      2.303
REMARK  0 active torsions:
REMARK  status: ('A' for Active; 'I' for Inactive)
ROOT
HETATM    1  C1  UNL     1     -33.185  15.796  -3.690  1.00 20.00    -0.028 C 
HETATM    2  C2  UNL     1     -33.553  14.660  -4.291  1.00 20.00    -0.023 C 
HETATM    3  C3  UNL     1     -36.625  15.208  -4.881  1.00 20.00     0.259 C 
HETATM    4  C4  UNL     1     -34.178  16.225  -2.658  1.00 20.00     0.060 C 
HETATM    5  C5  UNL     1     -35.916  13.890  -4.788  1.00 20.00     0.122 C 
HETATM    6  C6  UNL     1     -34.848  14.134  -3.748  1.00 20.00     0.047 C 
HETATM    7  C7  UNL     1     -35.374  15.317  -2.949  1.00 20.00     0.143 C 
HETATM    8  O8  UNL     1     -37.412  15.525  -5.760  1.00 20.00    -0.265 OA
HETATM    9  O9  UNL     1     -36.296  15.997  -3.818  1.00 20.00    -0.315 OA
ENDROOT
TORSDOF 0
ENDMDL
