MODEL 1
REMARK VINA RESULT:      -4.7      0.000      0.000
REMARK  0 active torsions:
REMARK  status: ('A' for Active; 'I' for Inactive)
ROOT
HETATM    1  C1  UNL     1     -25.445  19.263   9.517  1.00 20.00    -0.007 C 
HETATM    2  C2  UNL     1     -25.520  18.816  10.777  1.00 20.00     0.008 C 
HETATM    3  C3  UNL     1     -24.223  19.105   8.665  1.00 20.00     0.035 C 
HETATM    4  C4  UNL     1     -24.400  18.119  11.487  1.00 20.00     0.058 C 
HETATM    5  C5  UNL     1     -22.024  17.872   8.582  1.00 20.00     0.172 C 
HETATM    6  C6  UNL     1     -23.361  16.427   9.840  1.00 20.00     0.172 C 
HETATM    7  C7  UNL     1     -22.953  18.714   9.445  1.00 20.00     0.019 C 
HETATM    8  C8  UNL     1     -23.223  17.747  10.586  1.00 20.00     0.021 C 
HETATM    9  O9  UNL     1     -22.473  16.510   8.711  1.00 20.00    -0.390 OA
HETATM   10 CL10 UNL     1     -26.971  19.028  11.695  1.00 20.00    -0.089 Cl
ENDROOT
TORSDOF 0
ENDMDL
MODEL 2
REMARK VINA RESULT:      -4.7     17.017     17.899
REMARK  0 active torsions:
REMARK  status: ('A' for Active; 'I' for Inactive)
ROOT
HETATM    1  C1  UNL     1     -33.066  15.603  -3.718  1.00 20.00    -0.007 C 
HETATM    2  C2  UNL     1     -33.646  16.294  -2.729  1.00 20.00     0.008 C 
HETATM    3  C3  UNL     1     -33.788  14.565  -4.521  1.00 20.00     0.035 C 
HETATM    4  C4  UNL     1     -35.070  16.112  -2.301  1.00 20.00     0.058 C 
HETATM    5  C5  UNL     1     -36.111  13.701  -4.994  1.00 20.00     0.172 C 
HETATM    6  C6  UNL     1     -36.511  15.933  -4.433  1.00 20.00     0.172 C 
HETATM    7  C7  UNL     1     -35.123  14.103  -3.907  1.00 20.00     0.019 C 
HETATM    8  C8  UNL     1     -35.895  15.226  -3.234  1.00 20.00     0.021 C 
HETATM    9  O9  UNL     1     -36.769  14.911  -5.412  1.00 20.00    -0.390 OA
HETATM   10 CL10 UNL     1     -32.748  17.484  -1.851  1.00 20.00    -0.089 Cl
ENDROOT
TORSDOF 0
ENDMDL
MODEL 3
REMARK VINA RESULT:      -4.5      1.215      2.202
REMARK  0 active torsions:
REMARK  status: ('A' for Active; 'I' for Inactive)
ROOT
HETATM    1  C1  UNL     1     -24.108  18.134  12.177  1.00 20.00    -0.007 C 
HETATM    2  C2  UNL     1     -25.185  18.293  11.398  1.00 20.00     0.008 C 
HETATM    3  C3  UNL     1     -22.759  17.770  11.641  1.00 20.00     0.035 C 
HETATM    4  C4  UNL     1     -25.177  18.118   9.910  1.00 20.00     0.058 C 
HETATM    5  C5  UNL     1     -21.476  17.606   9.474  1.00 20.00     0.172 C 
HETATM    6  C6  UNL     1     -23.052  19.263   8.999  1.00 20.00     0.172 C 
HETATM    7  C7  UNL     1     -22.772  17.250  10.191  1.00 20.00     0.019 C 
HETATM    8  C8  UNL     1     -23.782  17.963   9.306  1.00 20.00     0.021 C 
HETATM    9  O9  UNL     1     -21.651  18.937   8.955  1.00 20.00    -0.390 OA
HETATM   10 CL10 UNL     1     -26.711  18.724  12.091  1.00 20.00    -0.089 Cl
ENDROOT
TORSDOF 0
ENDMDL
MODEL 4
REMARK VINA RESULT:      -4.3     16.011     16.904
REMARK  0 active torsions:
REMARK  status: ('A' for Active; 'I' for Inactive)
ROOT
HETATM    1  C1  UNL     1     -32.932  17.030  -2.474  1.00 20.00    -0.007 C 
HETATM    2  C2  UNL     1     -33.871  17.259  -1.548  1.00 20.00     0.008 C 
HETATM    3  C3  UNL     1     -33.109  16.049  -3.592  1.00 20.00     0.035 C 
HETATM    4  C4  UNL     1     -35.197  16.563  -1.509  1.00 20.00     0.058 C 
HETATM    5  C5  UNL     1     -34.880  14.671  -4.743  1.00 20.00     0.172 C 
HETATM    6  C6  UNL     1     -36.109  16.478  -3.920  1.00 20.00     0.172 C 
HETATM    7  C7  UNL     1     -34.288  15.076  -3.401  1.00 20.00     0.019 C 
HETATM    8  C8  UNL     1     -35.500  15.722  -2.748  1.00 20.00     0.021 C 
HETATM    9  O9  UNL     1     -35.833  15.692  -5.093  1.00 20.00    -0.390 OA
HETATM   10 CL10 UNL     1     -33.596  18.416  -0.292  1.00 20.00    -0.089 Cl
ENDROOT
TORSDOF 0
ENDMDL
MODEL 5
REMARK VINA RESULT:      -4.1     15.931     16.850
REMARK  0 active torsions:
REMARK  status: ('A' for Active; 'I' for Inactive)
ROOT
HETATM    1  C1  UNL     1     -34.115  16.928  -1.573  1.00 20.00    -0.007 C 
HETATM    2  C2  UNL     1     -33.216  17.522  -2.368  1.00 20.00     0.008 C 
HETATM    3  C3  UNL     1     -35.105  15.920  -2.070  1.00 20.00     0.035 C 
HETATM    4  C4  UNL     1     -33.095  17.261  -3.838  1.00 20.00     0.058 C 
HETATM    5  C5  UNL     1     -35.607  14.472  -4.074  1.00 20.00     0.172 C 
HETATM    6  C6  UNL     1     -33.287  14.715  -4.200  1.00 20.00     0.172 C 
HETATM    7  C7  UNL     1     -35.249  15.875  -3.603  1.00 20.00     0.019 C 
HETATM    8  C8  UNL     1     -33.934  16.086  -4.337  1.00 20.00     0.021 C 
HETATM    9  O9  UNL     1     -34.363  13.760  -4.212  1.00 20.00    -0.390 OA
HETATM   10 CL10 UNL     1     -32.099  18.671  -1.717  1.00 20.00    -0.089 Cl
ENDROOT
TORSDOF 0
ENDMDL
MODEL 6
REMARK VINA RESULT:      -4.1     15.612     16.556
REMARK  0 active torsions:
REMARK  status: ('A' for Active; 'I' for Inactive)
ROOT
HETATM    1  C1  UNL     1     -35.440  15.762  -2.421  1.00 20.00    -0.007 C 
HETATM    2  C2  UNL     1     -34.648  15.134  -3.300  1.00 20.00     0.008 C 
HETATM    3  C3  UNL     1     -35.019  16.992  -1.677  1.00 20.00     0.035 C 
HETATM    4  C4  UNL     1     -33.257  15.573  -3.638  1.00 20.00     0.058 C 
HETATM    5  C5  UNL     1     -33.233  18.773  -1.663  1.00 20.00     0.172 C 
HETATM    6  C6  UNL     1     -33.288  18.138  -3.910  1.00 20.00     0.172 C 
HETATM    7  C7  UNL     1     -33.506  17.277  -1.727  1.00 20.00     0.019 C 
HETATM    8  C8  UNL     1     -32.875  16.938  -3.068  1.00 20.00     0.021 C 
HETATM    9  O9  UNL     1     -33.328  19.263  -3.014  1.00 20.00    -0.390 OA
HETATM   10 CL10 UNL     1     -35.209  13.722  -4.128  1.00 20.00    -0.089 Cl
ENDROOT
TORSDOF 0
ENDMDL
MODEL 7
REMARK VINA RESULT:      -4.1     17.022     17.862
REMARK  0 active torsions:
REMARK  status: ('A' for Active; 'I' for Inactive)
ROOT
HETATM    1  C1  UNL     1     -35.346  16.503  -2.578  1.00 20.00    -0.007 C 
HETATM    2  C2  UNL     1     -34.018  16.429  -2.734  1.00 20.00     0.008 C 
HETATM    3  C3  UNL     1     -36.313  15.767  -3.453  1.00 20.00     0.035 C 
HETATM    4  C4  UNL     1     -33.342  15.618  -3.796  1.00 20.00     0.058 C 
HETATM    5  C5  UNL     1     -36.405  13.930  -5.181  1.00 20.00     0.172 C 
HETATM    6  C6  UNL     1     -34.535  13.334  -3.915  1.00 20.00     0.172 C 
HETATM    7  C7  UNL     1     -35.696  15.207  -4.749  1.00 20.00     0.019 C 
HETATM    8  C8  UNL     1     -34.279  14.687  -4.564  1.00 20.00     0.021 C 
HETATM    9  O9  UNL     1     -35.775  12.853  -4.464  1.00 20.00    -0.390 OA
HETATM   10 CL10 UNL     1     -32.964  17.303  -1.676  1.00 20.00    -0.089 Cl
ENDROOT
TORSDOF 0
ENDMDL
MODEL 8
REMARK VINA RESULT:      -4.1     17.040     17.944
REMARK  0 active torsions:
REMARK  status: ('A' for Active; 'I' for Inactive)
ROOT
HETATM    1  C1  UNL     1     -35.480  16.152  -5.561  1.00 20.00    -0.007 C 
HETATM    2  C2  UNL     1     -34.394  15.425  -5.854  1.00 20.00     0.008 C 
HETATM    3  C3  UNL     1     -35.924  16.428  -4.158  1.00 20.00     0.035 C 
HETATM    4  C4  UNL     1     -33.505  14.796  -4.826  1.00 20.00     0.058 C 
HETATM    5  C5  UNL     1     -35.124  16.274  -1.770  1.00 20.00     0.172 C 
HETATM    6  C6  UNL     1     -33.126  16.528  -2.952  1.00 20.00     0.172 C 
HETATM    7  C7  UNL     1     -35.257  15.535  -3.094  1.00 20.00     0.019 C 
HETATM    8  C8  UNL     1     -33.797  15.235  -3.391  1.00 20.00     0.021 C 
HETATM    9  O9  UNL     1     -33.899  17.027  -1.846  1.00 20.00    -0.390 OA
HETATM   10 CL10 UNL     1     -33.940  15.158  -7.501  1.00 20.00    -0.089 Cl
ENDROOT
TORSDOF 0
ENDMDL
MODEL 9
REMARK VINA RESULT:      -4.0     17.598     18.392
REMARK  0 active torsions:
REMARK  status: ('A' for Active; 'I' for Inactive)
ROOT
HETATM    1  C1  UNL     1     -35.961  17.127  -3.576  1.00 20.00    -0.007 C 
HETATM    2  C2  UNL     1     -35.277  16.448  -2.646  1.00 20.00     0.008 C 
HETATM    3  C3  UNL     1     -35.995  16.728  -5.019  1.00 20.00     0.035 C 
HETATM    4  C4  UNL     1     -34.463  15.223  -2.932  1.00 20.00     0.058 C 
HETATM    5  C5  UNL     1     -35.413  14.806  -6.547  1.00 20.00     0.172 C 
HETATM    6  C6  UNL     1     -35.835  13.724  -4.521  1.00 20.00     0.172 C 
HETATM    7  C7  UNL     1     -34.918  15.700  -5.418  1.00 20.00     0.019 C 
HETATM    8  C8  UNL     1     -34.650  14.662  -4.341  1.00 20.00     0.021 C 
HETATM    9  O9  UNL     1     -36.146  13.734  -5.926  1.00 20.00    -0.390 OA
HETATM   10 CL10 UNL     1     -35.294  16.967  -0.996  1.00 20.00    -0.089 Cl
ENDROOT
TORSDOF 0
ENDMDL
