MODEL 1
REMARK VINA RESULT:      -4.7      0.000      0.000
REMARK  4 active torsions:
REMARK  status: ('A' for Active; 'I' for Inactive)
REMARK    1  A    between atoms: C1_1  and  C5_5 
REMARK    2  A    between atoms: C1_1  and  O9_9 
REMARK    3  A    between atoms: C5_5  and  C6_6 
REMARK    4  A    between atoms: C7_7  and  O9_9 
ROOT
HETATM    1  C1  UNL     1     -33.016   6.287   2.771  1.00 20.00     0.259 C 
HETATM    2  O8  UNL     1     -32.874   5.136   2.380  1.00 20.00    -0.265 OA
ENDROOT
BRANCH   1   3
HETATM    3  C5  UNL     1     -32.200   7.472   2.306  1.00 20.00     0.111 C 
BRANCH   3   4
HETATM    4  C6  UNL     1     -32.472   7.815   0.844  1.00 20.00     0.005 C 
HETATM    5  C2  UNL     1     -32.980   9.239   0.690  1.00 20.00     0.005 C 
ENDBRANCH   3   4
ENDBRANCH   1   3
BRANCH   1   6
HETATM    6  O9  UNL     1     -33.930   6.713   3.692  1.00 20.00    -0.317 OA
BRANCH   6   7
HETATM    7  C7  UNL     1     -34.081   5.875   4.843  1.00 20.00     0.123 C 
HETATM    8  C3  UNL     1     -34.068   6.738   6.096  1.00 20.00     0.040 C 
HETATM    9  C4  UNL     1     -35.370   5.078   4.717  1.00 20.00     0.040 C 
ENDBRANCH   6   7
ENDBRANCH   1   6
TORSDOF 4
ENDMDL
MODEL 2
REMARK VINA RESULT:      -4.6      1.058      4.032
REMARK  4 active torsions:
REMARK  status: ('A' for Active; 'I' for Inactive)
REMARK    1  A    between atoms: C1_1  and  C5_5 
REMARK    2  A    between atoms: C1_1  and  O9_9 
REMARK    3  A    between atoms: C5_5  and  C6_6 
REMARK    4  A    between atoms: C7_7  and  O9_9 
ROOT
HETATM    1  C1  UNL     1     -33.547   4.942   2.885  1.00 20.00     0.259 C 
HETATM    2  O8  UNL     1     -32.878   4.240   2.139  1.00 20.00    -0.265 OA
ENDROOT
BRANCH   1   3
HETATM    3  C5  UNL     1     -34.437   4.434   3.996  1.00 20.00     0.111 C 
BRANCH   3   4
HETATM    4  C6  UNL     1     -35.141   5.571   4.731  1.00 20.00     0.005 C 
HETATM    5  C2  UNL     1     -34.511   5.831   6.090  1.00 20.00     0.005 C 
ENDBRANCH   3   4
ENDBRANCH   1   3
BRANCH   1   6
HETATM    6  O9  UNL     1     -33.615   6.307   2.854  1.00 20.00    -0.317 OA
BRANCH   6   7
HETATM    7  C7  UNL     1     -32.390   6.977   2.536  1.00 20.00     0.123 C 
HETATM    8  C3  UNL     1     -32.636   7.955   1.398  1.00 20.00     0.040 C 
HETATM    9  C4  UNL     1     -31.864   7.675   3.781  1.00 20.00     0.040 C 
ENDBRANCH   6   7
ENDBRANCH   1   6
TORSDOF 4
ENDMDL
MODEL 3
REMARK VINA RESULT:      -4.4      1.154      1.767
REMARK  4 active torsions:
REMARK  status: ('A' for Active; 'I' for Inactive)
REMARK    1  A    between atoms: C1_1  and  C5_5 
REMARK    2  A    between atoms: C1_1  and  O9_9 
REMARK    3  A    between atoms: C5_5  and  C6_6 
REMARK    4  A    between atoms: C7_7  and  O9_9 
ROOT
HETATM    1  C1  UNL     1     -32.412   6.996   3.088  1.00 20.00     0.259 C 
HETATM    2  O8  UNL     1     -31.586   7.707   3.643  1.00 20.00    -0.265 OA
ENDROOT
BRANCH   1   3
HETATM    3  C5  UNL     1     -32.825   7.108   1.638  1.00 20.00     0.111 C 
BRANCH   3   4
HETATM    4  C6  UNL     1     -32.554   8.500   1.072  1.00 20.00     0.005 C 
HETATM    5  C2  UNL     1     -33.355   8.752  -0.195  1.00 20.00     0.005 C 
ENDBRANCH   3   4
ENDBRANCH   1   3
BRANCH   1   6
HETATM    6  O9  UNL     1     -33.110   5.975   3.668  1.00 20.00    -0.317 OA
BRANCH   6   7
HETATM    7  C7  UNL     1     -34.276   6.365   4.402  1.00 20.00     0.123 C 
HETATM    8  C3  UNL     1     -35.295   5.237   4.358  1.00 20.00     0.040 C 
HETATM    9  C4  UNL     1     -33.877   6.715   5.828  1.00 20.00     0.040 C 
ENDBRANCH   6   7
ENDBRANCH   1   6
TORSDOF 4
ENDMDL
MODEL 4
REMARK VINA RESULT:      -4.4      1.057      1.248
REMARK  4 active torsions:
REMARK  status: ('A' for Active; 'I' for Inactive)
REMARK    1  A    between atoms: C1_1  and  C5_5 
REMARK    2  A    between atoms: C1_1  and  O9_9 
REMARK    3  A    between atoms: C5_5  and  C6_6 
REMARK    4  A    between atoms: C7_7  and  O9_9 
ROOT
HETATM    1  C1  UNL     1     -32.578   7.251   3.158  1.00 20.00     0.259 C 
HETATM    2  O8  UNL     1     -31.615   7.510   3.867  1.00 20.00    -0.265 OA
ENDROOT
BRANCH   1   3
HETATM    3  C5  UNL     1     -32.571   7.243   1.647  1.00 20.00     0.111 C 
BRANCH   3   4
HETATM    4  C6  UNL     1     -32.664   8.651   1.066  1.00 20.00     0.005 C 
HETATM    5  C2  UNL     1     -33.370   8.654  -0.280  1.00 20.00     0.005 C 
ENDBRANCH   3   4
ENDBRANCH   1   3
BRANCH   1   6
HETATM    6  O9  UNL     1     -33.830   6.923   3.597  1.00 20.00    -0.317 OA
BRANCH   6   7
HETATM    7  C7  UNL     1     -33.879   5.960   4.654  1.00 20.00     0.123 C 
HETATM    8  C3  UNL     1     -34.107   6.679   5.975  1.00 20.00     0.040 C 
HETATM    9  C4  UNL     1     -34.978   4.950   4.361  1.00 20.00     0.040 C 
ENDBRANCH   6   7
ENDBRANCH   1   6
TORSDOF 4
ENDMDL
MODEL 5
REMARK VINA RESULT:      -4.2     10.694     12.362
REMARK  4 active torsions:
REMARK  status: ('A' for Active; 'I' for Inactive)
REMARK    1  A    between atoms: C1_1  and  C5_5 
REMARK    2  A    between atoms: C1_1  and  O9_9 
REMARK    3  A    between atoms: C5_5  and  C6_6 
REMARK    4  A    between atoms: C7_7  and  O9_9 
ROOT
HETATM    1  C1  UNL     1     -36.270  13.826  -4.852  1.00 20.00     0.259 C 
HETATM    2  O8  UNL     1     -37.427  13.676  -4.483  1.00 20.00    -0.265 OA
ENDROOT
BRANCH   1   3
HETATM    3  C5  UNL     1     -35.070  13.929  -3.938  1.00 20.00     0.111 C 
BRANCH   3   4
HETATM    4  C6  UNL     1     -35.121  15.179  -3.065  1.00 20.00     0.005 C 
HETATM    5  C2  UNL     1     -33.778  15.893  -3.034  1.00 20.00     0.005 C 
ENDBRANCH   3   4
ENDBRANCH   1   3
BRANCH   1   6
HETATM    6  O9  UNL     1     -35.849  13.929  -6.148  1.00 20.00    -0.317 OA
BRANCH   6   7
HETATM    7  C7  UNL     1     -35.408  15.230  -6.551  1.00 20.00     0.123 C 
HETATM    8  C3  UNL     1     -34.047  15.112  -7.220  1.00 20.00     0.040 C 
HETATM    9  C4  UNL     1     -36.445  15.844  -7.480  1.00 20.00     0.040 C 
ENDBRANCH   6   7
ENDBRANCH   1   6
TORSDOF 4
ENDMDL
MODEL 6
REMARK VINA RESULT:      -4.1      1.123      4.393
REMARK  4 active torsions:
REMARK  status: ('A' for Active; 'I' for Inactive)
REMARK    1  A    between atoms: C1_1  and  C5_5 
REMARK    2  A    between atoms: C1_1  and  O9_9 
REMARK    3  A    between atoms: C5_5  and  C6_6 
REMARK    4  A    between atoms: C7_7  and  O9_9 
ROOT
HETATM    1  C1  UNL     1     -32.994   6.377   2.872  1.00 20.00     0.259 C 
HETATM    2  O8  UNL     1     -32.927   5.274   2.348  1.00 20.00    -0.265 OA
ENDROOT
BRANCH   1   3
HETATM    3  C5  UNL     1     -33.777   6.702   4.123  1.00 20.00     0.111 C 
BRANCH   3   4
HETATM    4  C6  UNL     1     -34.776   5.602   4.474  1.00 20.00     0.005 C 
HETATM    5  C2  UNL     1     -34.744   5.273   5.958  1.00 20.00     0.005 C 
ENDBRANCH   3   4
ENDBRANCH   1   3
BRANCH   1   6
HETATM    6  O9  UNL     1     -32.378   7.513   2.429  1.00 20.00    -0.317 OA
BRANCH   6   7
HETATM    7  C7  UNL     1     -32.822   7.998   1.157  1.00 20.00     0.123 C 
HETATM    8  C3  UNL     1     -33.143   9.481   1.272  1.00 20.00     0.040 C 
HETATM    9  C4  UNL     1     -31.747   7.730   0.115  1.00 20.00     0.040 C 
ENDBRANCH   6   7
ENDBRANCH   1   6
TORSDOF 4
ENDMDL
MODEL 7
REMARK VINA RESULT:      -4.1      1.251      1.622
REMARK  4 active torsions:
REMARK  status: ('A' for Active; 'I' for Inactive)
REMARK    1  A    between atoms: C1_1  and  C5_5 
REMARK    2  A    between atoms: C1_1  and  O9_9 
REMARK    3  A    between atoms: C5_5  and  C6_6 
REMARK    4  A    between atoms: C7_7  and  O9_9 
ROOT
HETATM    1  C1  UNL     1     -33.947   5.007   3.422  1.00 20.00     0.259 C 
HETATM    2  O8  UNL     1     -34.237   3.830   3.586  1.00 20.00    -0.265 OA
ENDROOT
BRANCH   1   3
HETATM    3  C5  UNL     1     -33.081   5.545   2.306  1.00 20.00     0.111 C 
BRANCH   3   4
HETATM    4  C6  UNL     1     -32.528   6.931   2.628  1.00 20.00     0.005 C 
HETATM    5  C2  UNL     1     -32.582   7.848   1.416  1.00 20.00     0.005 C 
ENDBRANCH   3   4
ENDBRANCH   1   3
BRANCH   1   6
HETATM    6  O9  UNL     1     -34.350   6.049   4.209  1.00 20.00    -0.317 OA
BRANCH   6   7
HETATM    7  C7  UNL     1     -34.005   5.942   5.595  1.00 20.00     0.123 C 
HETATM    8  C3  UNL     1     -33.716   7.330   6.146  1.00 20.00     0.040 C 
HETATM    9  C4  UNL     1     -35.139   5.259   6.343  1.00 20.00     0.040 C 
ENDBRANCH   6   7
ENDBRANCH   1   6
TORSDOF 4
ENDMDL
MODEL 8
REMARK VINA RESULT:      -3.9     10.696     11.762
REMARK  4 active torsions:
REMARK  status: ('A' for Active; 'I' for Inactive)
REMARK    1  A    between atoms: C1_1  and  C5_5 
REMARK    2  A    between atoms: C1_1  and  O9_9 
REMARK    3  A    between atoms: C5_5  and  C6_6 
REMARK    4  A    between atoms: C7_7  and  O9_9 
ROOT
HETATM    1  C1  UNL     1     -36.028  13.725  -4.487  1.00 20.00     0.259 C 
HETATM    2  O8  UNL     1     -35.797  12.525  -4.440  1.00 20.00    -0.265 OA
ENDROOT
BRANCH   1   3
HETATM    3  C5  UNL     1     -35.353  14.777  -3.636  1.00 20.00     0.111 C 
BRANCH   3   4
HETATM    4  C6  UNL     1     -33.863  14.893  -3.947  1.00 20.00     0.005 C 
HETATM    5  C2  UNL     1     -33.240  16.092  -3.249  1.00 20.00     0.005 C 
ENDBRANCH   3   4
ENDBRANCH   1   3
BRANCH   1   6
HETATM    6  O9  UNL     1     -36.933  14.336  -5.309  1.00 20.00    -0.317 OA
BRANCH   6   7
HETATM    7  C7  UNL     1     -37.677  15.407  -4.719  1.00 20.00     0.123 C 
HETATM    8  C3  UNL     1     -37.876  16.505  -5.752  1.00 20.00     0.040 C 
HETATM    9  C4  UNL     1     -39.002  14.870  -4.199  1.00 20.00     0.040 C 
ENDBRANCH   6   7
ENDBRANCH   1   6
TORSDOF 4
ENDMDL
MODEL 9
REMARK VINA RESULT:      -3.9     10.558     12.066
REMARK  4 active torsions:
REMARK  status: ('A' for Active; 'I' for Inactive)
REMARK    1  A    between atoms: C1_1  and  C5_5 
REMARK    2  A    between atoms: C1_1  and  O9_9 
REMARK    3  A    between atoms: C5_5  and  C6_6 
REMARK    4  A    between atoms: C7_7  and  O9_9 
ROOT
HETATM    1  C1  UNL     1     -33.943  14.146  -4.371  1.00 20.00     0.259 C 
HETATM    2  O8  UNL     1     -34.354  13.088  -3.917  1.00 20.00    -0.265 OA
ENDROOT
BRANCH   1   3
HETATM    3  C5  UNL     1     -33.723  15.411  -3.572  1.00 20.00     0.111 C 
BRANCH   3   4
HETATM    4  C6  UNL     1     -34.862  15.672  -2.590  1.00 20.00     0.005 C 
HETATM    5  C2  UNL     1     -34.533  16.818  -1.647  1.00 20.00     0.005 C 
ENDBRANCH   3   4
ENDBRANCH   1   3
BRANCH   1   6
HETATM    6  O9  UNL     1     -33.607  14.383  -5.674  1.00 20.00    -0.317 OA
BRANCH   6   7
HETATM    7  C7  UNL     1     -34.488  15.256  -6.388  1.00 20.00     0.123 C 
HETATM    8  C3  UNL     1     -33.906  15.537  -7.765  1.00 20.00     0.040 C 
HETATM    9  C4  UNL     1     -35.866  14.618  -6.474  1.00 20.00     0.040 C 
ENDBRANCH   6   7
ENDBRANCH   1   6
TORSDOF 4
ENDMDL
