MODEL 1
REMARK VINA RESULT:      -3.8      0.000      0.000
REMARK  0 active torsions:
REMARK  status: ('A' for Active; 'I' for Inactive)
ROOT
HETATM    1  C1  UNL     1     -23.211  18.159   8.466  1.00 20.00     0.089 A 
HETATM    2  C2  UNL     1     -25.367  19.168   9.157  1.00 20.00     0.089 A 
HETATM    3  C3  UNL     1     -23.450  18.032   9.812  1.00 20.00     0.109 A 
HETATM    4  C4  UNL     1     -24.695  18.583  10.201  1.00 20.00     0.109 A 
HETATM    5  C5  UNL     1     -22.930  17.726  12.025  1.00 20.00     0.202 C 
HETATM    6  C6  UNL     1     -24.439  17.618  12.267  1.00 20.00     0.202 C 
HETATM    7  O7  UNL     1     -22.588  17.426  10.660  1.00 20.00    -0.346 OA
HETATM    8  O8  UNL     1     -25.174  18.561  11.467  1.00 20.00    -0.346 OA
HETATM    9  S9  UNL     1     -24.493  18.998   7.686  1.00 20.00    -0.108 SA
ENDROOT
TORSDOF 0
ENDMDL
MODEL 2
REMARK VINA RESULT:      -3.8      0.122      2.063
REMARK  0 active torsions:
REMARK  status: ('A' for Active; 'I' for Inactive)
ROOT
HETATM    1  C1  UNL     1     -25.406  19.110   9.275  1.00 20.00     0.089 A 
HETATM    2  C2  UNL     1     -23.257  18.170   8.476  1.00 20.00     0.089 A 
HETATM    3  C3  UNL     1     -24.665  18.548  10.284  1.00 20.00     0.109 A 
HETATM    4  C4  UNL     1     -23.425  18.037   9.832  1.00 20.00     0.109 A 
HETATM    5  C5  UNL     1     -24.277  17.591  12.332  1.00 20.00     0.202 C 
HETATM    6  C6  UNL     1     -22.786  17.746  12.016  1.00 20.00     0.202 C 
HETATM    7  O7  UNL     1     -25.079  18.511  11.571  1.00 20.00    -0.346 OA
HETATM    8  O8  UNL     1     -22.503  17.458  10.636  1.00 20.00    -0.346 OA
HETATM    9  S9  UNL     1     -24.602  18.969   7.762  1.00 20.00    -0.108 SA
ENDROOT
TORSDOF 0
ENDMDL
MODEL 3
REMARK VINA RESULT:      -3.7      2.260      3.036
REMARK  0 active torsions:
REMARK  status: ('A' for Active; 'I' for Inactive)
ROOT
HETATM    1  C1  UNL     1     -24.485  16.187  11.509  1.00 20.00     0.089 A 
HETATM    2  C2  UNL     1     -25.695  18.344  11.351  1.00 20.00     0.089 A 
HETATM    3  C3  UNL     1     -24.000  16.997  10.512  1.00 20.00     0.109 A 
HETATM    4  C4  UNL     1     -24.672  18.240  10.441  1.00 20.00     0.109 A 
HETATM    5  C5  UNL     1     -22.902  17.515   8.566  1.00 20.00     0.202 C 
HETATM    6  C6  UNL     1     -23.075  18.983   8.971  1.00 20.00     0.202 C 
HETATM    7  O7  UNL     1     -22.976  16.638   9.703  1.00 20.00    -0.346 OA
HETATM    8  O8  UNL     1     -24.365  19.222   9.562  1.00 20.00    -0.346 OA
HETATM    9  S9  UNL     1     -25.799  16.933  12.329  1.00 20.00    -0.108 SA
ENDROOT
TORSDOF 0
ENDMDL
MODEL 4
REMARK VINA RESULT:      -3.7      2.146      3.700
REMARK  0 active torsions:
REMARK  status: ('A' for Active; 'I' for Inactive)
ROOT
HETATM    1  C1  UNL     1     -24.063  17.995  11.809  1.00 20.00     0.089 A 
HETATM    2  C2  UNL     1     -21.855  18.033  10.685  1.00 20.00     0.089 A 
HETATM    3  C3  UNL     1     -24.148  18.338  10.482  1.00 20.00     0.109 A 
HETATM    4  C4  UNL     1     -22.890  18.332   9.834  1.00 20.00     0.109 A 
HETATM    5  C5  UNL     1     -25.079  19.263   8.601  1.00 20.00     0.202 C 
HETATM    6  C6  UNL     1     -23.964  18.559   7.819  1.00 20.00     0.202 C 
HETATM    7  O7  UNL     1     -25.319  18.630   9.870  1.00 20.00    -0.346 OA
HETATM    8  O8  UNL     1     -22.710  18.609   8.521  1.00 20.00    -0.346 OA
HETATM    9  S9  UNL     1     -22.432  17.711  12.272  1.00 20.00    -0.108 SA
ENDROOT
TORSDOF 0
ENDMDL
MODEL 5
REMARK VINA RESULT:      -3.6      2.155      2.513
REMARK  0 active torsions:
REMARK  status: ('A' for Active; 'I' for Inactive)
ROOT
HETATM    1  C1  UNL     1     -22.833  16.638   8.873  1.00 20.00     0.089 A 
HETATM    2  C2  UNL     1     -21.431  18.095  10.306  1.00 20.00     0.089 A 
HETATM    3  C3  UNL     1     -23.417  16.913  10.084  1.00 20.00     0.109 A 
HETATM    4  C4  UNL     1     -22.629  17.768  10.890  1.00 20.00     0.109 A 
HETATM    5  C5  UNL     1     -24.835  16.597  11.860  1.00 20.00     0.202 C 
HETATM    6  C6  UNL     1     -24.401  17.990  12.331  1.00 20.00     0.202 C 
HETATM    7  O7  UNL     1     -24.627  16.426  10.447  1.00 20.00    -0.346 OA
HETATM    8  O8  UNL     1     -22.996  18.208  12.117  1.00 20.00    -0.346 OA
HETATM    9  S9  UNL     1     -21.293  17.391   8.743  1.00 20.00    -0.108 SA
ENDROOT
TORSDOF 0
ENDMDL
MODEL 6
REMARK VINA RESULT:      -3.6      1.418      2.316
REMARK  0 active torsions:
REMARK  status: ('A' for Active; 'I' for Inactive)
ROOT
HETATM    1  C1  UNL     1     -23.839  18.748   8.450  1.00 20.00     0.089 A 
HETATM    2  C2  UNL     1     -22.603  17.059   9.777  1.00 20.00     0.089 A 
HETATM    3  C3  UNL     1     -24.358  18.578   9.710  1.00 20.00     0.109 A 
HETATM    4  C4  UNL     1     -23.634  17.635  10.477  1.00 20.00     0.109 A 
HETATM    5  C5  UNL     1     -25.946  18.657  11.362  1.00 20.00     0.202 C 
HETATM    6  C6  UNL     1     -24.820  18.282  12.331  1.00 20.00     0.202 C 
HETATM    7  O7  UNL     1     -25.435  19.261  10.161  1.00 20.00    -0.346 OA
HETATM    8  O8  UNL     1     -23.928  17.310  11.758  1.00 20.00    -0.346 OA
HETATM    9  S9  UNL     1     -22.491  17.712   8.190  1.00 20.00    -0.108 SA
ENDROOT
TORSDOF 0
ENDMDL
MODEL 7
REMARK VINA RESULT:      -3.5      1.369      1.619
REMARK  0 active torsions:
REMARK  status: ('A' for Active; 'I' for Inactive)
ROOT
HETATM    1  C1  UNL     1     -22.386  17.122   9.676  1.00 20.00     0.089 A 
HETATM    2  C2  UNL     1     -23.857  18.656   8.401  1.00 20.00     0.089 A 
HETATM    3  C3  UNL     1     -23.434  17.597  10.424  1.00 20.00     0.109 A 
HETATM    4  C4  UNL     1     -24.290  18.450   9.687  1.00 20.00     0.109 A 
HETATM    5  C5  UNL     1     -24.584  18.143  12.332  1.00 20.00     0.202 C 
HETATM    6  C6  UNL     1     -25.792  18.387  11.421  1.00 20.00     0.202 C 
HETATM    7  O7  UNL     1     -23.627  17.261  11.721  1.00 20.00    -0.346 OA
HETATM    8  O8  UNL     1     -25.408  19.024  10.190  1.00 20.00    -0.346 OA
HETATM    9  S9  UNL     1     -22.423  17.762   8.080  1.00 20.00    -0.108 SA
ENDROOT
TORSDOF 0
ENDMDL
MODEL 8
REMARK VINA RESULT:      -3.4     17.424     18.486
REMARK  0 active torsions:
REMARK  status: ('A' for Active; 'I' for Inactive)
ROOT
HETATM    1  C1  UNL     1     -36.398  13.708  -4.514  1.00 20.00     0.089 A 
HETATM    2  C2  UNL     1     -36.713  16.112  -4.001  1.00 20.00     0.089 A 
HETATM    3  C3  UNL     1     -35.213  14.361  -4.283  1.00 20.00     0.109 A 
HETATM    4  C4  UNL     1     -35.396  15.728  -3.962  1.00 20.00     0.109 A 
HETATM    5  C5  UNL     1     -32.950  14.720  -4.385  1.00 20.00     0.202 C 
HETATM    6  C6  UNL     1     -33.180  15.853  -3.379  1.00 20.00     0.202 C 
HETATM    7  O7  UNL     1     -34.008  13.748  -4.341  1.00 20.00    -0.346 OA
HETATM    8  O8  UNL     1     -34.387  16.581  -3.666  1.00 20.00    -0.346 OA
HETATM    9  S9  UNL     1     -37.734  14.782  -4.385  1.00 20.00    -0.108 SA
ENDROOT
TORSDOF 0
ENDMDL
MODEL 9
REMARK VINA RESULT:      -3.4     17.419     18.541
REMARK  0 active torsions:
REMARK  status: ('A' for Active; 'I' for Inactive)
ROOT
HETATM    1  C1  UNL     1     -36.695  16.160  -4.022  1.00 20.00     0.089 A 
HETATM    2  C2  UNL     1     -36.417  13.742  -4.485  1.00 20.00     0.089 A 
HETATM    3  C3  UNL     1     -35.383  15.758  -3.978  1.00 20.00     0.109 A 
HETATM    4  C4  UNL     1     -35.222  14.383  -4.271  1.00 20.00     0.109 A 
HETATM    5  C5  UNL     1     -33.166  15.863  -3.401  1.00 20.00     0.202 C 
HETATM    6  C6  UNL     1     -32.953  14.706  -4.383  1.00 20.00     0.202 C 
HETATM    7  O7  UNL     1     -34.362  16.602  -3.702  1.00 20.00    -0.346 OA
HETATM    8  O8  UNL     1     -34.026  13.750  -4.318  1.00 20.00    -0.346 OA
HETATM    9  S9  UNL     1     -37.736  14.839  -4.376  1.00 20.00    -0.108 SA
ENDROOT
TORSDOF 0
ENDMDL
