MODEL 1
REMARK VINA RESULT:      -4.3      0.000      0.000
REMARK  2 active torsions:
REMARK  status: ('A' for Active; 'I' for Inactive)
REMARK    1  A    between atoms: C5_5  and  C6_6 
REMARK    2  A    between atoms: C6_6  and  N8_8 
ROOT
HETATM    1  C1  UNL     1     -34.948   5.240   5.716  1.00 20.00     0.135 A 
HETATM    2  C2  UNL     1     -34.660   4.910   4.413  1.00 20.00     0.111 A 
HETATM    3  C3  UNL     1     -33.656   6.779   5.010  1.00 20.00     0.209 A 
HETATM    4  N7  UNL     1     -34.320   6.404   6.082  1.00 20.00    -0.255 NA
HETATM    5  N8  UNL     1     -33.833   5.905   3.973  1.00 20.00    -0.350 N 
ENDROOT
BRANCH   5   6
HETATM    6  C6  UNL     1     -33.245   6.015   2.643  1.00 20.00     0.129 C 
BRANCH   6   7
HETATM    7  C5  UNL     1     -32.332   7.233   2.518  1.00 20.00     0.016 C 
HETATM    8  C4  UNL     1     -32.647   8.035   1.266  1.00 20.00     0.006 C 
ENDBRANCH   6   7
ENDBRANCH   5   6
TORSDOF 2
ENDMDL
MODEL 2
REMARK VINA RESULT:      -4.2      0.698      1.304
REMARK  2 active torsions:
REMARK  status: ('A' for Active; 'I' for Inactive)
REMARK    1  A    between atoms: C5_5  and  C6_6 
REMARK    2  A    between atoms: C6_6  and  N8_8 
ROOT
HETATM    1  C1  UNL     1     -34.446   6.209   6.008  1.00 20.00     0.135 A 
HETATM    2  C2  UNL     1     -33.682   6.743   4.998  1.00 20.00     0.111 A 
HETATM    3  C3  UNL     1     -34.698   4.898   4.350  1.00 20.00     0.209 A 
HETATM    4  N7  UNL     1     -35.076   5.061   5.599  1.00 20.00    -0.255 NA
HETATM    5  N8  UNL     1     -33.852   5.893   3.942  1.00 20.00    -0.350 N 
ENDROOT
BRANCH   5   6
HETATM    6  C6  UNL     1     -33.245   6.020   2.623  1.00 20.00     0.129 C 
BRANCH   6   7
HETATM    7  C5  UNL     1     -32.337   7.245   2.524  1.00 20.00     0.016 C 
HETATM    8  C4  UNL     1     -32.614   8.040   1.259  1.00 20.00     0.006 C 
ENDBRANCH   6   7
ENDBRANCH   5   6
TORSDOF 2
ENDMDL
MODEL 3
REMARK VINA RESULT:      -3.6     15.778     16.822
REMARK  2 active torsions:
REMARK  status: ('A' for Active; 'I' for Inactive)
REMARK    1  A    between atoms: C5_5  and  C6_6 
REMARK    2  A    between atoms: C6_6  and  N8_8 
ROOT
HETATM    1  C1  UNL     1     -21.824  17.402   7.896  1.00 20.00     0.135 A 
HETATM    2  C2  UNL     1     -21.953  17.271   9.258  1.00 20.00     0.111 A 
HETATM    3  C3  UNL     1     -23.631  18.409   8.396  1.00 20.00     0.209 A 
HETATM    4  N7  UNL     1     -22.871  18.112   7.365  1.00 20.00    -0.255 NA
HETATM    5  N8  UNL     1     -23.115  17.921   9.565  1.00 20.00    -0.350 N 
ENDROOT
BRANCH   5   6
HETATM    6  C6  UNL     1     -23.698  18.068  10.893  1.00 20.00     0.129 C 
BRANCH   6   7
HETATM    7  C5  UNL     1     -23.460  16.837  11.765  1.00 20.00     0.016 C 
HETATM    8  C4  UNL     1     -24.582  15.823  11.609  1.00 20.00     0.006 C 
ENDBRANCH   6   7
ENDBRANCH   5   6
TORSDOF 2
ENDMDL
MODEL 4
REMARK VINA RESULT:      -3.6     11.634     12.135
REMARK  2 active torsions:
REMARK  status: ('A' for Active; 'I' for Inactive)
REMARK    1  A    between atoms: C5_5  and  C6_6 
REMARK    2  A    between atoms: C6_6  and  N8_8 
ROOT
HETATM    1  C1  UNL     1     -37.808  14.936  -4.258  1.00 20.00     0.135 A 
HETATM    2  C2  UNL     1     -36.743  15.684  -3.812  1.00 20.00     0.111 A 
HETATM    3  C3  UNL     1     -36.117  13.648  -4.375  1.00 20.00     0.209 A 
HETATM    4  N7  UNL     1     -37.411  13.670  -4.607  1.00 20.00    -0.255 NA
HETATM    5  N8  UNL     1     -35.667  14.845  -3.892  1.00 20.00    -0.350 N 
ENDROOT
BRANCH   5   6
HETATM    6  C6  UNL     1     -34.292  15.167  -3.530  1.00 20.00     0.129 C 
BRANCH   6   7
HETATM    7  C5  UNL     1     -34.220  16.135  -2.351  1.00 20.00     0.016 C 
HETATM    8  C4  UNL     1     -33.029  17.072  -2.475  1.00 20.00     0.006 C 
ENDBRANCH   6   7
ENDBRANCH   5   6
TORSDOF 2
ENDMDL
MODEL 5
REMARK VINA RESULT:      -3.6     11.815     12.507
REMARK  2 active torsions:
REMARK  status: ('A' for Active; 'I' for Inactive)
REMARK    1  A    between atoms: C5_5  and  C6_6 
REMARK    2  A    between atoms: C6_6  and  N8_8 
ROOT
HETATM    1  C1  UNL     1     -37.892  15.151  -4.601  1.00 20.00     0.135 A 
HETATM    2  C2  UNL     1     -36.763  15.827  -5.001  1.00 20.00     0.111 A 
HETATM    3  C3  UNL     1     -36.343  13.692  -4.650  1.00 20.00     0.209 A 
HETATM    4  N7  UNL     1     -37.623  13.823  -4.384  1.00 20.00    -0.255 NA
HETATM    5  N8  UNL     1     -35.778  14.880  -5.027  1.00 20.00    -0.350 N 
ENDROOT
BRANCH   5   6
HETATM    6  C6  UNL     1     -34.382  15.095  -5.390  1.00 20.00     0.129 C 
BRANCH   6   7
HETATM    7  C5  UNL     1     -33.438  14.840  -4.217  1.00 20.00     0.016 C 
HETATM    8  C4  UNL     1     -33.480  15.982  -3.214  1.00 20.00     0.006 C 
ENDBRANCH   6   7
ENDBRANCH   5   6
TORSDOF 2
ENDMDL
MODEL 6
REMARK VINA RESULT:      -3.6     15.774     16.784
REMARK  2 active torsions:
REMARK  status: ('A' for Active; 'I' for Inactive)
REMARK    1  A    between atoms: C5_5  and  C6_6 
REMARK    2  A    between atoms: C6_6  and  N8_8 
ROOT
HETATM    1  C1  UNL     1     -24.237  18.912   7.892  1.00 20.00     0.135 A 
HETATM    2  C2  UNL     1     -24.337  18.850   9.262  1.00 20.00     0.111 A 
HETATM    3  C3  UNL     1     -22.557  17.773   8.535  1.00 20.00     0.209 A 
HETATM    4  N7  UNL     1     -23.127  18.239   7.446  1.00 20.00    -0.255 NA
HETATM    5  N8  UNL     1     -23.255  18.117   9.660  1.00 20.00    -0.350 N 
ENDROOT
BRANCH   5   6
HETATM    6  C6  UNL     1     -22.907  17.765  11.032  1.00 20.00     0.129 C 
BRANCH   6   7
HETATM    7  C5  UNL     1     -24.131  17.353  11.847  1.00 20.00     0.016 C 
HETATM    8  C4  UNL     1     -24.537  15.919  11.549  1.00 20.00     0.006 C 
ENDBRANCH   6   7
ENDBRANCH   5   6
TORSDOF 2
ENDMDL
MODEL 7
REMARK VINA RESULT:      -3.4     11.843     12.675
REMARK  2 active torsions:
REMARK  status: ('A' for Active; 'I' for Inactive)
REMARK    1  A    between atoms: C5_5  and  C6_6 
REMARK    2  A    between atoms: C6_6  and  N8_8 
ROOT
HETATM    1  C1  UNL     1     -35.172  14.761  -6.463  1.00 20.00     0.135 A 
HETATM    2  C2  UNL     1     -34.513  15.486  -5.497  1.00 20.00     0.111 A 
HETATM    3  C3  UNL     1     -35.894  14.020  -4.602  1.00 20.00     0.209 A 
HETATM    4  N7  UNL     1     -36.030  13.851  -5.899  1.00 20.00    -0.255 NA
HETATM    5  N8  UNL     1     -34.987  15.001  -4.311  1.00 20.00    -0.350 N 
ENDROOT
BRANCH   5   6
HETATM    6  C6  UNL     1     -34.596  15.445  -2.978  1.00 20.00     0.129 C 
BRANCH   6   7
HETATM    7  C5  UNL     1     -33.290  16.237  -2.996  1.00 20.00     0.016 C 
HETATM    8  C4  UNL     1     -33.285  17.322  -1.932  1.00 20.00     0.006 C 
ENDBRANCH   6   7
ENDBRANCH   5   6
TORSDOF 2
ENDMDL
MODEL 8
REMARK VINA RESULT:      -3.4     11.998     13.198
REMARK  2 active torsions:
REMARK  status: ('A' for Active; 'I' for Inactive)
REMARK    1  A    between atoms: C5_5  and  C6_6 
REMARK    2  A    between atoms: C6_6  and  N8_8 
ROOT
HETATM    1  C1  UNL     1     -35.166  15.172  -7.477  1.00 20.00     0.135 A 
HETATM    2  C2  UNL     1     -34.050  15.204  -6.676  1.00 20.00     0.111 A 
HETATM    3  C3  UNL     1     -35.796  14.407  -5.593  1.00 20.00     0.209 A 
HETATM    4  N7  UNL     1     -36.250  14.675  -6.797  1.00 20.00    -0.255 NA
HETATM    5  N8  UNL     1     -34.468  14.711  -5.472  1.00 20.00    -0.350 N 
ENDROOT
BRANCH   5   6
HETATM    6  C6  UNL     1     -33.650  14.541  -4.277  1.00 20.00     0.129 C 
BRANCH   6   7
HETATM    7  C5  UNL     1     -33.530  15.834  -3.473  1.00 20.00     0.016 C 
HETATM    8  C4  UNL     1     -34.589  15.910  -2.385  1.00 20.00     0.006 C 
ENDBRANCH   6   7
ENDBRANCH   5   6
TORSDOF 2
ENDMDL
MODEL 9
REMARK VINA RESULT:      -3.3     15.610     16.206
REMARK  2 active torsions:
REMARK  status: ('A' for Active; 'I' for Inactive)
REMARK    1  A    between atoms: C5_5  and  C6_6 
REMARK    2  A    between atoms: C6_6  and  N8_8 
ROOT
HETATM    1  C1  UNL     1     -25.029  16.288  11.774  1.00 20.00     0.135 A 
HETATM    2  C2  UNL     1     -24.150  16.519  10.742  1.00 20.00     0.111 A 
HETATM    3  C3  UNL     1     -25.313  18.326  11.230  1.00 20.00     0.209 A 
HETATM    4  N7  UNL     1     -25.749  17.417  12.073  1.00 20.00    -0.255 NA
HETATM    5  N8  UNL     1     -24.344  17.829  10.403  1.00 20.00    -0.350 N 
ENDROOT
BRANCH   5   6
HETATM    6  C6  UNL     1     -23.646  18.562   9.353  1.00 20.00     0.129 C 
BRANCH   6   7
HETATM    7  C5  UNL     1     -22.169  18.179   9.269  1.00 20.00     0.016 C 
HETATM    8  C4  UNL     1     -21.866  17.420   7.988  1.00 20.00     0.006 C 
ENDBRANCH   6   7
ENDBRANCH   5   6
TORSDOF 2
ENDMDL
