MODEL 1
REMARK VINA RESULT:      -4.6      0.000      0.000
REMARK  0 active torsions:
REMARK  status: ('A' for Active; 'I' for Inactive)
ROOT
HETATM    1  C1  UNL     1     -24.128  16.406  10.895  1.00 20.00     0.226 C 
HETATM    2  C2  UNL     1     -23.601  18.515   9.876  1.00 20.00     0.043 C 
HETATM    3  C3  UNL     1     -22.929  17.385   9.097  1.00 20.00     0.081 C 
HETATM    4  C4  UNL     1     -24.056  17.892  11.212  1.00 20.00     0.035 C 
HETATM    5  C5  UNL     1     -21.409  17.429   9.143  1.00 20.00     0.032 C 
HETATM    6  C6  UNL     1     -25.425  18.423  11.636  1.00 20.00     0.025 C 
HETATM    7  C7  UNL     1     -23.036  18.121  12.332  1.00 20.00     0.025 C 
HETATM    8  N8  UNL     1     -23.447  16.189   9.706  1.00 20.00    -0.356 N 
HETATM    9  O9  UNL     1     -24.668  15.556  11.590  1.00 20.00    -0.273 OA
HETATM   10  H22 UNL     1     -23.324  15.259   9.296  1.00 20.00     0.162 HD
ENDROOT
TORSDOF 0
ENDMDL
MODEL 2
REMARK VINA RESULT:      -4.3      1.757      3.390
REMARK  0 active torsions:
REMARK  status: ('A' for Active; 'I' for Inactive)
ROOT
HETATM    1  C1  UNL     1     -25.012  16.549  11.531  1.00 20.00     0.226 C 
HETATM    2  C2  UNL     1     -25.142  18.810  12.328  1.00 20.00     0.043 C 
HETATM    3  C3  UNL     1     -26.546  18.215  12.241  1.00 20.00     0.081 C 
HETATM    4  C4  UNL     1     -24.229  17.853  11.533  1.00 20.00     0.035 C 
HETATM    5  C5  UNL     1     -27.439  18.900  11.217  1.00 20.00     0.032 C 
HETATM    6  C6  UNL     1     -22.877  17.671  12.224  1.00 20.00     0.025 C 
HETATM    7  C7  UNL     1     -24.020  18.320  10.090  1.00 20.00     0.025 C 
HETATM    8  N8  UNL     1     -26.316  16.834  11.910  1.00 20.00    -0.356 N 
HETATM    9  O9  UNL     1     -24.569  15.453  11.218  1.00 20.00    -0.273 OA
HETATM   10  H22 UNL     1     -27.052  16.123  11.953  1.00 20.00     0.162 HD
ENDROOT
TORSDOF 0
ENDMDL
MODEL 3
REMARK VINA RESULT:      -4.3      1.925      2.340
REMARK  0 active torsions:
REMARK  status: ('A' for Active; 'I' for Inactive)
ROOT
HETATM    1  C1  UNL     1     -24.245  18.787   9.936  1.00 20.00     0.226 C 
HETATM    2  C2  UNL     1     -22.140  17.849  10.611  1.00 20.00     0.043 C 
HETATM    3  C3  UNL     1     -22.003  18.474   9.224  1.00 20.00     0.081 C 
HETATM    4  C4  UNL     1     -23.657  17.748  10.879  1.00 20.00     0.035 C 
HETATM    5  C5  UNL     1     -21.696  17.467   8.126  1.00 20.00     0.032 C 
HETATM    6  C6  UNL     1     -23.990  18.086  12.332  1.00 20.00     0.025 C 
HETATM    7  C7  UNL     1     -24.215  16.367  10.521  1.00 20.00     0.025 C 
HETATM    8  N8  UNL     1     -23.267  19.128   9.012  1.00 20.00    -0.356 N 
HETATM    9  O9  UNL     1     -25.389  19.215   9.974  1.00 20.00    -0.273 OA
HETATM   10  H22 UNL     1     -23.429  19.787   8.246  1.00 20.00     0.162 HD
ENDROOT
TORSDOF 0
ENDMDL
MODEL 4
REMARK VINA RESULT:      -4.3      1.642      3.145
REMARK  0 active torsions:
REMARK  status: ('A' for Active; 'I' for Inactive)
ROOT
HETATM    1  C1  UNL     1     -22.934  16.742   9.325  1.00 20.00     0.226 C 
HETATM    2  C2  UNL     1     -22.997  17.998  11.371  1.00 20.00     0.043 C 
HETATM    3  C3  UNL     1     -23.848  16.738  11.515  1.00 20.00     0.081 C 
HETATM    4  C4  UNL     1     -22.725  18.151   9.859  1.00 20.00     0.035 C 
HETATM    5  C5  UNL     1     -25.330  17.018  11.712  1.00 20.00     0.032 C 
HETATM    6  C6  UNL     1     -21.295  18.624   9.596  1.00 20.00     0.025 C 
HETATM    7  C7  UNL     1     -23.722  19.100   9.187  1.00 20.00     0.025 C 
HETATM    8  N8  UNL     1     -23.598  16.010  10.299  1.00 20.00    -0.356 N 
HETATM    9  O9  UNL     1     -22.599  16.345   8.218  1.00 20.00    -0.273 OA
HETATM   10  H22 UNL     1     -23.886  15.037  10.165  1.00 20.00     0.162 HD
ENDROOT
TORSDOF 0
ENDMDL
MODEL 5
REMARK VINA RESULT:      -4.3     19.098     19.747
REMARK  0 active torsions:
REMARK  status: ('A' for Active; 'I' for Inactive)
ROOT
HETATM    1  C1  UNL     1     -35.535  13.886  -5.124  1.00 20.00     0.226 C 
HETATM    2  C2  UNL     1     -34.761  16.134  -5.460  1.00 20.00     0.043 C 
HETATM    3  C3  UNL     1     -35.156  15.521  -6.802  1.00 20.00     0.081 C 
HETATM    4  C4  UNL     1     -34.675  14.955  -4.468  1.00 20.00     0.035 C 
HETATM    5  C5  UNL     1     -33.990  15.353  -7.765  1.00 20.00     0.032 C 
HETATM    6  C6  UNL     1     -35.237  15.337  -3.099  1.00 20.00     0.025 C 
HETATM    7  C7  UNL     1     -33.244  14.431  -4.318  1.00 20.00     0.025 C 
HETATM    8  N8  UNL     1     -35.741  14.256  -6.446  1.00 20.00    -0.356 N 
HETATM    9  O9  UNL     1     -35.942  12.869  -4.582  1.00 20.00    -0.273 OA
HETATM   10  H22 UNL     1     -36.264  13.679  -7.110  1.00 20.00     0.162 HD
ENDROOT
TORSDOF 0
ENDMDL
MODEL 6
REMARK VINA RESULT:      -4.2     23.438     24.191
REMARK  0 active torsions:
REMARK  status: ('A' for Active; 'I' for Inactive)
ROOT
HETATM    1  C1  UNL     1     -41.202   6.005  -1.052  1.00 20.00     0.226 C 
HETATM    2  C2  UNL     1     -43.192   7.332  -0.838  1.00 20.00     0.043 C 
HETATM    3  C3  UNL     1     -41.980   8.246  -1.004  1.00 20.00     0.081 C 
HETATM    4  C4  UNL     1     -42.623   5.934  -0.513  1.00 20.00     0.035 C 
HETATM    5  C5  UNL     1     -41.696   9.115   0.213  1.00 20.00     0.032 C 
HETATM    6  C6  UNL     1     -43.416   4.834  -1.219  1.00 20.00     0.025 C 
HETATM    7  C7  UNL     1     -42.580   5.665   0.994  1.00 20.00     0.025 C 
HETATM    8  N8  UNL     1     -40.896   7.339  -1.278  1.00 20.00    -0.356 N 
HETATM    9  O9  UNL     1     -40.458   5.050  -1.222  1.00 20.00    -0.273 OA
HETATM   10  H22 UNL     1     -39.981   7.652  -1.610  1.00 20.00     0.162 HD
ENDROOT
TORSDOF 0
ENDMDL
MODEL 7
REMARK VINA RESULT:      -4.1     23.260     24.056
REMARK  0 active torsions:
REMARK  status: ('A' for Active; 'I' for Inactive)
ROOT
HETATM    1  C1  UNL     1     -42.154   5.818   0.545  1.00 20.00     0.226 C 
HETATM    2  C2  UNL     1     -41.092   7.121  -1.170  1.00 20.00     0.043 C 
HETATM    3  C3  UNL     1     -41.190   7.943   0.113  1.00 20.00     0.081 C 
HETATM    4  C4  UNL     1     -42.031   5.913  -0.969  1.00 20.00     0.035 C 
HETATM    5  C5  UNL     1     -42.088   9.165  -0.009  1.00 20.00     0.032 C 
HETATM    6  C6  UNL     1     -41.424   4.633  -1.544  1.00 20.00     0.025 C 
HETATM    7  C7  UNL     1     -43.417   6.152  -1.574  1.00 20.00     0.025 C 
HETATM    8  N8  UNL     1     -41.689   7.008   1.086  1.00 20.00    -0.356 N 
HETATM    9  O9  UNL     1     -42.612   4.868   1.163  1.00 20.00    -0.273 OA
HETATM   10  H22 UNL     1     -41.700   7.204   2.091  1.00 20.00     0.162 HD
ENDROOT
TORSDOF 0
ENDMDL
MODEL 8
REMARK VINA RESULT:      -4.1      1.703      2.284
REMARK  0 active torsions:
REMARK  status: ('A' for Active; 'I' for Inactive)
ROOT
HETATM    1  C1  UNL     1     -22.648  17.717  11.304  1.00 20.00     0.226 C 
HETATM    2  C2  UNL     1     -24.299  17.058   9.689  1.00 20.00     0.043 C 
HETATM    3  C3  UNL     1     -23.246  17.937   9.018  1.00 20.00     0.081 C 
HETATM    4  C4  UNL     1     -24.087  17.233  11.208  1.00 20.00     0.035 C 
HETATM    5  C5  UNL     1     -23.791  19.263   8.507  1.00 20.00     0.032 C 
HETATM    6  C6  UNL     1     -24.264  15.909  11.951  1.00 20.00     0.025 C 
HETATM    7  C7  UNL     1     -25.018  18.295  11.801  1.00 20.00     0.025 C 
HETATM    8  N8  UNL     1     -22.250  18.126  10.039  1.00 20.00    -0.356 N 
HETATM    9  O9  UNL     1     -21.980  17.762  12.326  1.00 20.00    -0.273 OA
HETATM   10  H22 UNL     1     -21.328  18.527   9.848  1.00 20.00     0.162 HD
ENDROOT
TORSDOF 0
ENDMDL
MODEL 9
REMARK VINA RESULT:      -4.0     17.015     17.660
REMARK  0 active torsions:
REMARK  status: ('A' for Active; 'I' for Inactive)
ROOT
HETATM    1  C1  UNL     1     -33.217  16.636  -2.987  1.00 20.00     0.226 C 
HETATM    2  C2  UNL     1     -34.885  14.959  -3.406  1.00 20.00     0.043 C 
HETATM    3  C3  UNL     1     -33.681  14.725  -4.316  1.00 20.00     0.081 C 
HETATM    4  C4  UNL     1     -34.710  16.382  -2.834  1.00 20.00     0.035 C 
HETATM    5  C5  UNL     1     -33.989  14.895  -5.796  1.00 20.00     0.032 C 
HETATM    6  C6  UNL     1     -35.122  16.446  -1.364  1.00 20.00     0.025 C 
HETATM    7  C7  UNL     1     -35.485  17.428  -3.642  1.00 20.00     0.025 C 
HETATM    8  N8  UNL     1     -32.709  15.683  -3.859  1.00 20.00    -0.356 N 
HETATM    9  O9  UNL     1     -32.592  17.542  -2.455  1.00 20.00    -0.273 OA
HETATM   10  H22 UNL     1     -31.729  15.662  -4.151  1.00 20.00     0.162 HD
ENDROOT
TORSDOF 0
ENDMDL
