MODEL 1
REMARK VINA RESULT:      -5.2      0.000      0.000
REMARK  1 active torsions:
REMARK  status: ('A' for Active; 'I' for Inactive)
REMARK    1  A    between atoms: C3_3  and  O11_11 
ROOT
HETATM    1  C1  UNL     1     -22.735  17.990   9.433  1.00 20.00    -0.019 A 
HETATM    2  C2  UNL     1     -23.316  18.027  10.697  1.00 20.00    -0.029 A 
HETATM    3  C3  UNL     1     -23.487  18.348   8.319  1.00 20.00     0.096 A 
HETATM    4  C4  UNL     1     -24.639  18.427  10.791  1.00 20.00     0.037 A 
HETATM    5  C5  UNL     1     -24.802  18.733   8.520  1.00 20.00     0.064 A 
HETATM    6  C6  UNL     1     -21.312  17.567   9.268  1.00 20.00     0.052 C 
HETATM    7  C7  UNL     1     -22.536  17.648  11.911  1.00 20.00     0.051 C 
HETATM    8  C8  UNL     1     -25.316  18.487  12.122  1.00 20.00     0.071 C 
HETATM    9  C9  UNL     1     -25.653  19.128   7.358  1.00 20.00     0.073 C 
HETATM   10  N10 UNL     1     -25.400  18.782   9.731  1.00 20.00    -0.255 NA
ENDROOT
BRANCH   3  11
HETATM   11  O11 UNL     1     -22.946  18.322   7.073  1.00 20.00    -0.358 OA
HETATM   12  H24 UNL     1     -23.432  17.700   6.506  1.00 20.00     0.217 HD
ENDBRANCH   3  11
TORSDOF 1
ENDMDL
MODEL 2
REMARK VINA RESULT:      -5.1      1.636      2.914
REMARK  1 active torsions:
REMARK  status: ('A' for Active; 'I' for Inactive)
REMARK    1  A    between atoms: C3_3  and  O11_11 
ROOT
HETATM    1  C1  UNL     1     -24.805  18.514  10.416  1.00 20.00    -0.019 A 
HETATM    2  C2  UNL     1     -23.469  18.135  10.482  1.00 20.00    -0.029 A 
HETATM    3  C3  UNL     1     -25.356  18.888   9.194  1.00 20.00     0.096 A 
HETATM    4  C4  UNL     1     -22.733  18.147   9.308  1.00 20.00     0.037 A 
HETATM    5  C5  UNL     1     -24.535  18.866   8.079  1.00 20.00     0.064 A 
HETATM    6  C6  UNL     1     -25.650  18.522  11.648  1.00 20.00     0.052 C 
HETATM    7  C7  UNL     1     -22.849  17.730  11.777  1.00 20.00     0.051 C 
HETATM    8  C8  UNL     1     -21.293  17.749   9.317  1.00 20.00     0.071 C 
HETATM    9  C9  UNL     1     -25.076  19.257   6.743  1.00 20.00     0.073 C 
HETATM   10  N10 UNL     1     -23.233  18.503   8.103  1.00 20.00    -0.255 NA
ENDROOT
BRANCH   3  11
HETATM   11  O11 UNL     1     -26.659  19.262   9.100  1.00 20.00    -0.358 OA
HETATM   12  H24 UNL     1     -26.995  19.094   8.204  1.00 20.00     0.217 HD
ENDBRANCH   3  11
TORSDOF 1
ENDMDL
MODEL 3
REMARK VINA RESULT:      -5.0      1.723      2.963
REMARK  1 active torsions:
REMARK  status: ('A' for Active; 'I' for Inactive)
REMARK    1  A    between atoms: C3_3  and  O11_11 
ROOT
HETATM    1  C1  UNL     1     -24.107  18.582   9.305  1.00 20.00    -0.019 A 
HETATM    2  C2  UNL     1     -22.994  18.229  10.060  1.00 20.00    -0.029 A 
HETATM    3  C3  UNL     1     -25.343  18.728   9.926  1.00 20.00     0.096 A 
HETATM    4  C4  UNL     1     -23.168  18.037  11.421  1.00 20.00     0.037 A 
HETATM    5  C5  UNL     1     -25.412  18.513  11.292  1.00 20.00     0.064 A 
HETATM    6  C6  UNL     1     -23.982  18.802   7.833  1.00 20.00     0.052 C 
HETATM    7  C7  UNL     1     -21.655  18.064   9.423  1.00 20.00     0.051 C 
HETATM    8  C8  UNL     1     -22.009  17.658  12.284  1.00 20.00     0.071 C 
HETATM    9  C9  UNL     1     -26.714  18.657  12.009  1.00 20.00     0.073 C 
HETATM   10  N10 UNL     1     -24.353  18.170  12.059  1.00 20.00    -0.255 NA
ENDROOT
BRANCH   3  11
HETATM   11  O11 UNL     1     -26.448  19.072   9.213  1.00 20.00    -0.358 OA
HETATM   12  H24 UNL     1     -27.252  18.890   9.726  1.00 20.00     0.217 HD
ENDBRANCH   3  11
TORSDOF 1
ENDMDL
MODEL 4
REMARK VINA RESULT:      -4.5      1.137      2.991
REMARK  1 active torsions:
REMARK  status: ('A' for Active; 'I' for Inactive)
REMARK    1  A    between atoms: C3_3  and  O11_11 
ROOT
HETATM    1  C1  UNL     1     -24.968  18.876   8.415  1.00 20.00    -0.019 A 
HETATM    2  C2  UNL     1     -25.456  18.878   9.717  1.00 20.00    -0.029 A 
HETATM    3  C3  UNL     1     -23.647  18.513   8.175  1.00 20.00     0.096 A 
HETATM    4  C4  UNL     1     -24.591  18.512  10.735  1.00 20.00     0.037 A 
HETATM    5  C5  UNL     1     -22.863  18.164   9.261  1.00 20.00     0.064 A 
HETATM    6  C6  UNL     1     -25.854  19.262   7.275  1.00 20.00     0.052 C 
HETATM    7  C7  UNL     1     -26.868  19.263  10.007  1.00 20.00     0.051 C 
HETATM    8  C8  UNL     1     -25.058  18.495  12.154  1.00 20.00     0.071 C 
HETATM    9  C9  UNL     1     -21.437  17.766   9.060  1.00 20.00     0.073 C 
HETATM   10  N10 UNL     1     -23.301  18.153  10.540  1.00 20.00    -0.255 NA
ENDROOT
BRANCH   3  11
HETATM   11  O11 UNL     1     -23.143  18.502   6.913  1.00 20.00    -0.358 OA
HETATM   12  H24 UNL     1     -22.195  18.292   6.929  1.00 20.00     0.217 HD
ENDBRANCH   3  11
TORSDOF 1
ENDMDL
MODEL 5
REMARK VINA RESULT:      -4.5      1.885      4.022
REMARK  1 active torsions:
REMARK  status: ('A' for Active; 'I' for Inactive)
REMARK    1  A    between atoms: C3_3  and  O11_11 
ROOT
HETATM    1  C1  UNL     1     -24.942  18.727  10.102  1.00 20.00    -0.019 A 
HETATM    2  C2  UNL     1     -25.394  18.971   8.810  1.00 20.00    -0.029 A 
HETATM    3  C3  UNL     1     -23.595  18.458  10.322  1.00 20.00     0.096 A 
HETATM    4  C4  UNL     1     -24.467  18.935   7.781  1.00 20.00     0.037 A 
HETATM    5  C5  UNL     1     -22.749  18.444   9.225  1.00 20.00     0.064 A 
HETATM    6  C6  UNL     1     -25.895  18.753  11.253  1.00 20.00     0.052 C 
HETATM    7  C7  UNL     1     -26.832  19.263   8.542  1.00 20.00     0.051 C 
HETATM    8  C8  UNL     1     -24.893  19.190   6.372  1.00 20.00     0.071 C 
HETATM    9  C9  UNL     1     -21.294  18.161   9.405  1.00 20.00     0.073 C 
HETATM   10  N10 UNL     1     -23.151  18.677   7.956  1.00 20.00    -0.255 NA
ENDROOT
BRANCH   3  11
HETATM   11  O11 UNL     1     -23.126  18.216  11.574  1.00 20.00    -0.358 OA
HETATM   12  H24 UNL     1     -23.133  19.031  12.102  1.00 20.00     0.217 HD
ENDBRANCH   3  11
TORSDOF 1
ENDMDL
MODEL 6
REMARK VINA RESULT:      -4.4     16.999     18.648
REMARK  1 active torsions:
REMARK  status: ('A' for Active; 'I' for Inactive)
REMARK    1  A    between atoms: C3_3  and  O11_11 
ROOT
HETATM    1  C1  UNL     1     -33.943  15.201  -4.658  1.00 20.00    -0.019 A 
HETATM    2  C2  UNL     1     -34.924  15.720  -3.818  1.00 20.00    -0.029 A 
HETATM    3  C3  UNL     1     -34.214  15.034  -6.012  1.00 20.00     0.096 A 
HETATM    4  C4  UNL     1     -36.146  16.052  -4.377  1.00 20.00     0.037 A 
HETATM    5  C5  UNL     1     -35.469  15.397  -6.472  1.00 20.00     0.064 A 
HETATM    6  C6  UNL     1     -32.604  14.824  -4.113  1.00 20.00     0.052 C 
HETATM    7  C7  UNL     1     -34.664  15.911  -2.362  1.00 20.00     0.051 C 
HETATM    8  C8  UNL     1     -37.238  16.614  -3.525  1.00 20.00     0.071 C 
HETATM    9  C9  UNL     1     -35.812  15.239  -7.917  1.00 20.00     0.073 C 
HETATM   10  N10 UNL     1     -36.446  15.904  -5.688  1.00 20.00    -0.255 NA
ENDROOT
BRANCH   3  11
HETATM   11  O11 UNL     1     -33.275  14.530  -6.856  1.00 20.00    -0.358 OA
HETATM   12  H24 UNL     1     -33.696  14.165  -7.651  1.00 20.00     0.217 HD
ENDBRANCH   3  11
TORSDOF 1
ENDMDL
MODEL 7
REMARK VINA RESULT:      -4.4     16.500     18.047
REMARK  1 active torsions:
REMARK  status: ('A' for Active; 'I' for Inactive)
REMARK    1  A    between atoms: C3_3  and  O11_11 
ROOT
HETATM    1  C1  UNL     1     -34.567  14.647  -3.929  1.00 20.00    -0.019 A 
HETATM    2  C2  UNL     1     -34.427  15.921  -3.387  1.00 20.00    -0.029 A 
HETATM    3  C3  UNL     1     -35.835  14.163  -4.232  1.00 20.00     0.096 A 
HETATM    4  C4  UNL     1     -35.577  16.663  -3.170  1.00 20.00     0.037 A 
HETATM    5  C5  UNL     1     -36.921  14.984  -3.977  1.00 20.00     0.064 A 
HETATM    6  C6  UNL     1     -33.364  13.800  -4.185  1.00 20.00     0.052 C 
HETATM    7  C7  UNL     1     -33.081  16.468  -3.050  1.00 20.00     0.051 C 
HETATM    8  C8  UNL     1     -35.489  18.037  -2.591  1.00 20.00     0.071 C 
HETATM    9  C9  UNL     1     -38.305  14.513  -4.285  1.00 20.00     0.073 C 
HETATM   10  N10 UNL     1     -36.825  16.226  -3.453  1.00 20.00    -0.255 NA
ENDROOT
BRANCH   3  11
HETATM   11  O11 UNL     1     -36.001  12.923  -4.763  1.00 20.00    -0.358 OA
HETATM   12  H24 UNL     1     -36.184  12.277  -4.062  1.00 20.00     0.217 HD
ENDBRANCH   3  11
TORSDOF 1
ENDMDL
MODEL 8
REMARK VINA RESULT:      -4.3      1.432      3.175
REMARK  1 active torsions:
REMARK  status: ('A' for Active; 'I' for Inactive)
REMARK    1  A    between atoms: C3_3  and  O11_11 
ROOT
HETATM    1  C1  UNL     1     -23.304  18.170   8.770  1.00 20.00    -0.019 A 
HETATM    2  C2  UNL     1     -24.584  18.687   8.943  1.00 20.00    -0.029 A 
HETATM    3  C3  UNL     1     -22.593  17.706   9.872  1.00 20.00     0.096 A 
HETATM    4  C4  UNL     1     -25.102  18.719  10.227  1.00 20.00     0.037 A 
HETATM    5  C5  UNL     1     -23.201  17.782  11.114  1.00 20.00     0.064 A 
HETATM    6  C6  UNL     1     -22.692  18.109   7.408  1.00 20.00     0.052 C 
HETATM    7  C7  UNL     1     -25.372  19.191   7.781  1.00 20.00     0.051 C 
HETATM    8  C8  UNL     1     -26.471  19.262  10.476  1.00 20.00     0.071 C 
HETATM    9  C9  UNL     1     -22.481  17.299  12.331  1.00 20.00     0.073 C 
HETATM   10  N10 UNL     1     -24.441  18.277  11.322  1.00 20.00    -0.255 NA
ENDROOT
BRANCH   3  11
HETATM   11  O11 UNL     1     -21.342  17.196   9.732  1.00 20.00    -0.358 OA
HETATM   12  H24 UNL     1     -20.699  17.739  10.217  1.00 20.00     0.217 HD
ENDBRANCH   3  11
TORSDOF 1
ENDMDL
MODEL 9
REMARK VINA RESULT:      -4.3      1.856      3.294
REMARK  1 active torsions:
REMARK  status: ('A' for Active; 'I' for Inactive)
REMARK    1  A    between atoms: C3_3  and  O11_11 
ROOT
HETATM    1  C1  UNL     1     -23.320  18.218  10.044  1.00 20.00    -0.019 A 
HETATM    2  C2  UNL     1     -23.619  18.417   8.700  1.00 20.00    -0.029 A 
HETATM    3  C3  UNL     1     -24.282  18.490  11.012  1.00 20.00     0.096 A 
HETATM    4  C4  UNL     1     -24.882  18.886   8.380  1.00 20.00     0.037 A 
HETATM    5  C5  UNL     1     -25.515  18.956  10.587  1.00 20.00     0.064 A 
HETATM    6  C6  UNL     1     -21.974  17.715  10.452  1.00 20.00     0.052 C 
HETATM    7  C7  UNL     1     -22.609  18.135   7.640  1.00 20.00     0.051 C 
HETATM    8  C8  UNL     1     -25.262  19.118   6.953  1.00 20.00     0.071 C 
HETATM    9  C9  UNL     1     -26.584  19.263  11.584  1.00 20.00     0.073 C 
HETATM   10  N10 UNL     1     -25.843  19.161   9.292  1.00 20.00    -0.255 NA
ENDROOT
BRANCH   3  11
HETATM   11  O11 UNL     1     -24.018  18.305  12.331  1.00 20.00    -0.358 OA
HETATM   12  H24 UNL     1     -23.668  17.412  12.485  1.00 20.00     0.217 HD
ENDBRANCH   3  11
TORSDOF 1
ENDMDL
