MODEL 1
REMARK VINA RESULT:      -3.0      0.000      0.000
REMARK  1 active torsions:
REMARK  status: ('A' for Active; 'I' for Inactive)
REMARK    1  A    between atoms: C3_3  and  N6_6 
ROOT
HETATM    1  C1  UNL     1     -35.924  16.152  -3.082  1.00 20.00     0.123 C 
HETATM    2  C2  UNL     1     -33.319  15.993  -3.281  1.00 20.00     0.123 C 
HETATM    3  C3  UNL     1     -34.568  15.945  -2.375  1.00 20.00     0.242 C 
HETATM    4  S7  UNL     1     -36.367  14.798  -4.221  1.00 20.00    -0.084 SA
HETATM    5  S8  UNL     1     -33.222  14.605  -4.461  1.00 20.00    -0.084 SA
HETATM    6  S9  UNL     1     -34.873  15.003  -5.601  1.00 20.00    -0.025 SA
ENDROOT
BRANCH   3   7
HETATM    7  N6  UNL     1     -34.441  17.003  -1.361  1.00 20.00     0.086 N 
HETATM    8  C4  UNL     1     -35.617  17.868  -1.387  1.00 20.00     0.310 C 
HETATM    9  C5  UNL     1     -33.224  17.775  -1.589  1.00 20.00     0.310 C 
ENDBRANCH   3   7
TORSDOF 1
ENDMDL
MODEL 2
REMARK VINA RESULT:      -2.9      1.474      1.934
REMARK  1 active torsions:
REMARK  status: ('A' for Active; 'I' for Inactive)
REMARK    1  A    between atoms: C3_3  and  N6_6 
ROOT
HETATM    1  C1  UNL     1     -34.589  16.870  -4.492  1.00 20.00     0.123 C 
HETATM    2  C2  UNL     1     -35.041  14.445  -3.615  1.00 20.00     0.123 C 
HETATM    3  C3  UNL     1     -35.075  15.964  -3.341  1.00 20.00     0.242 C 
HETATM    4  S7  UNL     1     -35.678  16.837  -5.955  1.00 20.00    -0.084 SA
HETATM    5  S8  UNL     1     -36.224  13.910  -4.897  1.00 20.00    -0.084 SA
HETATM    6  S9  UNL     1     -35.445  14.885  -6.517  1.00 20.00    -0.025 SA
ENDROOT
BRANCH   3   7
HETATM    7  N6  UNL     1     -34.216  16.241  -2.179  1.00 20.00     0.086 N 
HETATM    8  C4  UNL     1     -34.978  16.933  -1.144  1.00 20.00     0.310 C 
HETATM    9  C5  UNL     1     -33.058  17.030  -2.587  1.00 20.00     0.310 C 
ENDBRANCH   3   7
TORSDOF 1
ENDMDL
MODEL 3
REMARK VINA RESULT:      -2.9      2.918      4.167
REMARK  1 active torsions:
REMARK  status: ('A' for Active; 'I' for Inactive)
REMARK    1  A    between atoms: C3_3  and  N6_6 
ROOT
HETATM    1  C1  UNL     1     -33.209  16.359  -3.058  1.00 20.00     0.123 C 
HETATM    2  C2  UNL     1     -35.827  16.344  -3.064  1.00 20.00     0.123 C 
HETATM    3  C3  UNL     1     -34.514  15.570  -2.818  1.00 20.00     0.242 C 
HETATM    4  S7  UNL     1     -32.948  17.715  -1.866  1.00 20.00    -0.084 SA
HETATM    5  S8  UNL     1     -36.108  17.698  -1.875  1.00 20.00    -0.084 SA
HETATM    6  S9  UNL     1     -34.533  18.912  -2.351  1.00 20.00    -0.025 SA
ENDROOT
BRANCH   3   7
HETATM    7  N6  UNL     1     -34.490  14.407  -3.719  1.00 20.00     0.086 N 
HETATM    8  C4  UNL     1     -33.500  14.609  -4.773  1.00 20.00     0.310 C 
HETATM    9  C5  UNL     1     -35.816  14.184  -4.287  1.00 20.00     0.310 C 
ENDBRANCH   3   7
TORSDOF 1
ENDMDL
MODEL 4
REMARK VINA RESULT:      -2.9      3.138      3.979
REMARK  1 active torsions:
REMARK  status: ('A' for Active; 'I' for Inactive)
REMARK    1  A    between atoms: C3_3  and  N6_6 
ROOT
HETATM    1  C1  UNL     1     -35.375  15.329  -3.149  1.00 20.00     0.123 C 
HETATM    2  C2  UNL     1     -34.433  16.680  -5.183  1.00 20.00     0.123 C 
HETATM    3  C3  UNL     1     -35.651  16.020  -4.502  1.00 20.00     0.242 C 
HETATM    4  S7  UNL     1     -34.918  16.488  -1.818  1.00 20.00    -0.084 SA
HETATM    5  S8  UNL     1     -33.781  18.120  -4.273  1.00 20.00    -0.084 SA
HETATM    6  S9  UNL     1     -33.150  17.193  -2.563  1.00 20.00    -0.025 SA
ENDROOT
BRANCH   3   7
HETATM    7  N6  UNL     1     -36.187  14.995  -5.411  1.00 20.00     0.086 N 
HETATM    8  C4  UNL     1     -36.316  13.720  -4.712  1.00 20.00     0.310 C 
HETATM    9  C5  UNL     1     -35.326  14.862  -6.581  1.00 20.00     0.310 C 
ENDBRANCH   3   7
TORSDOF 1
ENDMDL
MODEL 5
REMARK VINA RESULT:      -2.8      1.754      2.115
REMARK  1 active torsions:
REMARK  status: ('A' for Active; 'I' for Inactive)
REMARK    1  A    between atoms: C3_3  and  N6_6 
ROOT
HETATM    1  C1  UNL     1     -36.514  16.310  -3.652  1.00 20.00     0.123 C 
HETATM    2  C2  UNL     1     -34.536  15.382  -5.094  1.00 20.00     0.123 C 
HETATM    3  C3  UNL     1     -35.338  15.318  -3.776  1.00 20.00     0.242 C 
HETATM    4  S7  UNL     1     -37.879  15.972  -4.813  1.00 20.00    -0.084 SA
HETATM    5  S8  UNL     1     -35.491  14.852  -6.555  1.00 20.00    -0.084 SA
HETATM    6  S9  UNL     1     -36.919  16.316  -6.585  1.00 20.00    -0.025 SA
ENDROOT
BRANCH   3   7
HETATM    7  N6  UNL     1     -34.417  15.595  -2.663  1.00 20.00     0.086 N 
HETATM    8  C4  UNL     1     -35.067  16.447  -1.672  1.00 20.00     0.310 C 
HETATM    9  C5  UNL     1     -33.197  16.220  -3.164  1.00 20.00     0.310 C 
ENDBRANCH   3   7
TORSDOF 1
ENDMDL
MODEL 6
REMARK VINA RESULT:      -2.8      3.030      3.960
REMARK  1 active torsions:
REMARK  status: ('A' for Active; 'I' for Inactive)
REMARK    1  A    between atoms: C3_3  and  N6_6 
ROOT
HETATM    1  C1  UNL     1     -36.086  15.915  -3.684  1.00 20.00     0.123 C 
HETATM    2  C2  UNL     1     -33.487  15.744  -3.420  1.00 20.00     0.123 C 
HETATM    3  C3  UNL     1     -34.701  15.886  -4.364  1.00 20.00     0.242 C 
HETATM    4  S7  UNL     1     -36.366  17.399  -2.662  1.00 20.00    -0.084 SA
HETATM    5  S8  UNL     1     -33.229  17.193  -2.343  1.00 20.00    -0.084 SA
HETATM    6  S9  UNL     1     -34.940  17.106  -1.227  1.00 20.00    -0.025 SA
ENDROOT
BRANCH   3   7
HETATM    7  N6  UNL     1     -34.697  14.745  -5.293  1.00 20.00     0.086 N 
HETATM    8  C4  UNL     1     -34.157  15.151  -6.586  1.00 20.00     0.310 C 
HETATM    9  C5  UNL     1     -36.047  14.211  -5.438  1.00 20.00     0.310 C 
ENDBRANCH   3   7
TORSDOF 1
ENDMDL
MODEL 7
REMARK VINA RESULT:      -2.7      3.089      3.945
REMARK  1 active torsions:
REMARK  status: ('A' for Active; 'I' for Inactive)
REMARK    1  A    between atoms: C3_3  and  N6_6 
ROOT
HETATM    1  C1  UNL     1     -36.843  16.421  -3.574  1.00 20.00     0.123 C 
HETATM    2  C2  UNL     1     -34.456  15.348  -3.648  1.00 20.00     0.123 C 
HETATM    3  C3  UNL     1     -35.641  15.959  -4.426  1.00 20.00     0.242 C 
HETATM    4  S7  UNL     1     -36.469  17.842  -2.495  1.00 20.00    -0.084 SA
HETATM    5  S8  UNL     1     -33.587  16.548  -2.583  1.00 20.00    -0.084 SA
HETATM    6  S9  UNL     1     -35.084  16.985  -1.260  1.00 20.00    -0.025 SA
ENDROOT
BRANCH   3   7
HETATM    7  N6  UNL     1     -36.142  14.949  -5.371  1.00 20.00     0.086 N 
HETATM    8  C4  UNL     1     -36.293  13.663  -4.698  1.00 20.00     0.310 C 
HETATM    9  C5  UNL     1     -35.237  14.836  -6.511  1.00 20.00     0.310 C 
ENDBRANCH   3   7
TORSDOF 1
ENDMDL
MODEL 8
REMARK VINA RESULT:      -2.7      2.220      3.024
REMARK  1 active torsions:
REMARK  status: ('A' for Active; 'I' for Inactive)
REMARK    1  A    between atoms: C3_3  and  N6_6 
ROOT
HETATM    1  C1  UNL     1     -35.641  17.168  -3.178  1.00 20.00     0.123 C 
HETATM    2  C2  UNL     1     -35.830  14.772  -4.216  1.00 20.00     0.123 C 
HETATM    3  C3  UNL     1     -35.334  15.661  -3.054  1.00 20.00     0.242 C 
HETATM    4  S7  UNL     1     -37.418  17.562  -3.078  1.00 20.00    -0.084 SA
HETATM    5  S8  UNL     1     -37.647  14.670  -4.331  1.00 20.00    -0.084 SA
HETATM    6  S9  UNL     1     -38.078  16.621  -4.768  1.00 20.00    -0.025 SA
ENDROOT
BRANCH   3   7
HETATM    7  N6  UNL     1     -33.873  15.521  -2.959  1.00 20.00     0.086 N 
HETATM    8  C4  UNL     1     -33.262  16.816  -2.677  1.00 20.00     0.310 C 
HETATM    9  C5  UNL     1     -33.341  14.952  -4.193  1.00 20.00     0.310 C 
ENDBRANCH   3   7
TORSDOF 1
ENDMDL
MODEL 9
REMARK VINA RESULT:      -2.6      2.763      4.023
REMARK  1 active torsions:
REMARK  status: ('A' for Active; 'I' for Inactive)
REMARK    1  A    between atoms: C3_3  and  N6_6 
ROOT
HETATM    1  C1  UNL     1     -34.970  15.102  -5.208  1.00 20.00     0.123 C 
HETATM    2  C2  UNL     1     -36.171  16.417  -3.290  1.00 20.00     0.123 C 
HETATM    3  C3  UNL     1     -36.200  15.237  -4.286  1.00 20.00     0.242 C 
HETATM    4  S7  UNL     1     -33.437  14.667  -4.322  1.00 20.00    -0.084 SA
HETATM    5  S8  UNL     1     -34.886  16.254  -2.005  1.00 20.00    -0.084 SA
HETATM    6  S9  UNL     1     -33.211  16.344  -3.176  1.00 20.00    -0.025 SA
ENDROOT
BRANCH   3   7
HETATM    7  N6  UNL     1     -37.378  15.396  -5.152  1.00 20.00     0.086 N 
HETATM    8  C4  UNL     1     -37.022  16.148  -6.351  1.00 20.00     0.310 C 
HETATM    9  C5  UNL     1     -38.453  16.060  -4.422  1.00 20.00     0.310 C 
ENDBRANCH   3   7
TORSDOF 1
ENDMDL
