MODEL 1
REMARK VINA RESULT:      -5.2      0.000      0.000
REMARK  0 active torsions:
REMARK  status: ('A' for Active; 'I' for Inactive)
ROOT
HETATM    1  C1  UNL     1     -36.509  14.908  -3.989  1.00 20.00    -0.017 C 
HETATM    2  C2  UNL     1     -35.529  13.793  -4.205  1.00 20.00     0.155 C 
HETATM    3  C3  UNL     1     -37.810  14.765  -4.259  1.00 20.00     0.023 C 
HETATM    4  C4  UNL     1     -34.075  14.155  -3.912  1.00 20.00     0.089 C 
HETATM    5  C5  UNL     1     -34.955  15.896  -2.286  1.00 20.00     0.016 C 
HETATM    6  C6  UNL     1     -35.954  16.196  -3.460  1.00 20.00     0.030 C 
HETATM    7  C7  UNL     1     -33.915  15.606  -3.414  1.00 20.00     0.002 C 
HETATM    8  C8  UNL     1     -34.678  16.712  -4.261  1.00 20.00    -0.036 C 
HETATM    9  C9  UNL     1     -34.269  18.163  -3.943  1.00 20.00     0.016 C 
HETATM   10  C10 UNL     1     -34.675  16.551  -5.786  1.00 20.00     0.016 C 
HETATM   11  O11 UNL     1     -35.861  12.678  -4.592  1.00 20.00    -0.293 OA
ENDROOT
TORSDOF 0
ENDMDL
MODEL 2
REMARK VINA RESULT:      -4.7      1.293      2.363
REMARK  0 active torsions:
REMARK  status: ('A' for Active; 'I' for Inactive)
ROOT
HETATM    1  C1  UNL     1     -35.006  15.933  -5.840  1.00 20.00    -0.017 C 
HETATM    2  C2  UNL     1     -35.632  14.595  -5.574  1.00 20.00     0.155 C 
HETATM    3  C3  UNL     1     -34.804  16.382  -7.082  1.00 20.00     0.023 C 
HETATM    4  C4  UNL     1     -35.720  14.214  -4.099  1.00 20.00     0.089 C 
HETATM    5  C5  UNL     1     -35.767  16.698  -3.575  1.00 20.00     0.016 C 
HETATM    6  C6  UNL     1     -34.612  16.739  -4.639  1.00 20.00     0.030 C 
HETATM    7  C7  UNL     1     -35.170  15.314  -3.168  1.00 20.00     0.002 C 
HETATM    8  C8  UNL     1     -33.758  15.916  -3.576  1.00 20.00    -0.036 C 
HETATM    9  C9  UNL     1     -33.089  16.781  -2.490  1.00 20.00     0.016 C 
HETATM   10  C10 UNL     1     -32.705  14.936  -4.106  1.00 20.00     0.016 C 
HETATM   11  O11 UNL     1     -36.036  13.859  -6.467  1.00 20.00    -0.293 OA
ENDROOT
TORSDOF 0
ENDMDL
MODEL 3
REMARK VINA RESULT:      -4.6      1.497      2.625
REMARK  0 active torsions:
REMARK  status: ('A' for Active; 'I' for Inactive)
ROOT
HETATM    1  C1  UNL     1     -34.698  16.488  -5.295  1.00 20.00    -0.017 C 
HETATM    2  C2  UNL     1     -34.175  15.088  -5.425  1.00 20.00     0.155 C 
HETATM    3  C3  UNL     1     -34.566  17.384  -6.278  1.00 20.00     0.023 C 
HETATM    4  C4  UNL     1     -34.349  14.223  -4.179  1.00 20.00     0.089 C 
HETATM    5  C5  UNL     1     -36.347  15.674  -3.589  1.00 20.00     0.016 C 
HETATM    6  C6  UNL     1     -35.372  16.834  -4.001  1.00 20.00     0.030 C 
HETATM    7  C7  UNL     1     -35.069  14.968  -3.036  1.00 20.00     0.002 C 
HETATM    8  C8  UNL     1     -34.525  16.425  -2.716  1.00 20.00    -0.036 C 
HETATM    9  C9  UNL     1     -35.040  17.029  -1.395  1.00 20.00     0.016 C 
HETATM   10  C10 UNL     1     -33.007  16.633  -2.762  1.00 20.00     0.016 C 
HETATM   11  O11 UNL     1     -33.643  14.667  -6.446  1.00 20.00    -0.293 OA
ENDROOT
TORSDOF 0
ENDMDL
MODEL 4
REMARK VINA RESULT:      -4.6      0.914      2.681
REMARK  0 active torsions:
REMARK  status: ('A' for Active; 'I' for Inactive)
ROOT
HETATM    1  C1  UNL     1     -34.064  14.833  -4.294  1.00 20.00    -0.017 C 
HETATM    2  C2  UNL     1     -35.229  13.907  -4.100  1.00 20.00     0.155 C 
HETATM    3  C3  UNL     1     -32.811  14.379  -4.384  1.00 20.00     0.023 C 
HETATM    4  C4  UNL     1     -36.579  14.603  -3.947  1.00 20.00     0.089 C 
HETATM    5  C5  UNL     1     -35.620  16.517  -5.312  1.00 20.00     0.016 C 
HETATM    6  C6  UNL     1     -34.378  16.297  -4.376  1.00 20.00     0.030 C 
HETATM    7  C7  UNL     1     -36.471  16.138  -4.059  1.00 20.00     0.002 C 
HETATM    8  C8  UNL     1     -35.318  16.810  -3.198  1.00 20.00    -0.036 C 
HETATM    9  C9  UNL     1     -35.413  18.344  -3.080  1.00 20.00     0.016 C 
HETATM   10  C10 UNL     1     -35.076  16.250  -1.791  1.00 20.00     0.016 C 
HETATM   11  O11 UNL     1     -35.111  12.688  -4.060  1.00 20.00    -0.293 OA
ENDROOT
TORSDOF 0
ENDMDL
MODEL 5
REMARK VINA RESULT:      -4.5      1.494      1.945
REMARK  0 active torsions:
REMARK  status: ('A' for Active; 'I' for Inactive)
ROOT
HETATM    1  C1  UNL     1     -36.242  14.670  -4.699  1.00 20.00    -0.017 C 
HETATM    2  C2  UNL     1     -35.701  14.700  -6.099  1.00 20.00     0.155 C 
HETATM    3  C3  UNL     1     -37.542  14.491  -4.450  1.00 20.00     0.023 C 
HETATM    4  C4  UNL     1     -34.205  14.985  -6.200  1.00 20.00     0.089 C 
HETATM    5  C5  UNL     1     -33.973  13.985  -3.877  1.00 20.00     0.016 C 
HETATM    6  C6  UNL     1     -35.248  14.857  -3.593  1.00 20.00     0.030 C 
HETATM    7  C7  UNL     1     -33.540  15.153  -4.819  1.00 20.00     0.002 C 
HETATM    8  C8  UNL     1     -34.294  16.115  -3.805  1.00 20.00    -0.036 C 
HETATM    9  C9  UNL     1     -33.474  16.509  -2.561  1.00 20.00     0.016 C 
HETATM   10  C10 UNL     1     -34.911  17.395  -4.381  1.00 20.00     0.016 C 
HETATM   11  O11 UNL     1     -36.402  14.516  -7.088  1.00 20.00    -0.293 OA
ENDROOT
TORSDOF 0
ENDMDL
MODEL 6
REMARK VINA RESULT:      -4.5      1.927      3.356
REMARK  0 active torsions:
REMARK  status: ('A' for Active; 'I' for Inactive)
ROOT
HETATM    1  C1  UNL     1     -33.709  16.252  -2.932  1.00 20.00    -0.017 C 
HETATM    2  C2  UNL     1     -35.111  16.086  -2.423  1.00 20.00     0.155 C 
HETATM    3  C3  UNL     1     -32.833  17.064  -2.332  1.00 20.00     0.023 C 
HETATM    4  C4  UNL     1     -35.995  15.176  -3.272  1.00 20.00     0.089 C 
HETATM    5  C5  UNL     1     -33.873  13.994  -4.011  1.00 20.00     0.016 C 
HETATM    6  C6  UNL     1     -33.342  15.465  -4.154  1.00 20.00     0.030 C 
HETATM    7  C7  UNL     1     -35.243  14.578  -4.479  1.00 20.00     0.002 C 
HETATM    8  C8  UNL     1     -34.395  15.609  -5.339  1.00 20.00    -0.036 C 
HETATM    9  C9  UNL     1     -33.906  15.065  -6.696  1.00 20.00     0.016 C 
HETATM   10  C10 UNL     1     -35.013  16.990  -5.587  1.00 20.00     0.016 C 
HETATM   11  O11 UNL     1     -35.522  16.640  -1.409  1.00 20.00    -0.293 OA
ENDROOT
TORSDOF 0
ENDMDL
MODEL 7
REMARK VINA RESULT:      -4.4      1.517      2.430
REMARK  0 active torsions:
REMARK  status: ('A' for Active; 'I' for Inactive)
ROOT
HETATM    1  C1  UNL     1     -35.350  14.702  -4.416  1.00 20.00    -0.017 C 
HETATM    2  C2  UNL     1     -35.247  15.618  -5.600  1.00 20.00     0.155 C 
HETATM    3  C3  UNL     1     -36.018  13.546  -4.476  1.00 20.00     0.023 C 
HETATM    4  C4  UNL     1     -34.508  16.927  -5.332  1.00 20.00     0.089 C 
HETATM    5  C5  UNL     1     -33.240  15.705  -3.503  1.00 20.00     0.016 C 
HETATM    6  C6  UNL     1     -34.669  15.152  -3.159  1.00 20.00     0.030 C 
HETATM    7  C7  UNL     1     -33.982  17.025  -3.886  1.00 20.00     0.002 C 
HETATM    8  C8  UNL     1     -35.024  16.649  -2.748  1.00 20.00    -0.036 C 
HETATM    9  C9  UNL     1     -34.589  17.039  -1.322  1.00 20.00     0.016 C 
HETATM   10  C10 UNL     1     -36.470  17.122  -2.939  1.00 20.00     0.016 C 
HETATM   11  O11 UNL     1     -35.722  15.346  -6.697  1.00 20.00    -0.293 OA
ENDROOT
TORSDOF 0
ENDMDL
MODEL 8
REMARK VINA RESULT:      -4.4      2.046      3.127
REMARK  0 active torsions:
REMARK  status: ('A' for Active; 'I' for Inactive)
ROOT
HETATM    1  C1  UNL     1     -35.731  17.087  -4.331  1.00 20.00    -0.017 C 
HETATM    2  C2  UNL     1     -36.212  17.049  -2.910  1.00 20.00     0.155 C 
HETATM    3  C3  UNL     1     -36.495  17.559  -5.320  1.00 20.00     0.023 C 
HETATM    4  C4  UNL     1     -35.237  16.412  -1.923  1.00 20.00     0.089 C 
HETATM    5  C5  UNL     1     -33.368  17.112  -3.491  1.00 20.00     0.016 C 
HETATM    6  C6  UNL     1     -34.351  16.561  -4.585  1.00 20.00     0.030 C 
HETATM    7  C7  UNL     1     -33.924  15.962  -2.594  1.00 20.00     0.002 C 
HETATM    8  C8  UNL     1     -34.088  15.131  -3.937  1.00 20.00    -0.036 C 
HETATM    9  C9  UNL     1     -32.802  14.436  -4.426  1.00 20.00     0.016 C 
HETATM   10  C10 UNL     1     -35.223  14.100  -3.989  1.00 20.00     0.016 C 
HETATM   11  O11 UNL     1     -37.303  17.488  -2.563  1.00 20.00    -0.293 OA
ENDROOT
TORSDOF 0
ENDMDL
MODEL 9
REMARK VINA RESULT:      -4.3      2.448      4.023
REMARK  0 active torsions:
REMARK  status: ('A' for Active; 'I' for Inactive)
ROOT
HETATM    1  C1  UNL     1     -33.539  17.151  -2.704  1.00 20.00    -0.017 C 
HETATM    2  C2  UNL     1     -33.442  17.928  -3.984  1.00 20.00     0.155 C 
HETATM    3  C3  UNL     1     -32.815  17.472  -1.628  1.00 20.00     0.023 C 
HETATM    4  C4  UNL     1     -34.286  17.379  -5.130  1.00 20.00     0.089 C 
HETATM    5  C5  UNL     1     -35.841  16.412  -3.371  1.00 20.00     0.016 C 
HETATM    6  C6  UNL     1     -34.488  15.991  -2.695  1.00 20.00     0.030 C 
HETATM    7  C7  UNL     1     -35.105  16.138  -4.721  1.00 20.00     0.002 C 
HETATM    8  C8  UNL     1     -34.303  15.013  -3.938  1.00 20.00    -0.036 C 
HETATM    9  C9  UNL     1     -35.044  13.667  -3.806  1.00 20.00     0.016 C 
HETATM   10  C10 UNL     1     -32.875  14.713  -4.410  1.00 20.00     0.016 C 
HETATM   11  O11 UNL     1     -32.736  18.923  -4.107  1.00 20.00    -0.293 OA
ENDROOT
TORSDOF 0
ENDMDL
