MODEL 1
REMARK VINA RESULT:      -4.7      0.000      0.000
REMARK  1 active torsions:
REMARK  status: ('A' for Active; 'I' for Inactive)
REMARK    1  A    between atoms: C4_4  and  C6_6 
REMARK       I    between atoms: C4_4  and  N8_8 
ROOT
HETATM    1  C1  UNL     1     -34.972   5.368   5.888  1.00 20.00     0.135 A 
HETATM    2  C2  UNL     1     -34.659   4.991   4.604  1.00 20.00     0.120 A 
HETATM    3  C3  UNL     1     -33.653   6.862   5.162  1.00 20.00     0.216 A 
HETATM    4  C4  UNL     1     -33.190   6.048   2.876  1.00 20.00     0.228 C 
HETATM    5  N7  UNL     1     -34.344   6.532   6.229  1.00 20.00    -0.254 NA
HETATM    6  N8  UNL     1     -33.801   5.959   4.130  1.00 20.00    -0.286 N 
HETATM    7  O9  UNL     1     -33.403   5.178   2.045  1.00 20.00    -0.273 OA
ENDROOT
BRANCH   4   8
HETATM    8  C6  UNL     1     -32.303   7.238   2.670  1.00 20.00     0.099 C 
HETATM    9  C5  UNL     1     -32.593   7.883   1.333  1.00 20.00     0.014 C 
ENDBRANCH   4   8
TORSDOF 1
ENDMDL
MODEL 2
REMARK VINA RESULT:      -4.2      1.584      1.846
REMARK  1 active torsions:
REMARK  status: ('A' for Active; 'I' for Inactive)
REMARK    1  A    between atoms: C4_4  and  C6_6 
REMARK       I    between atoms: C4_4  and  N8_8 
ROOT
HETATM    1  C1  UNL     1     -34.765   5.731   5.960  1.00 20.00     0.135 A 
HETATM    2  C2  UNL     1     -33.725   6.583   5.674  1.00 20.00     0.120 A 
HETATM    3  C3  UNL     1     -34.463   5.579   3.865  1.00 20.00     0.216 A 
HETATM    4  C4  UNL     1     -32.587   7.147   3.518  1.00 20.00     0.228 C 
HETATM    5  N7  UNL     1     -35.220   5.110   4.831  1.00 20.00    -0.254 NA
HETATM    6  N8  UNL     1     -33.527   6.486   4.314  1.00 20.00    -0.286 N 
HETATM    7  O9  UNL     1     -31.809   7.933   4.040  1.00 20.00    -0.273 OA
ENDROOT
BRANCH   4   8
HETATM    8  C6  UNL     1     -32.629   6.820   2.057  1.00 20.00     0.099 C 
HETATM    9  C5  UNL     1     -32.622   8.089   1.235  1.00 20.00     0.014 C 
ENDBRANCH   4   8
TORSDOF 1
ENDMDL
MODEL 3
REMARK VINA RESULT:      -4.2     16.312     16.905
REMARK  1 active torsions:
REMARK  status: ('A' for Active; 'I' for Inactive)
REMARK    1  A    between atoms: C4_4  and  C6_6 
REMARK       I    between atoms: C4_4  and  N8_8 
ROOT
HETATM    1  C1  UNL     1     -24.703  19.237   7.118  1.00 20.00     0.135 A 
HETATM    2  C2  UNL     1     -25.191  19.178   8.401  1.00 20.00     0.120 A 
HETATM    3  C3  UNL     1     -23.256  18.152   8.228  1.00 20.00     0.216 A 
HETATM    4  C4  UNL     1     -24.269  18.134  10.480  1.00 20.00     0.228 C 
HETATM    5  N7  UNL     1     -23.499  18.598   7.017  1.00 20.00    -0.254 NA
HETATM    6  N8  UNL     1     -24.253  18.474   9.125  1.00 20.00    -0.286 N 
HETATM    7  O9  UNL     1     -25.215  18.482  11.173  1.00 20.00    -0.273 OA
ENDROOT
BRANCH   4   8
HETATM    8  C6  UNL     1     -23.086  17.355  10.968  1.00 20.00     0.099 C 
HETATM    9  C5  UNL     1     -22.658  17.849  12.332  1.00 20.00     0.014 C 
ENDBRANCH   4   8
TORSDOF 1
ENDMDL
MODEL 4
REMARK VINA RESULT:      -4.0     15.739     16.485
REMARK  1 active torsions:
REMARK  status: ('A' for Active; 'I' for Inactive)
REMARK    1  A    between atoms: C4_4  and  C6_6 
REMARK       I    between atoms: C4_4  and  N8_8 
ROOT
HETATM    1  C1  UNL     1     -22.111  17.844  10.185  1.00 20.00     0.135 A 
HETATM    2  C2  UNL     1     -22.296  18.147   8.857  1.00 20.00     0.120 A 
HETATM    3  C3  UNL     1     -24.162  18.353   9.998  1.00 20.00     0.216 A 
HETATM    4  C4  UNL     1     -24.330  18.866   7.587  1.00 20.00     0.228 C 
HETATM    5  N7  UNL     1     -23.275  17.974  10.888  1.00 20.00    -0.254 NA
HETATM    6  N8  UNL     1     -23.628  18.479   8.733  1.00 20.00    -0.286 N 
HETATM    7  O9  UNL     1     -23.737  18.942   6.521  1.00 20.00    -0.273 OA
ENDROOT
BRANCH   4   8
HETATM    8  C6  UNL     1     -25.784  19.162   7.787  1.00 20.00     0.099 C 
HETATM    9  C5  UNL     1     -26.579  18.730   6.575  1.00 20.00     0.014 C 
ENDBRANCH   4   8
TORSDOF 1
ENDMDL
MODEL 5
REMARK VINA RESULT:      -4.0     16.537     16.923
REMARK  1 active torsions:
REMARK  status: ('A' for Active; 'I' for Inactive)
REMARK    1  A    between atoms: C4_4  and  C6_6 
REMARK       I    between atoms: C4_4  and  N8_8 
ROOT
HETATM    1  C1  UNL     1     -22.001  17.468   7.964  1.00 20.00     0.135 A 
HETATM    2  C2  UNL     1     -22.268  17.245   9.293  1.00 20.00     0.120 A 
HETATM    3  C3  UNL     1     -23.829  18.472   8.354  1.00 20.00     0.216 A 
HETATM    4  C4  UNL     1     -24.164  17.981  10.751  1.00 20.00     0.228 C 
HETATM    5  N7  UNL     1     -22.975  18.231   7.385  1.00 20.00    -0.254 NA
HETATM    6  N8  UNL     1     -23.455  17.895   9.550  1.00 20.00    -0.286 N 
HETATM    7  O9  UNL     1     -23.724  17.420  11.745  1.00 20.00    -0.273 OA
ENDROOT
BRANCH   4   8
HETATM    8  C6  UNL     1     -25.435  18.772  10.700  1.00 20.00     0.099 C 
HETATM    9  C5  UNL     1     -26.087  18.806  12.064  1.00 20.00     0.014 C 
ENDBRANCH   4   8
TORSDOF 1
ENDMDL
MODEL 6
REMARK VINA RESULT:      -3.8     11.946     12.435
REMARK  1 active torsions:
REMARK  status: ('A' for Active; 'I' for Inactive)
REMARK    1  A    between atoms: C4_4  and  C6_6 
REMARK       I    between atoms: C4_4  and  N8_8 
ROOT
HETATM    1  C1  UNL     1     -36.105  14.072  -5.320  1.00 20.00     0.135 A 
HETATM    2  C2  UNL     1     -36.123  14.577  -4.042  1.00 20.00     0.120 A 
HETATM    3  C3  UNL     1     -34.245  15.061  -5.072  1.00 20.00     0.216 A 
HETATM    4  C4  UNL     1     -34.433  15.901  -2.757  1.00 20.00     0.228 C 
HETATM    5  N7  UNL     1     -34.935  14.377  -5.955  1.00 20.00    -0.254 NA
HETATM    6  N8  UNL     1     -34.916  15.220  -3.878  1.00 20.00    -0.286 N 
HETATM    7  O9  UNL     1     -35.130  15.973  -1.755  1.00 20.00    -0.273 OA
ENDROOT
BRANCH   4   8
HETATM    8  C6  UNL     1     -33.066  16.498  -2.900  1.00 20.00     0.099 C 
HETATM    9  C5  UNL     1     -32.863  17.595  -1.878  1.00 20.00     0.014 C 
ENDBRANCH   4   8
TORSDOF 1
ENDMDL
MODEL 7
REMARK VINA RESULT:      -3.8     14.671     15.462
REMARK  1 active torsions:
REMARK  status: ('A' for Active; 'I' for Inactive)
REMARK    1  A    between atoms: C4_4  and  C6_6 
REMARK       I    between atoms: C4_4  and  N8_8 
ROOT
HETATM    1  C1  UNL     1     -27.192  19.082   3.345  1.00 20.00     0.135 A 
HETATM    2  C2  UNL     1     -25.926  19.007   3.876  1.00 20.00     0.120 A 
HETATM    3  C3  UNL     1     -27.443  19.261   5.445  1.00 20.00     0.216 A 
HETATM    4  C4  UNL     1     -25.109  19.109   6.238  1.00 20.00     0.228 C 
HETATM    5  N7  UNL     1     -28.130  19.239   4.326  1.00 20.00    -0.254 NA
HETATM    6  N8  UNL     1     -26.086  19.122   5.239  1.00 20.00    -0.286 N 
HETATM    7  O9  UNL     1     -23.934  18.977   5.924  1.00 20.00    -0.273 OA
ENDROOT
BRANCH   4   8
HETATM    8  C6  UNL     1     -25.613  19.259   7.641  1.00 20.00     0.099 C 
HETATM    9  C5  UNL     1     -24.563  18.799   8.628  1.00 20.00     0.014 C 
ENDBRANCH   4   8
TORSDOF 1
ENDMDL
MODEL 8
REMARK VINA RESULT:      -3.7     12.187     12.728
REMARK  1 active torsions:
REMARK  status: ('A' for Active; 'I' for Inactive)
REMARK    1  A    between atoms: C4_4  and  C6_6 
REMARK       I    between atoms: C4_4  and  N8_8 
ROOT
HETATM    1  C1  UNL     1     -38.820  15.164  -4.367  1.00 20.00     0.135 A 
HETATM    2  C2  UNL     1     -38.022  16.204  -3.955  1.00 20.00     0.120 A 
HETATM    3  C3  UNL     1     -36.887  14.329  -4.101  1.00 20.00     0.216 A 
HETATM    4  C4  UNL     1     -35.591  16.301  -3.371  1.00 20.00     0.228 C 
HETATM    5  N7  UNL     1     -38.108  14.001  -4.456  1.00 20.00    -0.254 NA
HETATM    6  N8  UNL     1     -36.766  15.666  -3.782  1.00 20.00    -0.286 N 
HETATM    7  O9  UNL     1     -35.616  17.497  -3.118  1.00 20.00    -0.273 OA
ENDROOT
BRANCH   4   8
HETATM    8  C6  UNL     1     -34.378  15.427  -3.282  1.00 20.00     0.099 C 
HETATM    9  C5  UNL     1     -33.139  16.268  -3.070  1.00 20.00     0.014 C 
ENDBRANCH   4   8
TORSDOF 1
ENDMDL
MODEL 9
REMARK VINA RESULT:      -3.7     11.453     11.994
REMARK  1 active torsions:
REMARK  status: ('A' for Active; 'I' for Inactive)
REMARK    1  A    between atoms: C4_4  and  C6_6 
REMARK       I    between atoms: C4_4  and  N8_8 
ROOT
HETATM    1  C1  UNL     1     -33.403  17.270  -1.974  1.00 20.00     0.135 A 
HETATM    2  C2  UNL     1     -33.013  16.450  -3.007  1.00 20.00     0.120 A 
HETATM    3  C3  UNL     1     -34.999  15.899  -2.247  1.00 20.00     0.216 A 
HETATM    4  C4  UNL     1     -34.154  14.516  -4.110  1.00 20.00     0.228 C 
HETATM    5  N7  UNL     1     -34.638  16.922  -1.507  1.00 20.00    -0.254 NA
HETATM    6  N8  UNL     1     -34.048  15.559  -3.186  1.00 20.00    -0.286 N 
HETATM    7  O9  UNL     1     -33.237  14.318  -4.895  1.00 20.00    -0.273 OA
ENDROOT
BRANCH   4   8
HETATM    8  C6  UNL     1     -35.422  13.720  -4.049  1.00 20.00     0.099 C 
HETATM    9  C5  UNL     1     -36.295  14.030  -5.244  1.00 20.00     0.014 C 
ENDBRANCH   4   8
TORSDOF 1
ENDMDL
