MODEL 1
REMARK VINA RESULT:      -4.4      0.000      0.000
REMARK  0 active torsions:
REMARK  status: ('A' for Active; 'I' for Inactive)
ROOT
HETATM    1  C1  UNL     1     -33.406  16.235  -2.675  1.00 20.00    -0.024 C 
HETATM    2  C2  UNL     1     -34.705  16.181  -2.324  1.00 20.00    -0.083 C 
HETATM    3  C3  UNL     1     -32.929  15.629  -3.979  1.00 20.00     0.033 C 
HETATM    4  C4  UNL     1     -34.947  14.103  -3.732  1.00 20.00     0.015 C 
HETATM    5  C5  UNL     1     -35.612  15.457  -3.287  1.00 20.00     0.022 C 
HETATM    6  C6  UNL     1     -34.130  15.000  -4.718  1.00 20.00    -0.002 C 
HETATM    7  C7  UNL     1     -35.433  15.908  -4.805  1.00 20.00    -0.036 C 
HETATM    8  C8  UNL     1     -35.283  16.762  -1.079  1.00 20.00     0.043 C 
HETATM    9  C9  UNL     1     -35.234  17.402  -5.096  1.00 20.00     0.016 C 
HETATM   10  C10 UNL     1     -36.526  15.394  -5.765  1.00 20.00     0.016 C 
ENDROOT
TORSDOF 0
ENDMDL
MODEL 2
REMARK VINA RESULT:      -4.3      1.008      3.269
REMARK  0 active torsions:
REMARK  status: ('A' for Active; 'I' for Inactive)
ROOT
HETATM    1  C1  UNL     1     -36.670  14.447  -4.661  1.00 20.00    -0.024 C 
HETATM    2  C2  UNL     1     -36.399  15.722  -4.999  1.00 20.00    -0.083 C 
HETATM    3  C3  UNL     1     -35.580  13.535  -4.136  1.00 20.00     0.033 C 
HETATM    4  C4  UNL     1     -34.014  15.040  -5.456  1.00 20.00     0.015 C 
HETATM    5  C5  UNL     1     -34.959  16.144  -4.852  1.00 20.00     0.022 C 
HETATM    6  C6  UNL     1     -34.245  14.308  -4.093  1.00 20.00    -0.002 C 
HETATM    7  C7  UNL     1     -34.314  15.760  -3.446  1.00 20.00    -0.036 C 
HETATM    8  C8  UNL     1     -37.396  16.707  -5.504  1.00 20.00     0.043 C 
HETATM    9  C9  UNL     1     -35.174  15.931  -2.187  1.00 20.00     0.016 C 
HETATM   10  C10 UNL     1     -32.947  16.415  -3.161  1.00 20.00     0.016 C 
ENDROOT
TORSDOF 0
ENDMDL
MODEL 3
REMARK VINA RESULT:      -4.2     16.304     18.081
REMARK  0 active torsions:
REMARK  status: ('A' for Active; 'I' for Inactive)
ROOT
HETATM    1  C1  UNL     1     -23.029  17.229  11.948  1.00 20.00    -0.024 C 
HETATM    2  C2  UNL     1     -23.959  16.520  11.279  1.00 20.00    -0.083 C 
HETATM    3  C3  UNL     1     -22.172  18.254  11.234  1.00 20.00     0.033 C 
HETATM    4  C4  UNL     1     -22.606  16.829   9.173  1.00 20.00     0.015 C 
HETATM    5  C5  UNL     1     -24.049  16.795   9.799  1.00 20.00     0.022 C 
HETATM    6  C6  UNL     1     -22.557  18.287   9.739  1.00 20.00    -0.002 C 
HETATM    7  C7  UNL     1     -24.117  18.345   9.433  1.00 20.00    -0.036 C 
HETATM    8  C8  UNL     1     -24.866  15.506  11.886  1.00 20.00     0.043 C 
HETATM    9  C9  UNL     1     -24.976  19.259  10.319  1.00 20.00     0.016 C 
HETATM   10  C10 UNL     1     -24.486  18.647   7.967  1.00 20.00     0.016 C 
ENDROOT
TORSDOF 0
ENDMDL
MODEL 4
REMARK VINA RESULT:      -4.2      1.238      3.465
REMARK  0 active torsions:
REMARK  status: ('A' for Active; 'I' for Inactive)
ROOT
HETATM    1  C1  UNL     1     -35.791  14.578  -5.985  1.00 20.00    -0.024 C 
HETATM    2  C2  UNL     1     -34.909  15.594  -6.049  1.00 20.00    -0.083 C 
HETATM    3  C3  UNL     1     -35.938  13.757  -4.720  1.00 20.00     0.033 C 
HETATM    4  C4  UNL     1     -33.529  14.441  -4.280  1.00 20.00     0.015 C 
HETATM    5  C5  UNL     1     -34.079  15.817  -4.810  1.00 20.00     0.022 C 
HETATM    6  C6  UNL     1     -34.954  14.284  -3.653  1.00 20.00    -0.002 C 
HETATM    7  C7  UNL     1     -34.930  15.863  -3.462  1.00 20.00    -0.036 C 
HETATM    8  C8  UNL     1     -34.699  16.475  -7.232  1.00 20.00     0.043 C 
HETATM    9  C9  UNL     1     -36.277  16.597  -3.484  1.00 20.00     0.016 C 
HETATM   10  C10 UNL     1     -34.155  16.361  -2.226  1.00 20.00     0.016 C 
ENDROOT
TORSDOF 0
ENDMDL
MODEL 5
REMARK VINA RESULT:      -4.2      1.193      2.750
REMARK  0 active torsions:
REMARK  status: ('A' for Active; 'I' for Inactive)
ROOT
HETATM    1  C1  UNL     1     -33.458  17.626  -3.508  1.00 20.00    -0.024 C 
HETATM    2  C2  UNL     1     -34.228  17.451  -4.599  1.00 20.00    -0.083 C 
HETATM    3  C3  UNL     1     -33.595  16.712  -2.307  1.00 20.00     0.033 C 
HETATM    4  C4  UNL     1     -35.977  16.381  -3.131  1.00 20.00     0.015 C 
HETATM    5  C5  UNL     1     -35.233  16.330  -4.516  1.00 20.00     0.022 C 
HETATM    6  C6  UNL     1     -34.697  15.667  -2.585  1.00 20.00    -0.002 C 
HETATM    7  C7  UNL     1     -34.620  14.950  -4.003  1.00 20.00    -0.036 C 
HETATM    8  C8  UNL     1     -34.161  18.276  -5.838  1.00 20.00     0.043 C 
HETATM    9  C9  UNL     1     -33.231  14.544  -4.513  1.00 20.00     0.016 C 
HETATM   10  C10 UNL     1     -35.547  13.730  -4.170  1.00 20.00     0.016 C 
ENDROOT
TORSDOF 0
ENDMDL
MODEL 6
REMARK VINA RESULT:      -4.1      1.101      2.263
REMARK  0 active torsions:
REMARK  status: ('A' for Active; 'I' for Inactive)
ROOT
HETATM    1  C1  UNL     1     -35.309  18.146  -2.582  1.00 20.00    -0.024 C 
HETATM    2  C2  UNL     1     -35.125  17.147  -1.697  1.00 20.00    -0.083 C 
HETATM    3  C3  UNL     1     -34.883  17.990  -4.027  1.00 20.00     0.033 C 
HETATM    4  C4  UNL     1     -33.200  16.323  -3.104  1.00 20.00     0.015 C 
HETATM    5  C5  UNL     1     -34.448  15.913  -2.237  1.00 20.00     0.022 C 
HETATM    6  C6  UNL     1     -34.256  16.593  -4.226  1.00 20.00    -0.002 C 
HETATM    7  C7  UNL     1     -35.073  15.379  -3.603  1.00 20.00    -0.036 C 
HETATM    8  C8  UNL     1     -35.523  17.187  -0.262  1.00 20.00     0.043 C 
HETATM    9  C9  UNL     1     -36.600  15.404  -3.756  1.00 20.00     0.016 C 
HETATM   10  C10 UNL     1     -34.591  13.977  -4.030  1.00 20.00     0.016 C 
ENDROOT
TORSDOF 0
ENDMDL
MODEL 7
REMARK VINA RESULT:      -4.1      1.574      3.400
REMARK  0 active torsions:
REMARK  status: ('A' for Active; 'I' for Inactive)
ROOT
HETATM    1  C1  UNL     1     -35.148  15.902  -2.152  1.00 20.00    -0.024 C 
HETATM    2  C2  UNL     1     -34.269  15.635  -3.137  1.00 20.00    -0.083 C 
HETATM    3  C3  UNL     1     -35.127  17.236  -1.435  1.00 20.00     0.033 C 
HETATM    4  C4  UNL     1     -32.671  17.281  -2.089  1.00 20.00     0.015 C 
HETATM    5  C5  UNL     1     -33.269  16.725  -3.434  1.00 20.00     0.022 C 
HETATM    6  C6  UNL     1     -33.995  18.110  -2.016  1.00 20.00    -0.002 C 
HETATM    7  C7  UNL     1     -33.921  18.170  -3.604  1.00 20.00    -0.036 C 
HETATM    8  C8  UNL     1     -34.215  14.368  -3.920  1.00 20.00     0.043 C 
HETATM    9  C9  UNL     1     -35.248  18.277  -4.368  1.00 20.00     0.016 C 
HETATM   10  C10 UNL     1     -32.972  19.243  -4.175  1.00 20.00     0.016 C 
ENDROOT
TORSDOF 0
ENDMDL
MODEL 8
REMARK VINA RESULT:      -4.0      1.157      1.643
REMARK  0 active torsions:
REMARK  status: ('A' for Active; 'I' for Inactive)
ROOT
HETATM    1  C1  UNL     1     -34.421  17.724  -3.440  1.00 20.00    -0.024 C 
HETATM    2  C2  UNL     1     -34.632  16.817  -2.467  1.00 20.00    -0.083 C 
HETATM    3  C3  UNL     1     -34.326  17.296  -4.890  1.00 20.00     0.033 C 
HETATM    4  C4  UNL     1     -33.567  15.066  -3.936  1.00 20.00     0.015 C 
HETATM    5  C5  UNL     1     -34.726  15.382  -2.920  1.00 20.00     0.022 C 
HETATM    6  C6  UNL     1     -34.496  15.764  -4.983  1.00 20.00    -0.002 C 
HETATM    7  C7  UNL     1     -35.710  15.158  -4.154  1.00 20.00    -0.036 C 
HETATM    8  C8  UNL     1     -34.763  17.130  -1.016  1.00 20.00     0.043 C 
HETATM    9  C9  UNL     1     -37.034  15.934  -4.172  1.00 20.00     0.016 C 
HETATM   10  C10 UNL     1     -36.039  13.682  -4.459  1.00 20.00     0.016 C 
ENDROOT
TORSDOF 0
ENDMDL
MODEL 9
REMARK VINA RESULT:      -4.0      1.157      2.499
REMARK  0 active torsions:
REMARK  status: ('A' for Active; 'I' for Inactive)
ROOT
HETATM    1  C1  UNL     1     -34.461  16.156  -2.221  1.00 20.00    -0.024 C 
HETATM    2  C2  UNL     1     -33.727  16.956  -3.018  1.00 20.00    -0.083 C 
HETATM    3  C3  UNL     1     -35.459  15.180  -2.809  1.00 20.00     0.033 C 
HETATM    4  C4  UNL     1     -35.549  16.813  -4.755  1.00 20.00     0.015 C 
HETATM    5  C5  UNL     1     -33.998  16.831  -4.496  1.00 20.00     0.022 C 
HETATM    6  C6  UNL     1     -35.449  15.306  -4.348  1.00 20.00    -0.002 C 
HETATM    7  C7  UNL     1     -34.010  15.328  -5.025  1.00 20.00    -0.036 C 
HETATM    8  C8  UNL     1     -32.705  17.934  -2.547  1.00 20.00     0.043 C 
HETATM    9  C9  UNL     1     -32.956  14.359  -4.472  1.00 20.00     0.016 C 
HETATM   10  C10 UNL     1     -34.007  15.183  -6.560  1.00 20.00     0.016 C 
ENDROOT
TORSDOF 0
ENDMDL
