MODEL 1
REMARK VINA RESULT:      -4.4      0.000      0.000
REMARK  2 active torsions:
REMARK  status: ('A' for Active; 'I' for Inactive)
REMARK    1  A    between atoms: C3_3  and  C10_10 
REMARK    2  A    between atoms: C5_5  and  C10_10 
ROOT
HETATM    1  C1  UNL     1     -33.001  15.817  -3.418  1.00 20.00    -0.023 C 
HETATM    2  C2  UNL     1     -33.627  16.840  -2.817  1.00 20.00    -0.079 C 
HETATM    3  C4  UNL     1     -33.759  15.315  -4.601  1.00 20.00     0.033 C 
HETATM    4  C5  UNL     1     -35.166  15.905  -4.382  1.00 20.00     0.007 C 
HETATM    5  C6  UNL     1     -34.923  17.192  -3.524  1.00 20.00    -0.021 C 
HETATM    6  C7  UNL     1     -33.114  17.597  -1.642  1.00 20.00     0.044 C 
HETATM    7  C8  UNL     1     -34.694  18.404  -4.450  1.00 20.00     0.020 C 
HETATM    8  C9  UNL     1     -36.068  17.520  -2.557  1.00 20.00     0.020 C 
ENDROOT
BRANCH   4   9
HETATM    9  C10 UNL     1     -36.072  14.852  -3.728  1.00 20.00     0.075 C 
BRANCH   9  10
HETATM   10  C3  UNL     1     -36.309  13.662  -4.620  1.00 20.00     0.231 C 
HETATM   11  O11 UNL     1     -35.800  12.558  -4.468  1.00 20.00    -0.307 OA
ENDBRANCH   9  10
ENDBRANCH   4   9
TORSDOF 2
ENDMDL
MODEL 2
REMARK VINA RESULT:      -4.4      1.115      2.435
REMARK  2 active torsions:
REMARK  status: ('A' for Active; 'I' for Inactive)
REMARK    1  A    between atoms: C3_3  and  C10_10 
REMARK    2  A    between atoms: C5_5  and  C10_10 
ROOT
HETATM    1  C1  UNL     1     -36.183  17.500  -3.966  1.00 20.00    -0.023 C 
HETATM    2  C2  UNL     1     -34.967  17.874  -3.541  1.00 20.00    -0.079 C 
HETATM    3  C4  UNL     1     -36.621  16.216  -3.344  1.00 20.00     0.033 C 
HETATM    4  C5  UNL     1     -35.303  15.633  -2.797  1.00 20.00     0.007 C 
HETATM    5  C6  UNL     1     -34.396  16.884  -2.543  1.00 20.00    -0.021 C 
HETATM    6  C7  UNL     1     -34.265  19.129  -3.929  1.00 20.00     0.044 C 
HETATM    7  C8  UNL     1     -34.614  17.408  -1.110  1.00 20.00     0.020 C 
HETATM    8  C9  UNL     1     -32.899  16.618  -2.748  1.00 20.00     0.020 C 
ENDROOT
BRANCH   4   9
HETATM    9  C10 UNL     1     -34.736  14.613  -3.794  1.00 20.00     0.075 C 
BRANCH   9  10
HETATM   10  C3  UNL     1     -35.812  13.792  -4.453  1.00 20.00     0.231 C 
HETATM   11  O11 UNL     1     -35.843  12.567  -4.481  1.00 20.00    -0.307 OA
ENDBRANCH   9  10
ENDBRANCH   4   9
TORSDOF 2
ENDMDL
MODEL 3
REMARK VINA RESULT:      -4.3      1.402      2.346
REMARK  2 active torsions:
REMARK  status: ('A' for Active; 'I' for Inactive)
REMARK    1  A    between atoms: C3_3  and  C10_10 
REMARK    2  A    between atoms: C5_5  and  C10_10 
ROOT
HETATM    1  C1  UNL     1     -34.339  17.150  -2.126  1.00 20.00    -0.023 C 
HETATM    2  C2  UNL     1     -33.794  17.207  -3.350  1.00 20.00    -0.079 C 
HETATM    3  C4  UNL     1     -35.154  15.915  -1.934  1.00 20.00     0.033 C 
HETATM    4  C5  UNL     1     -35.382  15.427  -3.378  1.00 20.00     0.007 C 
HETATM    5  C6  UNL     1     -34.161  15.991  -4.180  1.00 20.00    -0.021 C 
HETATM    6  C7  UNL     1     -32.889  18.282  -3.843  1.00 20.00     0.044 C 
HETATM    7  C8  UNL     1     -33.001  14.977  -4.152  1.00 20.00     0.020 C 
HETATM    8  C9  UNL     1     -34.482  16.334  -5.641  1.00 20.00     0.020 C 
ENDROOT
BRANCH   4   9
HETATM    9  C10 UNL     1     -36.756  15.900  -3.872  1.00 20.00     0.075 C 
BRANCH   9  10
HETATM   10  C3  UNL     1     -37.675  14.753  -4.202  1.00 20.00     0.231 C 
HETATM   11  O11 UNL     1     -37.308  13.624  -4.507  1.00 20.00    -0.307 OA
ENDBRANCH   9  10
ENDBRANCH   4   9
TORSDOF 2
ENDMDL
MODEL 4
REMARK VINA RESULT:      -4.3      2.379      3.884
REMARK  2 active torsions:
REMARK  status: ('A' for Active; 'I' for Inactive)
REMARK    1  A    between atoms: C3_3  and  C10_10 
REMARK    2  A    between atoms: C5_5  and  C10_10 
ROOT
HETATM    1  C1  UNL     1     -34.010  17.462  -4.558  1.00 20.00    -0.023 C 
HETATM    2  C2  UNL     1     -34.370  16.264  -5.042  1.00 20.00    -0.079 C 
HETATM    3  C4  UNL     1     -33.456  17.362  -3.176  1.00 20.00     0.033 C 
HETATM    4  C5  UNL     1     -33.930  15.969  -2.716  1.00 20.00     0.007 C 
HETATM    5  C6  UNL     1     -34.099  15.155  -4.043  1.00 20.00    -0.021 C 
HETATM    6  C7  UNL     1     -34.911  16.012  -6.406  1.00 20.00     0.044 C 
HETATM    7  C8  UNL     1     -32.776  14.450  -4.399  1.00 20.00     0.020 C 
HETATM    8  C9  UNL     1     -35.218  14.106  -3.990  1.00 20.00     0.020 C 
ENDROOT
BRANCH   4   9
HETATM    9  C10 UNL     1     -35.206  16.110  -1.875  1.00 20.00     0.075 C 
BRANCH   9  10
HETATM   10  C3  UNL     1     -35.056  17.115  -0.764  1.00 20.00     0.231 C 
HETATM   11  O11 UNL     1     -35.512  16.987   0.367  1.00 20.00    -0.307 OA
ENDBRANCH   9  10
ENDBRANCH   4   9
TORSDOF 2
ENDMDL
MODEL 5
REMARK VINA RESULT:      -4.3     17.105     18.165
REMARK  2 active torsions:
REMARK  status: ('A' for Active; 'I' for Inactive)
REMARK    1  A    between atoms: C3_3  and  C10_10 
REMARK    2  A    between atoms: C5_5  and  C10_10 
ROOT
HETATM    1  C1  UNL     1     -24.979  18.677   9.980  1.00 20.00    -0.023 C 
HETATM    2  C2  UNL     1     -24.139  17.658  10.213  1.00 20.00    -0.079 C 
HETATM    3  C4  UNL     1     -25.628  19.164  11.232  1.00 20.00     0.033 C 
HETATM    4  C5  UNL     1     -25.386  18.003  12.217  1.00 20.00     0.007 C 
HETATM    5  C6  UNL     1     -24.089  17.303  11.687  1.00 20.00    -0.021 C 
HETATM    6  C7  UNL     1     -23.299  16.979   9.188  1.00 20.00     0.044 C 
HETATM    7  C8  UNL     1     -22.845  17.947  12.332  1.00 20.00     0.020 C 
HETATM    8  C9  UNL     1     -24.051  15.791  11.942  1.00 20.00     0.020 C 
ENDROOT
BRANCH   4   9
HETATM    9  C10 UNL     1     -26.630  17.105  12.274  1.00 20.00     0.075 C 
BRANCH   9  10
HETATM   10  C3  UNL     1     -27.911  17.895  12.267  1.00 20.00     0.231 C 
HETATM   11  O11 UNL     1     -29.027  17.422  12.085  1.00 20.00    -0.307 OA
ENDBRANCH   9  10
ENDBRANCH   4   9
TORSDOF 2
ENDMDL
MODEL 6
REMARK VINA RESULT:      -4.1      2.067      2.845
REMARK  2 active torsions:
REMARK  status: ('A' for Active; 'I' for Inactive)
REMARK    1  A    between atoms: C3_3  and  C10_10 
REMARK    2  A    between atoms: C5_5  and  C10_10 
ROOT
HETATM    1  C1  UNL     1     -34.903  14.212  -3.637  1.00 20.00    -0.023 C 
HETATM    2  C2  UNL     1     -34.274  15.280  -4.147  1.00 20.00    -0.079 C 
HETATM    3  C4  UNL     1     -35.978  13.711  -4.543  1.00 20.00     0.033 C 
HETATM    4  C5  UNL     1     -36.204  14.901  -5.497  1.00 20.00     0.007 C 
HETATM    5  C6  UNL     1     -34.837  15.664  -5.504  1.00 20.00    -0.021 C 
HETATM    6  C7  UNL     1     -33.125  15.988  -3.518  1.00 20.00     0.044 C 
HETATM    7  C8  UNL     1     -33.929  15.104  -6.617  1.00 20.00     0.020 C 
HETATM    8  C9  UNL     1     -34.972  17.180  -5.693  1.00 20.00     0.020 C 
ENDROOT
BRANCH   4   9
HETATM    9  C10 UNL     1     -37.405  15.727  -5.016  1.00 20.00     0.075 C 
BRANCH   9  10
HETATM   10  C3  UNL     1     -38.404  14.901  -4.250  1.00 20.00     0.231 C 
HETATM   11  O11 UNL     1     -39.480  14.513  -4.691  1.00 20.00    -0.307 OA
ENDBRANCH   9  10
ENDBRANCH   4   9
TORSDOF 2
ENDMDL
MODEL 7
REMARK VINA RESULT:      -4.0      1.594      2.344
REMARK  2 active torsions:
REMARK  status: ('A' for Active; 'I' for Inactive)
REMARK    1  A    between atoms: C3_3  and  C10_10 
REMARK    2  A    between atoms: C5_5  and  C10_10 
ROOT
HETATM    1  C1  UNL     1     -32.444  17.781  -2.112  1.00 20.00    -0.023 C 
HETATM    2  C2  UNL     1     -33.199  17.993  -1.025  1.00 20.00    -0.079 C 
HETATM    3  C4  UNL     1     -33.271  17.460  -3.313  1.00 20.00     0.033 C 
HETATM    4  C5  UNL     1     -34.633  17.082  -2.699  1.00 20.00     0.007 C 
HETATM    5  C6  UNL     1     -34.677  17.852  -1.336  1.00 20.00    -0.021 C 
HETATM    6  C7  UNL     1     -32.688  18.380   0.319  1.00 20.00     0.044 C 
HETATM    7  C8  UNL     1     -35.297  19.248  -1.542  1.00 20.00     0.020 C 
HETATM    8  C9  UNL     1     -35.458  17.122  -0.235  1.00 20.00     0.020 C 
ENDROOT
BRANCH   4   9
HETATM    9  C10 UNL     1     -34.742  15.555  -2.584  1.00 20.00     0.075 C 
BRANCH   9  10
HETATM   10  C3  UNL     1     -34.194  14.846  -3.794  1.00 20.00     0.231 C 
HETATM   11  O11 UNL     1     -34.415  13.675  -4.083  1.00 20.00    -0.307 OA
ENDBRANCH   9  10
ENDBRANCH   4   9
TORSDOF 2
ENDMDL
MODEL 8
REMARK VINA RESULT:      -4.0      3.074      4.741
REMARK  2 active torsions:
REMARK  status: ('A' for Active; 'I' for Inactive)
REMARK    1  A    between atoms: C3_3  and  C10_10 
REMARK    2  A    between atoms: C5_5  and  C10_10 
ROOT
HETATM    1  C1  UNL     1     -34.009  18.810  -3.732  1.00 20.00    -0.023 C 
HETATM    2  C2  UNL     1     -34.929  17.984  -3.213  1.00 20.00    -0.079 C 
HETATM    3  C4  UNL     1     -32.641  18.520  -3.212  1.00 20.00     0.033 C 
HETATM    4  C5  UNL     1     -32.923  17.665  -1.962  1.00 20.00     0.007 C 
HETATM    5  C6  UNL     1     -34.305  16.988  -2.253  1.00 20.00    -0.021 C 
HETATM    6  C7  UNL     1     -36.377  17.975  -3.560  1.00 20.00     0.044 C 
HETATM    7  C8  UNL     1     -34.088  15.642  -2.972  1.00 20.00     0.020 C 
HETATM    8  C9  UNL     1     -35.155  16.746  -0.999  1.00 20.00     0.020 C 
ENDROOT
BRANCH   4   9
HETATM    9  C10 UNL     1     -32.888  18.553  -0.710  1.00 20.00     0.075 C 
BRANCH   9  10
HETATM   10  C3  UNL     1     -31.549  18.523  -0.020  1.00 20.00     0.231 C 
HETATM   11  O11 UNL     1     -30.489  18.226  -0.558  1.00 20.00    -0.307 OA
ENDBRANCH   9  10
ENDBRANCH   4   9
TORSDOF 2
ENDMDL
MODEL 9
REMARK VINA RESULT:      -4.0      2.388      3.988
REMARK  2 active torsions:
REMARK  status: ('A' for Active; 'I' for Inactive)
REMARK    1  A    between atoms: C3_3  and  C10_10 
REMARK    2  A    between atoms: C5_5  and  C10_10 
ROOT
HETATM    1  C1  UNL     1     -33.760  15.119  -5.651  1.00 20.00    -0.023 C 
HETATM    2  C2  UNL     1     -35.092  15.237  -5.742  1.00 20.00    -0.079 C 
HETATM    3  C4  UNL     1     -33.331  14.657  -4.298  1.00 20.00     0.033 C 
HETATM    4  C5  UNL     1     -34.579  14.923  -3.434  1.00 20.00     0.007 C 
HETATM    5  C6  UNL     1     -35.776  14.856  -4.442  1.00 20.00    -0.021 C 
HETATM    6  C7  UNL     1     -35.843  15.628  -6.968  1.00 20.00     0.044 C 
HETATM    7  C8  UNL     1     -36.302  13.411  -4.538  1.00 20.00     0.020 C 
HETATM    8  C9  UNL     1     -36.944  15.784  -4.082  1.00 20.00     0.020 C 
ENDROOT
BRANCH   4   9
HETATM    9  C10 UNL     1     -34.424  16.262  -2.700  1.00 20.00     0.075 C 
BRANCH   9  10
HETATM   10  C3  UNL     1     -32.997  16.740  -2.669  1.00 20.00     0.231 C 
HETATM   11  O11 UNL     1     -32.555  17.584  -1.898  1.00 20.00    -0.307 OA
ENDBRANCH   9  10
ENDBRANCH   4   9
TORSDOF 2
ENDMDL
