MODEL 1
REMARK VINA RESULT:      -5.1      0.000      0.000
REMARK  1 active torsions:
REMARK  status: ('A' for Active; 'I' for Inactive)
REMARK    1  A    between atoms: C1_1  and  C10_10 
ROOT
HETATM    1  C2  UNL     1     -33.091  15.652  -3.476  1.00 20.00     0.009 C 
HETATM    2  C3  UNL     1     -34.675  17.237  -4.636  1.00 20.00     0.010 C 
HETATM    3  C4  UNL     1     -34.009  15.145  -5.771  1.00 20.00     0.010 C 
HETATM    4  C5  UNL     1     -35.512  16.001  -2.847  1.00 20.00     0.022 C 
HETATM    5  C6  UNL     1     -34.844  13.906  -3.982  1.00 20.00     0.022 C 
HETATM    6  C7  UNL     1     -34.222  16.705  -3.276  1.00 20.00    -0.013 C 
HETATM    7  C8  UNL     1     -33.527  14.523  -4.459  1.00 20.00    -0.013 C 
HETATM    8  C9  UNL     1     -35.221  15.954  -5.282  1.00 20.00     0.002 C 
HETATM    9  C10 UNL     1     -35.776  15.119  -4.075  1.00 20.00     0.024 C 
ENDROOT
BRANCH   9  10
HETATM   10  C1  UNL     1     -37.217  14.751  -4.214  1.00 20.00     0.132 C 
HETATM   11  C11 UNL     1     -38.215  15.873  -4.112  1.00 20.00     0.091 C 
HETATM   12  O12 UNL     1     -37.571  13.589  -4.404  1.00 20.00    -0.298 OA
ENDBRANCH   9  10
TORSDOF 1
ENDMDL
MODEL 2
REMARK VINA RESULT:      -5.1      1.023      2.226
REMARK  1 active torsions:
REMARK  status: ('A' for Active; 'I' for Inactive)
REMARK    1  A    between atoms: C1_1  and  C10_10 
ROOT
HETATM    1  C2  UNL     1     -33.468  17.135  -4.036  1.00 20.00     0.009 C 
HETATM    2  C3  UNL     1     -34.657  16.128  -2.051  1.00 20.00     0.010 C 
HETATM    3  C4  UNL     1     -35.928  17.533  -3.638  1.00 20.00     0.010 C 
HETATM    4  C5  UNL     1     -34.068  14.694  -3.791  1.00 20.00     0.022 C 
HETATM    5  C6  UNL     1     -35.339  16.101  -5.381  1.00 20.00     0.022 C 
HETATM    6  C7  UNL     1     -33.524  15.923  -3.058  1.00 20.00    -0.013 C 
HETATM    7  C8  UNL     1     -34.849  17.389  -4.713  1.00 20.00    -0.013 C 
HETATM    8  C9  UNL     1     -35.877  16.142  -2.986  1.00 20.00     0.002 C 
HETATM    9  C10 UNL     1     -35.474  15.183  -4.162  1.00 20.00     0.024 C 
ENDROOT
BRANCH   9  10
HETATM   10  C1  UNL     1     -36.434  14.058  -4.370  1.00 20.00     0.132 C 
HETATM   11  C11 UNL     1     -37.899  14.399  -4.317  1.00 20.00     0.091 C 
HETATM   12  O12 UNL     1     -36.046  12.908  -4.576  1.00 20.00    -0.298 OA
ENDBRANCH   9  10
TORSDOF 1
ENDMDL
MODEL 3
REMARK VINA RESULT:      -5.1      1.015      1.723
REMARK  1 active torsions:
REMARK  status: ('A' for Active; 'I' for Inactive)
REMARK    1  A    between atoms: C1_1  and  C10_10 
ROOT
HETATM    1  C2  UNL     1     -33.734  17.297  -4.032  1.00 20.00     0.009 C 
HETATM    2  C3  UNL     1     -34.060  16.005  -6.174  1.00 20.00     0.010 C 
HETATM    3  C4  UNL     1     -32.956  14.907  -4.254  1.00 20.00     0.010 C 
HETATM    4  C5  UNL     1     -35.944  16.404  -4.863  1.00 20.00     0.022 C 
HETATM    5  C6  UNL     1     -34.839  15.306  -2.940  1.00 20.00     0.022 C 
HETATM    6  C7  UNL     1     -34.645  17.099  -5.279  1.00 20.00    -0.013 C 
HETATM    7  C8  UNL     1     -33.494  15.954  -3.277  1.00 20.00    -0.013 C 
HETATM    8  C9  UNL     1     -34.134  14.791  -5.235  1.00 20.00     0.002 C 
HETATM    9  C10 UNL     1     -35.399  15.066  -4.347  1.00 20.00     0.024 C 
ENDROOT
BRANCH   9  10
HETATM   10  C1  UNL     1     -36.417  13.974  -4.401  1.00 20.00     0.132 C 
HETATM   11  C11 UNL     1     -37.858  14.387  -4.277  1.00 20.00     0.091 C 
HETATM   12  O12 UNL     1     -36.093  12.796  -4.542  1.00 20.00    -0.298 OA
ENDBRANCH   9  10
TORSDOF 1
ENDMDL
MODEL 4
REMARK VINA RESULT:      -4.9      1.349      2.493
REMARK  1 active torsions:
REMARK  status: ('A' for Active; 'I' for Inactive)
REMARK    1  A    between atoms: C1_1  and  C10_10 
ROOT
HETATM    1  C2  UNL     1     -34.460  16.159  -2.082  1.00 20.00     0.009 C 
HETATM    2  C3  UNL     1     -36.015  17.248  -3.743  1.00 20.00     0.010 C 
HETATM    3  C4  UNL     1     -33.574  17.394  -4.096  1.00 20.00     0.010 C 
HETATM    4  C5  UNL     1     -35.880  14.923  -3.764  1.00 20.00     0.022 C 
HETATM    5  C6  UNL     1     -33.435  15.067  -4.116  1.00 20.00     0.022 C 
HETATM    6  C7  UNL     1     -35.858  16.083  -2.766  1.00 20.00    -0.013 C 
HETATM    7  C8  UNL     1     -33.311  16.235  -3.133  1.00 20.00    -0.013 C 
HETATM    8  C9  UNL     1     -34.892  16.941  -4.745  1.00 20.00     0.002 C 
HETATM    9  C10 UNL     1     -34.796  15.375  -4.751  1.00 20.00     0.024 C 
ENDROOT
BRANCH   9  10
HETATM   10  C1  UNL     1     -34.968  14.770  -6.106  1.00 20.00     0.132 C 
HETATM   11  C11 UNL     1     -33.939  15.131  -7.143  1.00 20.00     0.091 C 
HETATM   12  O12 UNL     1     -35.904  14.014  -6.361  1.00 20.00    -0.298 OA
ENDBRANCH   9  10
TORSDOF 1
ENDMDL
MODEL 5
REMARK VINA RESULT:      -4.8     18.010     19.205
REMARK  1 active torsions:
REMARK  status: ('A' for Active; 'I' for Inactive)
REMARK    1  A    between atoms: C1_1  and  C10_10 
ROOT
HETATM    1  C2  UNL     1     -25.651  16.754  11.912  1.00 20.00     0.009 C 
HETATM    2  C3  UNL     1     -24.378  18.892  12.327  1.00 20.00     0.010 C 
HETATM    3  C4  UNL     1     -23.152  16.748  12.259  1.00 20.00     0.010 C 
HETATM    4  C5  UNL     1     -25.164  18.513  10.167  1.00 20.00     0.022 C 
HETATM    5  C6  UNL     1     -23.938  16.364  10.098  1.00 20.00     0.022 C 
HETATM    6  C7  UNL     1     -25.589  18.283  11.620  1.00 20.00    -0.013 C 
HETATM    7  C8  UNL     1     -24.311  16.046  11.548  1.00 20.00    -0.013 C 
HETATM    8  C9  UNL     1     -23.229  18.148  11.629  1.00 20.00     0.002 C 
HETATM    9  C10 UNL     1     -23.764  17.885  10.177  1.00 20.00     0.024 C 
ENDROOT
BRANCH   9  10
HETATM   10  C1  UNL     1     -22.883  18.438   9.106  1.00 20.00     0.132 C 
HETATM   11  C11 UNL     1     -21.451  17.974   9.101  1.00 20.00     0.091 C 
HETATM   12  O12 UNL     1     -23.306  19.232   8.267  1.00 20.00    -0.298 OA
ENDBRANCH   9  10
TORSDOF 1
ENDMDL
MODEL 6
REMARK VINA RESULT:      -4.8      1.746      2.488
REMARK  1 active torsions:
REMARK  status: ('A' for Active; 'I' for Inactive)
REMARK    1  A    between atoms: C1_1  and  C10_10 
ROOT
HETATM    1  C2  UNL     1     -33.762  17.330  -1.698  1.00 20.00     0.009 C 
HETATM    2  C3  UNL     1     -35.866  17.586  -3.066  1.00 20.00     0.010 C 
HETATM    3  C4  UNL     1     -33.670  17.928  -4.147  1.00 20.00     0.010 C 
HETATM    4  C5  UNL     1     -35.234  15.426  -2.463  1.00 20.00     0.022 C 
HETATM    5  C6  UNL     1     -33.034  15.768  -3.544  1.00 20.00     0.022 C 
HETATM    6  C7  UNL     1     -35.231  16.845  -1.889  1.00 20.00    -0.013 C 
HETATM    7  C8  UNL     1     -32.940  17.202  -3.016  1.00 20.00    -0.013 C 
HETATM    8  C9  UNL     1     -34.972  17.114  -4.223  1.00 20.00     0.002 C 
HETATM    9  C10 UNL     1     -34.540  15.662  -3.811  1.00 20.00     0.024 C 
ENDROOT
BRANCH   9  10
HETATM   10  C1  UNL     1     -34.891  14.623  -4.824  1.00 20.00     0.132 C 
HETATM   11  C11 UNL     1     -36.100  13.775  -4.534  1.00 20.00     0.091 C 
HETATM   12  O12 UNL     1     -34.226  14.468  -5.847  1.00 20.00    -0.298 OA
ENDBRANCH   9  10
TORSDOF 1
ENDMDL
MODEL 7
REMARK VINA RESULT:      -4.7      2.106      3.264
REMARK  1 active torsions:
REMARK  status: ('A' for Active; 'I' for Inactive)
REMARK    1  A    between atoms: C1_1  and  C10_10 
ROOT
HETATM    1  C2  UNL     1     -34.311  15.413  -5.883  1.00 20.00     0.009 C 
HETATM    2  C3  UNL     1     -36.324  15.799  -4.411  1.00 20.00     0.010 C 
HETATM    3  C4  UNL     1     -34.725  14.005  -3.830  1.00 20.00     0.010 C 
HETATM    4  C5  UNL     1     -34.603  17.366  -4.309  1.00 20.00     0.022 C 
HETATM    5  C6  UNL     1     -33.001  15.571  -3.730  1.00 20.00     0.022 C 
HETATM    6  C7  UNL     1     -35.310  16.476  -5.334  1.00 20.00    -0.013 C 
HETATM    7  C8  UNL     1     -33.643  14.605  -4.730  1.00 20.00    -0.013 C 
HETATM    8  C9  UNL     1     -35.401  15.280  -3.298  1.00 20.00     0.002 C 
HETATM    9  C10 UNL     1     -34.237  16.332  -3.237  1.00 20.00     0.024 C 
ENDROOT
BRANCH   9  10
HETATM   10  C1  UNL     1     -34.057  16.947  -1.888  1.00 20.00     0.132 C 
HETATM   11  C11 UNL     1     -35.211  16.828  -0.930  1.00 20.00     0.091 C 
HETATM   12  O12 UNL     1     -33.015  17.521  -1.574  1.00 20.00    -0.298 OA
ENDBRANCH   9  10
TORSDOF 1
ENDMDL
MODEL 8
REMARK VINA RESULT:      -4.6      1.016      2.442
REMARK  1 active torsions:
REMARK  status: ('A' for Active; 'I' for Inactive)
REMARK    1  A    between atoms: C1_1  and  C10_10 
ROOT
HETATM    1  C2  UNL     1     -34.388  17.719  -3.864  1.00 20.00     0.009 C 
HETATM    2  C3  UNL     1     -33.622  15.316  -3.815  1.00 20.00     0.010 C 
HETATM    3  C4  UNL     1     -34.985  16.190  -1.948  1.00 20.00     0.010 C 
HETATM    4  C5  UNL     1     -35.318  15.872  -5.314  1.00 20.00     0.022 C 
HETATM    5  C6  UNL     1     -36.682  16.750  -3.445  1.00 20.00     0.022 C 
HETATM    6  C7  UNL     1     -34.036  16.471  -4.728  1.00 20.00    -0.013 C 
HETATM    7  C8  UNL     1     -35.457  17.384  -2.780  1.00 20.00    -0.013 C 
HETATM    8  C9  UNL     1     -34.920  15.093  -3.022  1.00 20.00     0.002 C 
HETATM    9  C10 UNL     1     -36.060  15.477  -4.030  1.00 20.00     0.024 C 
ENDROOT
BRANCH   9  10
HETATM   10  C1  UNL     1     -37.051  14.383  -4.257  1.00 20.00     0.132 C 
HETATM   11  C11 UNL     1     -38.504  14.774  -4.251  1.00 20.00     0.091 C 
HETATM   12  O12 UNL     1     -36.697  13.219  -4.441  1.00 20.00    -0.298 OA
ENDBRANCH   9  10
TORSDOF 1
ENDMDL
MODEL 9
REMARK VINA RESULT:      -4.6      2.304      3.799
REMARK  1 active torsions:
REMARK  status: ('A' for Active; 'I' for Inactive)
REMARK    1  A    between atoms: C1_1  and  C10_10 
ROOT
HETATM    1  C2  UNL     1     -35.110  14.106  -4.025  1.00 20.00     0.009 C 
HETATM    2  C3  UNL     1     -34.319  15.815  -5.705  1.00 20.00     0.010 C 
HETATM    3  C4  UNL     1     -36.150  16.402  -4.152  1.00 20.00     0.010 C 
HETATM    4  C5  UNL     1     -32.925  15.365  -3.892  1.00 20.00     0.022 C 
HETATM    5  C6  UNL     1     -34.758  15.950  -2.337  1.00 20.00     0.022 C 
HETATM    6  C7  UNL     1     -33.886  14.635  -4.833  1.00 20.00    -0.013 C 
HETATM    7  C8  UNL     1     -35.796  15.246  -3.214  1.00 20.00    -0.013 C 
HETATM    8  C9  UNL     1     -34.752  16.825  -4.631  1.00 20.00     0.002 C 
HETATM    9  C10 UNL     1     -33.818  16.515  -3.408  1.00 20.00     0.024 C 
ENDROOT
BRANCH   9  10
HETATM   10  C1  UNL     1     -33.030  17.695  -2.943  1.00 20.00     0.132 C 
HETATM   11  C11 UNL     1     -32.799  17.813  -1.461  1.00 20.00     0.091 C 
HETATM   12  O12 UNL     1     -32.589  18.529  -3.733  1.00 20.00    -0.298 OA
ENDBRANCH   9  10
TORSDOF 1
ENDMDL
