MODEL 1
REMARK VINA RESULT:      -3.7      0.000      0.000
REMARK  2 active torsions:
REMARK  status: ('A' for Active; 'I' for Inactive)
REMARK    1  A    between atoms: C2_2  and  C4_4 
REMARK    2  A    between atoms: C4_4  and  O5_5 
ROOT
HETATM    1  C1  UNL     1     -24.353  17.942  10.303  1.00 20.00     0.052 A 
HETATM    2  C2  UNL     1     -23.408  16.932   9.709  1.00 20.00     0.051 A 
HETATM    3  C3  UNL     1     -23.650  16.954  11.202  1.00 20.00     0.119 A 
HETATM    4 CL6  UNL     1     -22.419  17.564  12.298  1.00 20.00    -0.101 Cl
HETATM    5 CL7  UNL     1     -24.611  15.647  11.893  1.00 20.00    -0.101 Cl
ENDROOT
BRANCH   2   6
HETATM    6  C4  UNL     1     -22.128  17.385   9.092  1.00 20.00     0.172 C 
BRANCH   6   7
HETATM    7  O5  UNL     1     -21.293  16.258   8.828  1.00 20.00    -0.400 OA
HETATM    8  H13 UNL     1     -20.520  16.596   8.350  1.00 20.00     0.209 HD
ENDBRANCH   6   7
ENDBRANCH   2   6
TORSDOF 2
ENDMDL
MODEL 2
REMARK VINA RESULT:      -3.7      1.354      1.926
REMARK  2 active torsions:
REMARK  status: ('A' for Active; 'I' for Inactive)
REMARK    1  A    between atoms: C2_2  and  C4_4 
REMARK    2  A    between atoms: C4_4  and  O5_5 
ROOT
HETATM    1  C1  UNL     1     -22.612  17.642  11.650  1.00 20.00     0.052 A 
HETATM    2  C2  UNL     1     -23.319  17.871  10.342  1.00 20.00     0.051 A 
HETATM    3  C3  UNL     1     -24.098  17.402  11.550  1.00 20.00     0.119 A 
HETATM    4 CL6  UNL     1     -24.678  15.745  11.652  1.00 20.00    -0.101 Cl
HETATM    5 CL7  UNL     1     -25.171  18.563  12.332  1.00 20.00    -0.101 Cl
ENDROOT
BRANCH   2   6
HETATM    6  C4  UNL     1     -23.030  16.989   9.175  1.00 20.00     0.172 C 
BRANCH   6   7
HETATM    7  O5  UNL     1     -21.686  16.514   9.249  1.00 20.00    -0.400 OA
HETATM    8  H13 UNL     1     -21.163  17.232   9.636  1.00 20.00     0.209 HD
ENDBRANCH   6   7
ENDBRANCH   2   6
TORSDOF 2
ENDMDL
MODEL 3
REMARK VINA RESULT:      -3.7      2.780      3.177
REMARK  2 active torsions:
REMARK  status: ('A' for Active; 'I' for Inactive)
REMARK    1  A    between atoms: C2_2  and  C4_4 
REMARK    2  A    between atoms: C4_4  and  O5_5 
ROOT
HETATM    1  C1  UNL     1     -23.335  18.073  10.702  1.00 20.00     0.052 A 
HETATM    2  C2  UNL     1     -24.290  16.949  10.405  1.00 20.00     0.051 A 
HETATM    3  C3  UNL     1     -24.801  18.369  10.495  1.00 20.00     0.119 A 
HETATM    4 CL6  UNL     1     -25.743  18.895  11.883  1.00 20.00    -0.101 Cl
HETATM    5 CL7  UNL     1     -25.273  19.164   8.993  1.00 20.00    -0.101 Cl
ENDROOT
BRANCH   2   6
HETATM    6  C4  UNL     1     -24.575  15.921  11.448  1.00 20.00     0.172 C 
BRANCH   6   7
HETATM    7  O5  UNL     1     -23.410  15.701  12.243  1.00 20.00    -0.400 OA
HETATM    8  H13 UNL     1     -23.716  15.297  13.069  1.00 20.00     0.209 HD
ENDBRANCH   6   7
ENDBRANCH   2   6
TORSDOF 2
ENDMDL
MODEL 4
REMARK VINA RESULT:      -3.6     23.306     23.918
REMARK  2 active torsions:
REMARK  status: ('A' for Active; 'I' for Inactive)
REMARK    1  A    between atoms: C2_2  and  C4_4 
REMARK    2  A    between atoms: C4_4  and  O5_5 
ROOT
HETATM    1  C1  UNL     1     -42.352   6.887   0.869  1.00 20.00     0.052 A 
HETATM    2  C2  UNL     1     -41.316   6.648  -0.196  1.00 20.00     0.051 A 
HETATM    3  C3  UNL     1     -42.142   7.915  -0.216  1.00 20.00     0.119 A 
HETATM    4 CL6  UNL     1     -43.417   8.133  -1.406  1.00 20.00    -0.101 Cl
HETATM    5 CL7  UNL     1     -41.339   9.421   0.226  1.00 20.00    -0.101 Cl
ENDROOT
BRANCH   2   6
HETATM    6  C4  UNL     1     -41.505   5.546  -1.183  1.00 20.00     0.172 C 
BRANCH   6   7
HETATM    7  O5  UNL     1     -40.349   4.710  -1.203  1.00 20.00    -0.400 OA
HETATM    8  H13 UNL     1     -39.655   5.192  -0.726  1.00 20.00     0.209 HD
ENDBRANCH   6   7
ENDBRANCH   2   6
TORSDOF 2
ENDMDL
MODEL 5
REMARK VINA RESULT:      -3.6     18.663     19.168
REMARK  2 active torsions:
REMARK  status: ('A' for Active; 'I' for Inactive)
REMARK    1  A    between atoms: C2_2  and  C4_4 
REMARK    2  A    between atoms: C4_4  and  O5_5 
ROOT
HETATM    1  C1  UNL     1     -33.218  14.474  -4.272  1.00 20.00     0.052 A 
HETATM    2  C2  UNL     1     -33.984  15.498  -5.066  1.00 20.00     0.051 A 
HETATM    3  C3  UNL     1     -34.666  14.748  -3.944  1.00 20.00     0.119 A 
HETATM    4 CL6  UNL     1     -35.845  13.492  -4.295  1.00 20.00    -0.101 Cl
HETATM    5 CL7  UNL     1     -35.017  15.636  -2.462  1.00 20.00    -0.101 Cl
ENDROOT
BRANCH   2   6
HETATM    6  C4  UNL     1     -34.287  15.249  -6.505  1.00 20.00     0.172 C 
BRANCH   6   7
HETATM    7  O5  UNL     1     -33.203  14.547  -7.113  1.00 20.00    -0.400 OA
HETATM    8  H13 UNL     1     -32.512  15.205  -7.284  1.00 20.00     0.209 HD
ENDBRANCH   6   7
ENDBRANCH   2   6
TORSDOF 2
ENDMDL
MODEL 6
REMARK VINA RESULT:      -3.6     16.188     16.826
REMARK  2 active torsions:
REMARK  status: ('A' for Active; 'I' for Inactive)
REMARK    1  A    between atoms: C2_2  and  C4_4 
REMARK    2  A    between atoms: C4_4  and  O5_5 
ROOT
HETATM    1  C1  UNL     1     -32.840   5.314   2.599  1.00 20.00     0.052 A 
HETATM    2  C2  UNL     1     -34.058   6.038   3.106  1.00 20.00     0.051 A 
HETATM    3  C3  UNL     1     -32.816   6.817   2.732  1.00 20.00     0.119 A 
HETATM    4 CL6  UNL     1     -31.794   7.521   3.978  1.00 20.00    -0.101 Cl
HETATM    5 CL7  UNL     1     -32.866   7.772   1.251  1.00 20.00    -0.101 Cl
ENDROOT
BRANCH   2   6
HETATM    6  C4  UNL     1     -34.500   5.852   4.518  1.00 20.00     0.172 C 
BRANCH   6   7
HETATM    7  O5  UNL     1     -35.317   4.687   4.620  1.00 20.00    -0.400 OA
HETATM    8  H13 UNL     1     -34.835   4.063   5.184  1.00 20.00     0.209 HD
ENDBRANCH   6   7
ENDBRANCH   2   6
TORSDOF 2
ENDMDL
MODEL 7
REMARK VINA RESULT:      -3.6      1.820      2.639
REMARK  2 active torsions:
REMARK  status: ('A' for Active; 'I' for Inactive)
REMARK    1  A    between atoms: C2_2  and  C4_4 
REMARK    2  A    between atoms: C4_4  and  O5_5 
ROOT
HETATM    1  C1  UNL     1     -21.897  17.365   9.269  1.00 20.00     0.052 A 
HETATM    2  C2  UNL     1     -22.792  18.568   9.394  1.00 20.00     0.051 A 
HETATM    3  C3  UNL     1     -22.860  17.465  10.427  1.00 20.00     0.119 A 
HETATM    4 CL6  UNL     1     -24.226  16.359  10.465  1.00 20.00    -0.101 Cl
HETATM    5 CL7  UNL     1     -22.191  17.799  12.024  1.00 20.00    -0.101 Cl
ENDROOT
BRANCH   2   6
HETATM    6  C4  UNL     1     -23.870  18.801   8.390  1.00 20.00     0.172 C 
BRANCH   6   7
HETATM    7  O5  UNL     1     -23.375  18.532   7.078  1.00 20.00    -0.400 OA
HETATM    8  H13 UNL     1     -22.458  18.848   7.062  1.00 20.00     0.209 HD
ENDBRANCH   6   7
ENDBRANCH   2   6
TORSDOF 2
ENDMDL
MODEL 8
REMARK VINA RESULT:      -3.6     22.877     23.525
REMARK  2 active torsions:
REMARK  status: ('A' for Active; 'I' for Inactive)
REMARK    1  A    between atoms: C2_2  and  C4_4 
REMARK    2  A    between atoms: C4_4  and  O5_5 
ROOT
HETATM    1  C1  UNL     1     -42.460   7.688  -1.369  1.00 20.00     0.052 A 
HETATM    2  C2  UNL     1     -41.369   8.134  -0.433  1.00 20.00     0.051 A 
HETATM    3  C3  UNL     1     -41.849   6.700  -0.405  1.00 20.00     0.119 A 
HETATM    4 CL6  UNL     1     -42.844   6.116   0.921  1.00 20.00    -0.101 Cl
HETATM    5 CL7  UNL     1     -40.777   5.466  -1.066  1.00 20.00    -0.101 Cl
ENDROOT
BRANCH   2   6
HETATM    6  C4  UNL     1     -41.674   9.109   0.654  1.00 20.00     0.172 C 
BRANCH   6   7
HETATM    7  O5  UNL     1     -41.089  10.374   0.348  1.00 20.00    -0.400 OA
HETATM    8  H13 UNL     1     -40.514  10.231  -0.420  1.00 20.00     0.209 HD
ENDBRANCH   6   7
ENDBRANCH   2   6
TORSDOF 2
ENDMDL
MODEL 9
REMARK VINA RESULT:      -3.5     18.489     18.973
REMARK  2 active torsions:
REMARK  status: ('A' for Active; 'I' for Inactive)
REMARK    1  A    between atoms: C2_2  and  C4_4 
REMARK    2  A    between atoms: C4_4  and  O5_5 
ROOT
HETATM    1  C1  UNL     1     -33.687  14.527  -4.217  1.00 20.00     0.052 A 
HETATM    2  C2  UNL     1     -35.058  14.795  -4.775  1.00 20.00     0.051 A 
HETATM    3  C3  UNL     1     -34.442  15.761  -3.789  1.00 20.00     0.119 A 
HETATM    4 CL6  UNL     1     -35.024  15.842  -2.132  1.00 20.00    -0.101 Cl
HETATM    5 CL7  UNL     1     -33.888  17.317  -4.407  1.00 20.00    -0.101 Cl
ENDROOT
BRANCH   2   6
HETATM    6  C4  UNL     1     -36.194  13.895  -4.421  1.00 20.00     0.172 C 
BRANCH   6   7
HETATM    7  O5  UNL     1     -35.768  12.534  -4.475  1.00 20.00    -0.400 OA
HETATM    8  H13 UNL     1     -36.077  12.185  -5.325  1.00 20.00     0.209 HD
ENDBRANCH   6   7
ENDBRANCH   2   6
TORSDOF 2
ENDMDL
