MODEL 1
REMARK VINA RESULT:      -5.5      0.000      0.000
REMARK  1 active torsions:
REMARK  status: ('A' for Active; 'I' for Inactive)
REMARK    1  A    between atoms: C11_11  and  C12_12 
ROOT
HETATM    1  C1  UNL     1     -36.125  13.934  -4.270  1.00 20.00     0.059 C 
HETATM    2  C12 UNL     1     -34.694  14.081  -4.045  1.00 20.00     0.133 C 
HETATM    3  N13 UNL     1     -37.260  13.782  -4.458  1.00 20.00    -0.197 NA
ENDROOT
BRANCH   2   4
HETATM    4  C11 UNL     1     -34.539  15.532  -3.578  1.00 20.00    -0.027 C 
HETATM    5  C5  UNL     1     -35.152  16.498  -4.618  1.00 20.00     0.015 C 
HETATM    6  C8  UNL     1     -34.998  17.957  -4.153  1.00 20.00    -0.013 C 
HETATM    7  C2  UNL     1     -35.715  18.137  -2.804  1.00 20.00     0.009 C 
HETATM    8  C3  UNL     1     -33.505  18.277  -3.980  1.00 20.00     0.009 C 
HETATM    9  C9  UNL     1     -35.103  17.197  -1.753  1.00 20.00    -0.013 C 
HETATM   10  C4  UNL     1     -33.608  17.521  -1.591  1.00 20.00     0.009 C 
HETATM   11  C6  UNL     1     -35.258  15.740  -2.225  1.00 20.00     0.015 C 
HETATM   12  C10 UNL     1     -32.881  17.337  -2.934  1.00 20.00    -0.013 C 
HETATM   13  C7  UNL     1     -33.042  15.880  -3.402  1.00 20.00     0.015 C 
ENDBRANCH   2   4
TORSDOF 1
ENDMDL
MODEL 2
REMARK VINA RESULT:      -5.5      0.021      2.097
REMARK  1 active torsions:
REMARK  status: ('A' for Active; 'I' for Inactive)
REMARK    1  A    between atoms: C11_11  and  C12_12 
ROOT
HETATM    1  C1  UNL     1     -36.148  13.942  -4.265  1.00 20.00     0.059 C 
HETATM    2  C12 UNL     1     -34.716  14.079  -4.039  1.00 20.00     0.133 C 
HETATM    3  N13 UNL     1     -37.284  13.799  -4.453  1.00 20.00    -0.197 NA
ENDROOT
BRANCH   2   4
HETATM    4  C11 UNL     1     -34.550  15.531  -3.580  1.00 20.00    -0.027 C 
HETATM    5  C5  UNL     1     -35.253  15.747  -2.220  1.00 20.00     0.015 C 
HETATM    6  C8  UNL     1     -35.088  17.205  -1.755  1.00 20.00    -0.013 C 
HETATM    7  C2  UNL     1     -33.590  17.524  -1.611  1.00 20.00     0.009 C 
HETATM    8  C3  UNL     1     -35.708  18.143  -2.803  1.00 20.00     0.009 C 
HETATM    9  C9  UNL     1     -32.879  17.333  -2.961  1.00 20.00    -0.013 C 
HETATM   10  C4  UNL     1     -33.510  18.271  -4.004  1.00 20.00     0.009 C 
HETATM   11  C6  UNL     1     -33.050  15.875  -3.422  1.00 20.00     0.015 C 
HETATM   12  C10 UNL     1     -35.007  17.955  -4.159  1.00 20.00    -0.013 C 
HETATM   13  C7  UNL     1     -35.171  16.495  -4.617  1.00 20.00     0.015 C 
ENDBRANCH   2   4
TORSDOF 1
ENDMDL
MODEL 3
REMARK VINA RESULT:      -5.5      0.090      2.113
REMARK  1 active torsions:
REMARK  status: ('A' for Active; 'I' for Inactive)
REMARK    1  A    between atoms: C11_11  and  C12_12 
ROOT
HETATM    1  C1  UNL     1     -36.038  13.882  -4.334  1.00 20.00     0.059 C 
HETATM    2  C12 UNL     1     -34.611  14.065  -4.114  1.00 20.00     0.133 C 
HETATM    3  N13 UNL     1     -37.170  13.702  -4.519  1.00 20.00    -0.197 NA
ENDROOT
BRANCH   2   4
HETATM    4  C11 UNL     1     -34.491  15.515  -3.637  1.00 20.00    -0.027 C 
HETATM    5  C5  UNL     1     -33.007  15.881  -3.398  1.00 20.00     0.015 C 
HETATM    6  C8  UNL     1     -32.883  17.338  -2.919  1.00 20.00    -0.013 C 
HETATM    7  C2  UNL     1     -33.474  18.274  -3.986  1.00 20.00     0.009 C 
HETATM    8  C3  UNL     1     -33.665  17.507  -1.607  1.00 20.00     0.009 C 
HETATM    9  C9  UNL     1     -34.955  17.937  -4.220  1.00 20.00    -0.013 C 
HETATM   10  C4  UNL     1     -35.728  18.103  -2.902  1.00 20.00     0.009 C 
HETATM   11  C6  UNL     1     -35.074  16.478  -4.697  1.00 20.00     0.015 C 
HETATM   12  C10 UNL     1     -35.148  17.166  -1.829  1.00 20.00    -0.013 C 
HETATM   13  C7  UNL     1     -35.267  15.710  -2.313  1.00 20.00     0.015 C 
ENDBRANCH   2   4
TORSDOF 1
ENDMDL
MODEL 4
REMARK VINA RESULT:      -4.9      1.031      1.306
REMARK  1 active torsions:
REMARK  status: ('A' for Active; 'I' for Inactive)
REMARK    1  A    between atoms: C11_11  and  C12_12 
ROOT
HETATM    1  C1  UNL     1     -35.888  13.841  -4.975  1.00 20.00     0.059 C 
HETATM    2  C12 UNL     1     -35.481  15.065  -5.650  1.00 20.00     0.133 C 
HETATM    3  N13 UNL     1     -36.218  12.850  -4.468  1.00 20.00    -0.197 NA
ENDROOT
BRANCH   2   4
HETATM    4  C11 UNL     1     -35.112  16.015  -4.507  1.00 20.00    -0.027 C 
HETATM    5  C5  UNL     1     -34.582  17.353  -5.072  1.00 20.00     0.015 C 
HETATM    6  C8  UNL     1     -34.210  18.311  -3.926  1.00 20.00    -0.013 C 
HETATM    7  C2  UNL     1     -35.455  18.578  -3.064  1.00 20.00     0.009 C 
HETATM    8  C3  UNL     1     -33.122  17.659  -3.056  1.00 20.00     0.009 C 
HETATM    9  C9  UNL     1     -35.983  17.259  -2.478  1.00 20.00    -0.013 C 
HETATM   10  C4  UNL     1     -34.887  16.612  -1.615  1.00 20.00     0.009 C 
HETATM   11  C6  UNL     1     -36.351  16.305  -3.628  1.00 20.00     0.015 C 
HETATM   12  C10 UNL     1     -33.639  16.335  -2.469  1.00 20.00    -0.013 C 
HETATM   13  C7  UNL     1     -34.014  15.383  -3.619  1.00 20.00     0.015 C 
ENDBRANCH   2   4
TORSDOF 1
ENDMDL
MODEL 5
REMARK VINA RESULT:      -4.9      1.038      1.778
REMARK  1 active torsions:
REMARK  status: ('A' for Active; 'I' for Inactive)
REMARK    1  A    between atoms: C11_11  and  C12_12 
ROOT
HETATM    1  C1  UNL     1     -36.405  13.844  -4.437  1.00 20.00     0.059 C 
HETATM    2  C12 UNL     1     -37.122  15.084  -4.176  1.00 20.00     0.133 C 
HETATM    3  N13 UNL     1     -35.865  12.840  -4.654  1.00 20.00    -0.197 NA
ENDROOT
BRANCH   2   4
HETATM    4  C11 UNL     1     -36.026  16.063  -3.746  1.00 20.00    -0.027 C 
HETATM    5  C5  UNL     1     -36.655  17.365  -3.197  1.00 20.00     0.015 C 
HETATM    6  C8  UNL     1     -35.556  18.351  -2.763  1.00 20.00    -0.013 C 
HETATM    7  C2  UNL     1     -34.694  17.701  -1.669  1.00 20.00     0.009 C 
HETATM    8  C3  UNL     1     -34.670  18.686  -3.974  1.00 20.00     0.009 C 
HETATM    9  C9  UNL     1     -34.044  16.415  -2.205  1.00 20.00    -0.013 C 
HETATM   10  C4  UNL     1     -33.165  16.758  -3.419  1.00 20.00     0.009 C 
HETATM   11  C6  UNL     1     -35.147  15.433  -2.639  1.00 20.00     0.015 C 
HETATM   12  C10 UNL     1     -34.021  17.404  -4.523  1.00 20.00    -0.013 C 
HETATM   13  C7  UNL     1     -35.123  16.420  -4.950  1.00 20.00     0.015 C 
ENDBRANCH   2   4
TORSDOF 1
ENDMDL
MODEL 6
REMARK VINA RESULT:      -4.9      2.163      3.865
REMARK  1 active torsions:
REMARK  status: ('A' for Active; 'I' for Inactive)
REMARK    1  A    between atoms: C11_11  and  C12_12 
ROOT
HETATM    1  C1  UNL     1     -33.859  18.269  -1.406  1.00 20.00     0.059 C 
HETATM    2  C12 UNL     1     -32.903  17.379  -2.050  1.00 20.00     0.133 C 
HETATM    3  N13 UNL     1     -34.594  18.992  -0.874  1.00 20.00    -0.197 NA
ENDROOT
BRANCH   2   4
HETATM    4  C11 UNL     1     -33.750  16.585  -3.049  1.00 20.00    -0.027 C 
HETATM    5  C5  UNL     1     -34.937  15.907  -2.326  1.00 20.00     0.015 C 
HETATM    6  C8  UNL     1     -35.791  15.108  -3.326  1.00 20.00    -0.013 C 
HETATM    7  C2  UNL     1     -36.327  16.060  -4.408  1.00 20.00     0.009 C 
HETATM    8  C3  UNL     1     -34.916  14.030  -3.989  1.00 20.00     0.009 C 
HETATM    9  C9  UNL     1     -35.158  16.727  -5.151  1.00 20.00    -0.013 C 
HETATM   10  C4  UNL     1     -34.287  15.642  -5.804  1.00 20.00     0.009 C 
HETATM   11  C6  UNL     1     -34.308  17.523  -4.145  1.00 20.00     0.015 C 
HETATM   12  C10 UNL     1     -33.740  14.688  -4.729  1.00 20.00    -0.013 C 
HETATM   13  C7  UNL     1     -32.893  15.489  -3.725  1.00 20.00     0.015 C 
ENDBRANCH   2   4
TORSDOF 1
ENDMDL
MODEL 7
REMARK VINA RESULT:      -4.9      2.172      3.819
REMARK  1 active torsions:
REMARK  status: ('A' for Active; 'I' for Inactive)
REMARK    1  A    between atoms: C11_11  and  C12_12 
ROOT
HETATM    1  C1  UNL     1     -33.838  18.325  -1.466  1.00 20.00     0.059 C 
HETATM    2  C12 UNL     1     -32.898  17.384  -2.059  1.00 20.00     0.133 C 
HETATM    3  N13 UNL     1     -34.561  19.089  -0.975  1.00 20.00    -0.197 NA
ENDROOT
BRANCH   2   4
HETATM    4  C11 UNL     1     -33.746  16.587  -3.053  1.00 20.00    -0.027 C 
HETATM    5  C5  UNL     1     -32.891  15.489  -3.729  1.00 20.00     0.015 C 
HETATM    6  C8  UNL     1     -33.740  14.685  -4.729  1.00 20.00    -0.013 C 
HETATM    7  C2  UNL     1     -34.915  14.030  -3.984  1.00 20.00     0.009 C 
HETATM    8  C3  UNL     1     -34.290  15.636  -5.805  1.00 20.00     0.009 C 
HETATM    9  C9  UNL     1     -35.788  15.110  -3.323  1.00 20.00    -0.013 C 
HETATM   10  C4  UNL     1     -36.328  16.059  -4.405  1.00 20.00     0.009 C 
HETATM   11  C6  UNL     1     -34.932  15.912  -2.326  1.00 20.00     0.015 C 
HETATM   12  C10 UNL     1     -35.159  16.724  -5.152  1.00 20.00    -0.013 C 
HETATM   13  C7  UNL     1     -34.307  17.522  -4.150  1.00 20.00     0.015 C 
ENDBRANCH   2   4
TORSDOF 1
ENDMDL
MODEL 8
REMARK VINA RESULT:      -4.9      2.168      3.897
REMARK  1 active torsions:
REMARK  status: ('A' for Active; 'I' for Inactive)
REMARK    1  A    between atoms: C11_11  and  C12_12 
ROOT
HETATM    1  C1  UNL     1     -33.856  18.309  -1.423  1.00 20.00     0.059 C 
HETATM    2  C12 UNL     1     -32.906  17.393  -2.037  1.00 20.00     0.133 C 
HETATM    3  N13 UNL     1     -34.588  19.054  -0.915  1.00 20.00    -0.197 NA
ENDROOT
BRANCH   2   4
HETATM    4  C11 UNL     1     -33.749  16.597  -3.036  1.00 20.00    -0.027 C 
HETATM    5  C5  UNL     1     -34.310  17.533  -4.131  1.00 20.00     0.015 C 
HETATM    6  C8  UNL     1     -35.158  16.736  -5.138  1.00 20.00    -0.013 C 
HETATM    7  C2  UNL     1     -34.284  15.653  -5.792  1.00 20.00     0.009 C 
HETATM    8  C3  UNL     1     -36.326  16.064  -4.396  1.00 20.00     0.009 C 
HETATM    9  C9  UNL     1     -33.734  14.701  -4.718  1.00 20.00    -0.013 C 
HETATM   10  C4  UNL     1     -34.908  14.039  -3.978  1.00 20.00     0.009 C 
HETATM   11  C6  UNL     1     -32.889  15.504  -3.713  1.00 20.00     0.015 C 
HETATM   12  C10 UNL     1     -35.785  15.114  -3.315  1.00 20.00    -0.013 C 
HETATM   13  C7  UNL     1     -34.935  15.915  -2.314  1.00 20.00     0.015 C 
ENDBRANCH   2   4
TORSDOF 1
ENDMDL
MODEL 9
REMARK VINA RESULT:      -4.8     16.514     17.919
REMARK  1 active torsions:
REMARK  status: ('A' for Active; 'I' for Inactive)
REMARK    1  A    between atoms: C11_11  and  C12_12 
ROOT
HETATM    1  C1  UNL     1     -22.234  17.385   7.833  1.00 20.00     0.059 C 
HETATM    2  C12 UNL     1     -23.377  18.245   8.103  1.00 20.00     0.133 C 
HETATM    3  N13 UNL     1     -21.321  16.712   7.585  1.00 20.00    -0.197 NA
ENDROOT
BRANCH   2   4
HETATM    4  C11 UNL     1     -23.751  17.923   9.553  1.00 20.00    -0.027 C 
HETATM    5  C5  UNL     1     -23.960  16.400   9.727  1.00 20.00     0.015 C 
HETATM    6  C8  UNL     1     -24.336  16.072  11.182  1.00 20.00    -0.013 C 
HETATM    7  C2  UNL     1     -23.207  16.542  12.115  1.00 20.00     0.009 C 
HETATM    8  C3  UNL     1     -25.635  16.809  11.548  1.00 20.00     0.009 C 
HETATM    9  C9  UNL     1     -23.000  18.058  11.969  1.00 20.00    -0.013 C 
HETATM   10  C4  UNL     1     -24.305  18.786  12.331  1.00 20.00     0.009 C 
HETATM   11  C6  UNL     1     -22.627  18.380  10.511  1.00 20.00     0.015 C 
HETATM   12  C10 UNL     1     -25.439  18.327  11.399  1.00 20.00    -0.013 C 
HETATM   13  C7  UNL     1     -25.059  18.649   9.943  1.00 20.00     0.015 C 
ENDBRANCH   2   4
TORSDOF 1
ENDMDL
