MODEL 1
REMARK VINA RESULT:      -4.6      0.000      0.000
REMARK  0 active torsions:
REMARK  status: ('A' for Active; 'I' for Inactive)
ROOT
HETATM    1  C1  UNL     1     -35.342  15.878  -2.978  1.00 20.00    -0.080 C 
HETATM    2  C2  UNL     1     -35.053  16.372  -1.770  1.00 20.00     0.015 C 
HETATM    3  C3  UNL     1     -36.707  15.950  -3.630  1.00 20.00     0.039 C 
HETATM    4  C4  UNL     1     -36.219  13.734  -4.655  1.00 20.00     0.007 C 
HETATM    5  C5  UNL     1     -34.840  13.703  -3.964  1.00 20.00     0.015 C 
HETATM    6  C6  UNL     1     -36.414  15.237  -4.970  1.00 20.00    -0.002 C 
HETATM    7  C7  UNL     1     -34.405  15.193  -3.978  1.00 20.00    -0.014 C 
HETATM    8  C8  UNL     1     -34.979  15.714  -5.331  1.00 20.00    -0.033 C 
HETATM    9  C9  UNL     1     -32.912  15.381  -3.765  1.00 20.00     0.021 C 
HETATM   10  C10 UNL     1     -34.404  15.046  -6.596  1.00 20.00     0.016 C 
HETATM   11  C11 UNL     1     -34.853  17.237  -5.553  1.00 20.00     0.016 C 
ENDROOT
TORSDOF 0
ENDMDL
MODEL 2
REMARK VINA RESULT:      -4.4      1.064      3.322
REMARK  0 active torsions:
REMARK  status: ('A' for Active; 'I' for Inactive)
ROOT
HETATM    1  C1  UNL     1     -34.605  14.864  -3.734  1.00 20.00    -0.080 C 
HETATM    2  C2  UNL     1     -35.026  13.618  -3.973  1.00 20.00     0.015 C 
HETATM    3  C3  UNL     1     -33.162  15.314  -3.820  1.00 20.00     0.039 C 
HETATM    4  C4  UNL     1     -33.646  16.875  -1.941  1.00 20.00     0.007 C 
HETATM    5  C5  UNL     1     -35.106  16.379  -1.888  1.00 20.00     0.015 C 
HETATM    6  C6  UNL     1     -33.313  16.808  -3.452  1.00 20.00    -0.002 C 
HETATM    7  C7  UNL     1     -35.438  16.100  -3.378  1.00 20.00    -0.014 C 
HETATM    8  C8  UNL     1     -34.651  17.217  -4.130  1.00 20.00    -0.033 C 
HETATM    9  C9  UNL     1     -36.931  16.029  -3.654  1.00 20.00     0.021 C 
HETATM   10  C10 UNL     1     -35.089  18.662  -3.815  1.00 20.00     0.016 C 
HETATM   11  C11 UNL     1     -34.647  17.093  -5.669  1.00 20.00     0.016 C 
ENDROOT
TORSDOF 0
ENDMDL
MODEL 3
REMARK VINA RESULT:      -4.4      1.359      3.067
REMARK  0 active torsions:
REMARK  status: ('A' for Active; 'I' for Inactive)
ROOT
HETATM    1  C1  UNL     1     -35.766  17.124  -3.685  1.00 20.00    -0.080 C 
HETATM    2  C2  UNL     1     -36.829  17.831  -4.081  1.00 20.00     0.015 C 
HETATM    3  C3  UNL     1     -35.576  16.567  -2.290  1.00 20.00     0.039 C 
HETATM    4  C4  UNL     1     -33.137  16.981  -2.568  1.00 20.00     0.007 C 
HETATM    5  C5  UNL     1     -33.380  17.546  -3.983  1.00 20.00     0.015 C 
HETATM    6  C6  UNL     1     -34.207  15.868  -2.452  1.00 20.00    -0.002 C 
HETATM    7  C7  UNL     1     -34.554  16.679  -4.512  1.00 20.00    -0.014 C 
HETATM    8  C8  UNL     1     -34.265  15.279  -3.890  1.00 20.00    -0.033 C 
HETATM    9  C9  UNL     1     -34.697  16.725  -6.024  1.00 20.00     0.021 C 
HETATM   10  C10 UNL     1     -32.950  14.612  -4.340  1.00 20.00     0.016 C 
HETATM   11  C11 UNL     1     -35.377  14.227  -4.100  1.00 20.00     0.016 C 
ENDROOT
TORSDOF 0
ENDMDL
MODEL 4
REMARK VINA RESULT:      -4.4      1.095      3.232
REMARK  0 active torsions:
REMARK  status: ('A' for Active; 'I' for Inactive)
ROOT
HETATM    1  C1  UNL     1     -34.502  15.984  -5.791  1.00 20.00    -0.080 C 
HETATM    2  C2  UNL     1     -34.397  16.603  -6.971  1.00 20.00     0.015 C 
HETATM    3  C3  UNL     1     -33.722  14.747  -5.399  1.00 20.00     0.039 C 
HETATM    4  C4  UNL     1     -35.718  14.027  -4.097  1.00 20.00     0.007 C 
HETATM    5  C5  UNL     1     -36.475  15.300  -4.529  1.00 20.00     0.015 C 
HETATM    6  C6  UNL     1     -34.257  14.522  -3.965  1.00 20.00    -0.002 C 
HETATM    7  C7  UNL     1     -35.357  16.375  -4.581  1.00 20.00    -0.014 C 
HETATM    8  C8  UNL     1     -34.418  15.963  -3.406  1.00 20.00    -0.033 C 
HETATM    9  C9  UNL     1     -35.893  17.796  -4.545  1.00 20.00     0.021 C 
HETATM   10  C10 UNL     1     -35.053  16.015  -2.001  1.00 20.00     0.016 C 
HETATM   11  C11 UNL     1     -33.098  16.760  -3.312  1.00 20.00     0.016 C 
ENDROOT
TORSDOF 0
ENDMDL
MODEL 5
REMARK VINA RESULT:      -4.3      1.824      2.743
REMARK  0 active torsions:
REMARK  status: ('A' for Active; 'I' for Inactive)
ROOT
HETATM    1  C1  UNL     1     -33.907  17.438  -1.595  1.00 20.00    -0.080 C 
HETATM    2  C2  UNL     1     -33.207  18.081  -0.656  1.00 20.00     0.015 C 
HETATM    3  C3  UNL     1     -35.124  16.579  -1.321  1.00 20.00     0.039 C 
HETATM    4  C4  UNL     1     -34.392  15.122  -3.202  1.00 20.00     0.007 C 
HETATM    5  C5  UNL     1     -33.162  16.023  -3.439  1.00 20.00     0.015 C 
HETATM    6  C6  UNL     1     -35.479  16.131  -2.758  1.00 20.00    -0.002 C 
HETATM    7  C7  UNL     1     -33.698  17.443  -3.114  1.00 20.00    -0.014 C 
HETATM    8  C8  UNL     1     -35.172  17.388  -3.619  1.00 20.00    -0.033 C 
HETATM    9  C9  UNL     1     -32.833  18.553  -3.687  1.00 20.00     0.021 C 
HETATM   10  C10 UNL     1     -35.345  17.158  -5.134  1.00 20.00     0.016 C 
HETATM   11  C11 UNL     1     -36.031  18.623  -3.269  1.00 20.00     0.016 C 
ENDROOT
TORSDOF 0
ENDMDL
MODEL 6
REMARK VINA RESULT:      -4.2      1.079      3.183
REMARK  0 active torsions:
REMARK  status: ('A' for Active; 'I' for Inactive)
ROOT
HETATM    1  C1  UNL     1     -35.453  15.015  -5.334  1.00 20.00    -0.080 C 
HETATM    2  C2  UNL     1     -35.851  14.659  -6.560  1.00 20.00     0.015 C 
HETATM    3  C3  UNL     1     -35.575  14.141  -4.104  1.00 20.00     0.039 C 
HETATM    4  C4  UNL     1     -35.969  16.219  -2.792  1.00 20.00     0.007 C 
HETATM    5  C5  UNL     1     -35.844  17.068  -4.074  1.00 20.00     0.015 C 
HETATM    6  C6  UNL     1     -34.958  15.073  -3.036  1.00 20.00    -0.002 C 
HETATM    7  C7  UNL     1     -34.764  16.311  -4.894  1.00 20.00    -0.014 C 
HETATM    8  C8  UNL     1     -33.797  15.777  -3.794  1.00 20.00    -0.033 C 
HETATM    9  C9  UNL     1     -34.136  17.164  -5.984  1.00 20.00     0.021 C 
HETATM   10  C10 UNL     1     -33.080  16.858  -2.960  1.00 20.00     0.016 C 
HETATM   11  C11 UNL     1     -32.695  14.820  -4.299  1.00 20.00     0.016 C 
ENDROOT
TORSDOF 0
ENDMDL
MODEL 7
REMARK VINA RESULT:      -4.2      1.013      2.294
REMARK  0 active torsions:
REMARK  status: ('A' for Active; 'I' for Inactive)
ROOT
HETATM    1  C1  UNL     1     -33.978  14.880  -4.312  1.00 20.00    -0.080 C 
HETATM    2  C2  UNL     1     -32.730  14.400  -4.338  1.00 20.00     0.015 C 
HETATM    3  C3  UNL     1     -34.702  15.321  -3.058  1.00 20.00     0.039 C 
HETATM    4  C4  UNL     1     -36.802  14.484  -4.101  1.00 20.00     0.007 C 
HETATM    5  C5  UNL     1     -36.020  14.045  -5.356  1.00 20.00     0.015 C 
HETATM    6  C6  UNL     1     -36.055  15.767  -3.659  1.00 20.00    -0.002 C 
HETATM    7  C7  UNL     1     -34.925  15.138  -5.489  1.00 20.00    -0.014 C 
HETATM    8  C8  UNL     1     -35.656  16.429  -5.008  1.00 20.00    -0.033 C 
HETATM    9  C9  UNL     1     -34.304  15.195  -6.875  1.00 20.00     0.021 C 
HETATM   10  C10 UNL     1     -36.861  16.866  -5.864  1.00 20.00     0.016 C 
HETATM   11  C11 UNL     1     -34.755  17.675  -4.861  1.00 20.00     0.016 C 
ENDROOT
TORSDOF 0
ENDMDL
MODEL 8
REMARK VINA RESULT:      -4.2      0.951      3.452
REMARK  0 active torsions:
REMARK  status: ('A' for Active; 'I' for Inactive)
ROOT
HETATM    1  C1  UNL     1     -34.465  16.075  -5.397  1.00 20.00    -0.080 C 
HETATM    2  C2  UNL     1     -34.512  15.442  -6.574  1.00 20.00     0.015 C 
HETATM    3  C3  UNL     1     -34.514  17.578  -5.229  1.00 20.00     0.039 C 
HETATM    4  C4  UNL     1     -32.987  17.306  -3.281  1.00 20.00     0.007 C 
HETATM    5  C5  UNL     1     -32.963  15.779  -3.497  1.00 20.00     0.015 C 
HETATM    6  C6  UNL     1     -34.431  17.690  -3.689  1.00 20.00    -0.002 C 
HETATM    7  C7  UNL     1     -34.402  15.470  -3.991  1.00 20.00    -0.014 C 
HETATM    8  C8  UNL     1     -35.274  16.484  -3.189  1.00 20.00    -0.033 C 
HETATM    9  C9  UNL     1     -34.779  14.004  -3.852  1.00 20.00     0.021 C 
HETATM   10  C10 UNL     1     -35.257  16.308  -1.658  1.00 20.00     0.016 C 
HETATM   11  C11 UNL     1     -36.762  16.536  -3.601  1.00 20.00     0.016 C 
ENDROOT
TORSDOF 0
ENDMDL
MODEL 9
REMARK VINA RESULT:      -4.2      0.946      2.896
REMARK  0 active torsions:
REMARK  status: ('A' for Active; 'I' for Inactive)
ROOT
HETATM    1  C1  UNL     1     -36.596  15.520  -4.224  1.00 20.00    -0.080 C 
HETATM    2  C2  UNL     1     -37.622  14.667  -4.304  1.00 20.00     0.015 C 
HETATM    3  C3  UNL     1     -36.738  17.021  -4.082  1.00 20.00     0.039 C 
HETATM    4  C4  UNL     1     -34.677  17.242  -5.460  1.00 20.00     0.007 C 
HETATM    5  C5  UNL     1     -34.578  15.707  -5.583  1.00 20.00     0.015 C 
HETATM    6  C6  UNL     1     -35.250  17.439  -4.036  1.00 20.00    -0.002 C 
HETATM    7  C7  UNL     1     -35.096  15.210  -4.207  1.00 20.00    -0.014 C 
HETATM    8  C8  UNL     1     -34.576  16.300  -3.220  1.00 20.00    -0.033 C 
HETATM    9  C9  UNL     1     -34.691  13.777  -3.899  1.00 20.00     0.021 C 
HETATM   10  C10 UNL     1     -33.042  16.429  -3.125  1.00 20.00     0.016 C 
HETATM   11  C11 UNL     1     -35.089  16.168  -1.769  1.00 20.00     0.016 C 
ENDROOT
TORSDOF 0
ENDMDL
