MODEL 1
REMARK VINA RESULT:      -3.9      0.000      0.000
REMARK  1 active torsions:
REMARK  status: ('A' for Active; 'I' for Inactive)
REMARK    1  A    between atoms: C5_5  and  C6_6 
ROOT
HETATM    1  C1  UNL     1     -32.740   6.878   2.870  1.00 20.00     0.014 C 
HETATM    2  C2  UNL     1     -33.520   6.232   3.515  1.00 20.00    -0.091 C 
HETATM    3  C4  UNL     1     -35.904   5.700   3.789  1.00 20.00     0.046 C 
HETATM    4  C6  UNL     1     -34.483   5.444   4.306  1.00 20.00     0.095 C 
HETATM    5 CL7  UNL     1     -34.100   3.710   4.034  1.00 20.00    -0.105 Cl
ENDROOT
BRANCH   4   6
HETATM    6  C5  UNL     1     -34.404   5.789   5.807  1.00 20.00     0.034 C 
HETATM    7  C3  UNL     1     -33.744   7.123   6.148  1.00 20.00     0.008 C 
ENDBRANCH   4   6
TORSDOF 1
ENDMDL
MODEL 2
REMARK VINA RESULT:      -3.7     16.421     17.125
REMARK  1 active torsions:
REMARK  status: ('A' for Active; 'I' for Inactive)
REMARK    1  A    between atoms: C5_5  and  C6_6 
ROOT
HETATM    1  C1  UNL     1     -26.141  19.026  11.932  1.00 20.00     0.014 C 
HETATM    2  C2  UNL     1     -25.241  18.286  11.641  1.00 20.00    -0.091 C 
HETATM    3  C4  UNL     1     -22.894  17.734  12.120  1.00 20.00     0.046 C 
HETATM    4  C6  UNL     1     -24.131  17.383  11.285  1.00 20.00     0.095 C 
HETATM    5 CL7  UNL     1     -24.641  15.717  11.723  1.00 20.00    -0.105 Cl
ENDROOT
BRANCH   4   6
HETATM    6  C5  UNL     1     -23.788  17.468   9.783  1.00 20.00     0.034 C 
HETATM    7  C3  UNL     1     -22.941  18.666   9.362  1.00 20.00     0.008 C 
ENDBRANCH   4   6
TORSDOF 1
ENDMDL
MODEL 3
REMARK VINA RESULT:      -3.7      8.804      9.555
REMARK  1 active torsions:
REMARK  status: ('A' for Active; 'I' for Inactive)
REMARK    1  A    between atoms: C5_5  and  C6_6 
ROOT
HETATM    1  C1  UNL     1     -43.417   5.030   1.503  1.00 20.00     0.014 C 
HETATM    2  C2  UNL     1     -42.771   5.711   0.754  1.00 20.00    -0.091 C 
HETATM    3  C4  UNL     1     -40.955   5.662  -0.902  1.00 20.00     0.046 C 
HETATM    4  C6  UNL     1     -41.971   6.543  -0.164  1.00 20.00     0.095 C 
HETATM    5 CL7  UNL     1     -43.100   7.225  -1.382  1.00 20.00    -0.105 Cl
ENDROOT
BRANCH   4   6
HETATM    6  C5  UNL     1     -41.234   7.672   0.587  1.00 20.00     0.034 C 
HETATM    7  C3  UNL     1     -41.606   9.094   0.177  1.00 20.00     0.008 C 
ENDBRANCH   4   6
TORSDOF 1
ENDMDL
MODEL 4
REMARK VINA RESULT:      -3.7      8.850      9.473
REMARK  1 active torsions:
REMARK  status: ('A' for Active; 'I' for Inactive)
REMARK    1  A    between atoms: C5_5  and  C6_6 
ROOT
HETATM    1  C1  UNL     1     -41.331   9.668   0.420  1.00 20.00     0.014 C 
HETATM    2  C2  UNL     1     -41.772   8.561   0.275  1.00 20.00    -0.091 C 
HETATM    3  C4  UNL     1     -43.368   6.928   1.185  1.00 20.00     0.046 C 
HETATM    4  C6  UNL     1     -42.315   7.200   0.104  1.00 20.00     0.095 C 
HETATM    5 CL7  UNL     1     -43.136   7.153  -1.493  1.00 20.00    -0.105 Cl
ENDROOT
BRANCH   4   6
HETATM    6  C5  UNL     1     -41.205   6.131   0.176  1.00 20.00     0.034 C 
HETATM    7  C3  UNL     1     -40.993   5.308  -1.092  1.00 20.00     0.008 C 
ENDBRANCH   4   6
TORSDOF 1
ENDMDL
MODEL 5
REMARK VINA RESULT:      -3.6     16.267     17.031
REMARK  1 active torsions:
REMARK  status: ('A' for Active; 'I' for Inactive)
REMARK    1  A    between atoms: C5_5  and  C6_6 
ROOT
HETATM    1  C1  UNL     1     -23.866  18.457   9.012  1.00 20.00     0.014 C 
HETATM    2  C2  UNL     1     -23.970  18.050  10.137  1.00 20.00    -0.091 C 
HETATM    3  C4  UNL     1     -24.537  16.075  11.486  1.00 20.00     0.046 C 
HETATM    4  C6  UNL     1     -24.103  17.546  11.517  1.00 20.00     0.095 C 
HETATM    5 CL7  UNL     1     -22.475  17.627  12.271  1.00 20.00    -0.105 Cl
ENDROOT
BRANCH   4   6
HETATM    6  C5  UNL     1     -25.121  18.373  12.329  1.00 20.00     0.034 C 
HETATM    7  C3  UNL     1     -26.399  18.763  11.592  1.00 20.00     0.008 C 
ENDBRANCH   4   6
TORSDOF 1
ENDMDL
MODEL 6
REMARK VINA RESULT:      -3.6      1.329      2.694
REMARK  1 active torsions:
REMARK  status: ('A' for Active; 'I' for Inactive)
REMARK    1  A    between atoms: C5_5  and  C6_6 
ROOT
HETATM    1  C1  UNL     1     -33.693   7.065   6.066  1.00 20.00     0.014 C 
HETATM    2  C2  UNL     1     -33.985   6.346   5.150  1.00 20.00    -0.091 C 
HETATM    3  C4  UNL     1     -34.117   3.998   4.436  1.00 20.00     0.046 C 
HETATM    4  C6  UNL     1     -34.339   5.458   4.026  1.00 20.00     0.095 C 
HETATM    5 CL7  UNL     1     -36.091   5.683   3.704  1.00 20.00    -0.105 Cl
ENDROOT
BRANCH   4   6
HETATM    6  C5  UNL     1     -33.509   5.778   2.765  1.00 20.00     0.034 C 
HETATM    7  C3  UNL     1     -32.565   6.972   2.877  1.00 20.00     0.008 C 
ENDBRANCH   4   6
TORSDOF 1
ENDMDL
MODEL 7
REMARK VINA RESULT:      -3.6     16.015     17.321
REMARK  1 active torsions:
REMARK  status: ('A' for Active; 'I' for Inactive)
REMARK    1  A    between atoms: C5_5  and  C6_6 
ROOT
HETATM    1  C1  UNL     1     -21.797  17.798  12.332  1.00 20.00     0.014 C 
HETATM    2  C2  UNL     1     -22.881  17.614  11.849  1.00 20.00    -0.091 C 
HETATM    3  C4  UNL     1     -24.684  15.962  11.596  1.00 20.00     0.046 C 
HETATM    4  C6  UNL     1     -24.211  17.380  11.254  1.00 20.00     0.095 C 
HETATM    5 CL7  UNL     1     -25.346  18.542  12.020  1.00 20.00    -0.105 Cl
ENDROOT
BRANCH   4   6
HETATM    6  C5  UNL     1     -24.190  17.569   9.723  1.00 20.00     0.034 C 
HETATM    7  C3  UNL     1     -23.371  18.751   9.211  1.00 20.00     0.008 C 
ENDBRANCH   4   6
TORSDOF 1
ENDMDL
MODEL 8
REMARK VINA RESULT:      -3.6      8.664      9.315
REMARK  1 active torsions:
REMARK  status: ('A' for Active; 'I' for Inactive)
REMARK    1  A    between atoms: C5_5  and  C6_6 
ROOT
HETATM    1  C1  UNL     1     -40.967   4.977  -1.215  1.00 20.00     0.014 C 
HETATM    2  C2  UNL     1     -41.557   5.853  -0.644  1.00 20.00    -0.091 C 
HETATM    3  C4  UNL     1     -43.206   7.651  -0.939  1.00 20.00     0.046 C 
HETATM    4  C6  UNL     1     -42.282   6.933   0.051  1.00 20.00     0.095 C 
HETATM    5 CL7  UNL     1     -43.309   6.160   1.306  1.00 20.00    -0.105 Cl
ENDROOT
BRANCH   4   6
HETATM    6  C5  UNL     1     -41.313   7.949   0.691  1.00 20.00     0.034 C 
HETATM    7  C3  UNL     1     -41.465   9.395   0.227  1.00 20.00     0.008 C 
ENDBRANCH   4   6
TORSDOF 1
ENDMDL
MODEL 9
REMARK VINA RESULT:      -3.6      8.997      9.449
REMARK  1 active torsions:
REMARK  status: ('A' for Active; 'I' for Inactive)
REMARK    1  A    between atoms: C5_5  and  C6_6 
ROOT
HETATM    1  C1  UNL     1     -41.297   9.548   0.329  1.00 20.00     0.014 C 
HETATM    2  C2  UNL     1     -41.767   8.464   0.119  1.00 20.00    -0.091 C 
HETATM    3  C4  UNL     1     -43.347   7.229  -1.303  1.00 20.00     0.046 C 
HETATM    4  C6  UNL     1     -42.350   7.134  -0.142  1.00 20.00     0.095 C 
HETATM    5 CL7  UNL     1     -41.007   6.056  -0.652  1.00 20.00    -0.105 Cl
ENDROOT
BRANCH   4   6
HETATM    6  C5  UNL     1     -43.057   6.568   1.108  1.00 20.00     0.034 C 
HETATM    7  C3  UNL     1     -42.956   5.057   1.300  1.00 20.00     0.008 C 
ENDBRANCH   4   6
TORSDOF 1
ENDMDL
