MODEL 1
REMARK VINA RESULT:      -4.5      0.000      0.000
REMARK  2 active torsions:
REMARK  status: ('A' for Active; 'I' for Inactive)
REMARK    1  A    between atoms: C1_1  and  C7_7 
REMARK    2  A    between atoms: C7_7  and  S10_10 
ROOT
HETATM    1  C1  UNL     1     -23.722  18.290   9.150  1.00 20.00     0.009 A 
HETATM    2  C2  UNL     1     -22.502  17.932   8.551  1.00 20.00     0.068 A 
HETATM    3  C3  UNL     1     -24.481  18.736   8.101  1.00 20.00     0.084 A 
HETATM    4  C4  UNL     1     -21.299  17.383   9.200  1.00 20.00     0.073 C 
HETATM    5  C5  UNL     1     -25.847  19.263   7.982  1.00 20.00     0.079 C 
HETATM    6  N8  UNL     1     -22.504  18.140   7.232  1.00 20.00    -0.133 NA
HETATM    7  O9  UNL     1     -23.765  18.652   6.950  1.00 20.00    -0.217 OA
ENDROOT
BRANCH   1   8
HETATM    8  C7  UNL     1     -24.110  18.206  10.601  1.00 20.00     0.116 C 
BRANCH   8   9
HETATM    9  S10 UNL     1     -24.331  16.497  11.151  1.00 20.00    -0.169 SA
HETATM   10  C6  UNL     1     -25.708  16.759  12.293  1.00 20.00     0.090 C 
ENDBRANCH   8   9
ENDBRANCH   1   8
TORSDOF 2
ENDMDL
MODEL 2
REMARK VINA RESULT:      -4.5      0.669      2.555
REMARK  2 active torsions:
REMARK  status: ('A' for Active; 'I' for Inactive)
REMARK    1  A    between atoms: C1_1  and  C7_7 
REMARK    2  A    between atoms: C7_7  and  S10_10 
ROOT
HETATM    1  C1  UNL     1     -23.750  18.308   8.910  1.00 20.00     0.009 A 
HETATM    2  C2  UNL     1     -24.411  18.746   7.749  1.00 20.00     0.068 A 
HETATM    3  C3  UNL     1     -22.511  17.938   8.459  1.00 20.00     0.084 A 
HETATM    4  C4  UNL     1     -25.785  19.263   7.628  1.00 20.00     0.073 C 
HETATM    5  C5  UNL     1     -21.311  17.392   9.108  1.00 20.00     0.079 C 
HETATM    6  N8  UNL     1     -23.641  18.654   6.663  1.00 20.00    -0.133 NA
HETATM    7  O9  UNL     1     -22.434  18.140   7.119  1.00 20.00    -0.217 OA
ENDROOT
BRANCH   1   8
HETATM    8  C7  UNL     1     -24.275  18.255  10.319  1.00 20.00     0.116 C 
BRANCH   8   9
HETATM    9  S10 UNL     1     -24.201  16.586  11.012  1.00 20.00    -0.169 SA
HETATM   10  C6  UNL     1     -25.525  16.743  12.234  1.00 20.00     0.090 C 
ENDBRANCH   8   9
ENDBRANCH   1   8
TORSDOF 2
ENDMDL
MODEL 3
REMARK VINA RESULT:      -4.3     16.619     18.032
REMARK  2 active torsions:
REMARK  status: ('A' for Active; 'I' for Inactive)
REMARK    1  A    between atoms: C1_1  and  C7_7 
REMARK    2  A    between atoms: C7_7  and  S10_10 
ROOT
HETATM    1  C1  UNL     1     -36.108  15.230  -3.928  1.00 20.00     0.009 A 
HETATM    2  C2  UNL     1     -35.264  14.139  -4.200  1.00 20.00     0.068 A 
HETATM    3  C3  UNL     1     -37.363  14.739  -4.175  1.00 20.00     0.084 A 
HETATM    4  C4  UNL     1     -33.795  14.082  -4.105  1.00 20.00     0.073 C 
HETATM    5  C5  UNL     1     -38.713  15.313  -4.103  1.00 20.00     0.079 C 
HETATM    6  N8  UNL     1     -35.943  13.056  -4.586  1.00 20.00    -0.133 NA
HETATM    7  O9  UNL     1     -37.277  13.443  -4.569  1.00 20.00    -0.217 OA
ENDROOT
BRANCH   1   8
HETATM    8  C7  UNL     1     -35.729  16.613  -3.474  1.00 20.00     0.116 C 
BRANCH   8   9
HETATM    9  S10 UNL     1     -35.164  16.635  -1.756  1.00 20.00    -0.169 SA
HETATM   10  C6  UNL     1     -33.464  17.185  -2.039  1.00 20.00     0.090 C 
ENDBRANCH   8   9
ENDBRANCH   1   8
TORSDOF 2
ENDMDL
MODEL 4
REMARK VINA RESULT:      -4.1     17.137     18.156
REMARK  2 active torsions:
REMARK  status: ('A' for Active; 'I' for Inactive)
REMARK    1  A    between atoms: C1_1  and  C7_7 
REMARK    2  A    between atoms: C7_7  and  S10_10 
ROOT
HETATM    1  C1  UNL     1     -36.080  15.242  -3.980  1.00 20.00     0.009 A 
HETATM    2  C2  UNL     1     -35.246  14.135  -4.215  1.00 20.00     0.068 A 
HETATM    3  C3  UNL     1     -37.340  14.751  -4.198  1.00 20.00     0.084 A 
HETATM    4  C4  UNL     1     -33.777  14.072  -4.129  1.00 20.00     0.073 C 
HETATM    5  C5  UNL     1     -38.687  15.336  -4.139  1.00 20.00     0.079 C 
HETATM    6  N8  UNL     1     -35.935  13.043  -4.552  1.00 20.00    -0.133 NA
HETATM    7  O9  UNL     1     -37.267  13.439  -4.541  1.00 20.00    -0.217 OA
ENDROOT
BRANCH   1   8
HETATM    8  C7  UNL     1     -35.688  16.639  -3.584  1.00 20.00     0.116 C 
BRANCH   8   9
HETATM    9  S10 UNL     1     -35.282  16.761  -1.826  1.00 20.00    -0.169 SA
HETATM   10  C6  UNL     1     -36.612  17.877  -1.319  1.00 20.00     0.090 C 
ENDBRANCH   8   9
ENDBRANCH   1   8
TORSDOF 2
ENDMDL
MODEL 5
REMARK VINA RESULT:      -4.1     17.835     18.768
REMARK  2 active torsions:
REMARK  status: ('A' for Active; 'I' for Inactive)
REMARK    1  A    between atoms: C1_1  and  C7_7 
REMARK    2  A    between atoms: C7_7  and  S10_10 
ROOT
HETATM    1  C1  UNL     1     -36.153  15.260  -4.012  1.00 20.00     0.009 A 
HETATM    2  C2  UNL     1     -35.251  14.202  -4.219  1.00 20.00     0.068 A 
HETATM    3  C3  UNL     1     -37.378  14.691  -4.238  1.00 20.00     0.084 A 
HETATM    4  C4  UNL     1     -33.781  14.228  -4.114  1.00 20.00     0.073 C 
HETATM    5  C5  UNL     1     -38.758  15.195  -4.204  1.00 20.00     0.079 C 
HETATM    6  N8  UNL     1     -35.869  13.065  -4.548  1.00 20.00    -0.133 NA
HETATM    7  O9  UNL     1     -37.222  13.381  -4.560  1.00 20.00    -0.217 OA
ENDROOT
BRANCH   1   8
HETATM    8  C7  UNL     1     -35.851  16.683  -3.632  1.00 20.00     0.116 C 
BRANCH   8   9
HETATM    9  S10 UNL     1     -36.065  17.821  -5.022  1.00 20.00    -0.169 SA
HETATM   10  C6  UNL     1     -34.502  17.502  -5.874  1.00 20.00     0.090 C 
ENDBRANCH   8   9
ENDBRANCH   1   8
TORSDOF 2
ENDMDL
MODEL 6
REMARK VINA RESULT:      -4.0     16.589     18.169
REMARK  2 active torsions:
REMARK  status: ('A' for Active; 'I' for Inactive)
REMARK    1  A    between atoms: C1_1  and  C7_7 
REMARK    2  A    between atoms: C7_7  and  S10_10 
ROOT
HETATM    1  C1  UNL     1     -36.109  15.363  -3.886  1.00 20.00     0.009 A 
HETATM    2  C2  UNL     1     -37.401  14.874  -4.148  1.00 20.00     0.068 A 
HETATM    3  C3  UNL     1     -35.297  14.294  -4.158  1.00 20.00     0.084 A 
HETATM    4  C4  UNL     1     -38.684  15.589  -4.027  1.00 20.00     0.073 C 
HETATM    5  C5  UNL     1     -33.844  14.079  -4.106  1.00 20.00     0.079 C 
HETATM    6  N8  UNL     1     -37.390  13.602  -4.552  1.00 20.00    -0.133 NA
HETATM    7  O9  UNL     1     -36.049  13.237  -4.557  1.00 20.00    -0.217 OA
ENDROOT
BRANCH   1   8
HETATM    8  C7  UNL     1     -35.707  16.734  -3.415  1.00 20.00     0.116 C 
BRANCH   8   9
HETATM    9  S10 UNL     1     -35.131  16.725  -1.701  1.00 20.00    -0.169 SA
HETATM   10  C6  UNL     1     -33.416  17.219  -1.991  1.00 20.00     0.090 C 
ENDBRANCH   8   9
ENDBRANCH   1   8
TORSDOF 2
ENDMDL
MODEL 7
REMARK VINA RESULT:      -3.9     17.241     18.767
REMARK  2 active torsions:
REMARK  status: ('A' for Active; 'I' for Inactive)
REMARK    1  A    between atoms: C1_1  and  C7_7 
REMARK    2  A    between atoms: C7_7  and  S10_10 
ROOT
HETATM    1  C1  UNL     1     -35.347  15.108  -4.369  1.00 20.00     0.009 A 
HETATM    2  C2  UNL     1     -36.380  14.154  -4.368  1.00 20.00     0.068 A 
HETATM    3  C3  UNL     1     -34.210  14.355  -4.241  1.00 20.00     0.084 A 
HETATM    4  C4  UNL     1     -37.830  14.387  -4.480  1.00 20.00     0.073 C 
HETATM    5  C5  UNL     1     -32.778  14.676  -4.169  1.00 20.00     0.079 C 
HETATM    6  N8  UNL     1     -35.918  12.907  -4.250  1.00 20.00    -0.133 NA
HETATM    7  O9  UNL     1     -34.537  13.040  -4.168  1.00 20.00    -0.217 OA
ENDROOT
BRANCH   1   8
HETATM    8  C7  UNL     1     -35.457  16.604  -4.482  1.00 20.00     0.116 C 
BRANCH   8   9
HETATM    9  S10 UNL     1     -34.921  17.208  -6.100  1.00 20.00    -0.169 SA
HETATM   10  C6  UNL     1     -36.394  16.770  -7.052  1.00 20.00     0.090 C 
ENDBRANCH   8   9
ENDBRANCH   1   8
TORSDOF 2
ENDMDL
MODEL 8
REMARK VINA RESULT:      -3.7     17.491     18.660
REMARK  2 active torsions:
REMARK  status: ('A' for Active; 'I' for Inactive)
REMARK    1  A    between atoms: C1_1  and  C7_7 
REMARK    2  A    between atoms: C7_7  and  S10_10 
ROOT
HETATM    1  C1  UNL     1     -35.956  15.392  -4.053  1.00 20.00     0.009 A 
HETATM    2  C2  UNL     1     -37.030  14.505  -4.239  1.00 20.00     0.068 A 
HETATM    3  C3  UNL     1     -34.850  14.591  -4.153  1.00 20.00     0.084 A 
HETATM    4  C4  UNL     1     -38.471  14.810  -4.235  1.00 20.00     0.073 C 
HETATM    5  C5  UNL     1     -33.404  14.833  -4.063  1.00 20.00     0.079 C 
HETATM    6  N8  UNL     1     -36.622  13.250  -4.440  1.00 20.00    -0.133 NA
HETATM    7  O9  UNL     1     -35.234  13.309  -4.384  1.00 20.00    -0.217 OA
ENDROOT
BRANCH   1   8
HETATM    8  C7  UNL     1     -36.004  16.875  -3.800  1.00 20.00     0.116 C 
BRANCH   8   9
HETATM    9  S10 UNL     1     -35.877  17.831  -5.330  1.00 20.00    -0.169 SA
HETATM   10  C6  UNL     1     -34.154  18.356  -5.178  1.00 20.00     0.090 C 
ENDBRANCH   8   9
ENDBRANCH   1   8
TORSDOF 2
ENDMDL
MODEL 9
REMARK VINA RESULT:      -3.7     15.952     17.456
REMARK  2 active torsions:
REMARK  status: ('A' for Active; 'I' for Inactive)
REMARK    1  A    between atoms: C1_1  and  C7_7 
REMARK    2  A    between atoms: C7_7  and  S10_10 
ROOT
HETATM    1  C1  UNL     1     -34.876  15.598  -3.330  1.00 20.00     0.009 A 
HETATM    2  C2  UNL     1     -34.878  14.418  -4.095  1.00 20.00     0.068 A 
HETATM    3  C3  UNL     1     -33.552  15.942  -3.267  1.00 20.00     0.084 A 
HETATM    4  C4  UNL     1     -36.034  13.594  -4.490  1.00 20.00     0.073 C 
HETATM    5  C5  UNL     1     -32.815  17.046  -2.639  1.00 20.00     0.079 C 
HETATM    6  N8  UNL     1     -33.650  14.059  -4.477  1.00 20.00    -0.133 NA
HETATM    7  O9  UNL     1     -32.810  15.031  -3.947  1.00 20.00    -0.217 OA
ENDROOT
BRANCH   1   8
HETATM    8  C7  UNL     1     -36.048  16.317  -2.721  1.00 20.00     0.116 C 
BRANCH   8   9
HETATM    9  S10 UNL     1     -36.921  17.343  -3.928  1.00 20.00    -0.169 SA
HETATM   10  C6  UNL     1     -38.483  16.434  -3.975  1.00 20.00     0.090 C 
ENDBRANCH   8   9
ENDBRANCH   1   8
TORSDOF 2
ENDMDL
