MODEL 1
REMARK VINA RESULT:      -5.6      0.000      0.000
REMARK  2 active torsions:
REMARK  status: ('A' for Active; 'I' for Inactive)
REMARK    1  A    between atoms: C1_1  and  C6_6 
REMARK    2  A    between atoms: C7_7  and  C9_9 
ROOT
HETATM    1  C2  UNL     1     -36.162  16.062  -3.748  1.00 20.00     0.015 C 
HETATM    2  C3  UNL     1     -34.523  14.895  -5.320  1.00 20.00     0.015 C 
HETATM    3  C4  UNL     1     -35.224  15.769  -2.577  1.00 20.00     0.005 C 
HETATM    4  C5  UNL     1     -33.608  14.612  -4.128  1.00 20.00     0.005 C 
HETATM    5  C6  UNL     1     -35.981  15.115  -4.930  1.00 20.00     0.087 C 
HETATM    6  C7  UNL     1     -33.755  15.636  -2.996  1.00 20.00    -0.015 C 
ENDROOT
BRANCH   5   7
HETATM    7  C1  UNL     1     -36.611  13.770  -4.605  1.00 20.00     0.177 C 
HETATM    8  O10 UNL     1     -35.823  12.785  -4.634  1.00 20.00    -0.648 OA
HETATM    9  O11 UNL     1     -37.847  13.812  -4.347  1.00 20.00    -0.648 OA
ENDBRANCH   5   7
BRANCH   6  10
HETATM   10  C9  UNL     1     -33.148  16.990  -3.373  1.00 20.00     0.000 C 
HETATM   11  C8  UNL     1     -32.763  17.778  -2.163  1.00 20.00     0.005 C 
ENDBRANCH   6  10
TORSDOF 2
ENDMDL
MODEL 2
REMARK VINA RESULT:      -5.0      0.745      1.514
REMARK  2 active torsions:
REMARK  status: ('A' for Active; 'I' for Inactive)
REMARK    1  A    between atoms: C1_1  and  C6_6 
REMARK    2  A    between atoms: C7_7  and  C9_9 
ROOT
HETATM    1  C2  UNL     1     -36.242  16.001  -5.107  1.00 20.00     0.015 C 
HETATM    2  C3  UNL     1     -34.183  14.735  -4.285  1.00 20.00     0.015 C 
HETATM    3  C4  UNL     1     -36.416  16.595  -3.708  1.00 20.00     0.005 C 
HETATM    4  C5  UNL     1     -34.386  15.339  -2.896  1.00 20.00     0.005 C 
HETATM    5  C6  UNL     1     -35.456  14.694  -5.125  1.00 20.00     0.087 C 
HETATM    6  C7  UNL     1     -35.101  16.696  -2.925  1.00 20.00    -0.015 C 
ENDROOT
BRANCH   5   7
HETATM    7  C1  UNL     1     -36.339  13.563  -4.623  1.00 20.00     0.177 C 
HETATM    8  O10 UNL     1     -37.561  13.850  -4.493  1.00 20.00    -0.648 OA
HETATM    9  O11 UNL     1     -35.733  12.477  -4.399  1.00 20.00    -0.648 OA
ENDBRANCH   5   7
BRANCH   6  10
HETATM   10  C9  UNL     1     -34.198  17.803  -3.475  1.00 20.00     0.000 C 
HETATM   11  C8  UNL     1     -32.894  17.861  -2.748  1.00 20.00     0.005 C 
ENDBRANCH   6  10
TORSDOF 2
ENDMDL
MODEL 3
REMARK VINA RESULT:      -4.8      1.034      1.206
REMARK  2 active torsions:
REMARK  status: ('A' for Active; 'I' for Inactive)
REMARK    1  A    between atoms: C1_1  and  C6_6 
REMARK    2  A    between atoms: C7_7  and  C9_9 
ROOT
HETATM    1  C2  UNL     1     -36.300  16.839  -3.819  1.00 20.00     0.015 C 
HETATM    2  C3  UNL     1     -35.381  14.793  -5.038  1.00 20.00     0.015 C 
HETATM    3  C4  UNL     1     -35.619  16.361  -2.536  1.00 20.00     0.005 C 
HETATM    4  C5  UNL     1     -34.717  14.337  -3.738  1.00 20.00     0.005 C 
HETATM    5  C6  UNL     1     -36.571  15.722  -4.822  1.00 20.00     0.087 C 
HETATM    6  C7  UNL     1     -34.379  15.498  -2.793  1.00 20.00    -0.015 C 
ENDROOT
BRANCH   5   7
HETATM    7  C1  UNL     1     -37.760  14.897  -4.355  1.00 20.00     0.177 C 
HETATM    8  O10 UNL     1     -37.636  13.649  -4.488  1.00 20.00    -0.648 OA
HETATM    9  O11 UNL     1     -38.723  15.572  -3.891  1.00 20.00    -0.648 OA
ENDBRANCH   5   7
BRANCH   6  10
HETATM   10  C9  UNL     1     -33.206  16.331  -3.315  1.00 20.00     0.000 C 
HETATM   11  C8  UNL     1     -32.853  17.437  -2.374  1.00 20.00     0.005 C 
ENDBRANCH   6  10
TORSDOF 2
ENDMDL
MODEL 4
REMARK VINA RESULT:      -4.6      1.102      1.135
REMARK  2 active torsions:
REMARK  status: ('A' for Active; 'I' for Inactive)
REMARK    1  A    between atoms: C1_1  and  C6_6 
REMARK    2  A    between atoms: C7_7  and  C9_9 
ROOT
HETATM    1  C2  UNL     1     -35.784  16.893  -4.359  1.00 20.00     0.015 C 
HETATM    2  C3  UNL     1     -34.015  15.333  -5.336  1.00 20.00     0.015 C 
HETATM    3  C4  UNL     1     -35.549  16.272  -2.982  1.00 20.00     0.005 C 
HETATM    4  C5  UNL     1     -33.806  14.728  -3.948  1.00 20.00     0.005 C 
HETATM    5  C6  UNL     1     -35.381  15.986  -5.517  1.00 20.00     0.087 C 
HETATM    6  C7  UNL     1     -34.137  15.700  -2.808  1.00 20.00    -0.015 C 
ENDROOT
BRANCH   5   7
HETATM    7  C1  UNL     1     -36.426  14.896  -5.696  1.00 20.00     0.177 C 
HETATM    8  O10 UNL     1     -35.990  13.798  -6.137  1.00 20.00    -0.648 OA
HETATM    9  O11 UNL     1     -37.602  15.233  -5.380  1.00 20.00    -0.648 OA
ENDBRANCH   5   7
BRANCH   6  10
HETATM   10  C9  UNL     1     -33.088  16.808  -2.683  1.00 20.00     0.000 C 
HETATM   11  C8  UNL     1     -33.320  17.653  -1.474  1.00 20.00     0.005 C 
ENDBRANCH   6  10
TORSDOF 2
ENDMDL
MODEL 5
REMARK VINA RESULT:      -4.5      1.390      2.319
REMARK  2 active torsions:
REMARK  status: ('A' for Active; 'I' for Inactive)
REMARK    1  A    between atoms: C1_1  and  C6_6 
REMARK    2  A    between atoms: C7_7  and  C9_9 
ROOT
HETATM    1  C2  UNL     1     -34.392  14.788  -3.791  1.00 20.00     0.015 C 
HETATM    2  C3  UNL     1     -36.540  16.153  -3.997  1.00 20.00     0.015 C 
HETATM    3  C4  UNL     1     -33.958  15.293  -5.168  1.00 20.00     0.005 C 
HETATM    4  C5  UNL     1     -36.082  16.636  -5.373  1.00 20.00     0.005 C 
HETATM    5  C6  UNL     1     -35.900  14.837  -3.568  1.00 20.00     0.087 C 
HETATM    6  C7  UNL     1     -34.556  16.658  -5.529  1.00 20.00    -0.015 C 
ENDROOT
BRANCH   5   7
HETATM    7  C1  UNL     1     -36.563  13.699  -4.328  1.00 20.00     0.177 C 
HETATM    8  O10 UNL     1     -35.800  12.743  -4.642  1.00 20.00    -0.648 OA
HETATM    9  O11 UNL     1     -37.797  13.857  -4.549  1.00 20.00    -0.648 OA
ENDBRANCH   5   7
BRANCH   6  10
HETATM   10  C9  UNL     1     -33.919  17.789  -4.718  1.00 20.00     0.000 C 
HETATM   11  C8  UNL     1     -34.429  19.128  -5.142  1.00 20.00     0.005 C 
ENDBRANCH   6  10
TORSDOF 2
ENDMDL
MODEL 6
REMARK VINA RESULT:      -4.4      1.627      2.588
REMARK  2 active torsions:
REMARK  status: ('A' for Active; 'I' for Inactive)
REMARK    1  A    between atoms: C1_1  and  C6_6 
REMARK    2  A    between atoms: C7_7  and  C9_9 
ROOT
HETATM    1  C2  UNL     1     -33.739  14.793  -3.861  1.00 20.00     0.015 C 
HETATM    2  C3  UNL     1     -36.287  14.931  -3.785  1.00 20.00     0.015 C 
HETATM    3  C4  UNL     1     -33.668  16.315  -3.739  1.00 20.00     0.005 C 
HETATM    4  C5  UNL     1     -36.185  16.452  -3.670  1.00 20.00     0.005 C 
HETATM    5  C6  UNL     1     -35.063  14.283  -4.422  1.00 20.00     0.087 C 
HETATM    6  C7  UNL     1     -34.878  16.922  -3.019  1.00 20.00    -0.015 C 
ENDROOT
BRANCH   5   7
HETATM    7  C1  UNL     1     -35.104  14.526  -5.923  1.00 20.00     0.177 C 
HETATM    8  O10 UNL     1     -36.258  14.560  -6.432  1.00 20.00    -0.648 OA
HETATM    9  O11 UNL     1     -33.973  14.662  -6.469  1.00 20.00    -0.648 OA
ENDBRANCH   5   7
BRANCH   6  10
HETATM   10  C9  UNL     1     -34.853  16.625  -1.517  1.00 20.00     0.000 C 
HETATM   11  C8  UNL     1     -34.129  17.688  -0.757  1.00 20.00     0.005 C 
ENDBRANCH   6  10
TORSDOF 2
ENDMDL
MODEL 7
REMARK VINA RESULT:      -4.3      3.475      5.054
REMARK  2 active torsions:
REMARK  status: ('A' for Active; 'I' for Inactive)
REMARK    1  A    between atoms: C1_1  and  C6_6 
REMARK    2  A    between atoms: C7_7  and  C9_9 
ROOT
HETATM    1  C2  UNL     1     -33.168  17.530  -3.461  1.00 20.00     0.015 C 
HETATM    2  C3  UNL     1     -35.050  17.911  -1.779  1.00 20.00     0.015 C 
HETATM    3  C4  UNL     1     -33.230  16.030  -3.168  1.00 20.00     0.005 C 
HETATM    4  C5  UNL     1     -35.085  16.407  -1.503  1.00 20.00     0.005 C 
HETATM    5  C6  UNL     1     -33.716  18.398  -2.334  1.00 20.00     0.087 C 
HETATM    6  C7  UNL     1     -34.611  15.563  -2.692  1.00 20.00    -0.015 C 
ENDROOT
BRANCH   5   7
HETATM    7  C1  UNL     1     -32.704  18.455  -1.200  1.00 20.00     0.177 C 
HETATM    8  O10 UNL     1     -31.507  18.643  -1.553  1.00 20.00    -0.648 OA
HETATM    9  O11 UNL     1     -33.194  18.305  -0.045  1.00 20.00    -0.648 OA
ENDBRANCH   5   7
BRANCH   6  10
HETATM   10  C9  UNL     1     -35.634  15.562  -3.831  1.00 20.00     0.000 C 
HETATM   11  C8  UNL     1     -35.953  14.174  -4.284  1.00 20.00     0.005 C 
ENDBRANCH   6  10
TORSDOF 2
ENDMDL
MODEL 8
REMARK VINA RESULT:      -4.2     10.106     12.072
REMARK  2 active torsions:
REMARK  status: ('A' for Active; 'I' for Inactive)
REMARK    1  A    between atoms: C1_1  and  C6_6 
REMARK    2  A    between atoms: C7_7  and  C9_9 
ROOT
HETATM    1  C2  UNL     1     -41.249   6.991   0.616  1.00 20.00     0.015 C 
HETATM    2  C3  UNL     1     -41.982   7.750  -1.709  1.00 20.00     0.015 C 
HETATM    3  C4  UNL     1     -42.594   6.285   0.793  1.00 20.00     0.005 C 
HETATM    4  C5  UNL     1     -43.320   7.040  -1.501  1.00 20.00     0.005 C 
HETATM    5  C6  UNL     1     -41.280   8.122  -0.407  1.00 20.00     0.087 C 
HETATM    6  C7  UNL     1     -43.230   5.852  -0.533  1.00 20.00    -0.015 C 
ENDROOT
BRANCH   5   7
HETATM    7  C1  UNL     1     -41.973   9.333   0.196  1.00 20.00     0.177 C 
HETATM    8  O10 UNL     1     -43.224   9.229   0.329  1.00 20.00    -0.648 OA
HETATM    9  O11 UNL     1     -41.204  10.293   0.487  1.00 20.00    -0.648 OA
ENDBRANCH   5   7
BRANCH   6  10
HETATM   10  C9  UNL     1     -42.490   4.666  -1.157  1.00 20.00     0.000 C 
HETATM   11  C8  UNL     1     -43.263   4.065  -2.285  1.00 20.00     0.005 C 
ENDBRANCH   6  10
TORSDOF 2
ENDMDL
MODEL 9
REMARK VINA RESULT:      -4.2      1.809      3.153
REMARK  2 active torsions:
REMARK  status: ('A' for Active; 'I' for Inactive)
REMARK    1  A    between atoms: C1_1  and  C6_6 
REMARK    2  A    between atoms: C7_7  and  C9_9 
ROOT
HETATM    1  C2  UNL     1     -33.045  16.263  -3.043  1.00 20.00     0.015 C 
HETATM    2  C3  UNL     1     -35.167  16.295  -1.624  1.00 20.00     0.015 C 
HETATM    3  C4  UNL     1     -33.008  17.791  -2.994  1.00 20.00     0.005 C 
HETATM    4  C5  UNL     1     -35.107  17.823  -1.598  1.00 20.00     0.005 C 
HETATM    5  C6  UNL     1     -34.433  15.676  -2.809  1.00 20.00     0.087 C 
HETATM    6  C7  UNL     1     -33.683  18.374  -1.747  1.00 20.00    -0.015 C 
ENDROOT
BRANCH   5   7
HETATM    7  C1  UNL     1     -35.279  15.857  -4.059  1.00 20.00     0.177 C 
HETATM    8  O10 UNL     1     -34.633  15.934  -5.141  1.00 20.00    -0.648 OA
HETATM    9  O11 UNL     1     -36.525  15.906  -3.854  1.00 20.00    -0.648 OA
ENDBRANCH   5   7
BRANCH   6  10
HETATM   10  C9  UNL     1     -32.848  18.138  -0.487  1.00 20.00     0.000 C 
HETATM   11  C8  UNL     1     -31.417  18.516  -0.694  1.00 20.00     0.005 C 
ENDBRANCH   6  10
TORSDOF 2
ENDMDL
