MODEL 1
REMARK VINA RESULT:      -4.1      0.000      0.000
REMARK  2 active torsions:
REMARK  status: ('A' for Active; 'I' for Inactive)
REMARK    1  A    between atoms: C3_3  and  C9_9 
REMARK    2  A    between atoms: C4_4  and  C10_10 
ROOT
HETATM    1  C1  UNL     1     -35.246  13.731  -3.977  1.00 20.00     0.009 A 
HETATM    2  C2  UNL     1     -36.191  13.835  -4.909  1.00 20.00     0.009 A 
HETATM    3  C3  UNL     1     -34.376  14.943  -3.993  1.00 20.00     0.076 A 
HETATM    4  C4  UNL     1     -36.049  15.127  -5.641  1.00 20.00     0.076 A 
HETATM    5  C5  UNL     1     -32.931  14.599  -4.348  1.00 20.00     0.050 C 
HETATM    6  C6  UNL     1     -35.748  14.910  -7.122  1.00 20.00     0.050 C 
HETATM    7  O11 UNL     1     -34.909  15.786  -5.041  1.00 20.00    -0.362 OA
ENDROOT
BRANCH   3   8
HETATM    8  C9  UNL     1     -34.451  15.713  -2.677  1.00 20.00     0.037 C 
HETATM    9  C7  UNL     1     -33.346  16.710  -2.556  1.00 20.00     0.008 C 
ENDBRANCH   3   8
BRANCH   4  10
HETATM   10  C10 UNL     1     -37.270  16.024  -5.453  1.00 20.00     0.037 C 
HETATM   11  C8  UNL     1     -36.879  17.418  -5.083  1.00 20.00     0.008 C 
ENDBRANCH   4  10
TORSDOF 2
ENDMDL
MODEL 2
REMARK VINA RESULT:      -4.1      1.432      2.313
REMARK  2 active torsions:
REMARK  status: ('A' for Active; 'I' for Inactive)
REMARK    1  A    between atoms: C3_3  and  C9_9 
REMARK    2  A    between atoms: C4_4  and  C10_10 
ROOT
HETATM    1  C1  UNL     1     -33.026  15.416  -3.699  1.00 20.00     0.009 A 
HETATM    2  C2  UNL     1     -33.516  14.487  -4.517  1.00 20.00     0.009 A 
HETATM    3  C3  UNL     1     -34.041  16.487  -3.476  1.00 20.00     0.076 A 
HETATM    4  C4  UNL     1     -34.906  14.841  -4.923  1.00 20.00     0.076 A 
HETATM    5  C5  UNL     1     -33.559  17.841  -3.993  1.00 20.00     0.050 C 
HETATM    6  C6  UNL     1     -35.017  15.070  -6.428  1.00 20.00     0.050 C 
HETATM    7  O11 UNL     1     -35.195  16.092  -4.254  1.00 20.00    -0.362 OA
ENDROOT
BRANCH   3   8
HETATM    8  C9  UNL     1     -34.461  16.575  -2.011  1.00 20.00     0.037 C 
HETATM    9  C7  UNL     1     -35.827  17.160  -1.862  1.00 20.00     0.008 C 
ENDBRANCH   3   8
BRANCH   4  10
HETATM   10  C10 UNL     1     -35.920  13.803  -4.448  1.00 20.00     0.037 C 
HETATM   11  C8  UNL     1     -37.281  14.396  -4.282  1.00 20.00     0.008 C 
ENDBRANCH   4  10
TORSDOF 2
ENDMDL
MODEL 3
REMARK VINA RESULT:      -4.0      1.471      3.599
REMARK  2 active torsions:
REMARK  status: ('A' for Active; 'I' for Inactive)
REMARK    1  A    between atoms: C3_3  and  C9_9 
REMARK    2  A    between atoms: C4_4  and  C10_10 
ROOT
HETATM    1  C1  UNL     1     -33.752  14.566  -4.422  1.00 20.00     0.009 A 
HETATM    2  C2  UNL     1     -33.412  15.484  -3.520  1.00 20.00     0.009 A 
HETATM    3  C3  UNL     1     -35.163  14.776  -4.859  1.00 20.00     0.076 A 
HETATM    4  C4  UNL     1     -34.561  16.401  -3.263  1.00 20.00     0.076 A 
HETATM    5  C5  UNL     1     -36.050  13.585  -4.501  1.00 20.00     0.050 C 
HETATM    6  C6  UNL     1     -35.037  16.322  -1.815  1.00 20.00     0.050 C 
HETATM    7  O11 UNL     1     -35.629  15.926  -4.116  1.00 20.00    -0.362 OA
ENDROOT
BRANCH   3   8
HETATM    8  C9  UNL     1     -35.253  15.102  -6.348  1.00 20.00     0.037 C 
HETATM    9  C7  UNL     1     -33.913  15.066  -7.005  1.00 20.00     0.008 C 
ENDBRANCH   3   8
BRANCH   4  10
HETATM   10  C10 UNL     1     -34.240  17.840  -3.660  1.00 20.00     0.037 C 
HETATM   11  C8  UNL     1     -32.878  18.248  -3.200  1.00 20.00     0.008 C 
ENDBRANCH   4  10
TORSDOF 2
ENDMDL
MODEL 4
REMARK VINA RESULT:      -3.8      0.896      3.752
REMARK  2 active torsions:
REMARK  status: ('A' for Active; 'I' for Inactive)
REMARK    1  A    between atoms: C3_3  and  C9_9 
REMARK    2  A    between atoms: C4_4  and  C10_10 
ROOT
HETATM    1  C1  UNL     1     -36.046  14.037  -4.777  1.00 20.00     0.009 A 
HETATM    2  C2  UNL     1     -35.204  14.073  -3.747  1.00 20.00     0.009 A 
HETATM    3  C3  UNL     1     -36.204  15.403  -5.357  1.00 20.00     0.076 A 
HETATM    4  C4  UNL     1     -34.713  15.465  -3.533  1.00 20.00     0.076 A 
HETATM    5  C5  UNL     1     -37.641  15.907  -5.239  1.00 20.00     0.050 C 
HETATM    6  C6  UNL     1     -35.130  16.011  -2.170  1.00 20.00     0.050 C 
HETATM    7  O11 UNL     1     -35.358  16.261  -4.555  1.00 20.00    -0.362 OA
ENDROOT
BRANCH   3   8
HETATM    8  C9  UNL     1     -35.715  15.467  -6.801  1.00 20.00     0.037 C 
HETATM    9  C7  UNL     1     -34.759  16.595  -7.012  1.00 20.00     0.008 C 
ENDBRANCH   3   8
BRANCH   4  10
HETATM   10  C10 UNL     1     -33.202  15.572  -3.731  1.00 20.00     0.037 C 
HETATM   11  C8  UNL     1     -32.651  14.370  -4.426  1.00 20.00     0.008 C 
ENDBRANCH   4  10
TORSDOF 2
ENDMDL
MODEL 5
REMARK VINA RESULT:      -3.8      1.545      3.024
REMARK  2 active torsions:
REMARK  status: ('A' for Active; 'I' for Inactive)
REMARK    1  A    between atoms: C3_3  and  C9_9 
REMARK    2  A    between atoms: C4_4  and  C10_10 
ROOT
HETATM    1  C1  UNL     1     -35.082  17.323  -3.670  1.00 20.00     0.009 A 
HETATM    2  C2  UNL     1     -35.325  16.478  -4.669  1.00 20.00     0.009 A 
HETATM    3  C3  UNL     1     -34.355  16.621  -2.572  1.00 20.00     0.076 A 
HETATM    4  C4  UNL     1     -34.785  15.127  -4.343  1.00 20.00     0.076 A 
HETATM    5  C5  UNL     1     -35.169  16.594  -1.280  1.00 20.00     0.050 C 
HETATM    6  C6  UNL     1     -35.892  14.078  -4.260  1.00 20.00     0.050 C 
HETATM    7  O11 UNL     1     -34.190  15.258  -3.030  1.00 20.00    -0.362 OA
ENDROOT
BRANCH   3   8
HETATM    8  C9  UNL     1     -32.969  17.216  -2.338  1.00 20.00     0.037 C 
HETATM    9  C7  UNL     1     -32.919  18.023  -1.082  1.00 20.00     0.008 C 
ENDBRANCH   3   8
BRANCH   4  10
HETATM   10  C10 UNL     1     -33.693  14.699  -5.320  1.00 20.00     0.037 C 
HETATM   11  C8  UNL     1     -34.036  15.067  -6.726  1.00 20.00     0.008 C 
ENDBRANCH   4  10
TORSDOF 2
ENDMDL
MODEL 6
REMARK VINA RESULT:      -3.8      1.254      1.873
REMARK  2 active torsions:
REMARK  status: ('A' for Active; 'I' for Inactive)
REMARK    1  A    between atoms: C3_3  and  C9_9 
REMARK    2  A    between atoms: C4_4  and  C10_10 
ROOT
HETATM    1  C1  UNL     1     -33.481  14.954  -4.150  1.00 20.00     0.009 A 
HETATM    2  C2  UNL     1     -33.923  14.838  -5.400  1.00 20.00     0.009 A 
HETATM    3  C3  UNL     1     -34.108  16.137  -3.493  1.00 20.00     0.076 A 
HETATM    4  C4  UNL     1     -34.892  15.930  -5.705  1.00 20.00     0.076 A 
HETATM    5  C5  UNL     1     -33.069  17.186  -3.101  1.00 20.00     0.050 C 
HETATM    6  C6  UNL     1     -34.388  16.837  -6.826  1.00 20.00     0.050 C 
HETATM    7  O11 UNL     1     -34.979  16.717  -4.493  1.00 20.00    -0.362 OA
ENDROOT
BRANCH   3   8
HETATM    8  C9  UNL     1     -34.962  15.735  -2.294  1.00 20.00     0.037 C 
HETATM    9  C7  UNL     1     -35.066  16.838  -1.293  1.00 20.00     0.008 C 
ENDBRANCH   3   8
BRANCH   4  10
HETATM   10  C10 UNL     1     -36.283  15.386  -6.020  1.00 20.00     0.037 C 
HETATM   11  C8  UNL     1     -37.338  16.068  -5.211  1.00 20.00     0.008 C 
ENDBRANCH   4  10
TORSDOF 2
ENDMDL
MODEL 7
REMARK VINA RESULT:      -3.8      1.618      3.805
REMARK  2 active torsions:
REMARK  status: ('A' for Active; 'I' for Inactive)
REMARK    1  A    between atoms: C3_3  and  C9_9 
REMARK    2  A    between atoms: C4_4  and  C10_10 
ROOT
HETATM    1  C1  UNL     1     -34.471  16.317  -4.775  1.00 20.00     0.009 A 
HETATM    2  C2  UNL     1     -34.545  17.367  -3.961  1.00 20.00     0.009 A 
HETATM    3  C3  UNL     1     -34.223  15.075  -3.988  1.00 20.00     0.076 A 
HETATM    4  C4  UNL     1     -34.354  16.934  -2.546  1.00 20.00     0.076 A 
HETATM    5  C5  UNL     1     -32.886  14.431  -4.351  1.00 20.00     0.050 C 
HETATM    6  C6  UNL     1     -33.108  17.560  -1.924  1.00 20.00     0.050 C 
HETATM    7  O11 UNL     1     -34.157  15.502  -2.606  1.00 20.00    -0.362 OA
ENDROOT
BRANCH   3   8
HETATM    8  C9  UNL     1     -35.369  14.077  -4.124  1.00 20.00     0.037 C 
HETATM    9  C7  UNL     1     -36.089  14.235  -5.422  1.00 20.00     0.008 C 
ENDBRANCH   3   8
BRANCH   4  10
HETATM   10  C10 UNL     1     -35.592  17.208  -1.695  1.00 20.00     0.037 C 
HETATM   11  C8  UNL     1     -35.307  17.042  -0.238  1.00 20.00     0.008 C 
ENDBRANCH   4  10
TORSDOF 2
ENDMDL
MODEL 8
REMARK VINA RESULT:      -3.7      1.388      3.665
REMARK  2 active torsions:
REMARK  status: ('A' for Active; 'I' for Inactive)
REMARK    1  A    between atoms: C3_3  and  C9_9 
REMARK    2  A    between atoms: C4_4  and  C10_10 
ROOT
HETATM    1  C1  UNL     1     -35.407  16.950  -5.265  1.00 20.00     0.009 A 
HETATM    2  C2  UNL     1     -35.014  17.406  -4.078  1.00 20.00     0.009 A 
HETATM    3  C3  UNL     1     -35.019  15.518  -5.417  1.00 20.00     0.076 A 
HETATM    4  C4  UNL     1     -34.326  16.325  -3.314  1.00 20.00     0.076 A 
HETATM    5  C5  UNL     1     -34.034  15.315  -6.566  1.00 20.00     0.050 C 
HETATM    6  C6  UNL     1     -32.868  16.675  -3.027  1.00 20.00     0.050 C 
HETATM    7  O11 UNL     1     -34.350  15.167  -4.182  1.00 20.00    -0.362 OA
ENDROOT
BRANCH   3   8
HETATM    8  C9  UNL     1     -36.238  14.612  -5.571  1.00 20.00     0.037 C 
HETATM    9  C7  UNL     1     -36.250  13.522  -4.551  1.00 20.00     0.008 C 
ENDBRANCH   3   8
BRANCH   4  10
HETATM   10  C10 UNL     1     -35.072  15.973  -2.030  1.00 20.00     0.037 C 
HETATM   11  C8  UNL     1     -34.994  17.076  -1.026  1.00 20.00     0.008 C 
ENDBRANCH   4  10
TORSDOF 2
ENDMDL
MODEL 9
REMARK VINA RESULT:      -3.7     10.975     12.402
REMARK  2 active torsions:
REMARK  status: ('A' for Active; 'I' for Inactive)
REMARK    1  A    between atoms: C3_3  and  C9_9 
REMARK    2  A    between atoms: C4_4  and  C10_10 
ROOT
HETATM    1  C1  UNL     1     -41.311   7.249  -1.156  1.00 20.00     0.009 A 
HETATM    2  C2  UNL     1     -41.253   5.939  -0.923  1.00 20.00     0.009 A 
HETATM    3  C3  UNL     1     -42.641   7.784  -0.743  1.00 20.00     0.076 A 
HETATM    4  C4  UNL     1     -42.537   5.466  -0.329  1.00 20.00     0.076 A 
HETATM    5  C5  UNL     1     -43.416   8.356  -1.928  1.00 20.00     0.050 C 
HETATM    6  C6  UNL     1     -43.241   4.455  -1.232  1.00 20.00     0.050 C 
HETATM    7  O11 UNL     1     -43.374   6.644  -0.234  1.00 20.00    -0.362 OA
ENDROOT
BRANCH   3   8
HETATM    8  C9  UNL     1     -42.517   8.810   0.380  1.00 20.00     0.037 C 
HETATM    9  C7  UNL     1     -41.200   9.514   0.342  1.00 20.00     0.008 C 
ENDBRANCH   3   8
BRANCH   4  10
HETATM   10  C10 UNL     1     -42.342   4.907   1.078  1.00 20.00     0.037 C 
HETATM   11  C8  UNL     1     -43.417   5.365   2.008  1.00 20.00     0.008 C 
ENDBRANCH   4  10
TORSDOF 2
ENDMDL
