MODEL 1
REMARK VINA RESULT:      -5.9      0.000      0.000
REMARK  1 active torsions:
REMARK  status: ('A' for Active; 'I' for Inactive)
REMARK    1  A    between atoms: C4_4  and  C7_7 
ROOT
HETATM    1  C1  UNL     1     -33.819  14.863  -4.291  1.00 20.00     0.015 A 
HETATM    2  C2  UNL     1     -32.958  15.777  -3.680  1.00 20.00     0.008 A 
HETATM    3  C3  UNL     1     -35.594  15.414  -2.719  1.00 20.00     0.022 A 
HETATM    4  C4  UNL     1     -35.127  14.683  -3.813  1.00 20.00     0.002 A 
HETATM    5  C5  UNL     1     -33.433  16.508  -2.603  1.00 20.00    -0.052 A 
HETATM    6  C6  UNL     1     -34.737  16.328  -2.127  1.00 20.00    -0.051 A 
HETATM    7  C8  UNL     1     -32.695  17.509  -1.772  1.00 20.00     0.039 C 
HETATM    8  C9  UNL     1     -34.992  17.191  -0.932  1.00 20.00     0.039 C 
HETATM    9  C10 UNL     1     -33.858  18.219  -1.061  1.00 20.00     0.009 C 
ENDROOT
BRANCH   4  10
HETATM   10  C7  UNL     1     -36.003  13.718  -4.461  1.00 20.00     0.269 C 
HETATM   11  O11 UNL     1     -35.781  12.505  -4.465  1.00 20.00    -0.301 OA
ENDBRANCH   4  10
TORSDOF 1
ENDMDL
MODEL 2
REMARK VINA RESULT:      -5.8     11.191     11.792
REMARK  1 active torsions:
REMARK  status: ('A' for Active; 'I' for Inactive)
REMARK    1  A    between atoms: C4_4  and  C7_7 
ROOT
HETATM    1  C1  UNL     1     -33.119   5.660   1.866  1.00 20.00     0.015 A 
HETATM    2  C2  UNL     1     -33.816   4.817   2.735  1.00 20.00     0.008 A 
HETATM    3  C3  UNL     1     -33.076   7.426   3.540  1.00 20.00     0.022 A 
HETATM    4  C4  UNL     1     -32.753   6.955   2.266  1.00 20.00     0.002 A 
HETATM    5  C5  UNL     1     -34.122   5.288   4.001  1.00 20.00    -0.052 A 
HETATM    6  C6  UNL     1     -33.756   6.579   4.400  1.00 20.00    -0.051 A 
HETATM    7  C8  UNL     1     -34.884   4.591   5.083  1.00 20.00     0.039 C 
HETATM    8  C9  UNL     1     -34.243   6.866   5.784  1.00 20.00     0.039 C 
HETATM    9  C10 UNL     1     -34.515   5.447   6.305  1.00 20.00     0.009 C 
ENDROOT
BRANCH   4  10
HETATM   10  C7  UNL     1     -32.034   7.817   1.340  1.00 20.00     0.269 C 
HETATM   11  O11 UNL     1     -32.584   8.703   0.681  1.00 20.00    -0.301 OA
ENDBRANCH   4  10
TORSDOF 1
ENDMDL
MODEL 3
REMARK VINA RESULT:      -5.3      1.343      2.424
REMARK  1 active torsions:
REMARK  status: ('A' for Active; 'I' for Inactive)
REMARK    1  A    between atoms: C4_4  and  C7_7 
ROOT
HETATM    1  C1  UNL     1     -35.006  15.541  -2.659  1.00 20.00     0.015 A 
HETATM    2  C2  UNL     1     -35.192  16.412  -1.583  1.00 20.00     0.008 A 
HETATM    3  C3  UNL     1     -32.812  16.494  -3.110  1.00 20.00     0.022 A 
HETATM    4  C4  UNL     1     -33.825  15.583  -3.416  1.00 20.00     0.002 A 
HETATM    5  C5  UNL     1     -34.178  17.304  -1.277  1.00 20.00    -0.052 A 
HETATM    6  C6  UNL     1     -33.000  17.345  -2.033  1.00 20.00    -0.051 A 
HETATM    7  C8  UNL     1     -34.160  18.347  -0.205  1.00 20.00     0.039 C 
HETATM    8  C9  UNL     1     -32.087  18.421  -1.538  1.00 20.00     0.039 C 
HETATM    9  C10 UNL     1     -32.661  18.677  -0.137  1.00 20.00     0.009 C 
ENDROOT
BRANCH   4  10
HETATM   10  C7  UNL     1     -33.658  14.671  -4.538  1.00 20.00     0.269 C 
HETATM   11  O11 UNL     1     -33.321  13.491  -4.402  1.00 20.00    -0.301 OA
ENDBRANCH   4  10
TORSDOF 1
ENDMDL
MODEL 4
REMARK VINA RESULT:      -5.3      2.722      4.809
REMARK  1 active torsions:
REMARK  status: ('A' for Active; 'I' for Inactive)
REMARK    1  A    between atoms: C4_4  and  C7_7 
ROOT
HETATM    1  C1  UNL     1     -34.221  17.641  -0.864  1.00 20.00     0.015 A 
HETATM    2  C2  UNL     1     -35.134  16.714  -1.373  1.00 20.00     0.008 A 
HETATM    3  C3  UNL     1     -32.561  16.982  -2.519  1.00 20.00     0.022 A 
HETATM    4  C4  UNL     1     -32.944  17.772  -1.433  1.00 20.00     0.002 A 
HETATM    5  C5  UNL     1     -34.751  15.943  -2.458  1.00 20.00    -0.052 A 
HETATM    6  C6  UNL     1     -33.478  16.075  -3.025  1.00 20.00    -0.051 A 
HETATM    7  C8  UNL     1     -35.534  14.870  -3.147  1.00 20.00     0.039 C 
HETATM    8  C9  UNL     1     -33.290  15.101  -4.144  1.00 20.00     0.039 C 
HETATM    9  C10 UNL     1     -34.746  14.725  -4.459  1.00 20.00     0.009 C 
ENDROOT
BRANCH   4  10
HETATM   10  C7  UNL     1     -32.007  18.739  -0.880  1.00 20.00     0.269 C 
HETATM   11  O11 UNL     1     -30.801  18.510  -0.752  1.00 20.00    -0.301 OA
ENDBRANCH   4  10
TORSDOF 1
ENDMDL
MODEL 5
REMARK VINA RESULT:      -5.0     14.697     16.398
REMARK  1 active torsions:
REMARK  status: ('A' for Active; 'I' for Inactive)
REMARK    1  A    between atoms: C4_4  and  C7_7 
ROOT
HETATM    1  C1  UNL     1     -22.866  18.144   7.885  1.00 20.00     0.015 A 
HETATM    2  C2  UNL     1     -22.473  17.642   9.128  1.00 20.00     0.008 A 
HETATM    3  C3  UNL     1     -25.002  18.867   8.803  1.00 20.00     0.022 A 
HETATM    4  C4  UNL     1     -24.122  18.752   7.725  1.00 20.00     0.002 A 
HETATM    5  C5  UNL     1     -23.346  17.771  10.194  1.00 20.00    -0.052 A 
HETATM    6  C6  UNL     1     -24.598  18.377  10.034  1.00 20.00    -0.051 A 
HETATM    7  C8  UNL     1     -23.165  17.284  11.597  1.00 20.00     0.039 C 
HETATM    8  C9  UNL     1     -25.371  18.349  11.314  1.00 20.00     0.039 C 
HETATM    9  C10 UNL     1     -24.251  18.085  12.332  1.00 20.00     0.009 C 
ENDROOT
BRANCH   4  10
HETATM   10  C7  UNL     1     -24.513  19.261   6.418  1.00 20.00     0.269 C 
HETATM   11  O11 UNL     1     -23.801  19.159   5.416  1.00 20.00    -0.301 OA
ENDBRANCH   4  10
TORSDOF 1
ENDMDL
MODEL 6
REMARK VINA RESULT:      -5.0      2.754      4.484
REMARK  1 active torsions:
REMARK  status: ('A' for Active; 'I' for Inactive)
REMARK    1  A    between atoms: C4_4  and  C7_7 
ROOT
HETATM    1  C1  UNL     1     -33.217  18.124  -0.704  1.00 20.00     0.015 A 
HETATM    2  C2  UNL     1     -32.698  17.541  -1.862  1.00 20.00     0.008 A 
HETATM    3  C3  UNL     1     -35.275  16.844  -0.928  1.00 20.00     0.022 A 
HETATM    4  C4  UNL     1     -34.496  17.779  -0.242  1.00 20.00     0.002 A 
HETATM    5  C5  UNL     1     -33.471  16.606  -2.530  1.00 20.00    -0.052 A 
HETATM    6  C6  UNL     1     -34.747  16.261  -2.068  1.00 20.00    -0.051 A 
HETATM    7  C8  UNL     1     -33.149  15.880  -3.797  1.00 20.00     0.039 C 
HETATM    8  C9  UNL     1     -35.397  15.275  -2.985  1.00 20.00     0.039 C 
HETATM    9  C10 UNL     1     -34.182  14.742  -3.759  1.00 20.00     0.009 C 
ENDROOT
BRANCH   4  10
HETATM   10  C7  UNL     1     -35.020  18.406   0.963  1.00 20.00     0.269 C 
HETATM   11  O11 UNL     1     -34.629  18.116   2.096  1.00 20.00    -0.301 OA
ENDBRANCH   4  10
TORSDOF 1
ENDMDL
MODEL 7
REMARK VINA RESULT:      -4.6      1.077      2.043
REMARK  1 active torsions:
REMARK  status: ('A' for Active; 'I' for Inactive)
REMARK    1  A    between atoms: C4_4  and  C7_7 
ROOT
HETATM    1  C1  UNL     1     -36.941  15.806  -3.781  1.00 20.00     0.015 A 
HETATM    2  C2  UNL     1     -36.672  16.989  -3.089  1.00 20.00     0.008 A 
HETATM    3  C3  UNL     1     -34.617  15.108  -3.583  1.00 20.00     0.022 A 
HETATM    4  C4  UNL     1     -35.921  14.873  -4.026  1.00 20.00     0.002 A 
HETATM    5  C5  UNL     1     -35.380  17.208  -2.642  1.00 20.00    -0.052 A 
HETATM    6  C6  UNL     1     -34.363  16.278  -2.886  1.00 20.00    -0.051 A 
HETATM    7  C8  UNL     1     -34.847  18.404  -1.917  1.00 20.00     0.039 C 
HETATM    8  C9  UNL     1     -33.055  16.767  -2.350  1.00 20.00     0.039 C 
HETATM    9  C10 UNL     1     -33.522  17.852  -1.369  1.00 20.00     0.009 C 
ENDROOT
BRANCH   4  10
HETATM   10  C7  UNL     1     -36.223  13.651  -4.757  1.00 20.00     0.269 C 
HETATM   11  O11 UNL     1     -35.796  12.544  -4.422  1.00 20.00    -0.301 OA
ENDBRANCH   4  10
TORSDOF 1
ENDMDL
MODEL 8
REMARK VINA RESULT:      -4.6      3.199      5.009
REMARK  1 active torsions:
REMARK  status: ('A' for Active; 'I' for Inactive)
REMARK    1  A    between atoms: C4_4  and  C7_7 
ROOT
HETATM    1  C1  UNL     1     -32.413  18.786  -0.437  1.00 20.00     0.015 A 
HETATM    2  C2  UNL     1     -32.185  18.135  -1.651  1.00 20.00     0.008 A 
HETATM    3  C3  UNL     1     -34.565  17.675  -0.192  1.00 20.00     0.022 A 
HETATM    4  C4  UNL     1     -33.594  18.558   0.287  1.00 20.00     0.002 A 
HETATM    5  C5  UNL     1     -33.147  17.252  -2.113  1.00 20.00    -0.052 A 
HETATM    6  C6  UNL     1     -34.324  17.024  -1.391  1.00 20.00    -0.051 A 
HETATM    7  C8  UNL     1     -33.144  16.473  -3.390  1.00 20.00     0.039 C 
HETATM    8  C9  UNL     1     -35.220  16.073  -2.120  1.00 20.00     0.039 C 
HETATM    9  C10 UNL     1     -34.231  15.425  -3.100  1.00 20.00     0.009 C 
ENDROOT
BRANCH   4  10
HETATM   10  C7  UNL     1     -33.813  19.254   1.546  1.00 20.00     0.269 C 
HETATM   11  O11 UNL     1     -33.566  18.750   2.645  1.00 20.00    -0.301 OA
ENDBRANCH   4  10
TORSDOF 1
ENDMDL
MODEL 9
REMARK VINA RESULT:      -4.6      2.461      4.244
REMARK  1 active torsions:
REMARK  status: ('A' for Active; 'I' for Inactive)
REMARK    1  A    between atoms: C4_4  and  C7_7 
ROOT
HETATM    1  C1  UNL     1     -33.051  16.722  -2.444  1.00 20.00     0.015 A 
HETATM    2  C2  UNL     1     -33.107  15.873  -3.551  1.00 20.00     0.008 A 
HETATM    3  C3  UNL     1     -35.435  16.434  -2.045  1.00 20.00     0.022 A 
HETATM    4  C4  UNL     1     -34.207  17.001  -1.697  1.00 20.00     0.002 A 
HETATM    5  C5  UNL     1     -34.326  15.306  -3.883  1.00 20.00    -0.052 A 
HETATM    6  C6  UNL     1     -35.478  15.584  -3.138  1.00 20.00    -0.051 A 
HETATM    7  C8  UNL     1     -34.639  14.404  -5.034  1.00 20.00     0.039 C 
HETATM    8  C9  UNL     1     -36.670  14.895  -3.724  1.00 20.00     0.039 C 
HETATM    9  C10 UNL     1     -35.996  13.827  -4.599  1.00 20.00     0.009 C 
ENDROOT
BRANCH   4  10
HETATM   10  C7  UNL     1     -34.126  17.895  -0.552  1.00 20.00     0.269 C 
HETATM   11  O11 UNL     1     -33.057  18.228  -0.033  1.00 20.00    -0.301 OA
ENDBRANCH   4  10
TORSDOF 1
ENDMDL
