MODEL 1
REMARK VINA RESULT:      -4.5      0.000      0.000
REMARK  1 active torsions:
REMARK  status: ('A' for Active; 'I' for Inactive)
REMARK    1  A    between atoms: C5_5  and  C7_7 
ROOT
HETATM    1  C1  UNL     1     -33.962   6.472   5.885  1.00 20.00     0.010 C 
HETATM    2  C2  UNL     1     -34.805   5.167   5.754  1.00 20.00    -0.004 A 
HETATM    3  C3  UNL     1     -33.661   6.762   4.383  1.00 20.00    -0.004 A 
HETATM    4  C4  UNL     1     -35.560   5.234   4.440  1.00 20.00    -0.000 A 
HETATM    5  C5  UNL     1     -34.310   4.417   4.532  1.00 20.00    -0.000 A 
HETATM    6  C6  UNL     1     -34.833   6.247   3.569  1.00 20.00    -0.000 A 
HETATM    7  C7  UNL     1     -33.583   5.430   3.660  1.00 20.00    -0.000 A 
ENDROOT
TORSDOF 1
ENDMDL
MODEL 2
REMARK VINA RESULT:      -4.5      0.052      2.059
REMARK  1 active torsions:
REMARK  status: ('A' for Active; 'I' for Inactive)
REMARK    1  A    between atoms: C5_5  and  C7_7 
ROOT
HETATM    1  C1  UNL     1     -33.959   6.491   5.870  1.00 20.00     0.010 C 
HETATM    2  C2  UNL     1     -33.712   6.770   4.356  1.00 20.00    -0.004 A 
HETATM    3  C3  UNL     1     -34.764   5.159   5.781  1.00 20.00    -0.004 A 
HETATM    4  C4  UNL     1     -33.613   5.432   3.649  1.00 20.00    -0.000 A 
HETATM    5  C5  UNL     1     -34.891   6.209   3.584  1.00 20.00    -0.000 A 
HETATM    6  C6  UNL     1     -34.282   4.408   4.554  1.00 20.00    -0.000 A 
HETATM    7  C7  UNL     1     -35.559   5.185   4.489  1.00 20.00    -0.000 A 
ENDROOT
TORSDOF 1
ENDMDL
MODEL 3
REMARK VINA RESULT:      -4.0      8.119      9.259
REMARK  1 active torsions:
REMARK  status: ('A' for Active; 'I' for Inactive)
REMARK    1  A    between atoms: C5_5  and  C7_7 
ROOT
HETATM    1  C1  UNL     1     -41.230   6.300  -1.103  1.00 20.00     0.010 C 
HETATM    2  C2  UNL     1     -41.732   7.732  -1.463  1.00 20.00    -0.004 A 
HETATM    3  C3  UNL     1     -41.410   6.323   0.446  1.00 20.00    -0.004 A 
HETATM    4  C4  UNL     1     -42.795   8.117  -0.452  1.00 20.00    -0.000 A 
HETATM    5  C5  UNL     1     -41.403   8.645  -0.297  1.00 20.00    -0.000 A 
HETATM    6  C6  UNL     1     -42.590   7.222   0.761  1.00 20.00    -0.000 A 
HETATM    7  C7  UNL     1     -41.199   7.750   0.916  1.00 20.00    -0.000 A 
ENDROOT
TORSDOF 1
ENDMDL
MODEL 4
REMARK VINA RESULT:      -4.0      8.122      9.174
REMARK  1 active torsions:
REMARK  status: ('A' for Active; 'I' for Inactive)
REMARK    1  A    between atoms: C5_5  and  C7_7 
ROOT
HETATM    1  C1  UNL     1     -41.227   6.299  -1.096  1.00 20.00     0.010 C 
HETATM    2  C2  UNL     1     -41.410   6.329   0.452  1.00 20.00    -0.004 A 
HETATM    3  C3  UNL     1     -41.729   7.729  -1.465  1.00 20.00    -0.004 A 
HETATM    4  C4  UNL     1     -41.200   7.758   0.915  1.00 20.00    -0.000 A 
HETATM    5  C5  UNL     1     -42.592   7.230   0.760  1.00 20.00    -0.000 A 
HETATM    6  C6  UNL     1     -41.403   8.647  -0.302  1.00 20.00    -0.000 A 
HETATM    7  C7  UNL     1     -42.794   8.119  -0.457  1.00 20.00    -0.000 A 
ENDROOT
TORSDOF 1
ENDMDL
MODEL 5
REMARK VINA RESULT:      -3.9      8.064      9.041
REMARK  1 active torsions:
REMARK  status: ('A' for Active; 'I' for Inactive)
REMARK    1  A    between atoms: C5_5  and  C7_7 
ROOT
HETATM    1  C1  UNL     1     -41.343   8.727  -0.331  1.00 20.00     0.010 C 
HETATM    2  C2  UNL     1     -41.482   7.777   0.898  1.00 20.00    -0.004 A 
HETATM    3  C3  UNL     1     -41.723   7.749  -1.484  1.00 20.00    -0.004 A 
HETATM    4  C4  UNL     1     -42.567   6.766   0.581  1.00 20.00    -0.000 A 
HETATM    5  C5  UNL     1     -41.130   6.374   0.440  1.00 20.00    -0.000 A 
HETATM    6  C6  UNL     1     -42.720   6.747  -0.933  1.00 20.00    -0.000 A 
HETATM    7  C7  UNL     1     -41.282   6.356  -1.073  1.00 20.00    -0.000 A 
ENDROOT
TORSDOF 1
ENDMDL
MODEL 6
REMARK VINA RESULT:      -3.9      8.060      9.195
REMARK  1 active torsions:
REMARK  status: ('A' for Active; 'I' for Inactive)
REMARK    1  A    between atoms: C5_5  and  C7_7 
ROOT
HETATM    1  C1  UNL     1     -41.366   8.750  -0.321  1.00 20.00     0.010 C 
HETATM    2  C2  UNL     1     -41.746   7.775  -1.476  1.00 20.00    -0.004 A 
HETATM    3  C3  UNL     1     -41.480   7.790   0.903  1.00 20.00    -0.004 A 
HETATM    4  C4  UNL     1     -41.286   6.385  -1.080  1.00 20.00    -0.000 A 
HETATM    5  C5  UNL     1     -42.726   6.758  -0.921  1.00 20.00    -0.000 A 
HETATM    6  C6  UNL     1     -41.116   6.395   0.431  1.00 20.00    -0.000 A 
HETATM    7  C7  UNL     1     -42.557   6.768   0.591  1.00 20.00    -0.000 A 
ENDROOT
TORSDOF 1
ENDMDL
MODEL 7
REMARK VINA RESULT:      -3.8      8.138      9.201
REMARK  1 active torsions:
REMARK  status: ('A' for Active; 'I' for Inactive)
REMARK    1  A    between atoms: C5_5  and  C7_7 
ROOT
HETATM    1  C1  UNL     1     -43.417   7.003   0.818  1.00 20.00     0.010 C 
HETATM    2  C2  UNL     1     -42.077   6.219   0.674  1.00 20.00    -0.004 A 
HETATM    3  C3  UNL     1     -43.039   8.337   0.105  1.00 20.00    -0.004 A 
HETATM    4  C4  UNL     1     -41.415   6.667  -0.615  1.00 20.00    -0.000 A 
HETATM    5  C5  UNL     1     -40.946   7.231   0.689  1.00 20.00    -0.000 A 
HETATM    6  C6  UNL     1     -42.026   8.013  -0.977  1.00 20.00    -0.000 A 
HETATM    7  C7  UNL     1     -41.557   8.576   0.328  1.00 20.00    -0.000 A 
ENDROOT
TORSDOF 1
ENDMDL
MODEL 8
REMARK VINA RESULT:      -3.8      8.197      9.342
REMARK  1 active torsions:
REMARK  status: ('A' for Active; 'I' for Inactive)
REMARK    1  A    between atoms: C5_5  and  C7_7 
ROOT
HETATM    1  C1  UNL     1     -43.417   7.081   1.076  1.00 20.00     0.010 C 
HETATM    2  C2  UNL     1     -43.059   8.395   0.318  1.00 20.00    -0.004 A 
HETATM    3  C3  UNL     1     -42.181   6.203   0.713  1.00 20.00    -0.004 A 
HETATM    4  C4  UNL     1     -41.547   8.520   0.298  1.00 20.00    -0.000 A 
HETATM    5  C5  UNL     1     -42.262   8.015  -0.916  1.00 20.00    -0.000 A 
HETATM    6  C6  UNL     1     -40.989   7.128   0.549  1.00 20.00    -0.000 A 
HETATM    7  C7  UNL     1     -41.704   6.622  -0.665  1.00 20.00    -0.000 A 
ENDROOT
TORSDOF 1
ENDMDL
MODEL 9
REMARK VINA RESULT:      -3.7     15.782     16.830
REMARK  1 active torsions:
REMARK  status: ('A' for Active; 'I' for Inactive)
REMARK    1  A    between atoms: C5_5  and  C7_7 
ROOT
HETATM    1  C1  UNL     1     -25.855  16.744  12.332  1.00 20.00     0.010 C 
HETATM    2  C2  UNL     1     -25.280  18.169  12.067  1.00 20.00    -0.004 A 
HETATM    3  C3  UNL     1     -24.736  15.867  11.692  1.00 20.00    -0.004 A 
HETATM    4  C4  UNL     1     -23.767  18.069  12.091  1.00 20.00    -0.000 A 
HETATM    5  C5  UNL     1     -24.482  18.113  10.778  1.00 20.00    -0.000 A 
HETATM    6  C6  UNL     1     -23.421  16.607  11.853  1.00 20.00    -0.000 A 
HETATM    7  C7  UNL     1     -24.136  16.651  10.540  1.00 20.00    -0.000 A 
ENDROOT
TORSDOF 1
ENDMDL
