MODEL 1
REMARK VINA RESULT:      -4.7      0.000      0.000
REMARK  2 active torsions:
REMARK  status: ('A' for Active; 'I' for Inactive)
REMARK    1  A    between atoms: C2_2  and  C4_4 
REMARK    2  A    between atoms: C5_5  and  C9_9 
ROOT
HETATM    1  C1  UNL     1     -33.921  14.809  -4.174  1.00 20.00    -0.016 C 
HETATM    2  C2  UNL     1     -35.210  14.741  -3.813  1.00 20.00    -0.024 C 
HETATM    3  C6  UNL     1     -32.953  15.779  -3.556  1.00 20.00     0.036 C 
HETATM    4  C7  UNL     1     -35.824  15.592  -2.743  1.00 20.00     0.042 C 
HETATM    5  C8  UNL     1     -34.773  16.301  -1.877  1.00 20.00     0.014 C 
HETATM    6  C9  UNL     1     -33.617  16.879  -2.704  1.00 20.00     0.017 C 
ENDROOT
BRANCH   6   7
HETATM    7  C5  UNL     1     -34.072  18.037  -3.545  1.00 20.00    -0.089 C 
HETATM    8  C3  UNL     1     -33.812  18.105  -4.859  1.00 20.00     0.014 C 
HETATM    9  C10 UNL     1     -34.837  19.112  -2.831  1.00 20.00     0.043 C 
ENDBRANCH   6   7
BRANCH   2  10
HETATM   10  C4  UNL     1     -36.058  13.761  -4.495  1.00 20.00     0.265 C 
HETATM   11  O11 UNL     1     -35.810  12.562  -4.497  1.00 20.00    -0.302 OA
ENDBRANCH   2  10
TORSDOF 2
ENDMDL
MODEL 2
REMARK VINA RESULT:      -4.4      2.170      3.070
REMARK  2 active torsions:
REMARK  status: ('A' for Active; 'I' for Inactive)
REMARK    1  A    between atoms: C2_2  and  C4_4 
REMARK    2  A    between atoms: C5_5  and  C9_9 
ROOT
HETATM    1  C1  UNL     1     -34.091  15.102  -6.198  1.00 20.00    -0.016 C 
HETATM    2  C2  UNL     1     -35.418  15.290  -6.235  1.00 20.00    -0.024 C 
HETATM    3  C6  UNL     1     -33.388  14.513  -5.006  1.00 20.00     0.036 C 
HETATM    4  C7  UNL     1     -36.348  14.913  -5.122  1.00 20.00     0.042 C 
HETATM    5  C8  UNL     1     -35.687  13.993  -4.087  1.00 20.00     0.014 C 
HETATM    6  C9  UNL     1     -34.257  14.427  -3.736  1.00 20.00     0.017 C 
ENDROOT
BRANCH   6   7
HETATM    7  C5  UNL     1     -34.251  15.716  -2.967  1.00 20.00    -0.089 C 
HETATM    8  C3  UNL     1     -35.227  16.031  -2.102  1.00 20.00     0.014 C 
HETATM    9  C10 UNL     1     -33.089  16.631  -3.219  1.00 20.00     0.043 C 
ENDBRANCH   6   7
BRANCH   2  10
HETATM   10  C4  UNL     1     -35.988  15.881  -7.449  1.00 20.00     0.265 C 
HETATM   11  O11 UNL     1     -37.107  15.600  -7.857  1.00 20.00    -0.302 OA
ENDBRANCH   2  10
TORSDOF 2
ENDMDL
MODEL 3
REMARK VINA RESULT:      -4.4      1.177      2.449
REMARK  2 active torsions:
REMARK  status: ('A' for Active; 'I' for Inactive)
REMARK    1  A    between atoms: C2_2  and  C4_4 
REMARK    2  A    between atoms: C5_5  and  C9_9 
ROOT
HETATM    1  C1  UNL     1     -36.013  15.405  -3.541  1.00 20.00    -0.016 C 
HETATM    2  C2  UNL     1     -34.851  14.762  -3.729  1.00 20.00    -0.024 C 
HETATM    3  C6  UNL     1     -36.090  16.885  -3.287  1.00 20.00     0.036 C 
HETATM    4  C7  UNL     1     -33.514  15.437  -3.739  1.00 20.00     0.042 C 
HETATM    5  C8  UNL     1     -33.624  16.964  -3.850  1.00 20.00     0.014 C 
HETATM    6  C9  UNL     1     -34.735  17.543  -2.963  1.00 20.00     0.017 C 
ENDROOT
BRANCH   6   7
HETATM    7  C5  UNL     1     -34.390  17.422  -1.507  1.00 20.00    -0.089 C 
HETATM    8  C3  UNL     1     -35.258  16.929  -0.610  1.00 20.00     0.014 C 
HETATM    9  C10 UNL     1     -33.017  17.880  -1.112  1.00 20.00     0.043 C 
ENDBRANCH   6   7
BRANCH   2  10
HETATM   10  C4  UNL     1     -34.904  13.315  -3.958  1.00 20.00     0.265 C 
HETATM   11  O11 UNL     1     -35.853  12.768  -4.503  1.00 20.00    -0.302 OA
ENDBRANCH   2  10
TORSDOF 2
ENDMDL
MODEL 4
REMARK VINA RESULT:      -4.3      2.526      4.055
REMARK  2 active torsions:
REMARK  status: ('A' for Active; 'I' for Inactive)
REMARK    1  A    between atoms: C2_2  and  C4_4 
REMARK    2  A    between atoms: C5_5  and  C9_9 
ROOT
HETATM    1  C1  UNL     1     -35.208  15.885  -2.567  1.00 20.00    -0.016 C 
HETATM    2  C2  UNL     1     -33.946  16.327  -2.667  1.00 20.00    -0.024 C 
HETATM    3  C6  UNL     1     -35.758  14.793  -3.443  1.00 20.00     0.036 C 
HETATM    4  C7  UNL     1     -32.939  15.773  -3.628  1.00 20.00     0.042 C 
HETATM    5  C8  UNL     1     -33.384  14.440  -4.245  1.00 20.00     0.014 C 
HETATM    6  C9  UNL     1     -34.865  14.439  -4.648  1.00 20.00     0.017 C 
ENDROOT
BRANCH   6   7
HETATM    7  C5  UNL     1     -35.115  15.351  -5.815  1.00 20.00    -0.089 C 
HETATM    8  C3  UNL     1     -36.148  16.206  -5.838  1.00 20.00     0.014 C 
HETATM    9  C10 UNL     1     -34.141  15.252  -6.951  1.00 20.00     0.043 C 
ENDBRANCH   6   7
BRANCH   2  10
HETATM   10  C4  UNL     1     -33.529  17.404  -1.764  1.00 20.00     0.265 C 
HETATM   11  O11 UNL     1     -32.356  17.720  -1.614  1.00 20.00    -0.302 OA
ENDBRANCH   2  10
TORSDOF 2
ENDMDL
MODEL 5
REMARK VINA RESULT:      -4.2      2.981      4.379
REMARK  2 active torsions:
REMARK  status: ('A' for Active; 'I' for Inactive)
REMARK    1  A    between atoms: C2_2  and  C4_4 
REMARK    2  A    between atoms: C5_5  and  C9_9 
ROOT
HETATM    1  C1  UNL     1     -34.092  17.629  -1.086  1.00 20.00    -0.016 C 
HETATM    2  C2  UNL     1     -33.115  17.701  -2.002  1.00 20.00    -0.024 C 
HETATM    3  C6  UNL     1     -35.217  16.634  -1.175  1.00 20.00     0.036 C 
HETATM    4  C7  UNL     1     -33.013  16.793  -3.189  1.00 20.00     0.042 C 
HETATM    5  C8  UNL     1     -33.931  15.568  -3.077  1.00 20.00     0.014 C 
HETATM    6  C9  UNL     1     -35.324  15.920  -2.537  1.00 20.00     0.017 C 
ENDROOT
BRANCH   6   7
HETATM    7  C5  UNL     1     -36.106  16.730  -3.531  1.00 20.00    -0.089 C 
HETATM    8  C3  UNL     1     -36.861  17.774  -3.159  1.00 20.00     0.014 C 
HETATM    9  C10 UNL     1     -35.993  16.305  -4.965  1.00 20.00     0.043 C 
ENDBRANCH   6   7
BRANCH   2  10
HETATM   10  C4  UNL     1     -32.079  18.720  -1.812  1.00 20.00     0.265 C 
HETATM   11  O11 UNL     1     -31.142  18.570  -1.038  1.00 20.00    -0.302 OA
ENDBRANCH   2  10
TORSDOF 2
ENDMDL
MODEL 6
REMARK VINA RESULT:      -4.2      1.098      1.930
REMARK  2 active torsions:
REMARK  status: ('A' for Active; 'I' for Inactive)
REMARK    1  A    between atoms: C2_2  and  C4_4 
REMARK    2  A    between atoms: C5_5  and  C9_9 
ROOT
HETATM    1  C1  UNL     1     -35.652  16.041  -5.169  1.00 20.00    -0.016 C 
HETATM    2  C2  UNL     1     -35.405  14.930  -4.460  1.00 20.00    -0.024 C 
HETATM    3  C6  UNL     1     -34.846  17.301  -5.013  1.00 20.00     0.036 C 
HETATM    4  C7  UNL     1     -34.292  14.804  -3.464  1.00 20.00     0.042 C 
HETATM    5  C8  UNL     1     -33.267  15.941  -3.579  1.00 20.00     0.014 C 
HETATM    6  C9  UNL     1     -33.924  17.314  -3.779  1.00 20.00     0.017 C 
ENDROOT
BRANCH   6   7
HETATM    7  C5  UNL     1     -34.652  17.756  -2.542  1.00 20.00    -0.089 C 
HETATM    8  C3  UNL     1     -35.873  18.307  -2.597  1.00 20.00     0.014 C 
HETATM    9  C10 UNL     1     -33.935  17.543  -1.242  1.00 20.00     0.043 C 
ENDBRANCH   6   7
BRANCH   2  10
HETATM   10  C4  UNL     1     -36.266  13.768  -4.693  1.00 20.00     0.265 C 
HETATM   11  O11 UNL     1     -35.888  12.620  -4.505  1.00 20.00    -0.302 OA
ENDBRANCH   2  10
TORSDOF 2
ENDMDL
MODEL 7
REMARK VINA RESULT:      -4.2      1.056      1.910
REMARK  2 active torsions:
REMARK  status: ('A' for Active; 'I' for Inactive)
REMARK    1  A    between atoms: C2_2  and  C4_4 
REMARK    2  A    between atoms: C5_5  and  C9_9 
ROOT
HETATM    1  C1  UNL     1     -35.559  16.052  -5.187  1.00 20.00    -0.016 C 
HETATM    2  C2  UNL     1     -35.353  14.922  -4.495  1.00 20.00    -0.024 C 
HETATM    3  C6  UNL     1     -34.728  17.290  -4.987  1.00 20.00     0.036 C 
HETATM    4  C7  UNL     1     -34.267  14.751  -3.477  1.00 20.00     0.042 C 
HETATM    5  C8  UNL     1     -33.214  15.866  -3.545  1.00 20.00     0.014 C 
HETATM    6  C9  UNL     1     -33.835  17.257  -3.732  1.00 20.00     0.017 C 
ENDROOT
BRANCH   6   7
HETATM    7  C5  UNL     1     -34.581  17.691  -2.504  1.00 20.00    -0.089 C 
HETATM    8  C3  UNL     1     -34.132  17.423  -1.268  1.00 20.00     0.014 C 
HETATM    9  C10 UNL     1     -35.857  18.445  -2.737  1.00 20.00     0.043 C 
ENDBRANCH   6   7
BRANCH   2  10
HETATM   10  C4  UNL     1     -36.234  13.785  -4.771  1.00 20.00     0.265 C 
HETATM   11  O11 UNL     1     -35.918  12.630  -4.518  1.00 20.00    -0.302 OA
ENDBRANCH   2  10
TORSDOF 2
ENDMDL
MODEL 8
REMARK VINA RESULT:      -4.2      1.119      1.119
REMARK  2 active torsions:
REMARK  status: ('A' for Active; 'I' for Inactive)
REMARK    1  A    between atoms: C2_2  and  C4_4 
REMARK    2  A    between atoms: C5_5  and  C9_9 
ROOT
HETATM    1  C1  UNL     1     -33.920  15.239  -4.725  1.00 20.00    -0.016 C 
HETATM    2  C2  UNL     1     -35.252  15.351  -4.618  1.00 20.00    -0.024 C 
HETATM    3  C6  UNL     1     -32.979  15.638  -3.622  1.00 20.00     0.036 C 
HETATM    4  C7  UNL     1     -35.953  15.853  -3.392  1.00 20.00     0.042 C 
HETATM    5  C8  UNL     1     -35.032  15.905  -2.166  1.00 20.00     0.014 C 
HETATM    6  C9  UNL     1     -33.638  16.458  -2.495  1.00 20.00     0.017 C 
ENDROOT
BRANCH   6   7
HETATM    7  C5  UNL     1     -33.695  17.921  -2.829  1.00 20.00    -0.089 C 
HETATM    8  C3  UNL     1     -33.000  18.443  -3.850  1.00 20.00     0.014 C 
HETATM    9  C10 UNL     1     -34.576  18.764  -1.955  1.00 20.00     0.043 C 
ENDBRANCH   6   7
BRANCH   2  10
HETATM   10  C4  UNL     1     -36.064  14.938  -5.765  1.00 20.00     0.265 C 
HETATM   11  O11 UNL     1     -35.970  13.829  -6.275  1.00 20.00    -0.302 OA
ENDBRANCH   2  10
TORSDOF 2
ENDMDL
MODEL 9
REMARK VINA RESULT:      -4.1     10.910     13.062
REMARK  2 active torsions:
REMARK  status: ('A' for Active; 'I' for Inactive)
REMARK    1  A    between atoms: C2_2  and  C4_4 
REMARK    2  A    between atoms: C5_5  and  C9_9 
ROOT
HETATM    1  C1  UNL     1     -41.176   5.072  -1.315  1.00 20.00    -0.016 C 
HETATM    2  C2  UNL     1     -42.459   4.681  -1.310  1.00 20.00    -0.024 C 
HETATM    3  C6  UNL     1     -40.568   5.877  -0.199  1.00 20.00     0.036 C 
HETATM    4  C7  UNL     1     -43.417   4.968  -0.195  1.00 20.00     0.042 C 
HETATM    5  C8  UNL     1     -42.711   5.453   1.079  1.00 20.00     0.014 C 
HETATM    6  C9  UNL     1     -41.594   6.466   0.788  1.00 20.00     0.017 C 
ENDROOT
BRANCH   6   7
HETATM    7  C5  UNL     1     -42.154   7.770   0.299  1.00 20.00    -0.089 C 
HETATM    8  C3  UNL     1     -43.417   8.141   0.556  1.00 20.00     0.014 C 
HETATM    9  C10 UNL     1     -41.218   8.637  -0.491  1.00 20.00     0.043 C 
ENDBRANCH   6   7
BRANCH   2  10
HETATM   10  C4  UNL     1     -42.939   3.910  -2.460  1.00 20.00     0.265 C 
HETATM   11  O11 UNL     1     -42.226   3.124  -3.070  1.00 20.00    -0.302 OA
ENDBRANCH   2  10
TORSDOF 2
ENDMDL
