MODEL 1
REMARK VINA RESULT:      -5.0      0.000      0.000
REMARK  0 active torsions:
REMARK  status: ('A' for Active; 'I' for Inactive)
ROOT
HETATM    1  C1  UNL     1     -33.414   6.427   3.479  1.00 20.00    -0.017 C 
HETATM    2  C2  UNL     1     -33.680   4.966   3.294  1.00 20.00     0.159 C 
HETATM    3  C3  UNL     1     -32.512   7.145   2.814  1.00 20.00     0.023 C 
HETATM    4  C4  UNL     1     -34.017   6.189   5.872  1.00 20.00     0.010 C 
HETATM    5  C5  UNL     1     -34.278   4.677   5.647  1.00 20.00     0.013 C 
HETATM    6  C6  UNL     1     -35.610   5.948   4.128  1.00 20.00     0.022 C 
HETATM    7  C7  UNL     1     -34.422   6.832   4.530  1.00 20.00     0.022 C 
HETATM    8  C8  UNL     1     -34.832   4.627   4.216  1.00 20.00     0.061 C 
HETATM    9  O9  UNL     1     -33.057   4.202   2.583  1.00 20.00    -0.292 OA
ENDROOT
TORSDOF 0
ENDMDL
MODEL 2
REMARK VINA RESULT:      -4.6     16.551     17.562
REMARK  0 active torsions:
REMARK  status: ('A' for Active; 'I' for Inactive)
ROOT
HETATM    1  C1  UNL     1     -22.706  17.871  10.184  1.00 20.00    -0.017 C 
HETATM    2  C2  UNL     1     -22.561  17.615  11.651  1.00 20.00     0.159 C 
HETATM    3  C3  UNL     1     -21.742  18.290   9.368  1.00 20.00     0.023 C 
HETATM    4  C4  UNL     1     -25.059  18.543  10.578  1.00 20.00     0.010 C 
HETATM    5  C5  UNL     1     -24.873  18.274  12.094  1.00 20.00     0.013 C 
HETATM    6  C6  UNL     1     -24.309  16.309  10.864  1.00 20.00     0.022 C 
HETATM    7  C7  UNL     1     -24.144  17.498   9.909  1.00 20.00     0.022 C 
HETATM    8  C8  UNL     1     -23.900  17.087  12.122  1.00 20.00     0.061 C 
HETATM    9  O9  UNL     1     -21.579  17.837  12.331  1.00 20.00    -0.292 OA
ENDROOT
TORSDOF 0
ENDMDL
MODEL 3
REMARK VINA RESULT:      -4.5     11.752     12.724
REMARK  0 active torsions:
REMARK  status: ('A' for Active; 'I' for Inactive)
ROOT
HETATM    1  C1  UNL     1     -36.698  14.853  -4.128  1.00 20.00    -0.017 C 
HETATM    2  C2  UNL     1     -35.670  13.769  -4.217  1.00 20.00     0.159 C 
HETATM    3  C3  UNL     1     -38.011  14.696  -4.281  1.00 20.00     0.023 C 
HETATM    4  C4  UNL     1     -35.027  16.451  -5.022  1.00 20.00     0.010 C 
HETATM    5  C5  UNL     1     -33.988  15.303  -5.108  1.00 20.00     0.013 C 
HETATM    6  C6  UNL     1     -34.817  15.458  -2.875  1.00 20.00     0.022 C 
HETATM    7  C7  UNL     1     -35.879  16.078  -3.793  1.00 20.00     0.022 C 
HETATM    8  C8  UNL     1     -34.341  14.421  -3.901  1.00 20.00     0.061 C 
HETATM    9  O9  UNL     1     -35.866  12.611  -4.531  1.00 20.00    -0.292 OA
ENDROOT
TORSDOF 0
ENDMDL
MODEL 4
REMARK VINA RESULT:      -4.5     16.172     17.215
REMARK  0 active torsions:
REMARK  status: ('A' for Active; 'I' for Inactive)
ROOT
HETATM    1  C1  UNL     1     -25.212  18.419  11.141  1.00 20.00    -0.017 C 
HETATM    2  C2  UNL     1     -24.500  18.370   9.826  1.00 20.00     0.159 C 
HETATM    3  C3  UNL     1     -26.222  19.228  11.450  1.00 20.00     0.023 C 
HETATM    4  C4  UNL     1     -23.094  17.782  12.262  1.00 20.00     0.010 C 
HETATM    5  C5  UNL     1     -22.386  17.747  10.883  1.00 20.00     0.013 C 
HETATM    6  C6  UNL     1     -24.279  16.295  10.839  1.00 20.00     0.022 C 
HETATM    7  C7  UNL     1     -24.534  17.331  11.942  1.00 20.00     0.022 C 
HETATM    8  C8  UNL     1     -23.487  17.250   9.936  1.00 20.00     0.061 C 
HETATM    9  O9  UNL     1     -24.671  19.117   8.882  1.00 20.00    -0.292 OA
ENDROOT
TORSDOF 0
ENDMDL
MODEL 5
REMARK VINA RESULT:      -4.4      8.538      9.499
REMARK  0 active torsions:
REMARK  status: ('A' for Active; 'I' for Inactive)
ROOT
HETATM    1  C1  UNL     1     -42.264   6.083   0.565  1.00 20.00    -0.017 C 
HETATM    2  C2  UNL     1     -41.303   6.137  -0.581  1.00 20.00     0.159 C 
HETATM    3  C3  UNL     1     -42.667   4.980   1.191  1.00 20.00     0.023 C 
HETATM    4  C4  UNL     1     -43.417   8.070  -0.365  1.00 20.00     0.010 C 
HETATM    5  C5  UNL     1     -42.409   8.094  -1.542  1.00 20.00     0.013 C 
HETATM    6  C6  UNL     1     -41.218   8.175   0.525  1.00 20.00     0.022 C 
HETATM    7  C7  UNL     1     -42.583   7.538   0.818  1.00 20.00     0.022 C 
HETATM    8  C8  UNL     1     -41.105   7.605  -0.896  1.00 20.00     0.061 C 
HETATM    9  O9  UNL     1     -40.823   5.187  -1.168  1.00 20.00    -0.292 OA
ENDROOT
TORSDOF 0
ENDMDL
MODEL 6
REMARK VINA RESULT:      -4.4     11.952     12.782
REMARK  0 active torsions:
REMARK  status: ('A' for Active; 'I' for Inactive)
ROOT
HETATM    1  C1  UNL     1     -35.431  14.623  -3.990  1.00 20.00    -0.017 C 
HETATM    2  C2  UNL     1     -33.936  14.670  -4.004  1.00 20.00     0.159 C 
HETATM    3  C3  UNL     1     -36.185  13.652  -4.499  1.00 20.00     0.023 C 
HETATM    4  C4  UNL     1     -35.466  17.098  -4.127  1.00 20.00     0.010 C 
HETATM    5  C5  UNL     1     -33.916  17.111  -4.146  1.00 20.00     0.013 C 
HETATM    6  C6  UNL     1     -34.677  15.941  -2.210  1.00 20.00     0.022 C 
HETATM    7  C7  UNL     1     -35.809  15.882  -3.244  1.00 20.00     0.022 C 
HETATM    8  C8  UNL     1     -33.546  15.922  -3.247  1.00 20.00     0.061 C 
HETATM    9  O9  UNL     1     -33.192  13.884  -4.557  1.00 20.00    -0.292 OA
ENDROOT
TORSDOF 0
ENDMDL
MODEL 7
REMARK VINA RESULT:      -4.4      8.726      9.738
REMARK  0 active torsions:
REMARK  status: ('A' for Active; 'I' for Inactive)
ROOT
HETATM    1  C1  UNL     1     -41.947   7.971  -0.009  1.00 20.00    -0.017 C 
HETATM    2  C2  UNL     1     -42.923   7.538  -1.057  1.00 20.00     0.159 C 
HETATM    3  C3  UNL     1     -41.542   9.220   0.211  1.00 20.00     0.023 C 
HETATM    4  C4  UNL     1     -40.792   5.790  -0.245  1.00 20.00     0.010 C 
HETATM    5  C5  UNL     1     -41.817   5.376  -1.333  1.00 20.00     0.013 C 
HETATM    6  C6  UNL     1     -42.978   5.981   0.662  1.00 20.00     0.022 C 
HETATM    7  C7  UNL     1     -41.614   6.682   0.707  1.00 20.00     0.022 C 
HETATM    8  C8  UNL     1     -43.115   6.049  -0.865  1.00 20.00     0.061 C 
HETATM    9  O9  UNL     1     -43.417   8.239  -1.918  1.00 20.00    -0.292 OA
ENDROOT
TORSDOF 0
ENDMDL
MODEL 8
REMARK VINA RESULT:      -4.4     16.205     17.015
REMARK  0 active torsions:
REMARK  status: ('A' for Active; 'I' for Inactive)
ROOT
HETATM    1  C1  UNL     1     -23.926  17.815  10.046  1.00 20.00    -0.017 C 
HETATM    2  C2  UNL     1     -25.045  18.538  10.726  1.00 20.00     0.159 C 
HETATM    3  C3  UNL     1     -23.589  17.931   8.763  1.00 20.00     0.023 C 
HETATM    4  C4  UNL     1     -24.293  15.899  11.575  1.00 20.00     0.010 C 
HETATM    5  C5  UNL     1     -25.452  16.674  12.254  1.00 20.00     0.013 C 
HETATM    6  C6  UNL     1     -23.463  17.991  12.332  1.00 20.00     0.022 C 
HETATM    7  C7  UNL     1     -23.305  17.009  11.164  1.00 20.00     0.022 C 
HETATM    8  C8  UNL     1     -24.984  18.135  12.184  1.00 20.00     0.061 C 
HETATM    9  O9  UNL     1     -25.866  19.262  10.197  1.00 20.00    -0.292 OA
ENDROOT
TORSDOF 0
ENDMDL
MODEL 9
REMARK VINA RESULT:      -4.4      8.406      9.755
REMARK  0 active torsions:
REMARK  status: ('A' for Active; 'I' for Inactive)
ROOT
HETATM    1  C1  UNL     1     -42.837   5.906  -1.072  1.00 20.00    -0.017 C 
HETATM    2  C2  UNL     1     -41.387   5.925  -0.704  1.00 20.00     0.159 C 
HETATM    3  C3  UNL     1     -43.417   5.045  -1.905  1.00 20.00     0.023 C 
HETATM    4  C4  UNL     1     -42.891   8.371  -0.813  1.00 20.00     0.010 C 
HETATM    5  C5  UNL     1     -41.386   8.356  -0.440  1.00 20.00     0.013 C 
HETATM    6  C6  UNL     1     -42.582   6.903   1.028  1.00 20.00     0.022 C 
HETATM    7  C7  UNL     1     -43.417   7.034  -0.252  1.00 20.00     0.022 C 
HETATM    8  C8  UNL     1     -41.226   7.031   0.319  1.00 20.00     0.061 C 
HETATM    9  O9  UNL     1     -40.512   5.225  -1.173  1.00 20.00    -0.292 OA
ENDROOT
TORSDOF 0
ENDMDL
