MODEL 1
REMARK VINA RESULT:      -4.6      0.000      0.000
REMARK  0 active torsions:
REMARK  status: ('A' for Active; 'I' for Inactive)
ROOT
HETATM    1  C1  UNL     1     -33.494   5.360   3.354  1.00 20.00    -0.021 C 
HETATM    2  C2  UNL     1     -34.051   4.256   3.888  1.00 20.00    -0.021 C 
HETATM    3  C3  UNL     1     -33.898   6.581   5.460  1.00 20.00    -0.021 C 
HETATM    4  C4  UNL     1     -34.455   5.476   5.993  1.00 20.00    -0.021 C 
HETATM    5  C5  UNL     1     -35.605   5.942   4.057  1.00 20.00     0.024 C 
HETATM    6  C6  UNL     1     -34.199   6.555   3.971  1.00 20.00     0.031 C 
HETATM    7  C7  UNL     1     -35.123   4.722   4.856  1.00 20.00     0.031 C 
ENDROOT
TORSDOF 0
ENDMDL
MODEL 2
REMARK VINA RESULT:      -4.6      0.067      2.437
REMARK  0 active torsions:
REMARK  status: ('A' for Active; 'I' for Inactive)
ROOT
HETATM    1  C1  UNL     1     -34.467   5.395   5.988  1.00 20.00    -0.021 C 
HETATM    2  C2  UNL     1     -33.924   6.534   5.516  1.00 20.00    -0.021 C 
HETATM    3  C3  UNL     1     -34.020   4.289   3.827  1.00 20.00    -0.021 C 
HETATM    4  C4  UNL     1     -33.478   5.430   3.357  1.00 20.00    -0.021 C 
HETATM    5  C5  UNL     1     -35.605   5.938   4.065  1.00 20.00     0.024 C 
HETATM    6  C6  UNL     1     -35.110   4.688   4.807  1.00 20.00     0.031 C 
HETATM    7  C7  UNL     1     -34.210   6.580   4.026  1.00 20.00     0.031 C 
ENDROOT
TORSDOF 0
ENDMDL
MODEL 3
REMARK VINA RESULT:      -4.0      8.148      9.386
REMARK  0 active torsions:
REMARK  status: ('A' for Active; 'I' for Inactive)
ROOT
HETATM    1  C1  UNL     1     -41.189   6.414   0.303  1.00 20.00    -0.021 C 
HETATM    2  C2  UNL     1     -41.230   6.453  -1.043  1.00 20.00    -0.021 C 
HETATM    3  C3  UNL     1     -43.239   7.784   0.404  1.00 20.00    -0.021 C 
HETATM    4  C4  UNL     1     -43.279   7.823  -0.943  1.00 20.00    -0.021 C 
HETATM    5  C5  UNL     1     -41.222   8.631  -0.307  1.00 20.00     0.024 C 
HETATM    6  C6  UNL     1     -41.774   7.724   0.802  1.00 20.00     0.031 C 
HETATM    7  C7  UNL     1     -41.841   7.787  -1.431  1.00 20.00     0.031 C 
ENDROOT
TORSDOF 0
ENDMDL
MODEL 4
REMARK VINA RESULT:      -4.0      8.146      9.419
REMARK  0 active torsions:
REMARK  status: ('A' for Active; 'I' for Inactive)
ROOT
HETATM    1  C1  UNL     1     -43.245   7.752  -1.060  1.00 20.00    -0.021 C 
HETATM    2  C2  UNL     1     -43.288   7.733   0.286  1.00 20.00    -0.021 C 
HETATM    3  C3  UNL     1     -41.163   6.427  -1.010  1.00 20.00    -0.021 C 
HETATM    4  C4  UNL     1     -41.208   6.409   0.337  1.00 20.00    -0.021 C 
HETATM    5  C5  UNL     1     -41.250   8.616  -0.308  1.00 20.00     0.024 C 
HETATM    6  C6  UNL     1     -41.779   7.743  -1.456  1.00 20.00     0.031 C 
HETATM    7  C7  UNL     1     -41.852   7.712   0.778  1.00 20.00     0.031 C 
ENDROOT
TORSDOF 0
ENDMDL
MODEL 5
REMARK VINA RESULT:      -3.9      8.376      9.219
REMARK  0 active torsions:
REMARK  status: ('A' for Active; 'I' for Inactive)
ROOT
HETATM    1  C1  UNL     1     -41.596   8.240   0.744  1.00 20.00    -0.021 C 
HETATM    2  C2  UNL     1     -41.186   8.474  -0.518  1.00 20.00    -0.021 C 
HETATM    3  C3  UNL     1     -41.526   5.811   0.316  1.00 20.00    -0.021 C 
HETATM    4  C4  UNL     1     -41.116   6.046  -0.947  1.00 20.00    -0.021 C 
HETATM    5  C5  UNL     1     -43.089   7.190  -0.655  1.00 20.00     0.024 C 
HETATM    6  C6  UNL     1     -42.426   6.969   0.712  1.00 20.00     0.031 C 
HETATM    7  C7  UNL     1     -41.746   7.358  -1.382  1.00 20.00     0.031 C 
ENDROOT
TORSDOF 0
ENDMDL
MODEL 6
REMARK VINA RESULT:      -3.9      8.369      9.014
REMARK  0 active torsions:
REMARK  status: ('A' for Active; 'I' for Inactive)
ROOT
HETATM    1  C1  UNL     1     -41.138   6.024  -0.926  1.00 20.00    -0.021 C 
HETATM    2  C2  UNL     1     -41.533   5.812   0.345  1.00 20.00    -0.021 C 
HETATM    3  C3  UNL     1     -41.195   8.460  -0.536  1.00 20.00    -0.021 C 
HETATM    4  C4  UNL     1     -41.590   8.247   0.735  1.00 20.00    -0.021 C 
HETATM    5  C5  UNL     1     -43.104   7.180  -0.628  1.00 20.00     0.024 C 
HETATM    6  C6  UNL     1     -41.770   7.331  -1.374  1.00 20.00     0.031 C 
HETATM    7  C7  UNL     1     -42.424   6.977   0.734  1.00 20.00     0.031 C 
ENDROOT
TORSDOF 0
ENDMDL
MODEL 7
REMARK VINA RESULT:      -3.9      8.196      9.291
REMARK  0 active torsions:
REMARK  status: ('A' for Active; 'I' for Inactive)
ROOT
HETATM    1  C1  UNL     1     -41.356   6.782  -1.093  1.00 20.00    -0.021 C 
HETATM    2  C2  UNL     1     -42.089   7.867  -1.412  1.00 20.00    -0.021 C 
HETATM    3  C3  UNL     1     -42.680   6.496   0.970  1.00 20.00    -0.021 C 
HETATM    4  C4  UNL     1     -43.412   7.581   0.650  1.00 20.00    -0.021 C 
HETATM    5  C5  UNL     1     -41.209   8.241   0.679  1.00 20.00     0.024 C 
HETATM    6  C6  UNL     1     -41.282   6.728   0.423  1.00 20.00     0.031 C 
HETATM    7  C7  UNL     1     -42.497   8.528  -0.108  1.00 20.00     0.031 C 
ENDROOT
TORSDOF 0
ENDMDL
MODEL 8
REMARK VINA RESULT:      -3.8      8.341      9.405
REMARK  0 active torsions:
REMARK  status: ('A' for Active; 'I' for Inactive)
ROOT
HETATM    1  C1  UNL     1     -41.290   8.492  -0.360  1.00 20.00    -0.021 C 
HETATM    2  C2  UNL     1     -41.389   7.794   0.787  1.00 20.00    -0.021 C 
HETATM    3  C3  UNL     1     -43.169   7.202  -1.307  1.00 20.00    -0.021 C 
HETATM    4  C4  UNL     1     -43.267   6.504  -0.158  1.00 20.00    -0.021 C 
HETATM    5  C5  UNL     1     -41.106   6.266  -0.908  1.00 20.00     0.024 C 
HETATM    6  C6  UNL     1     -41.703   7.558  -1.485  1.00 20.00     0.031 C 
HETATM    7  C7  UNL     1     -41.866   6.400   0.420  1.00 20.00     0.031 C 
ENDROOT
TORSDOF 0
ENDMDL
MODEL 9
REMARK VINA RESULT:      -3.8     12.094     12.837
REMARK  0 active torsions:
REMARK  status: ('A' for Active; 'I' for Inactive)
ROOT
HETATM    1  C1  UNL     1     -33.570  14.595  -4.163  1.00 20.00    -0.021 C 
HETATM    2  C2  UNL     1     -34.811  14.175  -3.850  1.00 20.00    -0.021 C 
HETATM    3  C3  UNL     1     -33.742  16.371  -2.458  1.00 20.00    -0.021 C 
HETATM    4  C4  UNL     1     -34.983  15.949  -2.146  1.00 20.00    -0.021 C 
HETATM    5  C5  UNL     1     -34.974  16.402  -4.400  1.00 20.00     0.024 C 
HETATM    6  C6  UNL     1     -33.541  16.097  -3.939  1.00 20.00     0.031 C 
HETATM    7  C7  UNL     1     -35.600  15.398  -3.420  1.00 20.00     0.031 C 
ENDROOT
TORSDOF 0
ENDMDL
