MODEL 1
REMARK VINA RESULT:      -5.3      0.000      0.000
REMARK  1 active torsions:
REMARK  status: ('A' for Active; 'I' for Inactive)
REMARK    1  A    between atoms: C4_4  and  C12_12 
ROOT
HETATM    1  C1  UNL     1     -35.266  16.638  -1.290  1.00 20.00     0.005 C 
HETATM    2  C2  UNL     1     -35.176  17.657  -0.424  1.00 20.00     0.001 C 
HETATM    3  C3  UNL     1     -33.270  17.295  -2.498  1.00 20.00    -0.012 C 
HETATM    4  C4  UNL     1     -34.245  16.392  -2.289  1.00 20.00    -0.058 C 
HETATM    5  C5  UNL     1     -31.906  18.428   0.207  1.00 20.00     0.004 C 
HETATM    6  C6  UNL     1     -31.773  18.871  -1.215  1.00 20.00     0.065 C 
HETATM    7  C7  UNL     1     -33.177  18.591  -1.726  1.00 20.00     0.042 C 
HETATM    8  C8  UNL     1     -34.025  18.623  -0.438  1.00 20.00     0.138 C 
HETATM    9  C9  UNL     1     -30.691  18.206   1.048  1.00 20.00     0.065 C 
HETATM   10  N13 UNL     1     -33.106  18.283   0.674  1.00 20.00    -0.289 NA
ENDROOT
BRANCH   4  11
HETATM   11  C12 UNL     1     -34.355  15.120  -3.071  1.00 20.00     0.010 C 
HETATM   12  C10 UNL     1     -35.738  15.004  -3.703  1.00 20.00     0.015 C 
HETATM   13  C11 UNL     1     -33.262  15.041  -4.135  1.00 20.00     0.015 C 
ENDBRANCH   4  11
TORSDOF 1
ENDMDL
MODEL 2
REMARK VINA RESULT:      -5.2      3.093      6.146
REMARK  1 active torsions:
REMARK  status: ('A' for Active; 'I' for Inactive)
REMARK    1  A    between atoms: C4_4  and  C12_12 
ROOT
HETATM    1  C1  UNL     1     -34.858  14.274  -3.583  1.00 20.00     0.005 C 
HETATM    2  C2  UNL     1     -35.727  13.638  -4.382  1.00 20.00     0.001 C 
HETATM    3  C3  UNL     1     -35.793  16.459  -4.059  1.00 20.00    -0.012 C 
HETATM    4  C4  UNL     1     -34.948  15.700  -3.340  1.00 20.00    -0.058 C 
HETATM    5  C5  UNL     1     -38.762  15.211  -4.368  1.00 20.00     0.004 C 
HETATM    6  C6  UNL     1     -38.118  16.382  -5.040  1.00 20.00     0.065 C 
HETATM    7  C7  UNL     1     -36.683  15.891  -5.141  1.00 20.00     0.042 C 
HETATM    8  C8  UNL     1     -36.840  14.357  -5.090  1.00 20.00     0.138 C 
HETATM    9  C9  UNL     1     -40.119  15.341  -3.758  1.00 20.00     0.065 C 
HETATM   10  N13 UNL     1     -38.110  14.092  -4.372  1.00 20.00    -0.289 NA
ENDROOT
BRANCH   4  11
HETATM   11  C12 UNL     1     -34.046  16.266  -2.286  1.00 20.00     0.010 C 
HETATM   12  C10 UNL     1     -33.027  17.212  -2.913  1.00 20.00     0.015 C 
HETATM   13  C11 UNL     1     -34.854  16.976  -1.204  1.00 20.00     0.015 C 
ENDBRANCH   4  11
TORSDOF 1
ENDMDL
MODEL 3
REMARK VINA RESULT:      -5.1      2.460      5.293
REMARK  1 active torsions:
REMARK  status: ('A' for Active; 'I' for Inactive)
REMARK    1  A    between atoms: C4_4  and  C12_12 
ROOT
HETATM    1  C1  UNL     1     -34.783  16.388  -1.998  1.00 20.00     0.005 C 
HETATM    2  C2  UNL     1     -35.635  15.558  -2.614  1.00 20.00     0.001 C 
HETATM    3  C3  UNL     1     -32.967  15.893  -3.524  1.00 20.00    -0.012 C 
HETATM    4  C4  UNL     1     -33.451  16.636  -2.514  1.00 20.00    -0.058 C 
HETATM    5  C5  UNL     1     -35.033  15.478  -5.978  1.00 20.00     0.004 C 
HETATM    6  C6  UNL     1     -33.715  14.834  -5.690  1.00 20.00     0.065 C 
HETATM    7  C7  UNL     1     -33.756  14.779  -4.172  1.00 20.00     0.042 C 
HETATM    8  C8  UNL     1     -35.269  14.817  -3.868  1.00 20.00     0.138 C 
HETATM    9  C9  UNL     1     -35.320  16.043  -7.331  1.00 20.00     0.065 C 
HETATM   10  N13 UNL     1     -35.909  15.490  -5.024  1.00 20.00    -0.289 NA
ENDROOT
BRANCH   4  11
HETATM   11  C12 UNL     1     -32.659  17.722  -1.853  1.00 20.00     0.010 C 
HETATM   12  C10 UNL     1     -32.499  18.910  -2.796  1.00 20.00     0.015 C 
HETATM   13  C11 UNL     1     -33.315  18.152  -0.543  1.00 20.00     0.015 C 
ENDBRANCH   4  11
TORSDOF 1
ENDMDL
MODEL 4
REMARK VINA RESULT:      -5.0      3.285      6.142
REMARK  1 active torsions:
REMARK  status: ('A' for Active; 'I' for Inactive)
REMARK    1  A    between atoms: C4_4  and  C12_12 
ROOT
HETATM    1  C1  UNL     1     -35.526  14.478  -3.511  1.00 20.00     0.005 C 
HETATM    2  C2  UNL     1     -36.152  13.956  -4.575  1.00 20.00     0.001 C 
HETATM    3  C3  UNL     1     -33.930  15.701  -4.866  1.00 20.00    -0.012 C 
HETATM    4  C4  UNL     1     -34.454  15.443  -3.654  1.00 20.00    -0.058 C 
HETATM    5  C5  UNL     1     -36.129  16.152  -7.195  1.00 20.00     0.004 C 
HETATM    6  C6  UNL     1     -34.644  15.992  -7.270  1.00 20.00     0.065 C 
HETATM    7  C7  UNL     1     -34.410  15.019  -6.126  1.00 20.00     0.042 C 
HETATM    8  C8  UNL     1     -35.779  14.319  -5.985  1.00 20.00     0.138 C 
HETATM    9  C9  UNL     1     -36.807  17.270  -7.918  1.00 20.00     0.065 C 
HETATM   10  N13 UNL     1     -36.787  15.268  -6.514  1.00 20.00    -0.289 NA
ENDROOT
BRANCH   4  11
HETATM   11  C12 UNL     1     -33.960  16.099  -2.401  1.00 20.00     0.010 C 
HETATM   12  C10 UNL     1     -33.030  17.258  -2.740  1.00 20.00     0.015 C 
HETATM   13  C11 UNL     1     -35.129  16.573  -1.540  1.00 20.00     0.015 C 
ENDBRANCH   4  11
TORSDOF 1
ENDMDL
MODEL 5
REMARK VINA RESULT:      -4.7      1.100      1.100
REMARK  1 active torsions:
REMARK  status: ('A' for Active; 'I' for Inactive)
REMARK    1  A    between atoms: C4_4  and  C12_12 
ROOT
HETATM    1  C1  UNL     1     -35.414  17.325  -2.669  1.00 20.00     0.005 C 
HETATM    2  C2  UNL     1     -35.308  18.532  -2.098  1.00 20.00     0.001 C 
HETATM    3  C3  UNL     1     -33.045  16.857  -2.462  1.00 20.00    -0.012 C 
HETATM    4  C4  UNL     1     -34.281  16.426  -2.770  1.00 20.00    -0.058 C 
HETATM    5  C5  UNL     1     -32.872  18.532   0.299  1.00 20.00     0.004 C 
HETATM    6  C6  UNL     1     -31.860  18.320  -0.780  1.00 20.00     0.065 C 
HETATM    7  C7  UNL     1     -32.762  18.268  -2.002  1.00 20.00     0.042 C 
HETATM    8  C8  UNL     1     -34.012  19.046  -1.540  1.00 20.00     0.138 C 
HETATM    9  C9  UNL     1     -32.504  18.328   1.733  1.00 20.00     0.065 C 
HETATM   10  N13 UNL     1     -34.051  18.930  -0.062  1.00 20.00    -0.289 NA
ENDROOT
BRANCH   4  11
HETATM   11  C12 UNL     1     -34.559  15.036  -3.252  1.00 20.00     0.010 C 
HETATM   12  C10 UNL     1     -35.971  14.945  -3.822  1.00 20.00     0.015 C 
HETATM   13  C11 UNL     1     -33.525  14.603  -4.287  1.00 20.00     0.015 C 
ENDBRANCH   4  11
TORSDOF 1
ENDMDL
MODEL 6
REMARK VINA RESULT:      -4.7      2.005      4.697
REMARK  1 active torsions:
REMARK  status: ('A' for Active; 'I' for Inactive)
REMARK    1  A    between atoms: C4_4  and  C12_12 
ROOT
HETATM    1  C1  UNL     1     -34.582  17.496  -0.597  1.00 20.00     0.005 C 
HETATM    2  C2  UNL     1     -35.496  16.698  -1.164  1.00 20.00     0.001 C 
HETATM    3  C3  UNL     1     -32.917  17.043  -2.299  1.00 20.00    -0.012 C 
HETATM    4  C4  UNL     1     -33.299  17.752  -1.222  1.00 20.00    -0.058 C 
HETATM    5  C5  UNL     1     -35.201  16.740  -4.569  1.00 20.00     0.004 C 
HETATM    6  C6  UNL     1     -33.870  16.073  -4.426  1.00 20.00     0.065 C 
HETATM    7  C7  UNL     1     -33.775  15.962  -2.913  1.00 20.00     0.042 C 
HETATM    8  C8  UNL     1     -35.254  16.001  -2.472  1.00 20.00     0.138 C 
HETATM    9  C9  UNL     1     -35.602  17.358  -5.868  1.00 20.00     0.065 C 
HETATM   10  N13 UNL     1     -35.987  16.723  -3.539  1.00 20.00    -0.289 NA
ENDROOT
BRANCH   4  11
HETATM   11  C12 UNL     1     -32.438  18.805  -0.596  1.00 20.00     0.010 C 
HETATM   12  C10 UNL     1     -33.038  19.263   0.729  1.00 20.00     0.015 C 
HETATM   13  C11 UNL     1     -31.012  18.294  -0.399  1.00 20.00     0.015 C 
ENDBRANCH   4  11
TORSDOF 1
ENDMDL
MODEL 7
REMARK VINA RESULT:      -4.4      1.991      2.657
REMARK  1 active torsions:
REMARK  status: ('A' for Active; 'I' for Inactive)
REMARK    1  A    between atoms: C4_4  and  C12_12 
ROOT
HETATM    1  C1  UNL     1     -36.266  16.272  -3.452  1.00 20.00     0.005 C 
HETATM    2  C2  UNL     1     -36.754  17.398  -2.913  1.00 20.00     0.001 C 
HETATM    3  C3  UNL     1     -34.154  16.450  -2.275  1.00 20.00    -0.012 C 
HETATM    4  C4  UNL     1     -34.979  15.733  -3.057  1.00 20.00    -0.058 C 
HETATM    5  C5  UNL     1     -35.598  17.817   0.276  1.00 20.00     0.004 C 
HETATM    6  C6  UNL     1     -34.224  18.001  -0.284  1.00 20.00     0.065 C 
HETATM    7  C7  UNL     1     -34.503  17.831  -1.768  1.00 20.00     0.042 C 
HETATM    8  C8  UNL     1     -36.001  18.186  -1.879  1.00 20.00     0.138 C 
HETATM    9  C9  UNL     1     -35.794  17.576   1.738  1.00 20.00     0.065 C 
HETATM   10  N13 UNL     1     -36.593  17.913  -0.548  1.00 20.00    -0.289 NA
ENDROOT
BRANCH   4  11
HETATM   11  C12 UNL     1     -34.624  14.376  -3.582  1.00 20.00     0.010 C 
HETATM   12  C10 UNL     1     -35.781  13.801  -4.392  1.00 20.00     0.015 C 
HETATM   13  C11 UNL     1     -33.350  14.435  -4.421  1.00 20.00     0.015 C 
ENDBRANCH   4  11
TORSDOF 1
ENDMDL
MODEL 8
REMARK VINA RESULT:      -4.4      1.843      4.771
REMARK  1 active torsions:
REMARK  status: ('A' for Active; 'I' for Inactive)
REMARK    1  A    between atoms: C4_4  and  C12_12 
ROOT
HETATM    1  C1  UNL     1     -31.861  18.488   0.438  1.00 20.00     0.005 C 
HETATM    2  C2  UNL     1     -31.569  18.298  -0.857  1.00 20.00     0.001 C 
HETATM    3  C3  UNL     1     -34.226  18.802   0.009  1.00 20.00    -0.012 C 
HETATM    4  C4  UNL     1     -33.227  18.650   0.896  1.00 20.00    -0.058 C 
HETATM    5  C5  UNL     1     -34.139  16.717  -2.461  1.00 20.00     0.004 C 
HETATM    6  C6  UNL     1     -34.980  17.933  -2.237  1.00 20.00     0.065 C 
HETATM    7  C7  UNL     1     -33.999  18.816  -1.485  1.00 20.00     0.042 C 
HETATM    8  C8  UNL     1     -32.628  18.256  -1.921  1.00 20.00     0.138 C 
HETATM    9  C9  UNL     1     -34.768  15.430  -2.886  1.00 20.00     0.065 C 
HETATM   10  N13 UNL     1     -32.860  16.843  -2.306  1.00 20.00    -0.289 NA
ENDROOT
BRANCH   4  11
HETATM   11  C12 UNL     1     -33.447  18.664   2.377  1.00 20.00     0.010 C 
HETATM   12  C10 UNL     1     -34.928  18.481   2.695  1.00 20.00     0.015 C 
HETATM   13  C11 UNL     1     -32.607  17.588   3.061  1.00 20.00     0.015 C 
ENDBRANCH   4  11
TORSDOF 1
ENDMDL
MODEL 9
REMARK VINA RESULT:      -4.4      2.732      5.729
REMARK  1 active torsions:
REMARK  status: ('A' for Active; 'I' for Inactive)
REMARK    1  A    between atoms: C4_4  and  C12_12 
ROOT
HETATM    1  C1  UNL     1     -33.219  15.244  -3.682  1.00 20.00     0.005 C 
HETATM    2  C2  UNL     1     -33.816  14.407  -4.541  1.00 20.00     0.001 C 
HETATM    3  C3  UNL     1     -34.701  17.086  -4.218  1.00 20.00    -0.012 C 
HETATM    4  C4  UNL     1     -33.725  16.581  -3.442  1.00 20.00    -0.058 C 
HETATM    5  C5  UNL     1     -37.166  15.057  -4.739  1.00 20.00     0.004 C 
HETATM    6  C6  UNL     1     -36.837  16.376  -5.361  1.00 20.00     0.065 C 
HETATM    7  C7  UNL     1     -35.318  16.314  -5.361  1.00 20.00     0.042 C 
HETATM    8  C8  UNL     1     -35.037  14.797  -5.325  1.00 20.00     0.138 C 
HETATM    9  C9  UNL     1     -38.543  14.784  -4.226  1.00 20.00     0.065 C 
HETATM   10  N13 UNL     1     -36.225  14.168  -4.700  1.00 20.00    -0.289 NA
ENDROOT
BRANCH   4  11
HETATM   11  C12 UNL     1     -33.094  17.355  -2.326  1.00 20.00     0.010 C 
HETATM   12  C10 UNL     1     -32.618  18.715  -2.827  1.00 20.00     0.015 C 
HETATM   13  C11 UNL     1     -34.065  17.515  -1.159  1.00 20.00     0.015 C 
ENDBRANCH   4  11
TORSDOF 1
ENDMDL
