MODEL 1
REMARK VINA RESULT:      -4.7      0.000      0.000
REMARK  1 active torsions:
REMARK  status: ('A' for Active; 'I' for Inactive)
REMARK    1  A    between atoms: C3_3  and  C8_8 
ROOT
HETATM    1  C1  UNL     1     -34.396  17.183  -4.409  1.00 20.00    -0.026 C 
HETATM    2  C2  UNL     1     -35.581  16.822  -3.895  1.00 20.00    -0.025 C 
HETATM    3  C4  UNL     1     -33.989  16.362  -2.287  1.00 20.00     0.017 C 
HETATM    4  C5  UNL     1     -33.446  14.923  -4.104  1.00 20.00     0.021 C 
HETATM    5  C6  UNL     1     -33.335  16.404  -3.672  1.00 20.00     0.009 C 
HETATM    6  C7  UNL     1     -35.308  15.791  -2.820  1.00 20.00     0.019 C 
HETATM    7  C8  UNL     1     -34.801  14.486  -3.477  1.00 20.00     0.055 C 
ENDROOT
BRANCH   7   8
HETATM    8  C3  UNL     1     -35.755  13.914  -4.480  1.00 20.00     0.236 C 
HETATM    9  O9  UNL     1     -35.952  12.711  -4.614  1.00 20.00    -0.306 OA
ENDBRANCH   7   8
TORSDOF 1
ENDMDL
MODEL 2
REMARK VINA RESULT:      -4.5     10.318     12.056
REMARK  1 active torsions:
REMARK  status: ('A' for Active; 'I' for Inactive)
REMARK    1  A    between atoms: C3_3  and  C8_8 
ROOT
HETATM    1  C1  UNL     1     -42.615   6.125  -1.326  1.00 20.00    -0.026 C 
HETATM    2  C2  UNL     1     -41.323   6.354  -1.051  1.00 20.00    -0.025 C 
HETATM    3  C4  UNL     1     -42.306   5.645   0.914  1.00 20.00     0.017 C 
HETATM    4  C5  UNL     1     -43.383   7.707   0.409  1.00 20.00     0.021 C 
HETATM    5  C6  UNL     1     -43.371   6.223  -0.024  1.00 20.00     0.009 C 
HETATM    6  C7  UNL     1     -41.219   6.617   0.436  1.00 20.00     0.019 C 
HETATM    7  C8  UNL     1     -41.892   7.969   0.767  1.00 20.00     0.055 C 
ENDROOT
BRANCH   7   8
HETATM    8  C3  UNL     1     -41.303   9.126   0.020  1.00 20.00     0.236 C 
HETATM    9  O9  UNL     1     -41.421  10.292   0.380  1.00 20.00    -0.306 OA
ENDBRANCH   7   8
TORSDOF 1
ENDMDL
MODEL 3
REMARK VINA RESULT:      -4.4      1.175      2.072
REMARK  1 active torsions:
REMARK  status: ('A' for Active; 'I' for Inactive)
REMARK    1  A    between atoms: C3_3  and  C8_8 
ROOT
HETATM    1  C1  UNL     1     -33.079  14.859  -4.209  1.00 20.00    -0.026 C 
HETATM    2  C2  UNL     1     -33.808  14.843  -5.334  1.00 20.00    -0.025 C 
HETATM    3  C4  UNL     1     -34.161  16.898  -4.342  1.00 20.00     0.017 C 
HETATM    4  C5  UNL     1     -35.055  15.320  -2.799  1.00 20.00     0.021 C 
HETATM    5  C6  UNL     1     -33.701  15.882  -3.290  1.00 20.00     0.009 C 
HETATM    6  C7  UNL     1     -34.925  15.850  -5.160  1.00 20.00     0.019 C 
HETATM    7  C8  UNL     1     -35.919  15.335  -4.093  1.00 20.00     0.055 C 
ENDROOT
BRANCH   7   8
HETATM    8  C3  UNL     1     -36.507  13.997  -4.421  1.00 20.00     0.236 C 
HETATM    9  O9  UNL     1     -37.712  13.769  -4.415  1.00 20.00    -0.306 OA
ENDBRANCH   7   8
TORSDOF 1
ENDMDL
MODEL 4
REMARK VINA RESULT:      -4.4     17.781     18.658
REMARK  1 active torsions:
REMARK  status: ('A' for Active; 'I' for Inactive)
REMARK    1  A    between atoms: C3_3  and  C8_8 
ROOT
HETATM    1  C1  UNL     1     -24.680  18.484  11.913  1.00 20.00    -0.026 C 
HETATM    2  C2  UNL     1     -25.093  18.139  10.684  1.00 20.00    -0.025 C 
HETATM    3  C4  UNL     1     -24.182  16.243  11.637  1.00 20.00     0.017 C 
HETATM    4  C5  UNL     1     -22.361  17.765  11.459  1.00 20.00     0.021 C 
HETATM    5  C6  UNL     1     -23.617  17.493  12.319  1.00 20.00     0.009 C 
HETATM    6  C7  UNL     1     -24.294  16.923  10.267  1.00 20.00     0.019 C 
HETATM    7  C8  UNL     1     -22.820  17.330  10.038  1.00 20.00     0.055 C 
ENDROOT
BRANCH   7   8
HETATM    8  C3  UNL     1     -22.652  18.408   9.012  1.00 20.00     0.236 C 
HETATM    9  O9  UNL     1     -21.671  19.143   8.959  1.00 20.00    -0.306 OA
ENDBRANCH   7   8
TORSDOF 1
ENDMDL
MODEL 5
REMARK VINA RESULT:      -4.3     10.273     12.019
REMARK  1 active torsions:
REMARK  status: ('A' for Active; 'I' for Inactive)
REMARK    1  A    between atoms: C3_3  and  C8_8 
ROOT
HETATM    1  C1  UNL     1     -42.221   5.640   0.681  1.00 20.00    -0.026 C 
HETATM    2  C2  UNL     1     -43.007   6.658   1.061  1.00 20.00    -0.025 C 
HETATM    3  C4  UNL     1     -43.379   6.336  -1.195  1.00 20.00     0.017 C 
HETATM    4  C5  UNL     1     -41.098   7.001  -1.047  1.00 20.00     0.021 C 
HETATM    5  C6  UNL     1     -42.007   5.774  -0.807  1.00 20.00     0.009 C 
HETATM    6  C7  UNL     1     -43.307   7.479  -0.175  1.00 20.00     0.019 C 
HETATM    7  C8  UNL     1     -42.017   8.190  -0.646  1.00 20.00     0.055 C 
ENDROOT
BRANCH   7   8
HETATM    8  C3  UNL     1     -41.410   9.075   0.399  1.00 20.00     0.236 C 
HETATM    9  O9  UNL     1     -41.453  10.299   0.355  1.00 20.00    -0.306 OA
ENDBRANCH   7   8
TORSDOF 1
ENDMDL
MODEL 6
REMARK VINA RESULT:      -4.3     11.600     12.687
REMARK  1 active torsions:
REMARK  status: ('A' for Active; 'I' for Inactive)
REMARK    1  A    between atoms: C3_3  and  C8_8 
ROOT
HETATM    1  C1  UNL     1     -33.948   5.173   5.850  1.00 20.00    -0.026 C 
HETATM    2  C2  UNL     1     -34.053   6.483   5.585  1.00 20.00    -0.025 C 
HETATM    3  C4  UNL     1     -35.683   5.421   4.342  1.00 20.00     0.017 C 
HETATM    4  C5  UNL     1     -33.626   4.601   3.469  1.00 20.00     0.021 C 
HETATM    5  C6  UNL     1     -34.563   4.433   4.687  1.00 20.00     0.009 C 
HETATM    6  C7  UNL     1     -34.729   6.616   4.237  1.00 20.00     0.019 C 
HETATM    7  C8  UNL     1     -33.773   6.112   3.131  1.00 20.00     0.055 C 
ENDROOT
BRANCH   7   8
HETATM    8  C3  UNL     1     -32.462   6.836   3.100  1.00 20.00     0.236 C 
HETATM    9  O9  UNL     1     -32.125   7.583   2.188  1.00 20.00    -0.306 OA
ENDBRANCH   7   8
TORSDOF 1
ENDMDL
MODEL 7
REMARK VINA RESULT:      -4.3     10.585     11.608
REMARK  1 active torsions:
REMARK  status: ('A' for Active; 'I' for Inactive)
REMARK    1  A    between atoms: C3_3  and  C8_8 
ROOT
HETATM    1  C1  UNL     1     -43.417   7.545   0.785  1.00 20.00    -0.026 C 
HETATM    2  C2  UNL     1     -42.303   6.862   1.085  1.00 20.00    -0.025 C 
HETATM    3  C4  UNL     1     -41.629   8.950   0.367  1.00 20.00     0.017 C 
HETATM    4  C5  UNL     1     -42.673   7.965  -1.532  1.00 20.00     0.021 C 
HETATM    5  C6  UNL     1     -43.024   8.634  -0.183  1.00 20.00     0.009 C 
HETATM    6  C7  UNL     1     -41.167   7.489   0.305  1.00 20.00     0.019 C 
HETATM    7  C8  UNL     1     -41.359   7.201  -1.202  1.00 20.00     0.055 C 
ENDROOT
BRANCH   7   8
HETATM    8  C3  UNL     1     -41.432   5.741  -1.526  1.00 20.00     0.236 C 
HETATM    9  O9  UNL     1     -40.566   4.934  -1.205  1.00 20.00    -0.306 OA
ENDBRANCH   7   8
TORSDOF 1
ENDMDL
MODEL 8
REMARK VINA RESULT:      -4.3     17.599     18.499
REMARK  1 active torsions:
REMARK  status: ('A' for Active; 'I' for Inactive)
REMARK    1  A    between atoms: C3_3  and  C8_8 
ROOT
HETATM    1  C1  UNL     1     -25.189  16.645  11.565  1.00 20.00    -0.026 C 
HETATM    2  C2  UNL     1     -23.962  16.104  11.575  1.00 20.00    -0.025 C 
HETATM    3  C4  UNL     1     -23.738  18.274  12.332  1.00 20.00     0.017 C 
HETATM    4  C5  UNL     1     -24.486  18.492  10.082  1.00 20.00     0.021 C 
HETATM    5  C6  UNL     1     -25.014  18.142  11.493  1.00 20.00     0.009 C 
HETATM    6  C7  UNL     1     -22.967  17.243  11.498  1.00 20.00     0.019 C 
HETATM    7  C8  UNL     1     -23.047  17.901  10.101  1.00 20.00     0.055 C 
ENDROOT
BRANCH   7   8
HETATM    8  C3  UNL     1     -22.791  16.945   8.976  1.00 20.00     0.236 C 
HETATM    9  O9  UNL     1     -21.668  16.638   8.593  1.00 20.00    -0.306 OA
ENDBRANCH   7   8
TORSDOF 1
ENDMDL
MODEL 9
REMARK VINA RESULT:      -4.3      1.289      1.914
REMARK  1 active torsions:
REMARK  status: ('A' for Active; 'I' for Inactive)
REMARK    1  A    between atoms: C3_3  and  C8_8 
ROOT
HETATM    1  C1  UNL     1     -34.393  16.575  -3.349  1.00 20.00    -0.026 C 
HETATM    2  C2  UNL     1     -34.923  15.499  -2.750  1.00 20.00    -0.025 C 
HETATM    3  C4  UNL     1     -33.424  14.715  -4.321  1.00 20.00     0.017 C 
HETATM    4  C5  UNL     1     -35.108  15.820  -5.590  1.00 20.00     0.021 C 
HETATM    5  C6  UNL     1     -33.883  16.128  -4.697  1.00 20.00     0.009 C 
HETATM    6  C7  UNL     1     -34.776  14.334  -3.705  1.00 20.00     0.019 C 
HETATM    7  C8  UNL     1     -35.705  14.548  -4.923  1.00 20.00     0.055 C 
ENDROOT
BRANCH   7   8
HETATM    8  C3  UNL     1     -37.148  14.703  -4.551  1.00 20.00     0.236 C 
HETATM    9  O9  UNL     1     -37.897  13.756  -4.342  1.00 20.00    -0.306 OA
ENDBRANCH   7   8
TORSDOF 1
ENDMDL
