MODEL 1
REMARK VINA RESULT:      -4.5      0.000      0.000
REMARK  4 active torsions:
REMARK  status: ('A' for Active; 'I' for Inactive)
REMARK    1  A    between atoms: C1_1  and  C7_7 
REMARK    2  A    between atoms: C1_1  and  C8_8 
REMARK    3  A    between atoms: C7_7  and  C9_9 
REMARK    4  A    between atoms: C8_8  and  C10_10 
ROOT
HETATM    1  C1  UNL     1     -32.619   6.999   2.862  1.00 20.00     0.131 C 
HETATM    2  O11 UNL     1     -31.588   7.566   3.229  1.00 20.00    -0.298 OA
ENDROOT
BRANCH   1   3
HETATM    3  C7  UNL     1     -33.442   7.513   1.687  1.00 20.00     0.082 C 
BRANCH   3   4
HETATM    4  C9  UNL     1     -32.684   8.513   0.802  1.00 20.00    -0.016 C 
HETATM    5  C3  UNL     1     -33.051   8.340  -0.674  1.00 20.00     0.010 C 
HETATM    6  C4  UNL     1     -32.989   9.944   1.248  1.00 20.00     0.010 C 
ENDBRANCH   3   4
ENDBRANCH   1   3
BRANCH   1   7
HETATM    7  C8  UNL     1     -33.159   5.761   3.582  1.00 20.00     0.054 C 
HETATM    8  C2  UNL     1     -33.476   4.655   2.574  1.00 20.00     0.018 C 
BRANCH   7   9
HETATM    9  C10 UNL     1     -34.339   6.152   4.506  1.00 20.00    -0.012 C 
HETATM   10  C5  UNL     1     -33.842   6.805   5.799  1.00 20.00     0.010 C 
HETATM   11  C6  UNL     1     -35.269   4.983   4.842  1.00 20.00     0.010 C 
ENDBRANCH   7   9
ENDBRANCH   1   7
TORSDOF 4
ENDMDL
MODEL 2
REMARK VINA RESULT:      -4.5     10.128     12.076
REMARK  4 active torsions:
REMARK  status: ('A' for Active; 'I' for Inactive)
REMARK    1  A    between atoms: C1_1  and  C7_7 
REMARK    2  A    between atoms: C1_1  and  C8_8 
REMARK    3  A    between atoms: C7_7  and  C9_9 
REMARK    4  A    between atoms: C8_8  and  C10_10 
ROOT
HETATM    1  C1  UNL     1     -35.592  14.055  -4.561  1.00 20.00     0.131 C 
HETATM    2  O11 UNL     1     -36.051  12.919  -4.683  1.00 20.00    -0.298 OA
ENDROOT
BRANCH   1   3
HETATM    3  C7  UNL     1     -34.548  14.390  -3.503  1.00 20.00     0.082 C 
BRANCH   3   4
HETATM    4  C9  UNL     1     -34.469  15.888  -3.178  1.00 20.00    -0.016 C 
HETATM    5  C3  UNL     1     -35.080  16.194  -1.808  1.00 20.00     0.010 C 
HETATM    6  C4  UNL     1     -33.013  16.357  -3.212  1.00 20.00     0.010 C 
ENDBRANCH   3   4
ENDBRANCH   1   3
BRANCH   1   7
HETATM    7  C8  UNL     1     -36.064  15.215  -5.443  1.00 20.00     0.054 C 
HETATM    8  C2  UNL     1     -37.553  15.481  -5.220  1.00 20.00     0.018 C 
BRANCH   7   9
HETATM    9  C10 UNL     1     -35.666  14.962  -6.918  1.00 20.00    -0.012 C 
HETATM   10  C5  UNL     1     -34.158  15.131  -7.126  1.00 20.00     0.010 C 
HETATM   11  C6  UNL     1     -36.426  15.838  -7.918  1.00 20.00     0.010 C 
ENDBRANCH   7   9
ENDBRANCH   1   7
TORSDOF 4
ENDMDL
MODEL 3
REMARK VINA RESULT:      -4.4      1.306      2.186
REMARK  4 active torsions:
REMARK  status: ('A' for Active; 'I' for Inactive)
REMARK    1  A    between atoms: C1_1  and  C7_7 
REMARK    2  A    between atoms: C1_1  and  C8_8 
REMARK    3  A    between atoms: C7_7  and  C9_9 
REMARK    4  A    between atoms: C8_8  and  C10_10 
ROOT
HETATM    1  C1  UNL     1     -33.002   6.347   2.932  1.00 20.00     0.131 C 
HETATM    2  O11 UNL     1     -32.902   5.214   2.461  1.00 20.00    -0.298 OA
ENDROOT
BRANCH   1   3
HETATM    3  C7  UNL     1     -32.219   7.525   2.365  1.00 20.00     0.082 C 
BRANCH   3   4
HETATM    4  C9  UNL     1     -32.775   8.039   1.029  1.00 20.00    -0.016 C 
HETATM    5  C3  UNL     1     -33.100   9.534   1.100  1.00 20.00     0.010 C 
HETATM    6  C4  UNL     1     -31.769   7.780  -0.093  1.00 20.00     0.010 C 
ENDBRANCH   3   4
ENDBRANCH   1   3
BRANCH   1   7
HETATM    7  C8  UNL     1     -33.895   6.643   4.141  1.00 20.00     0.054 C 
HETATM    8  C2  UNL     1     -33.097   7.365   5.227  1.00 20.00     0.018 C 
BRANCH   7   9
HETATM    9  C10 UNL     1     -34.604   5.348   4.611  1.00 20.00    -0.012 C 
HETATM   10  C5  UNL     1     -36.002   5.225   3.998  1.00 20.00     0.010 C 
HETATM   11  C6  UNL     1     -34.695   5.217   6.134  1.00 20.00     0.010 C 
ENDBRANCH   7   9
ENDBRANCH   1   7
TORSDOF 4
ENDMDL
MODEL 4
REMARK VINA RESULT:      -4.4     10.511     11.632
REMARK  4 active torsions:
REMARK  status: ('A' for Active; 'I' for Inactive)
REMARK    1  A    between atoms: C1_1  and  C7_7 
REMARK    2  A    between atoms: C1_1  and  C8_8 
REMARK    3  A    between atoms: C7_7  and  C9_9 
REMARK    4  A    between atoms: C8_8  and  C10_10 
ROOT
HETATM    1  C1  UNL     1     -36.304  14.068  -4.483  1.00 20.00     0.131 C 
HETATM    2  O11 UNL     1     -36.024  12.869  -4.491  1.00 20.00    -0.298 OA
ENDROOT
BRANCH   1   3
HETATM    3  C7  UNL     1     -37.744  14.556  -4.392  1.00 20.00     0.082 C 
BRANCH   3   4
HETATM    4  C9  UNL     1     -37.887  16.073  -4.580  1.00 20.00    -0.016 C 
HETATM    5  C3  UNL     1     -38.440  16.413  -5.966  1.00 20.00     0.010 C 
HETATM    6  C4  UNL     1     -38.803  16.652  -3.499  1.00 20.00     0.010 C 
ENDBRANCH   3   4
ENDBRANCH   1   3
BRANCH   1   7
HETATM    7  C8  UNL     1     -35.225  15.149  -4.598  1.00 20.00     0.054 C 
HETATM    8  C2  UNL     1     -34.421  14.963  -5.886  1.00 20.00     0.018 C 
BRANCH   7   9
HETATM    9  C10 UNL     1     -34.374  15.195  -3.305  1.00 20.00    -0.012 C 
HETATM   10  C5  UNL     1     -35.099  15.952  -2.187  1.00 20.00     0.010 C 
HETATM   11  C6  UNL     1     -32.978  15.790  -3.510  1.00 20.00     0.010 C 
ENDBRANCH   7   9
ENDBRANCH   1   7
TORSDOF 4
ENDMDL
MODEL 5
REMARK VINA RESULT:      -4.2     10.342     11.860
REMARK  4 active torsions:
REMARK  status: ('A' for Active; 'I' for Inactive)
REMARK    1  A    between atoms: C1_1  and  C7_7 
REMARK    2  A    between atoms: C1_1  and  C8_8 
REMARK    3  A    between atoms: C7_7  and  C9_9 
REMARK    4  A    between atoms: C8_8  and  C10_10 
ROOT
HETATM    1  C1  UNL     1     -35.810  13.930  -4.475  1.00 20.00     0.131 C 
HETATM    2  O11 UNL     1     -35.797  12.699  -4.453  1.00 20.00    -0.298 OA
ENDROOT
BRANCH   1   3
HETATM    3  C7  UNL     1     -35.123  14.759  -3.397  1.00 20.00     0.082 C 
BRANCH   3   4
HETATM    4  C9  UNL     1     -33.870  15.492  -3.898  1.00 20.00    -0.016 C 
HETATM    5  C3  UNL     1     -33.289  16.407  -2.816  1.00 20.00     0.010 C 
HETATM    6  C4  UNL     1     -32.813  14.479  -4.343  1.00 20.00     0.010 C 
ENDBRANCH   3   4
ENDBRANCH   1   3
BRANCH   1   7
HETATM    7  C8  UNL     1     -36.546  14.710  -5.568  1.00 20.00     0.054 C 
HETATM    8  C2  UNL     1     -35.680  14.810  -6.825  1.00 20.00     0.018 C 
BRANCH   7   9
HETATM    9  C10 UNL     1     -37.041  16.070  -5.014  1.00 20.00    -0.012 C 
HETATM   10  C5  UNL     1     -38.566  16.092  -4.872  1.00 20.00     0.010 C 
HETATM   11  C6  UNL     1     -36.581  17.273  -5.841  1.00 20.00     0.010 C 
ENDBRANCH   7   9
ENDBRANCH   1   7
TORSDOF 4
ENDMDL
MODEL 6
REMARK VINA RESULT:      -4.2     10.480     12.124
REMARK  4 active torsions:
REMARK  status: ('A' for Active; 'I' for Inactive)
REMARK    1  A    between atoms: C1_1  and  C7_7 
REMARK    2  A    between atoms: C1_1  and  C8_8 
REMARK    3  A    between atoms: C7_7  and  C9_9 
REMARK    4  A    between atoms: C8_8  and  C10_10 
ROOT
HETATM    1  C1  UNL     1     -35.089  14.472  -4.364  1.00 20.00     0.131 C 
HETATM    2  O11 UNL     1     -34.636  13.354  -4.113  1.00 20.00    -0.298 OA
ENDROOT
BRANCH   1   3
HETATM    3  C7  UNL     1     -35.576  15.407  -3.264  1.00 20.00     0.082 C 
BRANCH   3   4
HETATM    4  C9  UNL     1     -34.462  15.858  -2.310  1.00 20.00    -0.016 C 
HETATM    5  C3  UNL     1     -33.293  16.485  -3.075  1.00 20.00     0.010 C 
HETATM    6  C4  UNL     1     -35.014  16.860  -1.295  1.00 20.00     0.010 C 
ENDBRANCH   3   4
ENDBRANCH   1   3
BRANCH   1   7
HETATM    7  C8  UNL     1     -35.223  14.984  -5.801  1.00 20.00     0.054 C 
HETATM    8  C2  UNL     1     -33.871  14.925  -6.515  1.00 20.00     0.018 C 
BRANCH   7   9
HETATM    9  C10 UNL     1     -35.899  16.377  -5.812  1.00 20.00    -0.012 C 
HETATM   10  C5  UNL     1     -37.182  16.368  -6.649  1.00 20.00     0.010 C 
HETATM   11  C6  UNL     1     -34.979  17.503  -6.290  1.00 20.00     0.010 C 
ENDBRANCH   7   9
ENDBRANCH   1   7
TORSDOF 4
ENDMDL
MODEL 7
REMARK VINA RESULT:      -4.1      0.743      2.106
REMARK  4 active torsions:
REMARK  status: ('A' for Active; 'I' for Inactive)
REMARK    1  A    between atoms: C1_1  and  C7_7 
REMARK    2  A    between atoms: C1_1  and  C8_8 
REMARK    3  A    between atoms: C7_7  and  C9_9 
REMARK    4  A    between atoms: C8_8  and  C10_10 
ROOT
HETATM    1  C1  UNL     1     -32.390   7.270   3.113  1.00 20.00     0.131 C 
HETATM    2  O11 UNL     1     -31.387   7.536   3.776  1.00 20.00    -0.298 OA
ENDROOT
BRANCH   1   3
HETATM    3  C7  UNL     1     -32.396   7.369   1.593  1.00 20.00     0.082 C 
BRANCH   3   4
HETATM    4  C9  UNL     1     -33.310   8.481   1.059  1.00 20.00    -0.016 C 
HETATM    5  C3  UNL     1     -32.833   9.862   1.516  1.00 20.00     0.010 C 
HETATM    6  C4  UNL     1     -33.361   8.429  -0.470  1.00 20.00     0.010 C 
ENDBRANCH   3   4
ENDBRANCH   1   3
BRANCH   1   7
HETATM    7  C8  UNL     1     -33.707   6.853   3.774  1.00 20.00     0.054 C 
HETATM    8  C2  UNL     1     -33.602   6.980   5.295  1.00 20.00     0.018 C 
BRANCH   7   9
HETATM    9  C10 UNL     1     -34.139   5.454   3.270  1.00 20.00    -0.012 C 
HETATM   10  C5  UNL     1     -34.794   4.636   4.387  1.00 20.00     0.010 C 
HETATM   11  C6  UNL     1     -32.999   4.648   2.641  1.00 20.00     0.010 C 
ENDBRANCH   7   9
ENDBRANCH   1   7
TORSDOF 4
ENDMDL
MODEL 8
REMARK VINA RESULT:      -4.1      1.331      4.810
REMARK  4 active torsions:
REMARK  status: ('A' for Active; 'I' for Inactive)
REMARK    1  A    between atoms: C1_1  and  C7_7 
REMARK    2  A    between atoms: C1_1  and  C8_8 
REMARK    3  A    between atoms: C7_7  and  C9_9 
REMARK    4  A    between atoms: C8_8  and  C10_10 
ROOT
HETATM    1  C1  UNL     1     -33.204   5.983   2.757  1.00 20.00     0.131 C 
HETATM    2  O11 UNL     1     -33.207   4.828   2.330  1.00 20.00    -0.298 OA
ENDROOT
BRANCH   1   3
HETATM    3  C7  UNL     1     -34.234   6.468   3.770  1.00 20.00     0.082 C 
BRANCH   3   4
HETATM    4  C9  UNL     1     -33.995   5.929   5.188  1.00 20.00    -0.016 C 
HETATM    5  C3  UNL     1     -33.957   7.064   6.215  1.00 20.00     0.010 C 
HETATM    6  C4  UNL     1     -35.091   4.929   5.560  1.00 20.00     0.010 C 
ENDBRANCH   3   4
ENDBRANCH   1   3
BRANCH   1   7
HETATM    7  C8  UNL     1     -32.184   7.019   2.276  1.00 20.00     0.054 C 
HETATM    8  C2  UNL     1     -31.686   7.862   3.451  1.00 20.00     0.018 C 
BRANCH   7   9
HETATM    9  C10 UNL     1     -32.767   7.836   1.096  1.00 20.00    -0.012 C 
HETATM   10  C5  UNL     1     -31.849   7.779  -0.129  1.00 20.00     0.010 C 
HETATM   11  C6  UNL     1     -33.068   9.295   1.448  1.00 20.00     0.010 C 
ENDBRANCH   7   9
ENDBRANCH   1   7
TORSDOF 4
ENDMDL
MODEL 9
REMARK VINA RESULT:      -3.9     10.141     12.027
REMARK  4 active torsions:
REMARK  status: ('A' for Active; 'I' for Inactive)
REMARK    1  A    between atoms: C1_1  and  C7_7 
REMARK    2  A    between atoms: C1_1  and  C8_8 
REMARK    3  A    between atoms: C7_7  and  C9_9 
REMARK    4  A    between atoms: C8_8  and  C10_10 
ROOT
HETATM    1  C1  UNL     1     -34.195  15.310  -5.693  1.00 20.00     0.131 C 
HETATM    2  O11 UNL     1     -33.665  14.652  -6.589  1.00 20.00    -0.298 OA
ENDROOT
BRANCH   1   3
HETATM    3  C7  UNL     1     -35.033  16.547  -5.994  1.00 20.00     0.082 C 
BRANCH   3   4
HETATM    4  C9  UNL     1     -36.444  16.218  -6.501  1.00 20.00    -0.016 C 
HETATM    5  C3  UNL     1     -37.438  16.094  -5.343  1.00 20.00     0.010 C 
HETATM    6  C4  UNL     1     -36.915  17.298  -7.477  1.00 20.00     0.010 C 
ENDBRANCH   3   4
ENDBRANCH   1   3
BRANCH   1   7
HETATM    7  C8  UNL     1     -34.020  14.949  -4.215  1.00 20.00     0.054 C 
HETATM    8  C2  UNL     1     -34.903  13.755  -3.851  1.00 20.00     0.018 C 
BRANCH   7   9
HETATM    9  C10 UNL     1     -34.231  16.203  -3.330  1.00 20.00    -0.012 C 
HETATM   10  C5  UNL     1     -32.895  16.776  -2.848  1.00 20.00     0.010 C 
HETATM   11  C6  UNL     1     -35.151  15.960  -2.131  1.00 20.00     0.010 C 
ENDBRANCH   7   9
ENDBRANCH   1   7
TORSDOF 4
ENDMDL
