MODEL 1
REMARK VINA RESULT:      -4.5      0.000      0.000
REMARK  1 active torsions:
REMARK  status: ('A' for Active; 'I' for Inactive)
REMARK    1  A    between atoms: C8_8  and  O9_9 
ROOT
HETATM    1  C1  UNL     1     -26.970  17.498  12.332  1.00 20.00     0.015 C 
HETATM    2  C2  UNL     1     -25.836  17.267  12.014  1.00 20.00    -0.079 C 
HETATM    3  C3  UNL     1     -21.912  17.891  10.354  1.00 20.00     0.000 C 
HETATM    4  C4  UNL     1     -22.845  16.918   9.641  1.00 20.00     0.004 C 
HETATM    5  C5  UNL     1     -22.036  17.780  11.871  1.00 20.00     0.004 C 
HETATM    6  C6  UNL     1     -24.295  17.089  10.097  1.00 20.00     0.051 C 
HETATM    7  C7  UNL     1     -23.483  17.957  12.332  1.00 20.00     0.051 C 
HETATM    8  C8  UNL     1     -24.443  16.987  11.623  1.00 20.00     0.120 C 
ENDROOT
BRANCH   8   9
HETATM    9  O9  UNL     1     -24.120  15.648  12.007  1.00 20.00    -0.378 OA
HETATM   10  H21 UNL     1     -24.953  15.151  11.991  1.00 20.00     0.211 HD
ENDBRANCH   8   9
TORSDOF 1
ENDMDL
MODEL 2
REMARK VINA RESULT:      -4.4      1.717      3.716
REMARK  1 active torsions:
REMARK  status: ('A' for Active; 'I' for Inactive)
REMARK    1  A    between atoms: C8_8  and  O9_9 
ROOT
HETATM    1  C1  UNL     1     -23.075  18.103   8.212  1.00 20.00     0.015 C 
HETATM    2  C2  UNL     1     -23.575  18.027   9.300  1.00 20.00    -0.079 C 
HETATM    3  C3  UNL     1     -26.522  17.205  12.331  1.00 20.00     0.000 C 
HETATM    4  C4  UNL     1     -26.195  18.663  12.026  1.00 20.00     0.004 C 
HETATM    5  C5  UNL     1     -25.272  16.330  12.294  1.00 20.00     0.004 C 
HETATM    6  C6  UNL     1     -25.450  18.809  10.698  1.00 20.00     0.051 C 
HETATM    7  C7  UNL     1     -24.527  16.468  10.966  1.00 20.00     0.051 C 
HETATM    8  C8  UNL     1     -24.190  17.931  10.636  1.00 20.00     0.120 C 
ENDROOT
BRANCH   8   9
HETATM    9  O9  UNL     1     -23.262  18.426  11.604  1.00 20.00    -0.378 OA
HETATM   10  H21 UNL     1     -23.069  19.343  11.355  1.00 20.00     0.211 HD
ENDBRANCH   8   9
TORSDOF 1
ENDMDL
MODEL 3
REMARK VINA RESULT:      -4.3     22.330     23.889
REMARK  1 active torsions:
REMARK  status: ('A' for Active; 'I' for Inactive)
REMARK    1  A    between atoms: C8_8  and  O9_9 
ROOT
HETATM    1  C1  UNL     1     -41.358   9.863   0.374  1.00 20.00     0.015 C 
HETATM    2  C2  UNL     1     -41.513   8.673   0.364  1.00 20.00    -0.079 C 
HETATM    3  C3  UNL     1     -43.346   4.857  -0.421  1.00 20.00     0.000 C 
HETATM    4  C4  UNL     1     -43.304   5.348   1.022  1.00 20.00     0.004 C 
HETATM    5  C5  UNL     1     -42.060   5.199  -1.169  1.00 20.00     0.004 C 
HETATM    6  C6  UNL     1     -42.993   6.844   1.100  1.00 20.00     0.051 C 
HETATM    7  C7  UNL     1     -41.749   6.694  -1.099  1.00 20.00     0.051 C 
HETATM    8  C8  UNL     1     -41.704   7.213   0.348  1.00 20.00     0.120 C 
ENDROOT
BRANCH   8   9
HETATM    9  O9  UNL     1     -40.607   6.600   1.030  1.00 20.00    -0.378 OA
HETATM   10  H21 UNL     1     -39.826   6.740   0.473  1.00 20.00     0.211 HD
ENDBRANCH   8   9
TORSDOF 1
ENDMDL
MODEL 4
REMARK VINA RESULT:      -4.3      1.380      3.736
REMARK  1 active torsions:
REMARK  status: ('A' for Active; 'I' for Inactive)
REMARK    1  A    between atoms: C8_8  and  O9_9 
ROOT
HETATM    1  C1  UNL     1     -21.695  17.391   7.630  1.00 20.00     0.015 C 
HETATM    2  C2  UNL     1     -22.366  17.330   8.623  1.00 20.00    -0.079 C 
HETATM    3  C3  UNL     1     -24.479  18.629  12.143  1.00 20.00     0.000 C 
HETATM    4  C4  UNL     1     -23.218  17.792  12.332  1.00 20.00     0.004 C 
HETATM    5  C5  UNL     1     -25.304  18.143  10.954  1.00 20.00     0.004 C 
HETATM    6  C6  UNL     1     -22.379  17.739  11.054  1.00 20.00     0.051 C 
HETATM    7  C7  UNL     1     -24.469  18.094   9.673  1.00 20.00     0.051 C 
HETATM    8  C8  UNL     1     -23.191  17.258   9.842  1.00 20.00     0.120 C 
ENDROOT
BRANCH   8   9
HETATM    9  O9  UNL     1     -23.552  15.893  10.069  1.00 20.00    -0.378 OA
HETATM   10  H21 UNL     1     -23.021  15.591  10.822  1.00 20.00     0.211 HD
ENDBRANCH   8   9
TORSDOF 1
ENDMDL
MODEL 5
REMARK VINA RESULT:      -4.2     16.705     17.864
REMARK  1 active torsions:
REMARK  status: ('A' for Active; 'I' for Inactive)
REMARK    1  A    between atoms: C8_8  and  O9_9 
ROOT
HETATM    1  C1  UNL     1     -32.241  18.086  -1.308  1.00 20.00     0.015 C 
HETATM    2  C2  UNL     1     -32.891  17.447  -2.088  1.00 20.00    -0.079 C 
HETATM    3  C3  UNL     1     -34.783  14.035  -3.912  1.00 20.00     0.000 C 
HETATM    4  C4  UNL     1     -33.606  14.676  -4.639  1.00 20.00     0.004 C 
HETATM    5  C5  UNL     1     -35.679  15.085  -3.260  1.00 20.00     0.004 C 
HETATM    6  C6  UNL     1     -32.806  15.598  -3.717  1.00 20.00     0.051 C 
HETATM    7  C7  UNL     1     -34.884  16.005  -2.332  1.00 20.00     0.051 C 
HETATM    8  C8  UNL     1     -33.689  16.660  -3.044  1.00 20.00     0.120 C 
ENDROOT
BRANCH   8   9
HETATM    9  O9  UNL     1     -34.177  17.536  -4.064  1.00 20.00    -0.378 OA
HETATM   10  H21 UNL     1     -33.970  18.437  -3.772  1.00 20.00     0.211 HD
ENDBRANCH   8   9
TORSDOF 1
ENDMDL
MODEL 6
REMARK VINA RESULT:      -4.1      1.844      3.745
REMARK  1 active torsions:
REMARK  status: ('A' for Active; 'I' for Inactive)
REMARK    1  A    between atoms: C8_8  and  O9_9 
ROOT
HETATM    1  C1  UNL     1     -21.448  17.305   7.441  1.00 20.00     0.015 C 
HETATM    2  C2  UNL     1     -22.080  17.516   8.439  1.00 20.00    -0.079 C 
HETATM    3  C3  UNL     1     -23.805  16.860  12.329  1.00 20.00     0.000 C 
HETATM    4  C4  UNL     1     -24.740  16.876  11.125  1.00 20.00     0.004 C 
HETATM    5  C5  UNL     1     -22.707  17.912  12.204  1.00 20.00     0.004 C 
HETATM    6  C6  UNL     1     -23.971  16.727   9.811  1.00 20.00     0.051 C 
HETATM    7  C7  UNL     1     -21.932  17.763  10.894  1.00 20.00     0.051 C 
HETATM    8  C8  UNL     1     -22.855  17.774   9.665  1.00 20.00     0.120 C 
ENDROOT
BRANCH   8   9
HETATM    9  O9  UNL     1     -23.472  19.060   9.556  1.00 20.00    -0.378 OA
HETATM   10  H21 UNL     1     -23.921  19.219  10.399  1.00 20.00     0.211 HD
ENDBRANCH   8   9
TORSDOF 1
ENDMDL
MODEL 7
REMARK VINA RESULT:      -4.1     17.802     18.998
REMARK  1 active torsions:
REMARK  status: ('A' for Active; 'I' for Inactive)
REMARK    1  A    between atoms: C8_8  and  O9_9 
ROOT
HETATM    1  C1  UNL     1     -32.848  17.448  -2.227  1.00 20.00     0.015 C 
HETATM    2  C2  UNL     1     -33.238  16.631  -3.014  1.00 20.00    -0.079 C 
HETATM    3  C3  UNL     1     -35.943  14.494  -5.595  1.00 20.00     0.000 C 
HETATM    4  C4  UNL     1     -35.442  13.788  -4.340  1.00 20.00     0.004 C 
HETATM    5  C5  UNL     1     -34.845  15.329  -6.247  1.00 20.00     0.004 C 
HETATM    6  C6  UNL     1     -34.825  14.773  -3.345  1.00 20.00     0.051 C 
HETATM    7  C7  UNL     1     -34.229  16.320  -5.258  1.00 20.00     0.051 C 
HETATM    8  C8  UNL     1     -33.719  15.629  -3.982  1.00 20.00     0.120 C 
ENDROOT
BRANCH   8   9
HETATM    9  O9  UNL     1     -32.633  14.763  -4.323  1.00 20.00    -0.378 OA
HETATM   10  H21 UNL     1     -32.462  14.219  -3.539  1.00 20.00     0.211 HD
ENDBRANCH   8   9
TORSDOF 1
ENDMDL
MODEL 8
REMARK VINA RESULT:      -4.0     18.269     19.497
REMARK  1 active torsions:
REMARK  status: ('A' for Active; 'I' for Inactive)
REMARK    1  A    between atoms: C8_8  and  O9_9 
ROOT
HETATM    1  C1  UNL     1     -34.024  15.424  -7.918  1.00 20.00     0.015 C 
HETATM    2  C2  UNL     1     -34.007  15.236  -6.733  1.00 20.00    -0.079 C 
HETATM    3  C3  UNL     1     -34.939  15.744  -2.560  1.00 20.00     0.000 C 
HETATM    4  C4  UNL     1     -33.539  16.122  -3.032  1.00 20.00     0.004 C 
HETATM    5  C5  UNL     1     -35.447  14.485  -3.257  1.00 20.00     0.004 C 
HETATM    6  C6  UNL     1     -33.475  16.261  -4.555  1.00 20.00     0.051 C 
HETATM    7  C7  UNL     1     -35.391  14.623  -4.779  1.00 20.00     0.051 C 
HETATM    8  C8  UNL     1     -33.988  15.006  -5.278  1.00 20.00     0.120 C 
ENDROOT
BRANCH   8   9
HETATM    9  O9  UNL     1     -33.083  13.935  -4.995  1.00 20.00    -0.378 OA
HETATM   10  H21 UNL     1     -33.620  13.130  -4.947  1.00 20.00     0.211 HD
ENDBRANCH   8   9
TORSDOF 1
ENDMDL
MODEL 9
REMARK VINA RESULT:      -4.0     19.173     20.120
REMARK  1 active torsions:
REMARK  status: ('A' for Active; 'I' for Inactive)
REMARK    1  A    between atoms: C8_8  and  O9_9 
ROOT
HETATM    1  C1  UNL     1     -38.978  14.754  -4.188  1.00 20.00     0.015 C 
HETATM    2  C2  UNL     1     -37.807  14.558  -4.360  1.00 20.00    -0.079 C 
HETATM    3  C3  UNL     1     -33.631  15.400  -4.992  1.00 20.00     0.000 C 
HETATM    4  C4  UNL     1     -34.421  14.787  -6.144  1.00 20.00     0.004 C 
HETATM    5  C5  UNL     1     -34.044  14.806  -3.648  1.00 20.00     0.004 C 
HETATM    6  C6  UNL     1     -35.930  14.906  -5.920  1.00 20.00     0.051 C 
HETATM    7  C7  UNL     1     -35.551  14.928  -3.418  1.00 20.00     0.051 C 
HETATM    8  C8  UNL     1     -36.368  14.319  -4.569  1.00 20.00     0.120 C 
ENDROOT
BRANCH   8   9
HETATM    9  O9  UNL     1     -36.139  12.908  -4.608  1.00 20.00    -0.378 OA
HETATM   10  H21 UNL     1     -36.022  12.676  -5.542  1.00 20.00     0.211 HD
ENDBRANCH   8   9
TORSDOF 1
ENDMDL
