MODEL 1
REMARK VINA RESULT:      -3.5      0.000      0.000
REMARK  3 active torsions:
REMARK  status: ('A' for Active; 'I' for Inactive)
REMARK    1  A    between atoms: C3_3  and  C4_4 
REMARK    2  A    between atoms: C3_3  and  S7_7 
REMARK    3  A    between atoms: C4_4  and  S8_8 
ROOT
HETATM    1  C1  UNL     1     -31.922  18.208  -1.046  1.00 20.00     0.133 C 
HETATM    2  N5  UNL     1     -30.823  18.382  -0.717  1.00 20.00    -0.184 NA
HETATM    3  S7  UNL     1     -33.526  17.966  -1.518  1.00 20.00    -0.050 SA
ENDROOT
BRANCH   3   4
HETATM    4  C3  UNL     1     -33.251  16.615  -2.702  1.00 20.00     0.101 C 
BRANCH   4   5
HETATM    5  C4  UNL     1     -34.427  15.649  -2.679  1.00 20.00     0.101 C 
BRANCH   5   6
HETATM    6  S8  UNL     1     -35.270  15.650  -4.290  1.00 20.00    -0.050 SA
HETATM    7  C2  UNL     1     -35.602  13.997  -4.393  1.00 20.00     0.133 C 
HETATM    8  N6  UNL     1     -35.835  12.862  -4.471  1.00 20.00    -0.184 NA
ENDBRANCH   5   6
ENDBRANCH   4   5
ENDBRANCH   3   4
TORSDOF 3
ENDMDL
MODEL 2
REMARK VINA RESULT:      -3.5     11.963     14.737
REMARK  3 active torsions:
REMARK  status: ('A' for Active; 'I' for Inactive)
REMARK    1  A    between atoms: C3_3  and  C4_4 
REMARK    2  A    between atoms: C3_3  and  S7_7 
REMARK    3  A    between atoms: C4_4  and  S8_8 
ROOT
HETATM    1  C1  UNL     1     -26.222  18.702   5.467  1.00 20.00     0.133 C 
HETATM    2  N5  UNL     1     -26.193  18.337   4.367  1.00 20.00    -0.184 NA
HETATM    3  S7  UNL     1     -26.278  19.235   7.070  1.00 20.00    -0.050 SA
ENDROOT
BRANCH   3   4
HETATM    4  C3  UNL     1     -24.511  19.074   7.463  1.00 20.00     0.101 C 
BRANCH   4   5
HETATM    5  C4  UNL     1     -24.334  18.444   8.837  1.00 20.00     0.101 C 
BRANCH   5   6
HETATM    6  S8  UNL     1     -22.576  18.433   9.299  1.00 20.00    -0.050 SA
HETATM    7  C2  UNL     1     -21.994  17.489   8.023  1.00 20.00     0.133 C 
HETATM    8  N6  UNL     1     -21.586  16.842   7.150  1.00 20.00    -0.184 NA
ENDBRANCH   5   6
ENDBRANCH   4   5
ENDBRANCH   3   4
TORSDOF 3
ENDMDL
MODEL 3
REMARK VINA RESULT:      -3.5     16.472     17.038
REMARK  3 active torsions:
REMARK  status: ('A' for Active; 'I' for Inactive)
REMARK    1  A    between atoms: C3_3  and  C4_4 
REMARK    2  A    between atoms: C3_3  and  S7_7 
REMARK    3  A    between atoms: C4_4  and  S8_8 
ROOT
HETATM    1  C1  UNL     1     -22.016  17.383   8.192  1.00 20.00     0.133 C 
HETATM    2  N5  UNL     1     -21.653  17.013   7.154  1.00 20.00    -0.184 NA
HETATM    3  S7  UNL     1     -22.535  17.933   9.703  1.00 20.00    -0.050 SA
ENDROOT
BRANCH   3   4
HETATM    4  C3  UNL     1     -23.758  16.633  10.050  1.00 20.00     0.101 C 
BRANCH   4   5
HETATM    5  C4  UNL     1     -23.966  16.496  11.551  1.00 20.00     0.101 C 
BRANCH   5   6
HETATM    6  S8  UNL     1     -23.999  18.137  12.332  1.00 20.00    -0.050 SA
HETATM    7  C2  UNL     1     -25.586  18.564  11.940  1.00 20.00     0.133 C 
HETATM    8  N6  UNL     1     -26.675  18.864  11.675  1.00 20.00    -0.184 NA
ENDBRANCH   5   6
ENDBRANCH   4   5
ENDBRANCH   3   4
TORSDOF 3
ENDMDL
MODEL 4
REMARK VINA RESULT:      -3.4     16.641     17.155
REMARK  3 active torsions:
REMARK  status: ('A' for Active; 'I' for Inactive)
REMARK    1  A    between atoms: C3_3  and  C4_4 
REMARK    2  A    between atoms: C3_3  and  S7_7 
REMARK    3  A    between atoms: C4_4  and  S8_8 
ROOT
HETATM    1  C1  UNL     1     -25.633  18.201  11.900  1.00 20.00     0.133 C 
HETATM    2  N5  UNL     1     -26.101  19.262  11.944  1.00 20.00    -0.184 NA
HETATM    3  S7  UNL     1     -24.965  16.651  11.838  1.00 20.00    -0.050 SA
ENDROOT
BRANCH   3   4
HETATM    4  C3  UNL     1     -23.238  17.121  11.521  1.00 20.00     0.101 C 
BRANCH   4   5
HETATM    5  C4  UNL     1     -23.135  17.889  10.212  1.00 20.00     0.101 C 
BRANCH   5   6
HETATM    6  S8  UNL     1     -21.398  18.004   9.688  1.00 20.00    -0.050 SA
HETATM    7  C2  UNL     1     -21.565  17.349   8.140  1.00 20.00     0.133 C 
HETATM    8  N6  UNL     1     -21.671  16.901   7.074  1.00 20.00    -0.184 NA
ENDBRANCH   5   6
ENDBRANCH   4   5
ENDBRANCH   3   4
TORSDOF 3
ENDMDL
MODEL 5
REMARK VINA RESULT:      -3.4      0.519      5.643
REMARK  3 active torsions:
REMARK  status: ('A' for Active; 'I' for Inactive)
REMARK    1  A    between atoms: C3_3  and  C4_4 
REMARK    2  A    between atoms: C3_3  and  S7_7 
REMARK    3  A    between atoms: C4_4  and  S8_8 
ROOT
HETATM    1  C1  UNL     1     -35.700  14.002  -4.178  1.00 20.00     0.133 C 
HETATM    2  N5  UNL     1     -35.852  12.919  -4.565  1.00 20.00    -0.184 NA
HETATM    3  S7  UNL     1     -35.492  15.581  -3.613  1.00 20.00    -0.050 SA
ENDROOT
BRANCH   3   4
HETATM    4  C3  UNL     1     -33.694  15.532  -3.349  1.00 20.00     0.101 C 
BRANCH   4   5
HETATM    5  C4  UNL     1     -33.141  16.944  -3.231  1.00 20.00     0.101 C 
BRANCH   5   6
HETATM    6  S8  UNL     1     -33.548  17.642  -1.602  1.00 20.00    -0.050 SA
HETATM    7  C2  UNL     1     -31.997  18.142  -1.156  1.00 20.00     0.133 C 
HETATM    8  N6  UNL     1     -30.934  18.489  -0.842  1.00 20.00    -0.184 NA
ENDBRANCH   5   6
ENDBRANCH   4   5
ENDBRANCH   3   4
TORSDOF 3
ENDMDL
MODEL 6
REMARK VINA RESULT:      -3.4      3.017      4.879
REMARK  3 active torsions:
REMARK  status: ('A' for Active; 'I' for Inactive)
REMARK    1  A    between atoms: C3_3  and  C4_4 
REMARK    2  A    between atoms: C3_3  and  S7_7 
REMARK    3  A    between atoms: C4_4  and  S8_8 
ROOT
HETATM    1  C1  UNL     1     -36.606  13.856  -4.515  1.00 20.00     0.133 C 
HETATM    2  N5  UNL     1     -35.979  12.886  -4.630  1.00 20.00    -0.184 NA
HETATM    3  S7  UNL     1     -37.530  15.260  -4.350  1.00 20.00    -0.050 SA
ENDROOT
BRANCH   3   4
HETATM    4  C3  UNL     1     -36.188  16.410  -3.925  1.00 20.00     0.101 C 
BRANCH   4   5
HETATM    5  C4  UNL     1     -35.412  15.890  -2.723  1.00 20.00     0.101 C 
BRANCH   5   6
HETATM    6  S8  UNL     1     -33.651  16.312  -2.885  1.00 20.00    -0.050 SA
HETATM    7  C2  UNL     1     -33.207  15.098  -3.974  1.00 20.00     0.133 C 
HETATM    8  N6  UNL     1     -32.895  14.268  -4.722  1.00 20.00    -0.184 NA
ENDBRANCH   5   6
ENDBRANCH   4   5
ENDBRANCH   3   4
TORSDOF 3
ENDMDL
MODEL 7
REMARK VINA RESULT:      -3.4      3.004      3.117
REMARK  3 active torsions:
REMARK  status: ('A' for Active; 'I' for Inactive)
REMARK    1  A    between atoms: C3_3  and  C4_4 
REMARK    2  A    between atoms: C3_3  and  S7_7 
REMARK    3  A    between atoms: C4_4  and  S8_8 
ROOT
HETATM    1  C1  UNL     1     -33.200  15.105  -3.962  1.00 20.00     0.133 C 
HETATM    2  N5  UNL     1     -32.948  14.244  -4.697  1.00 20.00    -0.184 NA
HETATM    3  S7  UNL     1     -33.553  16.364  -2.891  1.00 20.00    -0.050 SA
ENDROOT
BRANCH   3   4
HETATM    4  C3  UNL     1     -35.345  16.096  -2.752  1.00 20.00     0.101 C 
BRANCH   4   5
HETATM    5  C4  UNL     1     -36.034  16.459  -4.059  1.00 20.00     0.101 C 
BRANCH   5   6
HETATM    6  S8  UNL     1     -37.486  15.395  -4.319  1.00 20.00    -0.050 SA
HETATM    7  C2  UNL     1     -36.684  13.912  -4.439  1.00 20.00     0.133 C 
HETATM    8  N6  UNL     1     -36.141  12.890  -4.522  1.00 20.00    -0.184 NA
ENDBRANCH   5   6
ENDBRANCH   4   5
ENDBRANCH   3   4
TORSDOF 3
ENDMDL
MODEL 8
REMARK VINA RESULT:      -3.3      3.160      3.311
REMARK  3 active torsions:
REMARK  status: ('A' for Active; 'I' for Inactive)
REMARK    1  A    between atoms: C3_3  and  C4_4 
REMARK    2  A    between atoms: C3_3  and  S7_7 
REMARK    3  A    between atoms: C4_4  and  S8_8 
ROOT
HETATM    1  C1  UNL     1     -33.369  14.974  -4.089  1.00 20.00     0.133 C 
HETATM    2  N5  UNL     1     -33.229  14.072  -4.805  1.00 20.00    -0.184 NA
HETATM    3  S7  UNL     1     -33.562  16.293  -3.051  1.00 20.00    -0.050 SA
ENDROOT
BRANCH   3   4
HETATM    4  C3  UNL     1     -35.199  15.868  -2.385  1.00 20.00     0.101 C 
BRANCH   4   5
HETATM    5  C4  UNL     1     -36.241  16.860  -2.879  1.00 20.00     0.101 C 
BRANCH   5   6
HETATM    6  S8  UNL     1     -36.638  16.536  -4.623  1.00 20.00    -0.050 SA
HETATM    7  C2  UNL     1     -37.212  14.956  -4.454  1.00 20.00     0.133 C 
HETATM    8  N6  UNL     1     -37.608  13.870  -4.346  1.00 20.00    -0.184 NA
ENDBRANCH   5   6
ENDBRANCH   4   5
ENDBRANCH   3   4
TORSDOF 3
ENDMDL
MODEL 9
REMARK VINA RESULT:      -3.3      2.449      2.752
REMARK  3 active torsions:
REMARK  status: ('A' for Active; 'I' for Inactive)
REMARK    1  A    between atoms: C3_3  and  C4_4 
REMARK    2  A    between atoms: C3_3  and  S7_7 
REMARK    3  A    between atoms: C4_4  and  S8_8 
ROOT
HETATM    1  C1  UNL     1     -34.450  16.284  -2.162  1.00 20.00     0.133 C 
HETATM    2  N5  UNL     1     -35.188  16.483  -1.289  1.00 20.00    -0.184 NA
HETATM    3  S7  UNL     1     -33.369  15.987  -3.426  1.00 20.00    -0.050 SA
ENDROOT
BRANCH   3   4
HETATM    4  C3  UNL     1     -34.269  16.845  -4.751  1.00 20.00     0.101 C 
BRANCH   4   5
HETATM    5  C4  UNL     1     -34.756  15.844  -5.789  1.00 20.00     0.101 C 
BRANCH   5   6
HETATM    6  S8  UNL     1     -36.484  15.388  -5.458  1.00 20.00    -0.050 SA
HETATM    7  C2  UNL     1     -36.214  13.840  -4.837  1.00 20.00     0.133 C 
HETATM    8  N6  UNL     1     -36.037  12.776  -4.408  1.00 20.00    -0.184 NA
ENDBRANCH   5   6
ENDBRANCH   4   5
ENDBRANCH   3   4
TORSDOF 3
ENDMDL
