MODEL 1
REMARK VINA RESULT:      -3.3      0.000      0.000
REMARK  1 active torsions:
REMARK  status: ('A' for Active; 'I' for Inactive)
REMARK    1  A    between atoms: C1_1  and  C5_5 
ROOT
HETATM    1  C2  UNL     1     -34.963  15.535  -2.770  1.00 20.00     0.022 C 
HETATM    2  C3  UNL     1     -33.458  14.308  -4.360  1.00 20.00     0.022 C 
HETATM    3  C4  UNL     1     -35.073  16.020  -5.232  1.00 20.00     0.022 C 
HETATM    4  C5  UNL     1     -34.843  14.935  -4.175  1.00 20.00     0.002 C 
ENDROOT
BRANCH   4   5
HETATM    5  C1  UNL     1     -35.937  13.887  -4.332  1.00 20.00     0.239 C 
HETATM    6  O6  UNL     1     -35.737  12.684  -4.467  1.00 20.00    -0.306 OA
ENDBRANCH   4   5
TORSDOF 1
ENDMDL
MODEL 2
REMARK VINA RESULT:      -3.3      0.124      1.764
REMARK  1 active torsions:
REMARK  status: ('A' for Active; 'I' for Inactive)
REMARK    1  A    between atoms: C1_1  and  C5_5 
ROOT
HETATM    1  C2  UNL     1     -35.206  16.072  -5.129  1.00 20.00     0.022 C 
HETATM    2  C3  UNL     1     -35.086  15.495  -2.689  1.00 20.00     0.022 C 
HETATM    3  C4  UNL     1     -33.564  14.350  -4.324  1.00 20.00     0.022 C 
HETATM    4  C5  UNL     1     -34.959  14.950  -4.116  1.00 20.00     0.002 C 
ENDROOT
BRANCH   4   5
HETATM    5  C1  UNL     1     -35.985  13.854  -4.370  1.00 20.00     0.239 C 
HETATM    6  O6  UNL     1     -35.724  12.657  -4.445  1.00 20.00    -0.306 OA
ENDBRANCH   4   5
TORSDOF 1
ENDMDL
MODEL 3
REMARK VINA RESULT:      -3.3      0.108      1.781
REMARK  1 active torsions:
REMARK  status: ('A' for Active; 'I' for Inactive)
REMARK    1  A    between atoms: C1_1  and  C5_5 
ROOT
HETATM    1  C2  UNL     1     -33.562  14.329  -4.332  1.00 20.00     0.022 C 
HETATM    2  C3  UNL     1     -35.141  16.087  -5.176  1.00 20.00     0.022 C 
HETATM    3  C4  UNL     1     -35.119  15.489  -2.739  1.00 20.00     0.022 C 
HETATM    4  C5  UNL     1     -34.950  14.953  -4.164  1.00 20.00     0.002 C 
ENDROOT
BRANCH   4   5
HETATM    5  C1  UNL     1     -35.986  13.856  -4.379  1.00 20.00     0.239 C 
HETATM    6  O6  UNL     1     -35.730  12.658  -4.451  1.00 20.00    -0.306 OA
ENDBRANCH   4   5
TORSDOF 1
ENDMDL
MODEL 4
REMARK VINA RESULT:      -3.3     12.018     12.612
REMARK  1 active torsions:
REMARK  status: ('A' for Active; 'I' for Inactive)
REMARK    1  A    between atoms: C1_1  and  C5_5 
ROOT
HETATM    1  C2  UNL     1     -34.025   4.096   3.942  1.00 20.00     0.022 C 
HETATM    2  C3  UNL     1     -34.668   5.343   6.023  1.00 20.00     0.022 C 
HETATM    3  C4  UNL     1     -35.972   5.682   3.905  1.00 20.00     0.022 C 
HETATM    4  C5  UNL     1     -34.584   5.411   4.495  1.00 20.00     0.002 C 
ENDROOT
BRANCH   4   5
HETATM    5  C1  UNL     1     -33.658   6.536   4.053  1.00 20.00     0.239 C 
HETATM    6  O6  UNL     1     -32.999   6.532   3.017  1.00 20.00    -0.306 OA
ENDBRANCH   4   5
TORSDOF 1
ENDMDL
MODEL 5
REMARK VINA RESULT:      -3.3     12.027     12.619
REMARK  1 active torsions:
REMARK  status: ('A' for Active; 'I' for Inactive)
REMARK    1  A    between atoms: C1_1  and  C5_5 
ROOT
HETATM    1  C2  UNL     1     -35.975   5.676   3.899  1.00 20.00     0.022 C 
HETATM    2  C3  UNL     1     -34.035   4.084   3.949  1.00 20.00     0.022 C 
HETATM    3  C4  UNL     1     -34.680   5.340   6.024  1.00 20.00     0.022 C 
HETATM    4  C5  UNL     1     -34.591   5.403   4.496  1.00 20.00     0.002 C 
ENDROOT
BRANCH   4   5
HETATM    5  C1  UNL     1     -33.683   6.568   4.126  1.00 20.00     0.239 C 
HETATM    6  O6  UNL     1     -32.995   6.623   3.110  1.00 20.00    -0.306 OA
ENDBRANCH   4   5
TORSDOF 1
ENDMDL
MODEL 6
REMARK VINA RESULT:      -3.2     12.005     12.602
REMARK  1 active torsions:
REMARK  status: ('A' for Active; 'I' for Inactive)
REMARK    1  A    between atoms: C1_1  and  C5_5 
ROOT
HETATM    1  C2  UNL     1     -34.650   5.357   6.012  1.00 20.00     0.022 C 
HETATM    2  C3  UNL     1     -35.983   5.688   3.912  1.00 20.00     0.022 C 
HETATM    3  C4  UNL     1     -34.026   4.116   3.920  1.00 20.00     0.022 C 
HETATM    4  C5  UNL     1     -34.586   5.426   4.483  1.00 20.00     0.002 C 
ENDROOT
BRANCH   4   5
HETATM    5  C1  UNL     1     -33.627   6.548   4.105  1.00 20.00     0.239 C 
HETATM    6  O6  UNL     1     -33.021   6.619   3.040  1.00 20.00    -0.306 OA
ENDBRANCH   4   5
TORSDOF 1
ENDMDL
MODEL 7
REMARK VINA RESULT:      -3.2     10.650     11.520
REMARK  1 active torsions:
REMARK  status: ('A' for Active; 'I' for Inactive)
REMARK    1  A    between atoms: C1_1  and  C5_5 
ROOT
HETATM    1  C2  UNL     1     -41.292   7.585   0.577  1.00 20.00     0.022 C 
HETATM    2  C3  UNL     1     -42.606   5.479   0.947  1.00 20.00     0.022 C 
HETATM    3  C4  UNL     1     -40.967   5.616  -0.949  1.00 20.00     0.022 C 
HETATM    4  C5  UNL     1     -41.979   6.398  -0.106  1.00 20.00     0.002 C 
ENDROOT
BRANCH   4   5
HETATM    5  C1  UNL     1     -43.044   6.951  -1.045  1.00 20.00     0.239 C 
HETATM    6  O6  UNL     1     -42.844   7.807  -1.901  1.00 20.00    -0.306 OA
ENDBRANCH   4   5
TORSDOF 1
ENDMDL
MODEL 8
REMARK VINA RESULT:      -3.2     10.673     11.507
REMARK  1 active torsions:
REMARK  status: ('A' for Active; 'I' for Inactive)
REMARK    1  A    between atoms: C1_1  and  C5_5 
ROOT
HETATM    1  C2  UNL     1     -42.621   5.486   0.950  1.00 20.00     0.022 C 
HETATM    2  C3  UNL     1     -40.969   5.633  -0.933  1.00 20.00     0.022 C 
HETATM    3  C4  UNL     1     -41.301   7.594   0.598  1.00 20.00     0.022 C 
HETATM    4  C5  UNL     1     -41.987   6.411  -0.093  1.00 20.00     0.002 C 
ENDROOT
BRANCH   4   5
HETATM    5  C1  UNL     1     -43.103   6.963  -0.971  1.00 20.00     0.239 C 
HETATM    6  O6  UNL     1     -42.939   7.752  -1.896  1.00 20.00    -0.306 OA
ENDBRANCH   4   5
TORSDOF 1
ENDMDL
MODEL 9
REMARK VINA RESULT:      -3.1      9.572     10.628
REMARK  1 active torsions:
REMARK  status: ('A' for Active; 'I' for Inactive)
REMARK    1  A    between atoms: C1_1  and  C5_5 
ROOT
HETATM    1  C2  UNL     1     -42.170   7.915  -1.530  1.00 20.00     0.022 C 
HETATM    2  C3  UNL     1     -41.228   6.633   0.411  1.00 20.00     0.022 C 
HETATM    3  C4  UNL     1     -43.376   7.905   0.673  1.00 20.00     0.022 C 
HETATM    4  C5  UNL     1     -42.004   7.886  -0.008  1.00 20.00     0.002 C 
ENDROOT
BRANCH   4   5
HETATM    5  C1  UNL     1     -41.257   9.148   0.406  1.00 20.00     0.239 C 
HETATM    6  O6  UNL     1     -41.667  10.291   0.231  1.00 20.00    -0.306 OA
ENDBRANCH   4   5
TORSDOF 1
ENDMDL
