MODEL 1
REMARK VINA RESULT:      -3.8      0.000      0.000
REMARK  1 active torsions:
REMARK  status: ('A' for Active; 'I' for Inactive)
REMARK    1  A    between atoms: C1_1  and  C6_6 
ROOT
HETATM    1  C3  UNL     1     -34.746   5.146   6.040  1.00 20.00     0.022 C 
HETATM    2  C4  UNL     1     -34.041   4.074   3.876  1.00 20.00     0.022 C 
HETATM    3  C5  UNL     1     -35.896   5.740   3.900  1.00 20.00     0.022 C 
HETATM    4  C6  UNL     1     -34.547   5.364   4.535  1.00 20.00     0.009 C 
ENDROOT
BRANCH   4   5
HETATM    5  C1  UNL     1     -33.544   6.514   4.326  1.00 20.00     0.130 C 
HETATM    6  C2  UNL     1     -32.935   6.699   2.955  1.00 20.00     0.091 C 
HETATM    7  O7  UNL     1     -33.214   7.266   5.246  1.00 20.00    -0.298 OA
ENDBRANCH   4   5
TORSDOF 1
ENDMDL
MODEL 2
REMARK VINA RESULT:      -3.8      0.029      1.638
REMARK  1 active torsions:
REMARK  status: ('A' for Active; 'I' for Inactive)
REMARK    1  A    between atoms: C1_1  and  C6_6 
ROOT
HETATM    1  C3  UNL     1     -34.034   4.103   3.881  1.00 20.00     0.022 C 
HETATM    2  C4  UNL     1     -35.923   5.765   3.897  1.00 20.00     0.022 C 
HETATM    3  C5  UNL     1     -34.779   5.152   6.027  1.00 20.00     0.022 C 
HETATM    4  C6  UNL     1     -34.573   5.389   4.521  1.00 20.00     0.009 C 
ENDROOT
BRANCH   4   5
HETATM    5  C1  UNL     1     -33.543   6.517   4.317  1.00 20.00     0.130 C 
HETATM    6  C2  UNL     1     -32.920   6.684   2.950  1.00 20.00     0.091 C 
HETATM    7  O7  UNL     1     -33.205   7.266   5.236  1.00 20.00    -0.298 OA
ENDBRANCH   4   5
TORSDOF 1
ENDMDL
MODEL 3
REMARK VINA RESULT:      -3.7      0.027      1.640
REMARK  1 active torsions:
REMARK  status: ('A' for Active; 'I' for Inactive)
REMARK    1  A    between atoms: C1_1  and  C6_6 
ROOT
HETATM    1  C3  UNL     1     -35.897   5.776   3.899  1.00 20.00     0.022 C 
HETATM    2  C4  UNL     1     -34.770   5.127   6.052  1.00 20.00     0.022 C 
HETATM    3  C5  UNL     1     -34.044   4.096   3.900  1.00 20.00     0.022 C 
HETATM    4  C6  UNL     1     -34.566   5.387   4.554  1.00 20.00     0.009 C 
ENDROOT
BRANCH   4   5
HETATM    5  C1  UNL     1     -33.549   6.522   4.330  1.00 20.00     0.130 C 
HETATM    6  C2  UNL     1     -32.947   6.688   2.954  1.00 20.00     0.091 C 
HETATM    7  O7  UNL     1     -33.203   7.276   5.242  1.00 20.00    -0.298 OA
ENDBRANCH   4   5
TORSDOF 1
ENDMDL
MODEL 4
REMARK VINA RESULT:      -3.7     12.053     12.685
REMARK  1 active torsions:
REMARK  status: ('A' for Active; 'I' for Inactive)
REMARK    1  A    between atoms: C1_1  and  C6_6 
ROOT
HETATM    1  C3  UNL     1     -35.096  16.129  -5.120  1.00 20.00     0.022 C 
HETATM    2  C4  UNL     1     -33.507  14.334  -4.356  1.00 20.00     0.022 C 
HETATM    3  C5  UNL     1     -34.944  15.520  -2.699  1.00 20.00     0.022 C 
HETATM    4  C6  UNL     1     -34.884  14.973  -4.135  1.00 20.00     0.009 C 
ENDROOT
BRANCH   4   5
HETATM    5  C1  UNL     1     -36.006  13.935  -4.335  1.00 20.00     0.130 C 
HETATM    6  C2  UNL     1     -37.438  14.416  -4.350  1.00 20.00     0.091 C 
HETATM    7  O7  UNL     1     -35.765  12.732  -4.462  1.00 20.00    -0.298 OA
ENDBRANCH   4   5
TORSDOF 1
ENDMDL
MODEL 5
REMARK VINA RESULT:      -3.7     12.045     12.678
REMARK  1 active torsions:
REMARK  status: ('A' for Active; 'I' for Inactive)
REMARK    1  A    between atoms: C1_1  and  C6_6 
ROOT
HETATM    1  C3  UNL     1     -34.902  15.514  -2.728  1.00 20.00     0.022 C 
HETATM    2  C4  UNL     1     -34.967  16.095  -5.175  1.00 20.00     0.022 C 
HETATM    3  C5  UNL     1     -33.474  14.271  -4.362  1.00 20.00     0.022 C 
HETATM    4  C6  UNL     1     -34.835  14.957  -4.155  1.00 20.00     0.009 C 
ENDROOT
BRANCH   4   5
HETATM    5  C1  UNL     1     -35.963  13.923  -4.341  1.00 20.00     0.130 C 
HETATM    6  C2  UNL     1     -37.393  14.412  -4.347  1.00 20.00     0.091 C 
HETATM    7  O7  UNL     1     -35.729  12.719  -4.463  1.00 20.00    -0.298 OA
ENDBRANCH   4   5
TORSDOF 1
ENDMDL
MODEL 6
REMARK VINA RESULT:      -3.7     12.049     12.684
REMARK  1 active torsions:
REMARK  status: ('A' for Active; 'I' for Inactive)
REMARK    1  A    between atoms: C1_1  and  C6_6 
ROOT
HETATM    1  C3  UNL     1     -33.532  14.341  -4.360  1.00 20.00     0.022 C 
HETATM    2  C4  UNL     1     -34.947  15.529  -2.651  1.00 20.00     0.022 C 
HETATM    3  C5  UNL     1     -35.086  16.173  -5.056  1.00 20.00     0.022 C 
HETATM    4  C6  UNL     1     -34.893  14.994  -4.088  1.00 20.00     0.009 C 
ENDROOT
BRANCH   4   5
HETATM    5  C1  UNL     1     -36.003  13.951  -4.324  1.00 20.00     0.130 C 
HETATM    6  C2  UNL     1     -37.437  14.424  -4.374  1.00 20.00     0.091 C 
HETATM    7  O7  UNL     1     -35.752  12.750  -4.451  1.00 20.00    -0.298 OA
ENDBRANCH   4   5
TORSDOF 1
ENDMDL
MODEL 7
REMARK VINA RESULT:      -3.6     15.858     16.912
REMARK  1 active torsions:
REMARK  status: ('A' for Active; 'I' for Inactive)
REMARK    1  A    between atoms: C1_1  and  C6_6 
ROOT
HETATM    1  C3  UNL     1     -23.172  16.898   9.785  1.00 20.00     0.022 C 
HETATM    2  C4  UNL     1     -24.576  15.858  11.594  1.00 20.00     0.022 C 
HETATM    3  C5  UNL     1     -22.868  17.580  12.173  1.00 20.00     0.022 C 
HETATM    4  C6  UNL     1     -23.896  17.146  11.114  1.00 20.00     0.009 C 
ENDROOT
BRANCH   4   5
HETATM    5  C1  UNL     1     -24.932  18.269  10.916  1.00 20.00     0.130 C 
HETATM    6  C2  UNL     1     -25.800  18.663  12.088  1.00 20.00     0.091 C 
HETATM    7  O7  UNL     1     -25.081  18.834   9.830  1.00 20.00    -0.298 OA
ENDBRANCH   4   5
TORSDOF 1
ENDMDL
MODEL 8
REMARK VINA RESULT:      -3.5      1.679      2.359
REMARK  1 active torsions:
REMARK  status: ('A' for Active; 'I' for Inactive)
REMARK    1  A    between atoms: C1_1  and  C6_6 
ROOT
HETATM    1  C3  UNL     1     -35.785   5.776   3.939  1.00 20.00     0.022 C 
HETATM    2  C4  UNL     1     -33.978   6.777   5.375  1.00 20.00     0.022 C 
HETATM    3  C5  UNL     1     -34.174   4.300   5.157  1.00 20.00     0.022 C 
HETATM    4  C6  UNL     1     -34.333   5.637   4.412  1.00 20.00     0.009 C 
ENDROOT
BRANCH   4   5
HETATM    5  C1  UNL     1     -33.404   5.651   3.182  1.00 20.00     0.130 C 
HETATM    6  C2  UNL     1     -32.668   6.929   2.851  1.00 20.00     0.091 C 
HETATM    7  O7  UNL     1     -33.265   4.663   2.458  1.00 20.00    -0.298 OA
ENDBRANCH   4   5
TORSDOF 1
ENDMDL
MODEL 9
REMARK VINA RESULT:      -3.5     16.044     17.043
REMARK  1 active torsions:
REMARK  status: ('A' for Active; 'I' for Inactive)
REMARK    1  A    between atoms: C1_1  and  C6_6 
ROOT
HETATM    1  C3  UNL     1     -24.845  18.394  10.671  1.00 20.00     0.022 C 
HETATM    2  C4  UNL     1     -22.923  17.770  12.170  1.00 20.00     0.022 C 
HETATM    3  C5  UNL     1     -24.358  15.992  11.170  1.00 20.00     0.022 C 
HETATM    4  C6  UNL     1     -23.728  17.374  10.926  1.00 20.00     0.009 C 
ENDROOT
BRANCH   4   5
HETATM    5  C1  UNL     1     -22.818  17.310   9.684  1.00 20.00     0.130 C 
HETATM    6  C2  UNL     1     -22.041  18.546   9.296  1.00 20.00     0.091 C 
HETATM    7  O7  UNL     1     -22.726  16.291   8.995  1.00 20.00    -0.298 OA
ENDBRANCH   4   5
TORSDOF 1
ENDMDL
