MODEL 1
REMARK VINA RESULT:      -4.0      0.000      0.000
REMARK  1 active torsions:
REMARK  status: ('A' for Active; 'I' for Inactive)
REMARK    1  A    between atoms: C3_3  and  C6_6 
ROOT
HETATM    1  C1  UNL     1     -36.202  14.193  -4.512  1.00 20.00     0.100 C 
HETATM    2  C2  UNL     1     -34.426  15.430  -5.876  1.00 20.00     0.169 A 
HETATM    3  C3  UNL     1     -34.914  14.816  -4.580  1.00 20.00     0.174 A 
HETATM    4  C4  UNL     1     -35.226  15.441  -7.131  1.00 20.00     0.044 C 
HETATM    5  N7  UNL     1     -37.245  13.687  -4.457  1.00 20.00    -0.194 NA
HETATM    6  O8  UNL     1     -34.003  14.129  -5.454  1.00 20.00    -0.354 OA
ENDROOT
BRANCH   3   7
HETATM    7  C6  UNL     1     -34.292  15.246  -3.289  1.00 20.00     0.052 C 
HETATM    8  C5  UNL     1     -35.261  15.961  -2.385  1.00 20.00     0.009 C 
ENDBRANCH   3   7
TORSDOF 1
ENDMDL
MODEL 2
REMARK VINA RESULT:      -3.9     17.733     19.126
REMARK  1 active torsions:
REMARK  status: ('A' for Active; 'I' for Inactive)
REMARK    1  A    between atoms: C3_3  and  C6_6 
ROOT
HETATM    1  C1  UNL     1     -22.638  18.614   9.351  1.00 20.00     0.100 C 
HETATM    2  C2  UNL     1     -24.239  17.892  11.212  1.00 20.00     0.169 A 
HETATM    3  C3  UNL     1     -23.978  18.395   9.807  1.00 20.00     0.174 A 
HETATM    4  C4  UNL     1     -23.158  17.606  12.195  1.00 20.00     0.044 C 
HETATM    5  N7  UNL     1     -21.552  18.790   8.982  1.00 20.00    -0.194 NA
HETATM    6  O8  UNL     1     -24.260  17.013  10.082  1.00 20.00    -0.354 OA
ENDROOT
BRANCH   3   7
HETATM    7  C6  UNL     1     -25.076  19.091   9.066  1.00 20.00     0.052 C 
HETATM    8  C5  UNL     1     -24.908  19.019   7.572  1.00 20.00     0.009 C 
ENDBRANCH   3   7
TORSDOF 1
ENDMDL
MODEL 3
REMARK VINA RESULT:      -3.7     17.368     18.519
REMARK  1 active torsions:
REMARK  status: ('A' for Active; 'I' for Inactive)
REMARK    1  A    between atoms: C3_3  and  C6_6 
ROOT
HETATM    1  C1  UNL     1     -22.379  17.321   8.130  1.00 20.00     0.100 C 
HETATM    2  C2  UNL     1     -24.478  18.727   8.538  1.00 20.00     0.169 A 
HETATM    3  C3  UNL     1     -23.362  17.833   9.038  1.00 20.00     0.174 A 
HETATM    4  C4  UNL     1     -24.637  19.120   7.111  1.00 20.00     0.044 C 
HETATM    5  N7  UNL     1     -21.582  16.908   7.395  1.00 20.00    -0.194 NA
HETATM    6  O8  UNL     1     -23.313  19.262   9.174  1.00 20.00    -0.354 OA
ENDROOT
BRANCH   3   7
HETATM    7  C6  UNL     1     -23.531  17.116  10.340  1.00 20.00     0.052 C 
HETATM    8  C5  UNL     1     -22.625  17.647  11.420  1.00 20.00     0.009 C 
ENDBRANCH   3   7
TORSDOF 1
ENDMDL
MODEL 4
REMARK VINA RESULT:      -3.7      2.000      2.417
REMARK  1 active torsions:
REMARK  status: ('A' for Active; 'I' for Inactive)
REMARK    1  A    between atoms: C3_3  and  C6_6 
ROOT
HETATM    1  C1  UNL     1     -35.834  13.983  -4.165  1.00 20.00     0.100 C 
HETATM    2  C2  UNL     1     -36.916  16.272  -3.796  1.00 20.00     0.169 A 
HETATM    3  C3  UNL     1     -35.730  15.335  -3.702  1.00 20.00     0.174 A 
HETATM    4  C4  UNL     1     -38.238  15.869  -4.349  1.00 20.00     0.044 C 
HETATM    5  N7  UNL     1     -35.918  12.888  -4.541  1.00 20.00    -0.194 NA
HETATM    6  O8  UNL     1     -35.856  16.302  -4.757  1.00 20.00    -0.354 OA
ENDROOT
BRANCH   3   7
HETATM    7  C6  UNL     1     -34.630  15.645  -2.737  1.00 20.00     0.052 C 
HETATM    8  C5  UNL     1     -33.308  15.886  -3.416  1.00 20.00     0.009 C 
ENDBRANCH   3   7
TORSDOF 1
ENDMDL
MODEL 5
REMARK VINA RESULT:      -3.6     17.535     18.872
REMARK  1 active torsions:
REMARK  status: ('A' for Active; 'I' for Inactive)
REMARK    1  A    between atoms: C3_3  and  C6_6 
ROOT
HETATM    1  C1  UNL     1     -25.488  18.714  10.893  1.00 20.00     0.100 C 
HETATM    2  C2  UNL     1     -23.926  16.716  10.551  1.00 20.00     0.169 A 
HETATM    3  C3  UNL     1     -24.369  18.126  10.218  1.00 20.00     0.174 A 
HETATM    4  C4  UNL     1     -24.604  15.861  11.563  1.00 20.00     0.044 C 
HETATM    5  N7  UNL     1     -26.394  19.190  11.440  1.00 20.00    -0.194 NA
HETATM    6  O8  UNL     1     -23.260  17.862  11.093  1.00 20.00    -0.354 OA
ENDROOT
BRANCH   3   7
HETATM    7  C6  UNL     1     -23.966  18.728   8.909  1.00 20.00     0.052 C 
HETATM    8  C5  UNL     1     -25.140  19.018   8.013  1.00 20.00     0.009 C 
ENDBRANCH   3   7
TORSDOF 1
ENDMDL
MODEL 6
REMARK VINA RESULT:      -3.6     11.145     11.762
REMARK  1 active torsions:
REMARK  status: ('A' for Active; 'I' for Inactive)
REMARK    1  A    between atoms: C3_3  and  C6_6 
ROOT
HETATM    1  C1  UNL     1     -33.129   5.345   2.696  1.00 20.00     0.100 C 
HETATM    2  C2  UNL     1     -32.823   7.878   2.502  1.00 20.00     0.169 A 
HETATM    3  C3  UNL     1     -33.133   6.637   3.314  1.00 20.00     0.174 A 
HETATM    4  C4  UNL     1     -32.512   7.849   1.047  1.00 20.00     0.044 C 
HETATM    5  N7  UNL     1     -33.124   4.298   2.195  1.00 20.00    -0.194 NA
HETATM    6  O8  UNL     1     -31.836   7.256   3.332  1.00 20.00    -0.354 OA
ENDROOT
BRANCH   3   7
HETATM    7  C6  UNL     1     -33.878   6.776   4.604  1.00 20.00     0.052 C 
HETATM    8  C5  UNL     1     -34.779   5.604   4.887  1.00 20.00     0.009 C 
ENDBRANCH   3   7
TORSDOF 1
ENDMDL
MODEL 7
REMARK VINA RESULT:      -3.6     10.453     11.627
REMARK  1 active torsions:
REMARK  status: ('A' for Active; 'I' for Inactive)
REMARK    1  A    between atoms: C3_3  and  C6_6 
ROOT
HETATM    1  C1  UNL     1     -42.633   6.537   0.694  1.00 20.00     0.100 C 
HETATM    2  C2  UNL     1     -41.171   8.198  -0.592  1.00 20.00     0.169 A 
HETATM    3  C3  UNL     1     -41.718   6.802  -0.377  1.00 20.00     0.174 A 
HETATM    4  C4  UNL     1     -41.522   9.359   0.272  1.00 20.00     0.044 C 
HETATM    5  N7  UNL     1     -43.374   6.324   1.561  1.00 20.00    -0.194 NA
HETATM    6  O8  UNL     1     -42.258   7.688  -1.371  1.00 20.00    -0.354 OA
ENDROOT
BRANCH   3   7
HETATM    7  C6  UNL     1     -40.985   5.634  -0.955  1.00 20.00     0.052 C 
HETATM    8  C5  UNL     1     -41.895   4.667  -1.665  1.00 20.00     0.009 C 
ENDBRANCH   3   7
TORSDOF 1
ENDMDL
MODEL 8
REMARK VINA RESULT:      -3.6     18.739     19.499
REMARK  1 active torsions:
REMARK  status: ('A' for Active; 'I' for Inactive)
REMARK    1  A    between atoms: C3_3  and  C6_6 
ROOT
HETATM    1  C1  UNL     1     -24.274  18.457   9.732  1.00 20.00     0.100 C 
HETATM    2  C2  UNL     1     -23.518  16.711  11.443  1.00 20.00     0.169 A 
HETATM    3  C3  UNL     1     -23.212  17.794  10.428  1.00 20.00     0.174 A 
HETATM    4  C4  UNL     1     -24.899  16.263  11.773  1.00 20.00     0.044 C 
HETATM    5  N7  UNL     1     -25.134  18.995   9.168  1.00 20.00    -0.194 NA
HETATM    6  O8  UNL     1     -23.219  18.053  11.842  1.00 20.00    -0.354 OA
ENDROOT
BRANCH   3   7
HETATM    7  C6  UNL     1     -21.848  17.857   9.818  1.00 20.00     0.052 C 
HETATM    8  C5  UNL     1     -21.857  17.571   8.339  1.00 20.00     0.009 C 
ENDBRANCH   3   7
TORSDOF 1
ENDMDL
MODEL 9
REMARK VINA RESULT:      -3.5     11.133     12.282
REMARK  1 active torsions:
REMARK  status: ('A' for Active; 'I' for Inactive)
REMARK    1  A    between atoms: C3_3  and  C6_6 
ROOT
HETATM    1  C1  UNL     1     -41.288   5.744  -0.637  1.00 20.00     0.100 C 
HETATM    2  C2  UNL     1     -42.996   5.986   1.252  1.00 20.00     0.169 A 
HETATM    3  C3  UNL     1     -41.939   6.568   0.337  1.00 20.00     0.174 A 
HETATM    4  C4  UNL     1     -43.417   4.558   1.216  1.00 20.00     0.044 C 
HETATM    5  N7  UNL     1     -40.762   5.076  -1.427  1.00 20.00    -0.194 NA
HETATM    6  O8  UNL     1     -43.343   6.737   0.084  1.00 20.00    -0.354 OA
ENDROOT
BRANCH   3   7
HETATM    7  C6  UNL     1     -41.248   7.835   0.734  1.00 20.00     0.052 C 
HETATM    8  C5  UNL     1     -41.814   9.048   0.043  1.00 20.00     0.009 C 
ENDBRANCH   3   7
TORSDOF 1
ENDMDL
