MODEL 1
REMARK VINA RESULT:      -5.1      0.000      0.000
REMARK  2 active torsions:
REMARK  status: ('A' for Active; 'I' for Inactive)
REMARK    1  A    between atoms: C2_2  and  C3_3 
REMARK    2  A    between atoms: N9_9  and  N10_10 
ROOT
HETATM    1  C1  UNL     1     -33.773   6.863   5.291  1.00 20.00    -0.018 C 
HETATM    2  C2  UNL     1     -33.871   6.251   4.106  1.00 20.00    -0.043 C 
HETATM    3  C5  UNL     1     -34.351   6.032   6.389  1.00 20.00     0.028 C 
HETATM    4  C6  UNL     1     -34.530   4.913   4.223  1.00 20.00     0.040 C 
HETATM    5  C7  UNL     1     -35.128   4.959   5.630  1.00 20.00     0.008 C 
ENDROOT
BRANCH   2   6
HETATM    6  C3  UNL     1     -33.403   6.756   2.853  1.00 20.00     0.147 C 
HETATM    7  N9  UNL     1     -32.219   7.265   2.690  1.00 20.00    -0.163 NA
BRANCH   7   8
HETATM    8  N10 UNL     1     -32.028   7.680   1.376  1.00 20.00    -0.168 NA
HETATM    9  C4  UNL     1     -33.024   8.401   0.982  1.00 20.00     0.109 C 
HETATM   10  C8  UNL     1     -33.056   8.967  -0.402  1.00 20.00     0.059 C 
ENDBRANCH   7   8
ENDBRANCH   2   6
TORSDOF 2
ENDMDL
MODEL 2
REMARK VINA RESULT:      -5.0     11.227     11.993
REMARK  2 active torsions:
REMARK  status: ('A' for Active; 'I' for Inactive)
REMARK    1  A    between atoms: C2_2  and  C3_3 
REMARK    2  A    between atoms: N9_9  and  N10_10 
ROOT
HETATM    1  C1  UNL     1     -34.408  14.634  -4.547  1.00 20.00    -0.018 C 
HETATM    2  C2  UNL     1     -35.341  15.085  -3.702  1.00 20.00    -0.043 C 
HETATM    3  C5  UNL     1     -33.033  15.006  -4.100  1.00 20.00     0.028 C 
HETATM    4  C6  UNL     1     -34.738  15.832  -2.555  1.00 20.00     0.040 C 
HETATM    5  C7  UNL     1     -33.299  16.056  -3.022  1.00 20.00     0.008 C 
ENDROOT
BRANCH   2   6
HETATM    6  C3  UNL     1     -36.752  14.891  -3.820  1.00 20.00     0.147 C 
HETATM    7  N9  UNL     1     -37.281  13.892  -4.461  1.00 20.00    -0.163 NA
BRANCH   7   8
HETATM    8  N10 UNL     1     -38.669  13.949  -4.421  1.00 20.00    -0.168 NA
HETATM    9  C4  UNL     1     -39.065  15.159  -4.205  1.00 20.00     0.109 C 
HETATM   10  C8  UNL     1     -40.523  15.482  -4.116  1.00 20.00     0.059 C 
ENDBRANCH   7   8
ENDBRANCH   2   6
TORSDOF 2
ENDMDL
MODEL 3
REMARK VINA RESULT:      -4.5     15.117     15.800
REMARK  2 active torsions:
REMARK  status: ('A' for Active; 'I' for Inactive)
REMARK    1  A    between atoms: C2_2  and  C3_3 
REMARK    2  A    between atoms: N9_9  and  N10_10 
ROOT
HETATM    1  C1  UNL     1     -23.264  17.236  10.115  1.00 20.00    -0.018 C 
HETATM    2  C2  UNL     1     -24.223  18.096   9.753  1.00 20.00    -0.043 C 
HETATM    3  C5  UNL     1     -23.288  16.969  11.583  1.00 20.00     0.028 C 
HETATM    4  C6  UNL     1     -25.041  18.540  10.923  1.00 20.00     0.040 C 
HETATM    5  C7  UNL     1     -24.203  18.072  12.114  1.00 20.00     0.008 C 
ENDROOT
BRANCH   2   6
HETATM    6  C3  UNL     1     -24.491  18.553   8.426  1.00 20.00     0.147 C 
HETATM    7  N9  UNL     1     -23.601  18.543   7.478  1.00 20.00    -0.163 NA
BRANCH   7   8
HETATM    8  N10 UNL     1     -24.127  19.044   6.292  1.00 20.00    -0.168 NA
HETATM    9  C4  UNL     1     -25.397  18.819   6.232  1.00 20.00     0.109 C 
HETATM   10  C8  UNL     1     -26.196  19.263   5.047  1.00 20.00     0.059 C 
ENDBRANCH   7   8
ENDBRANCH   2   6
TORSDOF 2
ENDMDL
MODEL 4
REMARK VINA RESULT:      -4.5     11.249     12.176
REMARK  2 active torsions:
REMARK  status: ('A' for Active; 'I' for Inactive)
REMARK    1  A    between atoms: C2_2  and  C3_3 
REMARK    2  A    between atoms: N9_9  and  N10_10 
ROOT
HETATM    1  C1  UNL     1     -33.114  15.750  -3.647  1.00 20.00    -0.018 C 
HETATM    2  C2  UNL     1     -33.605  16.439  -2.611  1.00 20.00    -0.043 C 
HETATM    3  C5  UNL     1     -34.146  14.858  -4.254  1.00 20.00     0.028 C 
HETATM    4  C6  UNL     1     -35.044  16.117  -2.361  1.00 20.00     0.040 C 
HETATM    5  C7  UNL     1     -35.256  14.859  -3.205  1.00 20.00     0.008 C 
ENDROOT
BRANCH   2   6
HETATM    6  C3  UNL     1     -32.895  17.392  -1.817  1.00 20.00     0.147 C 
HETATM    7  N9  UNL     1     -32.285  18.423  -2.322  1.00 20.00    -0.163 NA
BRANCH   7   8
HETATM    8  N10 UNL     1     -31.675  19.180  -1.328  1.00 20.00    -0.168 NA
HETATM    9  C4  UNL     1     -31.329  18.428  -0.337  1.00 20.00     0.109 C 
HETATM   10  C8  UNL     1     -30.652  19.010   0.864  1.00 20.00     0.059 C 
ENDBRANCH   7   8
ENDBRANCH   2   6
TORSDOF 2
ENDMDL
MODEL 5
REMARK VINA RESULT:      -4.3     11.414     12.112
REMARK  2 active torsions:
REMARK  status: ('A' for Active; 'I' for Inactive)
REMARK    1  A    between atoms: C2_2  and  C3_3 
REMARK    2  A    between atoms: N9_9  and  N10_10 
ROOT
HETATM    1  C1  UNL     1     -35.037  15.885  -2.639  1.00 20.00    -0.018 C 
HETATM    2  C2  UNL     1     -33.740  16.099  -2.888  1.00 20.00    -0.043 C 
HETATM    3  C5  UNL     1     -35.598  14.818  -3.519  1.00 20.00     0.028 C 
HETATM    4  C6  UNL     1     -33.228  15.208  -3.975  1.00 20.00     0.040 C 
HETATM    5  C7  UNL     1     -34.516  14.653  -4.585  1.00 20.00     0.008 C 
ENDROOT
BRANCH   2   6
HETATM    6  C3  UNL     1     -32.894  17.035  -2.217  1.00 20.00     0.147 C 
HETATM    7  N9  UNL     1     -32.744  18.265  -2.610  1.00 20.00    -0.163 NA
BRANCH   7   8
HETATM    8  N10 UNL     1     -31.865  18.952  -1.780  1.00 20.00    -0.168 NA
HETATM    9  C4  UNL     1     -31.728  18.332  -0.656  1.00 20.00     0.109 C 
HETATM   10  C8  UNL     1     -30.831  18.874   0.411  1.00 20.00     0.059 C 
ENDBRANCH   7   8
ENDBRANCH   2   6
TORSDOF 2
ENDMDL
MODEL 6
REMARK VINA RESULT:      -4.2     11.034     11.770
REMARK  2 active torsions:
REMARK  status: ('A' for Active; 'I' for Inactive)
REMARK    1  A    between atoms: C2_2  and  C3_3 
REMARK    2  A    between atoms: N9_9  and  N10_10 
ROOT
HETATM    1  C1  UNL     1     -33.067  17.448  -2.018  1.00 20.00    -0.018 C 
HETATM    2  C2  UNL     1     -33.868  16.548  -2.599  1.00 20.00    -0.043 C 
HETATM    3  C5  UNL     1     -33.570  17.845  -0.670  1.00 20.00     0.028 C 
HETATM    4  C6  UNL     1     -35.035  16.199  -1.730  1.00 20.00     0.040 C 
HETATM    5  C7  UNL     1     -34.996  17.295  -0.664  1.00 20.00     0.008 C 
ENDROOT
BRANCH   2   6
HETATM    6  C3  UNL     1     -33.673  15.945  -3.880  1.00 20.00     0.147 C 
HETATM    7  N9  UNL     1     -33.977  14.707  -4.136  1.00 20.00    -0.163 NA
BRANCH   7   8
HETATM    8  N10 UNL     1     -33.682  14.382  -5.455  1.00 20.00    -0.168 NA
HETATM    9  C4  UNL     1     -34.117  15.299  -6.254  1.00 20.00     0.109 C 
HETATM   10  C8  UNL     1     -33.924  15.179  -7.732  1.00 20.00     0.059 C 
ENDBRANCH   7   8
ENDBRANCH   2   6
TORSDOF 2
ENDMDL
MODEL 7
REMARK VINA RESULT:      -4.1     10.037     10.539
REMARK  2 active torsions:
REMARK  status: ('A' for Active; 'I' for Inactive)
REMARK    1  A    between atoms: C2_2  and  C3_3 
REMARK    2  A    between atoms: N9_9  and  N10_10 
ROOT
HETATM    1  C1  UNL     1     -41.316   6.255   0.305  1.00 20.00    -0.018 C 
HETATM    2  C2  UNL     1     -41.858   6.193  -0.916  1.00 20.00    -0.043 C 
HETATM    3  C5  UNL     1     -41.214   7.663   0.792  1.00 20.00     0.028 C 
HETATM    4  C6  UNL     1     -42.204   7.550  -1.441  1.00 20.00     0.040 C 
HETATM    5  C7  UNL     1     -41.467   8.479  -0.475  1.00 20.00     0.008 C 
ENDROOT
BRANCH   2   6
HETATM    6  C3  UNL     1     -42.115   5.004  -1.667  1.00 20.00     0.147 C 
HETATM    7  N9  UNL     1     -43.222   4.329  -1.570  1.00 20.00    -0.163 NA
BRANCH   7   8
HETATM    8  N10 UNL     1     -43.205   3.219  -2.407  1.00 20.00    -0.168 NA
HETATM    9  C4  UNL     1     -42.106   3.180  -3.084  1.00 20.00     0.109 C 
HETATM   10  C8  UNL     1     -41.849   2.077  -4.061  1.00 20.00     0.059 C 
ENDBRANCH   7   8
ENDBRANCH   2   6
TORSDOF 2
ENDMDL
MODEL 8
REMARK VINA RESULT:      -4.0     10.997     11.775
REMARK  2 active torsions:
REMARK  status: ('A' for Active; 'I' for Inactive)
REMARK    1  A    between atoms: C2_2  and  C3_3 
REMARK    2  A    between atoms: N9_9  and  N10_10 
ROOT
HETATM    1  C1  UNL     1     -33.305  16.114  -2.936  1.00 20.00    -0.018 C 
HETATM    2  C2  UNL     1     -34.527  16.107  -2.390  1.00 20.00    -0.043 C 
HETATM    3  C5  UNL     1     -33.213  15.175  -4.093  1.00 20.00     0.028 C 
HETATM    4  C6  UNL     1     -35.446  15.162  -3.097  1.00 20.00     0.040 C 
HETATM    5  C7  UNL     1     -34.483  14.337  -3.953  1.00 20.00     0.008 C 
ENDROOT
BRANCH   2   6
HETATM    6  C3  UNL     1     -34.962  16.897  -1.282  1.00 20.00     0.147 C 
HETATM    7  N9  UNL     1     -34.168  17.679  -0.612  1.00 20.00    -0.163 NA
BRANCH   7   8
HETATM    8  N10 UNL     1     -34.850  18.325   0.413  1.00 20.00    -0.168 NA
HETATM    9  C4  UNL     1     -35.732  17.539   0.933  1.00 20.00     0.109 C 
HETATM   10  C8  UNL     1     -36.601  18.005   2.059  1.00 20.00     0.059 C 
ENDBRANCH   7   8
ENDBRANCH   2   6
TORSDOF 2
ENDMDL
MODEL 9
REMARK VINA RESULT:      -3.9     15.001     15.735
REMARK  2 active torsions:
REMARK  status: ('A' for Active; 'I' for Inactive)
REMARK    1  A    between atoms: C2_2  and  C3_3 
REMARK    2  A    between atoms: N9_9  and  N10_10 
ROOT
HETATM    1  C1  UNL     1     -24.136  17.273   9.706  1.00 20.00    -0.018 C 
HETATM    2  C2  UNL     1     -23.960  18.310   8.880  1.00 20.00    -0.043 C 
HETATM    3  C5  UNL     1     -23.033  17.173  10.707  1.00 20.00     0.028 C 
HETATM    4  C6  UNL     1     -22.711  19.068   9.197  1.00 20.00     0.040 C 
HETATM    5  C7  UNL     1     -21.974  18.116  10.141  1.00 20.00     0.008 C 
ENDROOT
BRANCH   2   6
HETATM    6  C3  UNL     1     -24.834  18.704   7.820  1.00 20.00     0.147 C 
HETATM    7  N9  UNL     1     -24.480  18.699   6.569  1.00 20.00    -0.163 NA
BRANCH   7   8
HETATM    8  N10 UNL     1     -25.521  19.129   5.753  1.00 20.00    -0.168 NA
HETATM    9  C4  UNL     1     -26.660  18.892   6.311  1.00 20.00     0.109 C 
HETATM   10  C8  UNL     1     -27.938  19.263   5.628  1.00 20.00     0.059 C 
ENDBRANCH   7   8
ENDBRANCH   2   6
TORSDOF 2
ENDMDL
