MODEL 1
REMARK VINA RESULT:      -4.7      0.000      0.000
REMARK  1 active torsions:
REMARK  status: ('A' for Active; 'I' for Inactive)
REMARK    1  A    between atoms: C6_6  and  C10_10 
ROOT
HETATM    1  C1  UNL     1     -37.550  14.503  -4.340  1.00 20.00     0.053 A 
HETATM    2  C2  UNL     1     -37.451  15.796  -3.988  1.00 20.00    -0.075 A 
HETATM    3  C3  UNL     1     -36.170  13.968  -4.366  1.00 20.00     0.159 A 
HETATM    4  C4  UNL     1     -35.227  15.696  -2.676  1.00 20.00     0.029 A 
HETATM    5  C5  UNL     1     -36.081  16.291  -3.761  1.00 20.00     0.032 A 
HETATM    6  C6  UNL     1     -35.204  15.072  -4.053  1.00 20.00     0.035 A 
HETATM    7  C7  UNL     1     -38.607  16.720  -3.817  1.00 20.00     0.044 C 
HETATM    8  O11 UNL     1     -35.851  12.815  -4.603  1.00 20.00    -0.292 OA
ENDROOT
BRANCH   6   9
HETATM    9  C10 UNL     1     -33.976  15.246  -4.897  1.00 20.00    -0.006 C 
HETATM   10  C8  UNL     1     -32.820  14.363  -4.400  1.00 20.00     0.011 C 
HETATM   11  C9  UNL     1     -34.259  14.939  -6.376  1.00 20.00     0.011 C 
ENDBRANCH   6   9
TORSDOF 1
ENDMDL
MODEL 2
REMARK VINA RESULT:      -4.4      2.618      4.047
REMARK  1 active torsions:
REMARK  status: ('A' for Active; 'I' for Inactive)
REMARK    1  A    between atoms: C6_6  and  C10_10 
ROOT
HETATM    1  C1  UNL     1     -33.062  18.180  -3.625  1.00 20.00     0.053 A 
HETATM    2  C2  UNL     1     -32.919  17.821  -2.339  1.00 20.00    -0.075 A 
HETATM    3  C3  UNL     1     -34.020  17.224  -4.224  1.00 20.00     0.159 A 
HETATM    4  C4  UNL     1     -35.194  16.649  -1.983  1.00 20.00     0.029 A 
HETATM    5  C5  UNL     1     -33.693  16.638  -1.918  1.00 20.00     0.032 A 
HETATM    6  C6  UNL     1     -34.410  16.202  -3.197  1.00 20.00     0.035 A 
HETATM    7  C7  UNL     1     -32.058  18.528  -1.349  1.00 20.00     0.044 C 
HETATM    8  O11 UNL     1     -34.435  17.248  -5.370  1.00 20.00    -0.292 OA
ENDROOT
BRANCH   6   9
HETATM    9  C10 UNL     1     -34.424  14.748  -3.563  1.00 20.00    -0.006 C 
HETATM   10  C8  UNL     1     -35.773  14.331  -4.168  1.00 20.00     0.011 C 
HETATM   11  C9  UNL     1     -33.292  14.402  -4.543  1.00 20.00     0.011 C 
ENDBRANCH   6   9
TORSDOF 1
ENDMDL
MODEL 3
REMARK VINA RESULT:      -4.4      1.510      2.463
REMARK  1 active torsions:
REMARK  status: ('A' for Active; 'I' for Inactive)
REMARK    1  A    between atoms: C6_6  and  C10_10 
ROOT
HETATM    1  C1  UNL     1     -35.969  14.810  -3.536  1.00 20.00     0.053 A 
HETATM    2  C2  UNL     1     -35.019  15.624  -3.047  1.00 20.00    -0.075 A 
HETATM    3  C3  UNL     1     -35.563  14.476  -4.920  1.00 20.00     0.159 A 
HETATM    4  C4  UNL     1     -33.031  14.864  -4.513  1.00 20.00     0.029 A 
HETATM    5  C5  UNL     1     -33.920  15.950  -3.975  1.00 20.00     0.032 A 
HETATM    6  C6  UNL     1     -34.300  15.211  -5.259  1.00 20.00     0.035 A 
HETATM    7  C7  UNL     1     -35.012  16.189  -1.668  1.00 20.00     0.044 C 
HETATM    8  O11 UNL     1     -36.153  13.726  -5.679  1.00 20.00    -0.292 OA
ENDROOT
BRANCH   6   9
HETATM    9  C10 UNL     1     -34.186  15.928  -6.571  1.00 20.00    -0.006 C 
HETATM   10  C8  UNL     1     -33.679  14.995  -7.682  1.00 20.00     0.011 C 
HETATM   11  C9  UNL     1     -35.526  16.549  -6.993  1.00 20.00     0.011 C 
ENDBRANCH   6   9
TORSDOF 1
ENDMDL
MODEL 4
REMARK VINA RESULT:      -4.3      1.832      3.156
REMARK  1 active torsions:
REMARK  status: ('A' for Active; 'I' for Inactive)
REMARK    1  A    between atoms: C6_6  and  C10_10 
ROOT
HETATM    1  C1  UNL     1     -35.173  16.202  -2.029  1.00 20.00     0.053 A 
HETATM    2  C2  UNL     1     -33.989  16.827  -2.141  1.00 20.00    -0.075 A 
HETATM    3  C3  UNL     1     -35.399  15.497  -3.311  1.00 20.00     0.159 A 
HETATM    4  C4  UNL     1     -32.882  15.295  -3.904  1.00 20.00     0.029 A 
HETATM    5  C5  UNL     1     -33.302  16.660  -3.436  1.00 20.00     0.032 A 
HETATM    6  C6  UNL     1     -34.267  15.795  -4.248  1.00 20.00     0.035 A 
HETATM    7  C7  UNL     1     -33.353  17.643  -1.069  1.00 20.00     0.044 C 
HETATM    8  O11 UNL     1     -36.352  14.784  -3.579  1.00 20.00    -0.292 OA
ENDROOT
BRANCH   6   9
HETATM    9  C10 UNL     1     -34.559  16.172  -5.670  1.00 20.00    -0.006 C 
HETATM   10  C8  UNL     1     -34.674  14.932  -6.571  1.00 20.00     0.011 C 
HETATM   11  C9  UNL     1     -35.843  17.008  -5.780  1.00 20.00     0.011 C 
ENDBRANCH   6   9
TORSDOF 1
ENDMDL
MODEL 5
REMARK VINA RESULT:      -4.2      1.391      2.528
REMARK  1 active torsions:
REMARK  status: ('A' for Active; 'I' for Inactive)
REMARK    1  A    between atoms: C6_6  and  C10_10 
ROOT
HETATM    1  C1  UNL     1     -35.982  14.386  -6.288  1.00 20.00     0.053 A 
HETATM    2  C2  UNL     1     -36.006  15.729  -6.301  1.00 20.00    -0.075 A 
HETATM    3  C3  UNL     1     -35.846  13.982  -4.870  1.00 20.00     0.159 A 
HETATM    4  C4  UNL     1     -36.911  16.147  -3.916  1.00 20.00     0.029 A 
HETATM    5  C5  UNL     1     -35.879  16.381  -4.984  1.00 20.00     0.032 A 
HETATM    6  C6  UNL     1     -35.729  15.208  -4.014  1.00 20.00     0.035 A 
HETATM    7  C7  UNL     1     -36.155  16.565  -7.525  1.00 20.00     0.044 C 
HETATM    8  O11 UNL     1     -35.828  12.838  -4.449  1.00 20.00    -0.292 OA
ENDROOT
BRANCH   6   9
HETATM    9  C10 UNL     1     -34.673  15.274  -2.951  1.00 20.00    -0.006 C 
HETATM   10  C8  UNL     1     -33.309  15.677  -3.534  1.00 20.00     0.011 C 
HETATM   11  C9  UNL     1     -35.061  16.250  -1.829  1.00 20.00     0.011 C 
ENDBRANCH   6   9
TORSDOF 1
ENDMDL
MODEL 6
REMARK VINA RESULT:      -4.2      2.339      3.621
REMARK  1 active torsions:
REMARK  status: ('A' for Active; 'I' for Inactive)
REMARK    1  A    between atoms: C6_6  and  C10_10 
ROOT
HETATM    1  C1  UNL     1     -35.986  16.155  -4.766  1.00 20.00     0.053 A 
HETATM    2  C2  UNL     1     -35.655  14.928  -4.331  1.00 20.00    -0.075 A 
HETATM    3  C3  UNL     1     -35.004  17.091  -4.172  1.00 20.00     0.159 A 
HETATM    4  C4  UNL     1     -33.136  15.311  -3.898  1.00 20.00     0.029 A 
HETATM    5  C5  UNL     1     -34.492  14.866  -3.426  1.00 20.00     0.032 A 
HETATM    6  C6  UNL     1     -34.069  16.328  -3.280  1.00 20.00     0.035 A 
HETATM    7  C7  UNL     1     -36.368  13.674  -4.702  1.00 20.00     0.044 C 
HETATM    8  O11 UNL     1     -34.950  18.293  -4.366  1.00 20.00    -0.292 OA
ENDROOT
BRANCH   6   9
HETATM    9  C10 UNL     1     -33.746  16.859  -1.915  1.00 20.00    -0.006 C 
HETATM   10  C8  UNL     1     -32.648  17.932  -1.972  1.00 20.00     0.011 C 
HETATM   11  C9  UNL     1     -34.992  17.433  -1.223  1.00 20.00     0.011 C 
ENDBRANCH   6   9
TORSDOF 1
ENDMDL
MODEL 7
REMARK VINA RESULT:      -4.1      1.428      3.846
REMARK  1 active torsions:
REMARK  status: ('A' for Active; 'I' for Inactive)
REMARK    1  A    between atoms: C6_6  and  C10_10 
ROOT
HETATM    1  C1  UNL     1     -35.474  13.816  -4.097  1.00 20.00     0.053 A 
HETATM    2  C2  UNL     1     -34.557  14.650  -4.616  1.00 20.00    -0.075 A 
HETATM    3  C3  UNL     1     -36.790  14.276  -4.596  1.00 20.00     0.159 A 
HETATM    4  C4  UNL     1     -35.838  15.408  -6.728  1.00 20.00     0.029 A 
HETATM    5  C5  UNL     1     -35.088  15.731  -5.466  1.00 20.00     0.032 A 
HETATM    6  C6  UNL     1     -36.601  15.512  -5.426  1.00 20.00     0.035 A 
HETATM    7  C7  UNL     1     -33.088  14.542  -4.392  1.00 20.00     0.044 C 
HETATM    8  O11 UNL     1     -37.866  13.747  -4.375  1.00 20.00    -0.292 OA
ENDROOT
BRANCH   6   9
HETATM    9  C10 UNL     1     -37.502  16.693  -5.217  1.00 20.00    -0.006 C 
HETATM   10  C8  UNL     1     -38.783  16.582  -6.059  1.00 20.00     0.011 C 
HETATM   11  C9  UNL     1     -37.873  16.863  -3.735  1.00 20.00     0.011 C 
ENDBRANCH   6   9
TORSDOF 1
ENDMDL
MODEL 8
REMARK VINA RESULT:      -4.0      1.783      2.627
REMARK  1 active torsions:
REMARK  status: ('A' for Active; 'I' for Inactive)
REMARK    1  A    between atoms: C6_6  and  C10_10 
ROOT
HETATM    1  C1  UNL     1     -37.652  16.616  -4.722  1.00 20.00     0.053 A 
HETATM    2  C2  UNL     1     -38.081  15.375  -4.438  1.00 20.00    -0.075 A 
HETATM    3  C3  UNL     1     -36.173  16.553  -4.748  1.00 20.00     0.159 A 
HETATM    4  C4  UNL     1     -36.066  14.028  -5.335  1.00 20.00     0.029 A 
HETATM    5  C5  UNL     1     -37.024  14.368  -4.228  1.00 20.00     0.032 A 
HETATM    6  C6  UNL     1     -35.729  15.164  -4.395  1.00 20.00     0.035 A 
HETATM    7  C7  UNL     1     -39.512  14.974  -4.335  1.00 20.00     0.044 C 
HETATM    8  O11 UNL     1     -35.420  17.475  -5.012  1.00 20.00    -0.292 OA
ENDROOT
BRANCH   6   9
HETATM    9  C10 UNL     1     -34.621  14.967  -3.403  1.00 20.00    -0.006 C 
HETATM   10  C8  UNL     1     -33.241  15.045  -4.074  1.00 20.00     0.011 C 
HETATM   11  C9  UNL     1     -34.697  15.994  -2.262  1.00 20.00     0.011 C 
ENDBRANCH   6   9
TORSDOF 1
ENDMDL
MODEL 9
REMARK VINA RESULT:      -4.0      1.726      3.055
REMARK  1 active torsions:
REMARK  status: ('A' for Active; 'I' for Inactive)
REMARK    1  A    between atoms: C6_6  and  C10_10 
ROOT
HETATM    1  C1  UNL     1     -33.905  15.878  -2.591  1.00 20.00     0.053 A 
HETATM    2  C2  UNL     1     -35.051  16.464  -2.206  1.00 20.00    -0.075 A 
HETATM    3  C3  UNL     1     -34.074  15.521  -4.018  1.00 20.00     0.159 A 
HETATM    4  C4  UNL     1     -35.850  17.351  -4.497  1.00 20.00     0.029 A 
HETATM    5  C5  UNL     1     -36.095  16.562  -3.242  1.00 20.00     0.032 A 
HETATM    6  C6  UNL     1     -35.459  15.890  -4.460  1.00 20.00     0.035 A 
HETATM    7  C7  UNL     1     -35.312  17.004  -0.842  1.00 20.00     0.044 C 
HETATM    8  O11 UNL     1     -33.232  15.007  -4.734  1.00 20.00    -0.292 OA
ENDROOT
BRANCH   6   9
HETATM    9  C10 UNL     1     -36.271  14.912  -5.257  1.00 20.00    -0.006 C 
HETATM   10  C8  UNL     1     -35.800  14.847  -6.719  1.00 20.00     0.011 C 
HETATM   11  C9  UNL     1     -36.226  13.506  -4.639  1.00 20.00     0.011 C 
ENDBRANCH   6   9
TORSDOF 1
ENDMDL
