MODEL 1
REMARK VINA RESULT:      -4.4      0.000      0.000
REMARK  0 active torsions:
REMARK  status: ('A' for Active; 'I' for Inactive)
ROOT
HETATM    1  C1  UNL     1     -35.007  15.751  -2.286  1.00 20.00    -0.018 C 
HETATM    2  C2  UNL     1     -33.819  16.352  -2.471  1.00 20.00    -0.025 C 
HETATM    3  C3  UNL     1     -34.490  14.141  -3.959  1.00 20.00     0.135 C 
HETATM    4  C4  UNL     1     -33.124  14.761  -4.252  1.00 20.00     0.087 C 
HETATM    5  C5  UNL     1     -34.892  16.345  -4.526  1.00 20.00     0.025 C 
HETATM    6  C6  UNL     1     -35.476  15.252  -3.626  1.00 20.00     0.078 C 
HETATM    7  C7  UNL     1     -33.476  16.236  -3.944  1.00 20.00     0.016 C 
HETATM    8  O8  UNL     1     -34.735  12.945  -3.950  1.00 20.00    -0.297 OA
ENDROOT
TORSDOF 0
ENDMDL
MODEL 2
REMARK VINA RESULT:      -4.3     11.908     12.716
REMARK  0 active torsions:
REMARK  status: ('A' for Active; 'I' for Inactive)
ROOT
HETATM    1  C1  UNL     1     -33.924   4.153   4.121  1.00 20.00    -0.018 C 
HETATM    2  C2  UNL     1     -34.223   4.329   5.419  1.00 20.00    -0.025 C 
HETATM    3  C3  UNL     1     -33.451   6.472   3.881  1.00 20.00     0.135 C 
HETATM    4  C4  UNL     1     -33.783   6.776   5.341  1.00 20.00     0.087 C 
HETATM    5  C5  UNL     1     -35.617   5.737   4.214  1.00 20.00     0.025 C 
HETATM    6  C6  UNL     1     -34.384   5.378   3.379  1.00 20.00     0.078 C 
HETATM    7  C7  UNL     1     -34.869   5.695   5.555  1.00 20.00     0.016 C 
HETATM    8  O8  UNL     1     -32.552   6.991   3.237  1.00 20.00    -0.297 OA
ENDROOT
TORSDOF 0
ENDMDL
MODEL 3
REMARK VINA RESULT:      -4.3     10.889     11.842
REMARK  0 active torsions:
REMARK  status: ('A' for Active; 'I' for Inactive)
ROOT
HETATM    1  C1  UNL     1     -42.620   7.749  -1.446  1.00 20.00    -0.018 C 
HETATM    2  C2  UNL     1     -43.417   7.605  -0.374  1.00 20.00    -0.025 C 
HETATM    3  C3  UNL     1     -41.183   6.028  -0.650  1.00 20.00     0.135 C 
HETATM    4  C4  UNL     1     -42.018   5.798   0.609  1.00 20.00     0.087 C 
HETATM    5  C5  UNL     1     -41.293   8.069   0.430  1.00 20.00     0.025 C 
HETATM    6  C6  UNL     1     -41.205   7.511  -0.994  1.00 20.00     0.078 C 
HETATM    7  C7  UNL     1     -42.533   7.245   0.805  1.00 20.00     0.016 C 
HETATM    8  O8  UNL     1     -40.628   5.156  -1.299  1.00 20.00    -0.297 OA
ENDROOT
TORSDOF 0
ENDMDL
MODEL 4
REMARK VINA RESULT:      -4.3     10.549     11.551
REMARK  0 active torsions:
REMARK  status: ('A' for Active; 'I' for Inactive)
ROOT
HETATM    1  C1  UNL     1     -41.151   6.957   0.568  1.00 20.00    -0.018 C 
HETATM    2  C2  UNL     1     -42.407   6.527   0.781  1.00 20.00    -0.025 C 
HETATM    3  C3  UNL     1     -41.952   9.132   0.034  1.00 20.00     0.135 C 
HETATM    4  C4  UNL     1     -43.414   8.736   0.239  1.00 20.00     0.087 C 
HETATM    5  C5  UNL     1     -42.339   7.350  -1.386  1.00 20.00     0.025 C 
HETATM    6  C6  UNL     1     -41.197   7.951  -0.560  1.00 20.00     0.078 C 
HETATM    7  C7  UNL     1     -43.308   7.255  -0.198  1.00 20.00     0.016 C 
HETATM    8  O8  UNL     1     -41.462  10.208   0.341  1.00 20.00    -0.297 OA
ENDROOT
TORSDOF 0
ENDMDL
MODEL 5
REMARK VINA RESULT:      -4.2     11.910     12.607
REMARK  0 active torsions:
REMARK  status: ('A' for Active; 'I' for Inactive)
ROOT
HETATM    1  C1  UNL     1     -34.259   4.600   5.522  1.00 20.00    -0.018 C 
HETATM    2  C2  UNL     1     -34.124   5.887   5.884  1.00 20.00    -0.025 C 
HETATM    3  C3  UNL     1     -33.624   5.126   3.291  1.00 20.00     0.135 C 
HETATM    4  C4  UNL     1     -33.456   6.613   3.600  1.00 20.00     0.087 C 
HETATM    5  C5  UNL     1     -35.652   5.838   4.140  1.00 20.00     0.025 C 
HETATM    6  C6  UNL     1     -34.782   4.577   4.112  1.00 20.00     0.078 C 
HETATM    7  C7  UNL     1     -34.539   6.738   4.698  1.00 20.00     0.016 C 
HETATM    8  O8  UNL     1     -32.913   4.475   2.541  1.00 20.00    -0.297 OA
ENDROOT
TORSDOF 0
ENDMDL
MODEL 6
REMARK VINA RESULT:      -4.2     17.205     18.185
REMARK  0 active torsions:
REMARK  status: ('A' for Active; 'I' for Inactive)
ROOT
HETATM    1  C1  UNL     1     -22.710  17.824  11.778  1.00 20.00    -0.018 C 
HETATM    2  C2  UNL     1     -24.022  18.033  11.978  1.00 20.00    -0.025 C 
HETATM    3  C3  UNL     1     -22.900  18.571   9.528  1.00 20.00     0.135 C 
HETATM    4  C4  UNL     1     -24.402  18.828   9.652  1.00 20.00     0.087 C 
HETATM    5  C5  UNL     1     -23.842  16.567  10.190  1.00 20.00     0.025 C 
HETATM    6  C6  UNL     1     -22.536  17.350  10.361  1.00 20.00     0.078 C 
HETATM    7  C7  UNL     1     -24.736  17.717  10.677  1.00 20.00     0.016 C 
HETATM    8  O8  UNL     1     -22.115  19.263   8.898  1.00 20.00    -0.297 OA
ENDROOT
TORSDOF 0
ENDMDL
MODEL 7
REMARK VINA RESULT:      -4.2      1.103      2.361
REMARK  0 active torsions:
REMARK  status: ('A' for Active; 'I' for Inactive)
ROOT
HETATM    1  C1  UNL     1     -34.015  15.197  -5.221  1.00 20.00    -0.018 C 
HETATM    2  C2  UNL     1     -34.876  16.225  -5.139  1.00 20.00    -0.025 C 
HETATM    3  C3  UNL     1     -35.606  13.739  -4.220  1.00 20.00     0.135 C 
HETATM    4  C4  UNL     1     -36.650  14.846  -4.070  1.00 20.00     0.087 C 
HETATM    5  C5  UNL     1     -34.597  15.412  -2.985  1.00 20.00     0.025 C 
HETATM    6  C6  UNL     1     -34.221  14.334  -4.006  1.00 20.00     0.078 C 
HETATM    7  C7  UNL     1     -35.685  16.039  -3.869  1.00 20.00     0.016 C 
HETATM    8  O8  UNL     1     -35.845  12.577  -4.510  1.00 20.00    -0.297 OA
ENDROOT
TORSDOF 0
ENDMDL
MODEL 8
REMARK VINA RESULT:      -4.1     10.726     11.714
REMARK  0 active torsions:
REMARK  status: ('A' for Active; 'I' for Inactive)
ROOT
HETATM    1  C1  UNL     1     -43.090   7.768  -1.348  1.00 20.00    -0.018 C 
HETATM    2  C2  UNL     1     -42.400   6.648  -1.071  1.00 20.00    -0.025 C 
HETATM    3  C3  UNL     1     -41.897   8.958   0.331  1.00 20.00     0.135 C 
HETATM    4  C4  UNL     1     -41.071   7.735   0.729  1.00 20.00     0.087 C 
HETATM    5  C5  UNL     1     -43.417   7.314   0.904  1.00 20.00     0.025 C 
HETATM    6  C6  UNL     1     -43.299   8.504  -0.053  1.00 20.00     0.078 C 
HETATM    7  C7  UNL     1     -42.123   6.643   0.420  1.00 20.00     0.016 C 
HETATM    8  O8  UNL     1     -41.484  10.106   0.285  1.00 20.00    -0.297 OA
ENDROOT
TORSDOF 0
ENDMDL
MODEL 9
REMARK VINA RESULT:      -4.1     11.175     12.043
REMARK  0 active torsions:
REMARK  status: ('A' for Active; 'I' for Inactive)
ROOT
HETATM    1  C1  UNL     1     -43.414   6.946   1.057  1.00 20.00    -0.018 C 
HETATM    2  C2  UNL     1     -42.520   5.942   1.055  1.00 20.00    -0.025 C 
HETATM    3  C3  UNL     1     -42.677   7.650  -1.092  1.00 20.00     0.135 C 
HETATM    4  C4  UNL     1     -41.621   6.549  -1.184  1.00 20.00     0.087 C 
HETATM    5  C5  UNL     1     -41.321   7.904   0.762  1.00 20.00     0.025 C 
HETATM    6  C6  UNL     1     -42.782   8.116   0.353  1.00 20.00     0.078 C 
HETATM    7  C7  UNL     1     -41.286   6.433   0.323  1.00 20.00     0.016 C 
HETATM    8  O8  UNL     1     -43.357   8.056  -2.022  1.00 20.00    -0.297 OA
ENDROOT
TORSDOF 0
ENDMDL
