MODEL 1
REMARK VINA RESULT:      -3.8      0.000      0.000
REMARK  2 active torsions:
REMARK  status: ('A' for Active; 'I' for Inactive)
REMARK    1  A    between atoms: C1_1  and  C2_2 
REMARK    2  A    between atoms: C1_1  and  C3_3 
ROOT
HETATM    1  C1  UNL     1     -34.489   5.234   4.625  1.00 20.00     0.168 C 
HETATM    2  O4  UNL     1     -34.670   4.134   4.105  1.00 20.00    -0.294 OA
ENDROOT
BRANCH   1   3
HETATM    3  C2  UNL     1     -34.832   5.466   6.074  1.00 20.00     0.301 C 
HETATM    4  F5  UNL     1     -34.461   6.711   6.475  1.00 20.00    -0.248 F 
ENDBRANCH   1   3
BRANCH   1   5
HETATM    5  C3  UNL     1     -33.922   6.425   3.887  1.00 20.00     0.195 C 
HETATM    6 CL6  UNL     1     -32.936   5.899   2.514  1.00 20.00    -0.122 Cl
ENDBRANCH   1   5
TORSDOF 2
ENDMDL
MODEL 2
REMARK VINA RESULT:      -3.8      0.988      1.114
REMARK  2 active torsions:
REMARK  status: ('A' for Active; 'I' for Inactive)
REMARK    1  A    between atoms: C1_1  and  C2_2 
REMARK    2  A    between atoms: C1_1  and  C3_3 
ROOT
HETATM    1  C1  UNL     1     -34.304   5.284   4.054  1.00 20.00     0.168 C 
HETATM    2  O4  UNL     1     -35.041   4.362   4.399  1.00 20.00    -0.294 OA
ENDROOT
BRANCH   1   3
HETATM    3  C2  UNL     1     -34.133   6.499   4.929  1.00 20.00     0.301 C 
HETATM    4  F5  UNL     1     -34.567   6.260   6.195  1.00 20.00    -0.248 F 
ENDBRANCH   1   3
BRANCH   1   5
HETATM    5  C3  UNL     1     -33.519   5.290   2.763  1.00 20.00     0.195 C 
HETATM    6 CL6  UNL     1     -32.635   6.812   2.574  1.00 20.00    -0.122 Cl
ENDBRANCH   1   5
TORSDOF 2
ENDMDL
MODEL 3
REMARK VINA RESULT:      -3.8      2.664      2.954
REMARK  2 active torsions:
REMARK  status: ('A' for Active; 'I' for Inactive)
REMARK    1  A    between atoms: C1_1  and  C2_2 
REMARK    2  A    between atoms: C1_1  and  C3_3 
ROOT
HETATM    1  C1  UNL     1     -34.237   5.152   3.844  1.00 20.00     0.168 C 
HETATM    2  O4  UNL     1     -34.945   4.293   4.366  1.00 20.00    -0.294 OA
ENDROOT
BRANCH   1   3
HETATM    3  C2  UNL     1     -33.448   4.845   2.598  1.00 20.00     0.301 C 
HETATM    4  F5  UNL     1     -32.649   5.890   2.250  1.00 20.00    -0.248 F 
ENDBRANCH   1   3
BRANCH   1   5
HETATM    5  C3  UNL     1     -34.093   6.558   4.382  1.00 20.00     0.195 C 
HETATM    6 CL6  UNL     1     -34.113   6.556   6.152  1.00 20.00    -0.122 Cl
ENDBRANCH   1   5
TORSDOF 2
ENDMDL
MODEL 4
REMARK VINA RESULT:      -3.7      1.802      1.870
REMARK  2 active torsions:
REMARK  status: ('A' for Active; 'I' for Inactive)
REMARK    1  A    between atoms: C1_1  and  C2_2 
REMARK    2  A    between atoms: C1_1  and  C3_3 
ROOT
HETATM    1  C1  UNL     1     -33.934   6.402   4.673  1.00 20.00     0.168 C 
HETATM    2  O4  UNL     1     -33.634   7.095   5.643  1.00 20.00    -0.294 OA
ENDROOT
BRANCH   1   3
HETATM    3  C2  UNL     1     -35.015   5.357   4.778  1.00 20.00     0.301 C 
HETATM    4  F5  UNL     1     -35.241   5.012   6.074  1.00 20.00    -0.248 F 
ENDBRANCH   1   3
BRANCH   1   5
HETATM    5  C3  UNL     1     -33.272   6.526   3.319  1.00 20.00     0.195 C 
HETATM    6 CL6  UNL     1     -33.258   4.966   2.484  1.00 20.00    -0.122 Cl
ENDBRANCH   1   5
TORSDOF 2
ENDMDL
MODEL 5
REMARK VINA RESULT:      -3.6      2.661      2.985
REMARK  2 active torsions:
REMARK  status: ('A' for Active; 'I' for Inactive)
REMARK    1  A    between atoms: C1_1  and  C2_2 
REMARK    2  A    between atoms: C1_1  and  C3_3 
ROOT
HETATM    1  C1  UNL     1     -33.847   5.388   3.406  1.00 20.00     0.168 C 
HETATM    2  O4  UNL     1     -33.369   4.623   2.570  1.00 20.00    -0.294 OA
ENDROOT
BRANCH   1   3
HETATM    3  C2  UNL     1     -33.271   6.766   3.606  1.00 20.00     0.301 C 
HETATM    4  F5  UNL     1     -32.149   6.944   2.859  1.00 20.00    -0.248 F 
ENDBRANCH   1   3
BRANCH   1   5
HETATM    5  C3  UNL     1     -35.024   5.035   4.286  1.00 20.00     0.195 C 
HETATM    6 CL6  UNL     1     -34.688   5.445   5.975  1.00 20.00    -0.122 Cl
ENDBRANCH   1   5
TORSDOF 2
ENDMDL
MODEL 6
REMARK VINA RESULT:      -3.5      1.391      1.537
REMARK  2 active torsions:
REMARK  status: ('A' for Active; 'I' for Inactive)
REMARK    1  A    between atoms: C1_1  and  C2_2 
REMARK    2  A    between atoms: C1_1  and  C3_3 
ROOT
HETATM    1  C1  UNL     1     -34.275   5.763   4.524  1.00 20.00     0.168 C 
HETATM    2  O4  UNL     1     -33.927   6.846   4.055  1.00 20.00    -0.294 OA
ENDROOT
BRANCH   1   3
HETATM    3  C2  UNL     1     -34.712   5.652   5.961  1.00 20.00     0.301 C 
HETATM    4  F5  UNL     1     -34.527   6.824   6.624  1.00 20.00    -0.248 F 
ENDBRANCH   1   3
BRANCH   1   5
HETATM    5  C3  UNL     1     -34.300   4.477   3.729  1.00 20.00     0.195 C 
HETATM    6 CL6  UNL     1     -33.178   4.564   2.363  1.00 20.00    -0.122 Cl
ENDBRANCH   1   5
TORSDOF 2
ENDMDL
MODEL 7
REMARK VINA RESULT:      -3.5      1.752      1.850
REMARK  2 active torsions:
REMARK  status: ('A' for Active; 'I' for Inactive)
REMARK    1  A    between atoms: C1_1  and  C2_2 
REMARK    2  A    between atoms: C1_1  and  C3_3 
ROOT
HETATM    1  C1  UNL     1     -33.989   6.067   4.245  1.00 20.00     0.168 C 
HETATM    2  O4  UNL     1     -33.649   6.982   4.993  1.00 20.00    -0.294 OA
ENDROOT
BRANCH   1   3
HETATM    3  C2  UNL     1     -35.081   5.110   4.648  1.00 20.00     0.301 C 
HETATM    4  F5  UNL     1     -35.195   5.034   6.001  1.00 20.00    -0.248 F 
ENDBRANCH   1   3
BRANCH   1   5
HETATM    5  C3  UNL     1     -33.367   5.819   2.890  1.00 20.00     0.195 C 
HETATM    6 CL6  UNL     1     -32.453   7.237   2.352  1.00 20.00    -0.122 Cl
ENDBRANCH   1   5
TORSDOF 2
ENDMDL
MODEL 8
REMARK VINA RESULT:      -3.5      3.092      3.300
REMARK  2 active torsions:
REMARK  status: ('A' for Active; 'I' for Inactive)
REMARK    1  A    between atoms: C1_1  and  C2_2 
REMARK    2  A    between atoms: C1_1  and  C3_3 
ROOT
HETATM    1  C1  UNL     1     -33.529   6.304   3.822  1.00 20.00     0.168 C 
HETATM    2  O4  UNL     1     -32.793   7.008   3.133  1.00 20.00    -0.294 OA
ENDROOT
BRANCH   1   3
HETATM    3  C2  UNL     1     -34.045   4.989   3.299  1.00 20.00     0.301 C 
HETATM    4  F5  UNL     1     -33.226   4.485   2.338  1.00 20.00    -0.248 F 
ENDBRANCH   1   3
BRANCH   1   5
HETATM    5  C3  UNL     1     -33.974   6.675   5.218  1.00 20.00     0.195 C 
HETATM    6 CL6  UNL     1     -34.784   5.310   6.000  1.00 20.00    -0.122 Cl
ENDBRANCH   1   5
TORSDOF 2
ENDMDL
MODEL 9
REMARK VINA RESULT:      -3.5      2.599      2.902
REMARK  2 active torsions:
REMARK  status: ('A' for Active; 'I' for Inactive)
REMARK    1  A    between atoms: C1_1  and  C2_2 
REMARK    2  A    between atoms: C1_1  and  C3_3 
ROOT
HETATM    1  C1  UNL     1     -35.016   5.072   4.518  1.00 20.00     0.168 C 
HETATM    2  O4  UNL     1     -36.005   5.546   3.963  1.00 20.00    -0.294 OA
ENDROOT
BRANCH   1   3
HETATM    3  C2  UNL     1     -34.086   4.148   3.775  1.00 20.00     0.301 C 
HETATM    4  F5  UNL     1     -33.433   4.804   2.779  1.00 20.00    -0.248 F 
ENDBRANCH   1   3
BRANCH   1   5
HETATM    5  C3  UNL     1     -34.643   5.361   5.955  1.00 20.00     0.195 C 
HETATM    6 CL6  UNL     1     -33.814   6.919   6.085  1.00 20.00    -0.122 Cl
ENDBRANCH   1   5
TORSDOF 2
ENDMDL
