MODEL 1
REMARK VINA RESULT:      -3.8      0.000      0.000
REMARK  2 active torsions:
REMARK  status: ('A' for Active; 'I' for Inactive)
REMARK    1  A    between atoms: C2_2  and  C4_4 
REMARK    2  A    between atoms: C3_3  and  C4_4 
ROOT
HETATM    1  C4  UNL     1     -33.954   6.016   3.549  1.00 20.00     0.127 C 
HETATM    2 CL7  UNL     1     -34.248   4.253   3.642  1.00 20.00    -0.121 Cl
ENDROOT
BRANCH   1   3
HETATM    3  C2  UNL     1     -32.696   6.284   2.730  1.00 20.00     0.164 A 
HETATM    4  C1  UNL     1     -32.572   7.513   1.875  1.00 20.00     0.201 A 
HETATM    5  O5  UNL     1     -31.937   7.418   3.160  1.00 20.00    -0.380 OA
ENDBRANCH   1   3
BRANCH   1   6
HETATM    6  C3  UNL     1     -33.921   6.640   4.945  1.00 20.00     0.137 C 
HETATM    7 CL6  UNL     1     -34.686   5.633   6.198  1.00 20.00    -0.129 Cl
ENDBRANCH   1   6
TORSDOF 2
ENDMDL
MODEL 2
REMARK VINA RESULT:      -3.5      2.372      3.425
REMARK  2 active torsions:
REMARK  status: ('A' for Active; 'I' for Inactive)
REMARK    1  A    between atoms: C2_2  and  C4_4 
REMARK    2  A    between atoms: C3_3  and  C4_4 
ROOT
HETATM    1  C4  UNL     1     -33.076   6.094   3.696  1.00 20.00     0.127 C 
HETATM    2 CL7  UNL     1     -33.537   5.026   2.335  1.00 20.00    -0.121 Cl
ENDROOT
BRANCH   1   3
HETATM    3  C2  UNL     1     -34.306   6.409   4.540  1.00 20.00     0.164 A 
HETATM    4  C1  UNL     1     -34.731   5.505   5.663  1.00 20.00     0.201 A 
HETATM    5  O5  UNL     1     -34.023   6.732   5.905  1.00 20.00    -0.380 OA
ENDBRANCH   1   3
BRANCH   1   6
HETATM    6  C3  UNL     1     -32.343   7.338   3.192  1.00 20.00     0.137 C 
HETATM    7 CL6  UNL     1     -32.541   7.629   1.447  1.00 20.00    -0.129 Cl
ENDBRANCH   1   6
TORSDOF 2
ENDMDL
MODEL 3
REMARK VINA RESULT:      -3.3     16.186     16.637
REMARK  2 active torsions:
REMARK  status: ('A' for Active; 'I' for Inactive)
REMARK    1  A    between atoms: C2_2  and  C4_4 
REMARK    2  A    between atoms: C3_3  and  C4_4 
ROOT
HETATM    1  C4  UNL     1     -24.192  17.715   9.908  1.00 20.00     0.127 C 
HETATM    2 CL7  UNL     1     -24.366  16.230  10.891  1.00 20.00    -0.121 Cl
ENDROOT
BRANCH   1   3
HETATM    3  C2  UNL     1     -22.754  18.217   9.986  1.00 20.00     0.164 A 
HETATM    4  C1  UNL     1     -21.749  17.865   8.925  1.00 20.00     0.201 A 
HETATM    5  O5  UNL     1     -22.393  19.149   8.962  1.00 20.00    -0.380 OA
ENDBRANCH   1   3
BRANCH   1   6
HETATM    6  C3  UNL     1     -25.230  18.764  10.311  1.00 20.00     0.137 C 
HETATM    7 CL6  UNL     1     -25.594  18.780  12.054  1.00 20.00    -0.129 Cl
ENDBRANCH   1   6
TORSDOF 2
ENDMDL
MODEL 4
REMARK VINA RESULT:      -3.3      2.582      3.565
REMARK  2 active torsions:
REMARK  status: ('A' for Active; 'I' for Inactive)
REMARK    1  A    between atoms: C2_2  and  C4_4 
REMARK    2  A    between atoms: C3_3  and  C4_4 
ROOT
HETATM    1  C4  UNL     1     -33.935   6.682   4.063  1.00 20.00     0.127 C 
HETATM    2 CL7  UNL     1     -33.810   6.785   5.845  1.00 20.00    -0.121 Cl
ENDROOT
BRANCH   1   3
HETATM    3  C2  UNL     1     -34.650   5.394   3.672  1.00 20.00     0.164 A 
HETATM    4  C1  UNL     1     -34.074   4.049   4.017  1.00 20.00     0.201 A 
HETATM    5  O5  UNL     1     -35.146   4.631   4.776  1.00 20.00    -0.380 OA
ENDBRANCH   1   3
BRANCH   1   6
HETATM    6  C3  UNL     1     -32.562   6.845   3.407  1.00 20.00     0.137 C 
HETATM    7 CL6  UNL     1     -32.623   7.602   1.796  1.00 20.00    -0.129 Cl
ENDBRANCH   1   6
TORSDOF 2
ENDMDL
MODEL 5
REMARK VINA RESULT:      -3.2      9.437      9.918
REMARK  2 active torsions:
REMARK  status: ('A' for Active; 'I' for Inactive)
REMARK    1  A    between atoms: C2_2  and  C4_4 
REMARK    2  A    between atoms: C3_3  and  C4_4 
ROOT
HETATM    1  C4  UNL     1     -41.529   6.641  -0.130  1.00 20.00     0.127 C 
HETATM    2 CL7  UNL     1     -40.838   5.312  -1.108  1.00 20.00    -0.121 Cl
ENDROOT
BRANCH   1   3
HETATM    3  C2  UNL     1     -42.955   6.289   0.281  1.00 20.00     0.164 A 
HETATM    4  C1  UNL     1     -43.235   5.538   1.552  1.00 20.00     0.201 A 
HETATM    5  O5  UNL     1     -43.417   6.960   1.457  1.00 20.00    -0.380 OA
ENDBRANCH   1   3
BRANCH   1   6
HETATM    6  C3  UNL     1     -41.414   7.979  -0.863  1.00 20.00     0.137 C 
HETATM    7 CL6  UNL     1     -41.376   9.390   0.221  1.00 20.00    -0.129 Cl
ENDBRANCH   1   6
TORSDOF 2
ENDMDL
MODEL 6
REMARK VINA RESULT:      -3.2     11.342     11.900
REMARK  2 active torsions:
REMARK  status: ('A' for Active; 'I' for Inactive)
REMARK    1  A    between atoms: C2_2  and  C4_4 
REMARK    2  A    between atoms: C3_3  and  C4_4 
ROOT
HETATM    1  C4  UNL     1     -33.928  14.462  -4.441  1.00 20.00     0.127 C 
HETATM    2 CL7  UNL     1     -34.109  14.908  -6.164  1.00 20.00    -0.121 Cl
ENDROOT
BRANCH   1   3
HETATM    3  C2  UNL     1     -35.252  13.929  -3.906  1.00 20.00     0.164 A 
HETATM    4  C1  UNL     1     -36.491  13.929  -4.756  1.00 20.00     0.201 A 
HETATM    5  O5  UNL     1     -35.716  12.737  -4.548  1.00 20.00    -0.380 OA
ENDBRANCH   1   3
BRANCH   1   6
HETATM    6  C3  UNL     1     -33.364  15.630  -3.629  1.00 20.00     0.137 C 
HETATM    7 CL6  UNL     1     -34.367  16.079  -2.228  1.00 20.00    -0.129 Cl
ENDBRANCH   1   6
TORSDOF 2
ENDMDL
MODEL 7
REMARK VINA RESULT:      -3.1     16.150     16.685
REMARK  2 active torsions:
REMARK  status: ('A' for Active; 'I' for Inactive)
REMARK    1  A    between atoms: C2_2  and  C4_4 
REMARK    2  A    between atoms: C3_3  and  C4_4 
ROOT
HETATM    1  C4  UNL     1     -23.686  18.576   9.769  1.00 20.00     0.127 C 
HETATM    2 CL7  UNL     1     -25.051  18.475  10.922  1.00 20.00    -0.121 Cl
ENDROOT
BRANCH   1   3
HETATM    3  C2  UNL     1     -24.145  18.125   8.388  1.00 20.00     0.164 A 
HETATM    4  C1  UNL     1     -24.548  19.122   7.338  1.00 20.00     0.201 A 
HETATM    5  O5  UNL     1     -23.262  18.484   7.321  1.00 20.00    -0.380 OA
ENDBRANCH   1   3
BRANCH   1   6
HETATM    6  C3  UNL     1     -22.470  17.810  10.292  1.00 20.00     0.137 C 
HETATM    7 CL6  UNL     1     -22.368  17.752  12.069  1.00 20.00    -0.129 Cl
ENDBRANCH   1   6
TORSDOF 2
ENDMDL
MODEL 8
REMARK VINA RESULT:      -3.1      9.466      9.783
REMARK  2 active torsions:
REMARK  status: ('A' for Active; 'I' for Inactive)
REMARK    1  A    between atoms: C2_2  and  C4_4 
REMARK    2  A    between atoms: C3_3  and  C4_4 
ROOT
HETATM    1  C4  UNL     1     -42.328   6.692  -0.457  1.00 20.00     0.127 C 
HETATM    2 CL7  UNL     1     -40.858   5.783  -0.921  1.00 20.00    -0.121 Cl
ENDROOT
BRANCH   1   3
HETATM    3  C2  UNL     1     -41.959   7.794   0.530  1.00 20.00     0.164 A 
HETATM    4  C1  UNL     1     -41.480   9.137   0.053  1.00 20.00     0.201 A 
HETATM    5  O5  UNL     1     -42.829   8.931   0.503  1.00 20.00    -0.380 OA
ENDBRANCH   1   3
BRANCH   1   6
HETATM    6  C3  UNL     1     -43.416   5.748   0.056  1.00 20.00     0.137 C 
HETATM    7 CL6  UNL     1     -43.417   5.549   1.826  1.00 20.00    -0.129 Cl
ENDBRANCH   1   6
TORSDOF 2
ENDMDL
MODEL 9
REMARK VINA RESULT:      -3.1     15.766     16.250
REMARK  2 active torsions:
REMARK  status: ('A' for Active; 'I' for Inactive)
REMARK    1  A    between atoms: C2_2  and  C4_4 
REMARK    2  A    between atoms: C3_3  and  C4_4 
ROOT
HETATM    1  C4  UNL     1     -23.434  17.972  10.225  1.00 20.00     0.127 C 
HETATM    2 CL7  UNL     1     -25.007  18.820  10.136  1.00 20.00    -0.121 Cl
ENDROOT
BRANCH   1   3
HETATM    3  C2  UNL     1     -23.173  17.236   8.916  1.00 20.00     0.164 A 
HETATM    4  C1  UNL     1     -22.052  17.647   8.003  1.00 20.00     0.201 A 
HETATM    5  O5  UNL     1     -21.939  16.512   8.877  1.00 20.00    -0.380 OA
ENDBRANCH   1   3
BRANCH   1   6
HETATM    6  C3  UNL     1     -23.366  17.071  11.460  1.00 20.00     0.137 C 
HETATM    7 CL6  UNL     1     -24.599  15.786  11.477  1.00 20.00    -0.129 Cl
ENDBRANCH   1   6
TORSDOF 2
ENDMDL
