MODEL 1
REMARK VINA RESULT:      -5.2      0.000      0.000
REMARK  0 active torsions:
REMARK  status: ('A' for Active; 'I' for Inactive)
ROOT
HETATM    1  C1  UNL     1     -33.979   6.257   6.245  1.00 20.00    -0.029 C 
HETATM    2  C2  UNL     1     -33.431   7.061   5.328  1.00 20.00    -0.023 C 
HETATM    3  C3  UNL     1     -33.940   4.537   3.545  1.00 20.00     0.264 C 
HETATM    4  C4  UNL     1     -35.041   5.388   5.655  1.00 20.00     0.042 C 
HETATM    5  C5  UNL     1     -33.080   6.559   2.871  1.00 20.00     0.188 C 
HETATM    6  C6  UNL     1     -34.056   6.871   3.979  1.00 20.00     0.046 C 
HETATM    7  C7  UNL     1     -34.848   5.582   4.151  1.00 20.00     0.098 C 
HETATM    8  O8  UNL     1     -34.087   3.327   3.638  1.00 20.00    -0.265 OA
HETATM    9  O9  UNL     1     -32.920   5.136   2.863  1.00 20.00    -0.320 OA
ENDROOT
TORSDOF 0
ENDMDL
MODEL 2
REMARK VINA RESULT:      -4.9      1.799      3.370
REMARK  0 active torsions:
REMARK  status: ('A' for Active; 'I' for Inactive)
ROOT
HETATM    1  C1  UNL     1     -33.204   4.656   2.823  1.00 20.00    -0.029 C 
HETATM    2  C2  UNL     1     -34.107   4.164   3.676  1.00 20.00    -0.023 C 
HETATM    3  C3  UNL     1     -33.465   6.865   5.125  1.00 20.00     0.264 C 
HETATM    4  C4  UNL     1     -33.301   6.142   2.709  1.00 20.00     0.042 C 
HETATM    5  C5  UNL     1     -35.005   5.283   5.763  1.00 20.00     0.188 C 
HETATM    6  C6  UNL     1     -34.971   5.244   4.254  1.00 20.00     0.046 C 
HETATM    7  C7  UNL     1     -34.227   6.515   3.867  1.00 20.00     0.098 C 
HETATM    8  O8  UNL     1     -32.583   7.706   5.211  1.00 20.00    -0.265 OA
HETATM    9  O9  UNL     1     -33.909   6.108   6.171  1.00 20.00    -0.320 OA
ENDROOT
TORSDOF 0
ENDMDL
MODEL 3
REMARK VINA RESULT:      -4.7     11.773     12.200
REMARK  0 active torsions:
REMARK  status: ('A' for Active; 'I' for Inactive)
ROOT
HETATM    1  C1  UNL     1     -35.194  16.058  -2.167  1.00 20.00    -0.029 C 
HETATM    2  C2  UNL     1     -33.928  16.042  -2.595  1.00 20.00    -0.023 C 
HETATM    3  C3  UNL     1     -35.057  13.650  -4.272  1.00 20.00     0.264 C 
HETATM    4  C4  UNL     1     -36.150  15.689  -3.253  1.00 20.00     0.042 C 
HETATM    5  C5  UNL     1     -32.928  14.511  -4.346  1.00 20.00     0.188 C 
HETATM    6  C6  UNL     1     -33.836  15.678  -4.046  1.00 20.00     0.046 C 
HETATM    7  C7  UNL     1     -35.232  15.150  -4.351  1.00 20.00     0.098 C 
HETATM    8  O8  UNL     1     -35.962  12.829  -4.259  1.00 20.00    -0.265 OA
HETATM    9  O9  UNL     1     -33.730  13.332  -4.226  1.00 20.00    -0.320 OA
ENDROOT
TORSDOF 0
ENDMDL
MODEL 4
REMARK VINA RESULT:      -4.6     11.884     13.056
REMARK  0 active torsions:
REMARK  status: ('A' for Active; 'I' for Inactive)
ROOT
HETATM    1  C1  UNL     1     -33.837  15.813  -3.774  1.00 20.00    -0.029 C 
HETATM    2  C2  UNL     1     -34.263  16.305  -4.941  1.00 20.00    -0.023 C 
HETATM    3  C3  UNL     1     -36.004  13.703  -4.826  1.00 20.00     0.264 C 
HETATM    4  C4  UNL     1     -34.934  15.124  -3.030  1.00 20.00     0.042 C 
HETATM    5  C5  UNL     1     -36.053  15.333  -6.447  1.00 20.00     0.188 C 
HETATM    6  C6  UNL     1     -35.724  16.041  -5.155  1.00 20.00     0.046 C 
HETATM    7  C7  UNL     1     -36.044  15.016  -4.077  1.00 20.00     0.098 C 
HETATM    8  O8  UNL     1     -36.012  12.593  -4.317  1.00 20.00    -0.265 OA
HETATM    9  O9  UNL     1     -35.964  13.931  -6.172  1.00 20.00    -0.320 OA
ENDROOT
TORSDOF 0
ENDMDL
MODEL 5
REMARK VINA RESULT:      -4.5      1.837      2.944
REMARK  0 active torsions:
REMARK  status: ('A' for Active; 'I' for Inactive)
ROOT
HETATM    1  C1  UNL     1     -34.024   3.945   4.073  1.00 20.00    -0.029 C 
HETATM    2  C2  UNL     1     -34.468   4.499   5.204  1.00 20.00    -0.023 C 
HETATM    3  C3  UNL     1     -32.950   6.960   4.003  1.00 20.00     0.264 C 
HETATM    4  C4  UNL     1     -34.010   4.924   2.945  1.00 20.00     0.042 C 
HETATM    5  C5  UNL     1     -34.166   6.899   5.953  1.00 20.00     0.188 C 
HETATM    6  C6  UNL     1     -34.845   5.936   5.009  1.00 20.00     0.046 C 
HETATM    7  C7  UNL     1     -34.243   6.261   3.649  1.00 20.00     0.098 C 
HETATM    8  O8  UNL     1     -32.049   7.226   3.222  1.00 20.00    -0.265 OA
HETATM    9  O9  UNL     1     -32.928   7.265   5.334  1.00 20.00    -0.320 OA
ENDROOT
TORSDOF 0
ENDMDL
MODEL 6
REMARK VINA RESULT:      -4.4     16.372     17.087
REMARK  0 active torsions:
REMARK  status: ('A' for Active; 'I' for Inactive)
ROOT
HETATM    1  C1  UNL     1     -24.455  17.258  10.549  1.00 20.00    -0.029 C 
HETATM    2  C2  UNL     1     -23.145  17.013  10.453  1.00 20.00    -0.023 C 
HETATM    3  C3  UNL     1     -23.576  18.513   7.737  1.00 20.00     0.264 C 
HETATM    4  C4  UNL     1     -24.819  18.572   9.938  1.00 20.00     0.042 C 
HETATM    5  C5  UNL     1     -21.591  17.725   8.585  1.00 20.00     0.188 C 
HETATM    6  C6  UNL     1     -22.417  18.137   9.779  1.00 20.00     0.046 C 
HETATM    7  C7  UNL     1     -23.549  18.962   9.181  1.00 20.00     0.098 C 
HETATM    8  O8  UNL     1     -24.455  18.772   6.929  1.00 20.00    -0.265 OA
HETATM    9  O9  UNL     1     -22.465  17.772   7.453  1.00 20.00    -0.320 OA
ENDROOT
TORSDOF 0
ENDMDL
MODEL 7
REMARK VINA RESULT:      -4.4      8.771      9.608
REMARK  0 active torsions:
REMARK  status: ('A' for Active; 'I' for Inactive)
ROOT
HETATM    1  C1  UNL     1     -42.564   8.805  -0.404  1.00 20.00    -0.029 C 
HETATM    2  C2  UNL     1     -43.417   8.113   0.357  1.00 20.00    -0.023 C 
HETATM    3  C3  UNL     1     -41.474   5.795  -0.455  1.00 20.00     0.264 C 
HETATM    4  C4  UNL     1     -41.165   8.297  -0.270  1.00 20.00     0.042 C 
HETATM    5  C5  UNL     1     -43.286   5.656   0.952  1.00 20.00     0.188 C 
HETATM    6  C6  UNL     1     -42.720   7.042   1.141  1.00 20.00     0.046 C 
HETATM    7  C7  UNL     1     -41.350   6.977   0.480  1.00 20.00     0.098 C 
HETATM    8  O8  UNL     1     -40.675   5.493  -1.328  1.00 20.00    -0.265 OA
HETATM    9  O9  UNL     1     -42.614   5.095  -0.181  1.00 20.00    -0.320 OA
ENDROOT
TORSDOF 0
ENDMDL
MODEL 8
REMARK VINA RESULT:      -4.3      8.905      9.575
REMARK  0 active torsions:
REMARK  status: ('A' for Active; 'I' for Inactive)
ROOT
HETATM    1  C1  UNL     1     -41.916   9.097   0.181  1.00 20.00    -0.029 C 
HETATM    2  C2  UNL     1     -41.116   8.364  -0.599  1.00 20.00    -0.023 C 
HETATM    3  C3  UNL     1     -42.702   6.056   0.804  1.00 20.00     0.264 C 
HETATM    4  C4  UNL     1     -43.266   8.474   0.329  1.00 20.00     0.042 C 
HETATM    5  C5  UNL     1     -41.098   5.842  -0.827  1.00 20.00     0.188 C 
HETATM    6  C6  UNL     1     -41.811   7.140  -1.115  1.00 20.00     0.046 C 
HETATM    7  C7  UNL     1     -43.064   7.075  -0.253  1.00 20.00     0.098 C 
HETATM    8  O8  UNL     1     -43.341   5.830   1.821  1.00 20.00    -0.265 OA
HETATM    9  O9  UNL     1     -41.551   5.408   0.459  1.00 20.00    -0.320 OA
ENDROOT
TORSDOF 0
ENDMDL
MODEL 9
REMARK VINA RESULT:      -4.3     12.238     13.010
REMARK  0 active torsions:
REMARK  status: ('A' for Active; 'I' for Inactive)
ROOT
HETATM    1  C1  UNL     1     -34.030  16.229  -2.891  1.00 20.00    -0.029 C 
HETATM    2  C2  UNL     1     -35.157  15.521  -2.781  1.00 20.00    -0.023 C 
HETATM    3  C3  UNL     1     -34.441  14.867  -5.759  1.00 20.00     0.264 C 
HETATM    4  C4  UNL     1     -33.034  15.551  -3.774  1.00 20.00     0.042 C 
HETATM    5  C5  UNL     1     -36.211  14.043  -4.546  1.00 20.00     0.188 C 
HETATM    6  C6  UNL     1     -35.088  14.241  -3.558  1.00 20.00     0.046 C 
HETATM    7  C7  UNL     1     -33.857  14.442  -4.431  1.00 20.00     0.098 C 
HETATM    8  O8  UNL     1     -33.810  15.321  -6.701  1.00 20.00    -0.265 OA
HETATM    9  O9  UNL     1     -35.792  14.665  -5.765  1.00 20.00    -0.320 OA
ENDROOT
TORSDOF 0
ENDMDL
