MODEL 1
REMARK VINA RESULT:      -4.5      0.000      0.000
REMARK  1 active torsions:
REMARK  status: ('A' for Active; 'I' for Inactive)
REMARK    1  A    between atoms: C3_3  and  C6_6 
ROOT
HETATM    1  C1  UNL     1     -26.091  19.010  11.572  1.00 20.00    -0.030 C 
HETATM    2  C2  UNL     1     -25.105  18.343  12.185  1.00 20.00    -0.026 C 
HETATM    3  C4  UNL     1     -26.116  19.263  10.099  1.00 20.00     0.031 C 
HETATM    4  C5  UNL     1     -23.928  17.742  11.461  1.00 20.00     0.014 C 
HETATM    5  C6  UNL     1     -24.090  17.754   9.919  1.00 20.00     0.058 C 
HETATM    6  C7  UNL     1     -24.748  19.058   9.423  1.00 20.00    -0.004 C 
HETATM    7  C8  UNL     1     -23.690  16.313  11.966  1.00 20.00     0.015 C 
HETATM    8  C9  UNL     1     -24.926  19.078   7.901  1.00 20.00     0.011 C 
ENDROOT
BRANCH   5   9
HETATM    9  C3  UNL     1     -22.729  17.596   9.300  1.00 20.00     0.236 C 
HETATM   10  O10 UNL     1     -22.409  16.635   8.608  1.00 20.00    -0.306 OA
ENDBRANCH   5   9
TORSDOF 1
ENDMDL
MODEL 2
REMARK VINA RESULT:      -4.4      1.546      2.608
REMARK  1 active torsions:
REMARK  status: ('A' for Active; 'I' for Inactive)
REMARK    1  A    between atoms: C3_3  and  C6_6 
ROOT
HETATM    1  C1  UNL     1     -25.393  19.249   8.897  1.00 20.00    -0.030 C 
HETATM    2  C2  UNL     1     -25.774  19.217  10.180  1.00 20.00    -0.026 C 
HETATM    3  C4  UNL     1     -24.151  18.585   8.395  1.00 20.00     0.031 C 
HETATM    4  C5  UNL     1     -25.019  18.480  11.257  1.00 20.00     0.014 C 
HETATM    5  C6  UNL     1     -23.900  17.564  10.699  1.00 20.00     0.058 C 
HETATM    6  C7  UNL     1     -23.160  18.221   9.515  1.00 20.00    -0.004 C 
HETATM    7  C8  UNL     1     -26.003  17.669  12.110  1.00 20.00     0.015 C 
HETATM    8  C9  UNL     1     -22.058  17.320   8.946  1.00 20.00     0.011 C 
ENDROOT
BRANCH   5   9
HETATM    9  C3  UNL     1     -22.933  17.270  11.811  1.00 20.00     0.236 C 
HETATM   10  O10 UNL     1     -22.221  18.123  12.332  1.00 20.00    -0.306 OA
ENDBRANCH   5   9
TORSDOF 1
ENDMDL
MODEL 3
REMARK VINA RESULT:      -4.3     16.396     18.013
REMARK  1 active torsions:
REMARK  status: ('A' for Active; 'I' for Inactive)
REMARK    1  A    between atoms: C3_3  and  C6_6 
ROOT
HETATM    1  C1  UNL     1     -34.349  16.743  -2.097  1.00 20.00    -0.030 C 
HETATM    2  C2  UNL     1     -35.670  16.556  -2.214  1.00 20.00    -0.026 C 
HETATM    3  C4  UNL     1     -33.345  16.050  -2.963  1.00 20.00     0.031 C 
HETATM    4  C5  UNL     1     -36.299  15.659  -3.248  1.00 20.00     0.014 C 
HETATM    5  C6  UNL     1     -35.292  15.164  -4.319  1.00 20.00     0.058 C 
HETATM    6  C7  UNL     1     -33.919  14.828  -3.701  1.00 20.00    -0.004 C 
HETATM    7  C8  UNL     1     -37.476  16.385  -3.911  1.00 20.00     0.015 C 
HETATM    8  C9  UNL     1     -32.910  14.350  -4.752  1.00 20.00     0.011 C 
ENDROOT
BRANCH   5   9
HETATM    9  C3  UNL     1     -35.870  13.947  -4.984  1.00 20.00     0.236 C 
HETATM   10  O10 UNL     1     -35.941  12.849  -4.441  1.00 20.00    -0.306 OA
ENDBRANCH   5   9
TORSDOF 1
ENDMDL
MODEL 4
REMARK VINA RESULT:      -4.2     17.019     18.724
REMARK  1 active torsions:
REMARK  status: ('A' for Active; 'I' for Inactive)
REMARK    1  A    between atoms: C3_3  and  C6_6 
ROOT
HETATM    1  C1  UNL     1     -33.277  15.455  -3.839  1.00 20.00    -0.030 C 
HETATM    2  C2  UNL     1     -34.110  15.710  -2.822  1.00 20.00    -0.026 C 
HETATM    3  C4  UNL     1     -33.748  15.086  -5.210  1.00 20.00     0.031 C 
HETATM    4  C5  UNL     1     -35.612  15.691  -2.947  1.00 20.00     0.014 C 
HETATM    5  C6  UNL     1     -36.100  15.591  -4.416  1.00 20.00     0.058 C 
HETATM    6  C7  UNL     1     -35.219  14.635  -5.248  1.00 20.00    -0.004 C 
HETATM    7  C8  UNL     1     -36.199  16.936  -2.270  1.00 20.00     0.015 C 
HETATM    8  C9  UNL     1     -35.683  14.537  -6.705  1.00 20.00     0.011 C 
ENDROOT
BRANCH   5   9
HETATM    9  C3  UNL     1     -37.522  15.106  -4.409  1.00 20.00     0.236 C 
HETATM   10  O10 UNL     1     -37.833  13.926  -4.288  1.00 20.00    -0.306 OA
ENDBRANCH   5   9
TORSDOF 1
ENDMDL
MODEL 5
REMARK VINA RESULT:      -4.2     17.359     19.174
REMARK  1 active torsions:
REMARK  status: ('A' for Active; 'I' for Inactive)
REMARK    1  A    between atoms: C3_3  and  C6_6 
ROOT
HETATM    1  C1  UNL     1     -33.158  14.806  -5.049  1.00 20.00    -0.030 C 
HETATM    2  C2  UNL     1     -33.687  14.757  -3.820  1.00 20.00    -0.026 C 
HETATM    3  C4  UNL     1     -33.979  14.983  -6.287  1.00 20.00     0.031 C 
HETATM    4  C5  UNL     1     -35.159  14.910  -3.537  1.00 20.00     0.014 C 
HETATM    5  C6  UNL     1     -35.973  15.372  -4.774  1.00 20.00     0.058 C 
HETATM    6  C7  UNL     1     -35.476  14.698  -6.070  1.00 20.00    -0.004 C 
HETATM    7  C8  UNL     1     -35.360  15.881  -2.368  1.00 20.00     0.015 C 
HETATM    8  C9  UNL     1     -36.263  15.156  -7.303  1.00 20.00     0.011 C 
ENDROOT
BRANCH   5   9
HETATM    9  C3  UNL     1     -37.419  15.036  -4.541  1.00 20.00     0.236 C 
HETATM   10  O10 UNL     1     -37.831  13.890  -4.393  1.00 20.00    -0.306 OA
ENDBRANCH   5   9
TORSDOF 1
ENDMDL
MODEL 6
REMARK VINA RESULT:      -4.1     16.236     16.591
REMARK  1 active torsions:
REMARK  status: ('A' for Active; 'I' for Inactive)
REMARK    1  A    between atoms: C3_3  and  C6_6 
ROOT
HETATM    1  C1  UNL     1     -34.860   5.109   5.272  1.00 20.00    -0.030 C 
HETATM    2  C2  UNL     1     -34.511   6.393   5.429  1.00 20.00    -0.026 C 
HETATM    3  C4  UNL     1     -34.403   4.271   4.121  1.00 20.00     0.031 C 
HETATM    4  C5  UNL     1     -33.592   7.129   4.488  1.00 20.00     0.014 C 
HETATM    5  C6  UNL     1     -32.896   6.197   3.463  1.00 20.00     0.058 C 
HETATM    6  C7  UNL     1     -33.849   5.099   2.948  1.00 20.00    -0.004 C 
HETATM    7  C8  UNL     1     -32.551   7.913   5.296  1.00 20.00     0.015 C 
HETATM    8  C9  UNL     1     -33.169   4.162   1.942  1.00 20.00     0.011 C 
ENDROOT
BRANCH   5   9
HETATM    9  C3  UNL     1     -32.410   7.037   2.315  1.00 20.00     0.236 C 
HETATM   10  O10 UNL     1     -33.078   7.928   1.800  1.00 20.00    -0.306 OA
ENDBRANCH   5   9
TORSDOF 1
ENDMDL
MODEL 7
REMARK VINA RESULT:      -4.1     16.448     18.095
REMARK  1 active torsions:
REMARK  status: ('A' for Active; 'I' for Inactive)
REMARK    1  A    between atoms: C3_3  and  C6_6 
ROOT
HETATM    1  C1  UNL     1     -34.194  16.662  -2.089  1.00 20.00    -0.030 C 
HETATM    2  C2  UNL     1     -33.293  16.208  -2.971  1.00 20.00    -0.026 C 
HETATM    3  C4  UNL     1     -35.670  16.571  -2.307  1.00 20.00     0.031 C 
HETATM    4  C5  UNL     1     -33.660  15.523  -4.262  1.00 20.00     0.014 C 
HETATM    5  C6  UNL     1     -35.168  15.174  -4.360  1.00 20.00     0.058 C 
HETATM    6  C7  UNL     1     -36.054  16.293  -3.772  1.00 20.00    -0.004 C 
HETATM    7  C8  UNL     1     -32.804  14.262  -4.435  1.00 20.00     0.015 C 
HETATM    8  C9  UNL     1     -37.546  15.955  -3.851  1.00 20.00     0.011 C 
ENDROOT
BRANCH   5   9
HETATM    9  C3  UNL     1     -35.509  14.954  -5.807  1.00 20.00     0.236 C 
HETATM   10  O10 UNL     1     -35.932  13.891  -6.247  1.00 20.00    -0.306 OA
ENDBRANCH   5   9
TORSDOF 1
ENDMDL
MODEL 8
REMARK VINA RESULT:      -4.1     12.327     14.087
REMARK  1 active torsions:
REMARK  status: ('A' for Active; 'I' for Inactive)
REMARK    1  A    between atoms: C3_3  and  C6_6 
ROOT
HETATM    1  C1  UNL     1     -35.669  17.273   0.021  1.00 20.00    -0.030 C 
HETATM    2  C2  UNL     1     -35.063  18.109   0.874  1.00 20.00    -0.026 C 
HETATM    3  C4  UNL     1     -35.022  16.769  -1.230  1.00 20.00     0.031 C 
HETATM    4  C5  UNL     1     -33.652  18.607   0.694  1.00 20.00     0.014 C 
HETATM    5  C6  UNL     1     -32.885  17.873  -0.436  1.00 20.00     0.058 C 
HETATM    6  C7  UNL     1     -33.791  17.591  -1.653  1.00 20.00    -0.004 C 
HETATM    7  C8  UNL     1     -32.893  18.491   2.022  1.00 20.00     0.015 C 
HETATM    8  C9  UNL     1     -33.049  16.854  -2.773  1.00 20.00     0.011 C 
ENDROOT
BRANCH   5   9
HETATM    9  C3  UNL     1     -31.720  18.728  -0.849  1.00 20.00     0.236 C 
HETATM   10  O10 UNL     1     -30.552  18.440  -0.610  1.00 20.00    -0.306 OA
ENDBRANCH   5   9
TORSDOF 1
ENDMDL
MODEL 9
REMARK VINA RESULT:      -4.0     16.255     16.782
REMARK  1 active torsions:
REMARK  status: ('A' for Active; 'I' for Inactive)
REMARK    1  A    between atoms: C3_3  and  C6_6 
ROOT
HETATM    1  C1  UNL     1     -31.989   7.557   3.054  1.00 20.00    -0.030 C 
HETATM    2  C2  UNL     1     -32.480   6.635   2.216  1.00 20.00    -0.026 C 
HETATM    3  C4  UNL     1     -32.426   7.681   4.480  1.00 20.00     0.031 C 
HETATM    4  C5  UNL     1     -33.498   5.598   2.617  1.00 20.00     0.014 C 
HETATM    5  C6  UNL     1     -33.739   5.542   4.148  1.00 20.00     0.058 C 
HETATM    6  C7  UNL     1     -33.747   6.950   4.778  1.00 20.00    -0.004 C 
HETATM    7  C8  UNL     1     -33.065   4.224   2.090  1.00 20.00     0.015 C 
HETATM    8  C9  UNL     1     -33.972   6.908   6.294  1.00 20.00     0.011 C 
ENDROOT
BRANCH   5   9
HETATM    9  C3  UNL     1     -35.057   4.861   4.393  1.00 20.00     0.236 C 
HETATM   10  O10 UNL     1     -36.134   5.325   4.034  1.00 20.00    -0.306 OA
ENDBRANCH   5   9
TORSDOF 1
ENDMDL
