MODEL 1
REMARK VINA RESULT:      -3.6      0.000      0.000
REMARK  1 active torsions:
REMARK  status: ('A' for Active; 'I' for Inactive)
REMARK    1  A    between atoms: C1_1  and  C3_3 
ROOT
HETATM    1  C1  UNL     1     -34.071   5.414   3.443  1.00 20.00     0.000 C 
HETATM    2  C2  UNL     1     -33.380   6.550   3.575  1.00 20.00     0.081 C 
HETATM    3 CL4  UNL     1     -32.465   7.239   2.302  1.00 20.00    -0.097 Cl
ENDROOT
BRANCH   1   4
HETATM    4  C3  UNL     1     -34.877   4.813   4.546  1.00 20.00     0.142 C 
HETATM    5 CL5  UNL     1     -34.600   5.709   6.055  1.00 20.00    -0.126 Cl
ENDBRANCH   1   4
TORSDOF 1
ENDMDL
MODEL 2
REMARK VINA RESULT:      -3.3      1.382      3.700
REMARK  1 active torsions:
REMARK  status: ('A' for Active; 'I' for Inactive)
REMARK    1  A    between atoms: C1_1  and  C3_3 
ROOT
HETATM    1  C1  UNL     1     -33.287   6.198   3.030  1.00 20.00     0.000 C 
HETATM    2  C2  UNL     1     -34.015   6.213   4.151  1.00 20.00     0.081 C 
HETATM    3 CL4  UNL     1     -35.203   5.032   4.508  1.00 20.00    -0.097 Cl
ENDROOT
BRANCH   1   4
HETATM    4  C3  UNL     1     -32.245   7.219   2.717  1.00 20.00     0.142 C 
HETATM    5 CL5  UNL     1     -32.644   8.044   1.195  1.00 20.00    -0.126 Cl
ENDBRANCH   1   4
TORSDOF 1
ENDMDL
MODEL 3
REMARK VINA RESULT:      -3.3      0.950      3.230
REMARK  1 active torsions:
REMARK  status: ('A' for Active; 'I' for Inactive)
REMARK    1  A    between atoms: C1_1  and  C3_3 
ROOT
HETATM    1  C1  UNL     1     -34.033   4.972   3.668  1.00 20.00     0.000 C 
HETATM    2  C2  UNL     1     -34.283   5.880   4.616  1.00 20.00     0.081 C 
HETATM    3 CL4  UNL     1     -35.055   5.497   6.095  1.00 20.00    -0.097 Cl
ENDROOT
BRANCH   1   4
HETATM    4  C3  UNL     1     -33.352   5.299   2.381  1.00 20.00     0.142 C 
HETATM    5 CL5  UNL     1     -32.600   6.905   2.485  1.00 20.00    -0.126 Cl
ENDBRANCH   1   4
TORSDOF 1
ENDMDL
MODEL 4
REMARK VINA RESULT:      -2.8      8.791      8.913
REMARK  1 active torsions:
REMARK  status: ('A' for Active; 'I' for Inactive)
REMARK    1  A    between atoms: C1_1  and  C3_3 
ROOT
HETATM    1  C1  UNL     1     -41.642   7.138   0.713  1.00 20.00     0.000 C 
HETATM    2  C2  UNL     1     -41.557   8.162  -0.142  1.00 20.00     0.081 C 
HETATM    3 CL4  UNL     1     -41.258   9.772   0.356  1.00 20.00    -0.097 Cl
ENDROOT
BRANCH   1   4
HETATM    4  C3  UNL     1     -41.894   5.731   0.283  1.00 20.00     0.142 C 
HETATM    5 CL5  UNL     1     -40.854   5.325  -1.099  1.00 20.00    -0.126 Cl
ENDBRANCH   1   4
TORSDOF 1
ENDMDL
MODEL 5
REMARK VINA RESULT:      -2.8      2.583      3.122
REMARK  1 active torsions:
REMARK  status: ('A' for Active; 'I' for Inactive)
REMARK    1  A    between atoms: C1_1  and  C3_3 
ROOT
HETATM    1  C1  UNL     1     -32.578   7.355   1.768  1.00 20.00     0.000 C 
HETATM    2  C2  UNL     1     -32.905   8.529   1.221  1.00 20.00     0.081 C 
HETATM    3 CL4  UNL     1     -33.298   8.710  -0.436  1.00 20.00    -0.097 Cl
ENDROOT
BRANCH   1   4
HETATM    4  C3  UNL     1     -32.243   7.190   3.213  1.00 20.00     0.142 C 
HETATM    5 CL5  UNL     1     -33.682   6.662   4.111  1.00 20.00    -0.126 Cl
ENDBRANCH   1   4
TORSDOF 1
ENDMDL
MODEL 6
REMARK VINA RESULT:      -2.6      8.847      8.946
REMARK  1 active torsions:
REMARK  status: ('A' for Active; 'I' for Inactive)
REMARK    1  A    between atoms: C1_1  and  C3_3 
ROOT
HETATM    1  C1  UNL     1     -41.321   7.020   0.464  1.00 20.00     0.000 C 
HETATM    2  C2  UNL     1     -42.024   8.153   0.383  1.00 20.00     0.081 C 
HETATM    3 CL4  UNL     1     -41.298   9.704   0.375  1.00 20.00    -0.097 Cl
ENDROOT
BRANCH   1   4
HETATM    4  C3  UNL     1     -41.948   5.665   0.461  1.00 20.00     0.142 C 
HETATM    5 CL5  UNL     1     -43.227   5.588   1.693  1.00 20.00    -0.126 Cl
ENDBRANCH   1   4
TORSDOF 1
ENDMDL
MODEL 7
REMARK VINA RESULT:      -2.6      9.028      9.218
REMARK  1 active torsions:
REMARK  status: ('A' for Active; 'I' for Inactive)
REMARK    1  A    between atoms: C1_1  and  C3_3 
ROOT
HETATM    1  C1  UNL     1     -41.528   7.239   0.138  1.00 20.00     0.000 C 
HETATM    2  C2  UNL     1     -41.691   6.476  -0.947  1.00 20.00     0.081 C 
HETATM    3 CL4  UNL     1     -40.817   5.028  -1.209  1.00 20.00    -0.097 Cl
ENDROOT
BRANCH   1   4
HETATM    4  C3  UNL     1     -42.294   8.498   0.376  1.00 20.00     0.142 C 
HETATM    5 CL5  UNL     1     -41.183   9.883   0.420  1.00 20.00    -0.126 Cl
ENDBRANCH   1   4
TORSDOF 1
ENDMDL
MODEL 8
REMARK VINA RESULT:      -2.6      9.038      9.581
REMARK  1 active torsions:
REMARK  status: ('A' for Active; 'I' for Inactive)
REMARK    1  A    between atoms: C1_1  and  C3_3 
ROOT
HETATM    1  C1  UNL     1     -41.684   6.950   0.132  1.00 20.00     0.000 C 
HETATM    2  C2  UNL     1     -42.787   6.915   0.886  1.00 20.00     0.081 C 
HETATM    3 CL4  UNL     1     -43.255   5.541   1.793  1.00 20.00    -0.097 Cl
ENDROOT
BRANCH   1   4
HETATM    4  C3  UNL     1     -41.267   8.149  -0.653  1.00 20.00     0.142 C 
HETATM    5 CL5  UNL     1     -41.363   9.602   0.363  1.00 20.00    -0.126 Cl
ENDBRANCH   1   4
TORSDOF 1
ENDMDL
MODEL 9
REMARK VINA RESULT:      -2.6     16.188     16.660
REMARK  1 active torsions:
REMARK  status: ('A' for Active; 'I' for Inactive)
REMARK    1  A    between atoms: C1_1  and  C3_3 
ROOT
HETATM    1  C1  UNL     1     -22.769  17.534  10.605  1.00 20.00     0.000 C 
HETATM    2  C2  UNL     1     -22.865  16.912   9.426  1.00 20.00     0.081 C 
HETATM    3 CL4  UNL     1     -22.181  17.534   7.985  1.00 20.00    -0.097 Cl
ENDROOT
BRANCH   1   4
HETATM    4  C3  UNL     1     -23.356  16.992  11.866  1.00 20.00     0.142 C 
HETATM    5 CL5  UNL     1     -24.587  15.770  11.484  1.00 20.00    -0.126 Cl
ENDBRANCH   1   4
TORSDOF 1
ENDMDL
