MODEL 1
REMARK VINA RESULT:      -4.6      0.000      0.000
REMARK  1 active torsions:
REMARK  status: ('A' for Active; 'I' for Inactive)
REMARK    1  A    between atoms: C6_6  and  C9_9 
ROOT
HETATM    1  C1  UNL     1     -35.651  14.793  -6.340  1.00 20.00     0.127 C 
HETATM    2  C2  UNL     1     -36.510  14.813  -5.096  1.00 20.00     0.079 C 
HETATM    3  C3  UNL     1     -34.225  15.272  -6.191  1.00 20.00     0.079 C 
HETATM    4  C4  UNL     1     -35.785  14.152  -3.929  1.00 20.00     0.012 C 
HETATM    5  C5  UNL     1     -33.551  14.601  -5.000  1.00 20.00     0.012 C 
HETATM    6  C6  UNL     1     -34.369  14.703  -3.705  1.00 20.00    -0.010 C 
HETATM    7  O10 UNL     1     -36.119  14.503  -7.440  1.00 20.00    -0.298 OA
ENDROOT
BRANCH   6   8
HETATM    8  C9  UNL     1     -34.390  16.128  -3.149  1.00 20.00    -0.019 C 
HETATM    9  C7  UNL     1     -35.159  16.180  -1.831  1.00 20.00     0.010 C 
HETATM   10  C8  UNL     1     -32.967  16.651  -2.962  1.00 20.00     0.010 C 
ENDBRANCH   6   8
TORSDOF 1
ENDMDL
MODEL 2
REMARK VINA RESULT:      -4.3     17.127     18.539
REMARK  1 active torsions:
REMARK  status: ('A' for Active; 'I' for Inactive)
REMARK    1  A    between atoms: C6_6  and  C9_9 
ROOT
HETATM    1  C1  UNL     1     -23.187  17.941   8.203  1.00 20.00     0.127 C 
HETATM    2  C2  UNL     1     -22.569  17.024   9.234  1.00 20.00     0.079 C 
HETATM    3  C3  UNL     1     -24.558  18.492   8.516  1.00 20.00     0.079 C 
HETATM    4  C4  UNL     1     -22.652  17.642  10.625  1.00 20.00     0.012 C 
HETATM    5  C5  UNL     1     -24.597  19.078   9.923  1.00 20.00     0.012 C 
HETATM    6  C6  UNL     1     -24.065  18.116  10.995  1.00 20.00    -0.010 C 
HETATM    7  O10 UNL     1     -22.646  18.142   7.116  1.00 20.00    -0.298 OA
ENDROOT
BRANCH   6   8
HETATM    8  C9  UNL     1     -25.018  16.943  11.238  1.00 20.00    -0.019 C 
HETATM    9  C7  UNL     1     -24.279  15.777  11.887  1.00 20.00     0.010 C 
HETATM   10  C8  UNL     1     -26.196  17.382  12.104  1.00 20.00     0.010 C 
ENDBRANCH   6   8
TORSDOF 1
ENDMDL
MODEL 3
REMARK VINA RESULT:      -4.3      1.635      2.659
REMARK  1 active torsions:
REMARK  status: ('A' for Active; 'I' for Inactive)
REMARK    1  A    between atoms: C6_6  and  C9_9 
ROOT
HETATM    1  C1  UNL     1     -35.568  13.806  -4.211  1.00 20.00     0.127 C 
HETATM    2  C2  UNL     1     -34.099  14.027  -3.928  1.00 20.00     0.079 C 
HETATM    3  C3  UNL     1     -36.524  14.865  -3.713  1.00 20.00     0.079 C 
HETATM    4  C4  UNL     1     -33.678  15.436  -4.329  1.00 20.00     0.012 C 
HETATM    5  C5  UNL     1     -36.050  16.256  -4.119  1.00 20.00     0.012 C 
HETATM    6  C6  UNL     1     -34.585  16.529  -3.746  1.00 20.00    -0.010 C 
HETATM    7  O10 UNL     1     -35.974  12.764  -4.725  1.00 20.00    -0.298 OA
ENDROOT
BRANCH   6   8
HETATM    8  C9  UNL     1     -34.397  16.685  -2.235  1.00 20.00    -0.019 C 
HETATM    9  C7  UNL     1     -33.054  17.338  -1.926  1.00 20.00     0.010 C 
HETATM   10  C8  UNL     1     -35.542  17.496  -1.634  1.00 20.00     0.010 C 
ENDBRANCH   6   8
TORSDOF 1
ENDMDL
MODEL 4
REMARK VINA RESULT:      -4.2      1.739      2.661
REMARK  1 active torsions:
REMARK  status: ('A' for Active; 'I' for Inactive)
REMARK    1  A    between atoms: C6_6  and  C9_9 
ROOT
HETATM    1  C1  UNL     1     -37.283  14.454  -4.327  1.00 20.00     0.127 C 
HETATM    2  C2  UNL     1     -36.144  13.690  -4.962  1.00 20.00     0.079 C 
HETATM    3  C3  UNL     1     -36.914  15.664  -3.501  1.00 20.00     0.079 C 
HETATM    4  C4  UNL     1     -35.200  14.637  -5.693  1.00 20.00     0.012 C 
HETATM    5  C5  UNL     1     -35.953  16.568  -4.264  1.00 20.00     0.012 C 
HETATM    6  C6  UNL     1     -34.737  15.819  -4.829  1.00 20.00    -0.010 C 
HETATM    7  O10 UNL     1     -38.444  14.050  -4.392  1.00 20.00    -0.298 OA
ENDROOT
BRANCH   6   8
HETATM    8  C9  UNL     1     -33.770  15.381  -3.727  1.00 20.00    -0.019 C 
HETATM    9  C7  UNL     1     -32.627  14.557  -4.313  1.00 20.00     0.010 C 
HETATM   10  C8  UNL     1     -33.229  16.595  -2.975  1.00 20.00     0.010 C 
ENDBRANCH   6   8
TORSDOF 1
ENDMDL
MODEL 5
REMARK VINA RESULT:      -4.1      1.870      2.492
REMARK  1 active torsions:
REMARK  status: ('A' for Active; 'I' for Inactive)
REMARK    1  A    between atoms: C6_6  and  C9_9 
ROOT
HETATM    1  C1  UNL     1     -34.787  14.246  -3.948  1.00 20.00     0.127 C 
HETATM    2  C2  UNL     1     -35.763  15.139  -3.216  1.00 20.00     0.079 C 
HETATM    3  C3  UNL     1     -33.545  14.904  -4.502  1.00 20.00     0.079 C 
HETATM    4  C4  UNL     1     -35.040  15.996  -2.183  1.00 20.00     0.012 C 
HETATM    5  C5  UNL     1     -32.871  15.766  -3.441  1.00 20.00     0.012 C 
HETATM    6  C6  UNL     1     -33.833  16.750  -2.759  1.00 20.00    -0.010 C 
HETATM    7  O10 UNL     1     -35.043  13.064  -4.174  1.00 20.00    -0.298 OA
ENDROOT
BRANCH   6   8
HETATM    8  C9  UNL     1     -34.258  17.881  -3.698  1.00 20.00    -0.019 C 
HETATM    9  C7  UNL     1     -35.302  18.771  -3.028  1.00 20.00     0.010 C 
HETATM   10  C8  UNL     1     -33.047  18.704  -4.128  1.00 20.00     0.010 C 
ENDBRANCH   6   8
TORSDOF 1
ENDMDL
MODEL 6
REMARK VINA RESULT:      -4.0      1.398      2.084
REMARK  1 active torsions:
REMARK  status: ('A' for Active; 'I' for Inactive)
REMARK    1  A    between atoms: C6_6  and  C9_9 
ROOT
HETATM    1  C1  UNL     1     -37.044  15.540  -5.204  1.00 20.00     0.127 C 
HETATM    2  C2  UNL     1     -36.601  16.658  -4.288  1.00 20.00     0.079 C 
HETATM    3  C3  UNL     1     -36.038  14.446  -5.479  1.00 20.00     0.079 C 
HETATM    4  C4  UNL     1     -35.977  16.098  -3.015  1.00 20.00     0.012 C 
HETATM    5  C5  UNL     1     -35.427  13.935  -4.180  1.00 20.00     0.012 C 
HETATM    6  C6  UNL     1     -34.881  15.057  -3.285  1.00 20.00    -0.010 C 
HETATM    7  O10 UNL     1     -38.130  15.575  -5.782  1.00 20.00    -0.298 OA
ENDROOT
BRANCH   6   8
HETATM    8  C9  UNL     1     -33.616  15.692  -3.867  1.00 20.00    -0.019 C 
HETATM    9  C7  UNL     1     -32.991  16.658  -2.865  1.00 20.00     0.010 C 
HETATM   10  C8  UNL     1     -32.614  14.614  -4.273  1.00 20.00     0.010 C 
ENDBRANCH   6   8
TORSDOF 1
ENDMDL
MODEL 7
REMARK VINA RESULT:      -4.0      1.914      2.514
REMARK  1 active torsions:
REMARK  status: ('A' for Active; 'I' for Inactive)
REMARK    1  A    between atoms: C6_6  and  C9_9 
ROOT
HETATM    1  C1  UNL     1     -35.720  13.832  -4.377  1.00 20.00     0.127 C 
HETATM    2  C2  UNL     1     -36.719  14.841  -4.895  1.00 20.00     0.079 C 
HETATM    3  C3  UNL     1     -34.419  14.377  -3.835  1.00 20.00     0.079 C 
HETATM    4  C4  UNL     1     -36.926  15.963  -3.884  1.00 20.00     0.012 C 
HETATM    5  C5  UNL     1     -34.677  15.509  -2.848  1.00 20.00     0.012 C 
HETATM    6  C6  UNL     1     -35.612  16.594  -3.401  1.00 20.00    -0.010 C 
HETATM    7  O10 UNL     1     -35.911  12.621  -4.490  1.00 20.00    -0.298 OA
ENDROOT
BRANCH   6   8
HETATM    8  C9  UNL     1     -34.941  17.429  -4.494  1.00 20.00    -0.019 C 
HETATM    9  C7  UNL     1     -35.879  18.530  -4.981  1.00 20.00     0.010 C 
HETATM   10  C8  UNL     1     -33.631  18.024  -3.984  1.00 20.00     0.010 C 
ENDBRANCH   6   8
TORSDOF 1
ENDMDL
MODEL 8
REMARK VINA RESULT:      -4.0      2.368      4.218
REMARK  1 active torsions:
REMARK  status: ('A' for Active; 'I' for Inactive)
REMARK    1  A    between atoms: C6_6  and  C9_9 
ROOT
HETATM    1  C1  UNL     1     -34.171  16.536  -2.340  1.00 20.00     0.127 C 
HETATM    2  C2  UNL     1     -33.057  16.554  -3.362  1.00 20.00     0.079 C 
HETATM    3  C3  UNL     1     -35.472  15.895  -2.763  1.00 20.00     0.079 C 
HETATM    4  C4  UNL     1     -32.861  15.171  -3.972  1.00 20.00     0.012 C 
HETATM    5  C5  UNL     1     -35.223  14.526  -3.386  1.00 20.00     0.012 C 
HETATM    6  C6  UNL     1     -34.163  14.550  -4.497  1.00 20.00    -0.010 C 
HETATM    7  O10 UNL     1     -34.060  17.110  -1.257  1.00 20.00    -0.298 OA
ENDROOT
BRANCH   6   8
HETATM    8  C9  UNL     1     -34.668  15.256  -5.757  1.00 20.00    -0.019 C 
HETATM    9  C7  UNL     1     -33.693  15.055  -6.913  1.00 20.00     0.010 C 
HETATM   10  C8  UNL     1     -36.059  14.751  -6.133  1.00 20.00     0.010 C 
ENDBRANCH   6   8
TORSDOF 1
ENDMDL
MODEL 9
REMARK VINA RESULT:      -4.0      2.965      4.331
REMARK  1 active torsions:
REMARK  status: ('A' for Active; 'I' for Inactive)
REMARK    1  A    between atoms: C6_6  and  C9_9 
ROOT
HETATM    1  C1  UNL     1     -33.972  17.526  -1.193  1.00 20.00     0.127 C 
HETATM    2  C2  UNL     1     -35.226  16.685  -1.265  1.00 20.00     0.079 C 
HETATM    3  C3  UNL     1     -32.901  17.243  -2.222  1.00 20.00     0.079 C 
HETATM    4  C4  UNL     1     -35.771  16.650  -2.688  1.00 20.00     0.012 C 
HETATM    5  C5  UNL     1     -33.498  17.196  -3.623  1.00 20.00     0.012 C 
HETATM    6  C6  UNL     1     -34.714  16.265  -3.733  1.00 20.00    -0.010 C 
HETATM    7  O10 UNL     1     -33.786  18.327  -0.277  1.00 20.00    -0.298 OA
ENDROOT
BRANCH   6   8
HETATM    8  C9  UNL     1     -34.319  14.790  -3.633  1.00 20.00    -0.019 C 
HETATM    9  C7  UNL     1     -35.459  13.895  -4.109  1.00 20.00     0.010 C 
HETATM   10  C8  UNL     1     -33.050  14.520  -4.438  1.00 20.00     0.010 C 
ENDBRANCH   6   8
TORSDOF 1
ENDMDL
