MODEL 1
REMARK VINA RESULT:      -5.3      0.000      0.000
REMARK  1 active torsions:
REMARK  status: ('A' for Active; 'I' for Inactive)
REMARK    1  A    between atoms: C6_6  and  C10_10 
ROOT
HETATM    1  C1  UNL     1     -36.576  14.416  -4.640  1.00 20.00     0.127 C 
HETATM    2  C2  UNL     1     -36.027  14.767  -6.004  1.00 20.00     0.082 C 
HETATM    3  C3  UNL     1     -36.038  15.211  -3.473  1.00 20.00     0.083 C 
HETATM    4  C4  UNL     1     -33.971  15.676  -4.849  1.00 20.00     0.010 C 
HETATM    5  C5  UNL     1     -34.497  14.780  -5.981  1.00 20.00    -0.011 C 
HETATM    6  C6  UNL     1     -34.509  15.217  -3.485  1.00 20.00    -0.004 C 
HETATM    7  C7  UNL     1     -33.946  15.237  -7.331  1.00 20.00     0.010 C 
HETATM    8  O11 UNL     1     -37.485  13.600  -4.502  1.00 20.00    -0.298 OA
ENDROOT
BRANCH   6   9
HETATM    9  C10 UNL     1     -33.969  16.106  -2.365  1.00 20.00    -0.018 C 
HETATM   10  C8  UNL     1     -33.124  17.240  -2.941  1.00 20.00     0.010 C 
HETATM   11  C9  UNL     1     -35.113  16.662  -1.523  1.00 20.00     0.010 C 
ENDBRANCH   6   9
TORSDOF 1
ENDMDL
MODEL 2
REMARK VINA RESULT:      -5.0      0.858      1.359
REMARK  1 active torsions:
REMARK  status: ('A' for Active; 'I' for Inactive)
REMARK    1  A    between atoms: C6_6  and  C10_10 
ROOT
HETATM    1  C1  UNL     1     -35.732  13.887  -4.684  1.00 20.00     0.127 C 
HETATM    2  C2  UNL     1     -35.622  14.423  -6.093  1.00 20.00     0.082 C 
HETATM    3  C3  UNL     1     -35.628  14.900  -3.567  1.00 20.00     0.083 C 
HETATM    4  C4  UNL     1     -34.344  16.391  -5.153  1.00 20.00     0.010 C 
HETATM    5  C5  UNL     1     -34.378  15.303  -6.238  1.00 20.00    -0.011 C 
HETATM    6  C6  UNL     1     -34.385  15.772  -3.747  1.00 20.00    -0.004 C 
HETATM    7  C7  UNL     1     -34.324  15.928  -7.630  1.00 20.00     0.010 C 
HETATM    8  O11 UNL     1     -35.995  12.706  -4.463  1.00 20.00    -0.298 OA
ENDROOT
BRANCH   6   9
HETATM    9  C10 UNL     1     -34.336  16.861  -2.677  1.00 20.00    -0.018 C 
HETATM   10  C8  UNL     1     -35.131  16.438  -1.444  1.00 20.00     0.010 C 
HETATM   11  C9  UNL     1     -32.891  17.180  -2.302  1.00 20.00     0.010 C 
ENDBRANCH   6   9
TORSDOF 1
ENDMDL
MODEL 3
REMARK VINA RESULT:      -4.8      2.918      5.249
REMARK  1 active torsions:
REMARK  status: ('A' for Active; 'I' for Inactive)
REMARK    1  A    between atoms: C6_6  and  C10_10 
ROOT
HETATM    1  C1  UNL     1     -32.686  18.113  -1.691  1.00 20.00     0.127 C 
HETATM    2  C2  UNL     1     -33.879  18.453  -0.825  1.00 20.00     0.082 C 
HETATM    3  C3  UNL     1     -32.971  17.333  -2.953  1.00 20.00     0.083 C 
HETATM    4  C4  UNL     1     -35.076  16.476  -1.849  1.00 20.00     0.010 C 
HETATM    5  C5  UNL     1     -34.713  17.200  -0.544  1.00 20.00    -0.011 C 
HETATM    6  C6  UNL     1     -33.816  16.097  -2.642  1.00 20.00    -0.004 C 
HETATM    7  C7  UNL     1     -35.972  17.562   0.242  1.00 20.00     0.010 C 
HETATM    8  O11 UNL     1     -31.562  18.539  -1.433  1.00 20.00    -0.298 OA
ENDROOT
BRANCH   6   9
HETATM    9  C10 UNL     1     -34.189  15.365  -3.930  1.00 20.00    -0.018 C 
HETATM   10  C8  UNL     1     -33.033  14.488  -4.404  1.00 20.00     0.010 C 
HETATM   11  C9  UNL     1     -35.450  14.529  -3.726  1.00 20.00     0.010 C 
ENDBRANCH   6   9
TORSDOF 1
ENDMDL
MODEL 4
REMARK VINA RESULT:      -4.7      2.857      5.210
REMARK  1 active torsions:
REMARK  status: ('A' for Active; 'I' for Inactive)
REMARK    1  A    between atoms: C6_6  and  C10_10 
ROOT
HETATM    1  C1  UNL     1     -32.740  18.317  -2.094  1.00 20.00     0.127 C 
HETATM    2  C2  UNL     1     -33.943  18.528  -1.204  1.00 20.00     0.082 C 
HETATM    3  C3  UNL     1     -32.939  17.424  -3.297  1.00 20.00     0.083 C 
HETATM    4  C4  UNL     1     -34.858  16.334  -2.066  1.00 20.00     0.010 C 
HETATM    5  C5  UNL     1     -34.570  17.185  -0.819  1.00 20.00    -0.011 C 
HETATM    6  C6  UNL     1     -33.578  16.098  -2.883  1.00 20.00    -0.004 C 
HETATM    7  C7  UNL     1     -35.845  17.403  -0.007  1.00 20.00     0.010 C 
HETATM    8  O11 UNL     1     -31.685  18.921  -1.905  1.00 20.00    -0.298 OA
ENDROOT
BRANCH   6   9
HETATM    9  C10 UNL     1     -33.874  15.240  -4.112  1.00 20.00    -0.018 C 
HETATM   10  C8  UNL     1     -34.900  14.160  -3.778  1.00 20.00     0.010 C 
HETATM   11  C9  UNL     1     -34.366  16.109  -5.266  1.00 20.00     0.010 C 
ENDBRANCH   6   9
TORSDOF 1
ENDMDL
MODEL 5
REMARK VINA RESULT:      -4.7      1.422      2.078
REMARK  1 active torsions:
REMARK  status: ('A' for Active; 'I' for Inactive)
REMARK    1  A    between atoms: C6_6  and  C10_10 
ROOT
HETATM    1  C1  UNL     1     -36.404  14.715  -3.957  1.00 20.00     0.127 C 
HETATM    2  C2  UNL     1     -35.138  14.419  -4.726  1.00 20.00     0.082 C 
HETATM    3  C3  UNL     1     -36.397  15.961  -3.102  1.00 20.00     0.083 C 
HETATM    4  C4  UNL     1     -33.878  15.786  -3.013  1.00 20.00     0.010 C 
HETATM    5  C5  UNL     1     -33.921  14.466  -3.799  1.00 20.00    -0.011 C 
HETATM    6  C6  UNL     1     -35.165  15.986  -2.197  1.00 20.00    -0.004 C 
HETATM    7  C7  UNL     1     -32.633  14.270  -4.596  1.00 20.00     0.010 C 
HETATM    8  O11 UNL     1     -37.419  14.035  -4.100  1.00 20.00    -0.298 OA
ENDROOT
BRANCH   6   9
HETATM    9  C10 UNL     1     -35.105  17.294  -1.409  1.00 20.00    -0.018 C 
HETATM   10  C8  UNL     1     -35.507  17.063   0.045  1.00 20.00     0.010 C 
HETATM   11  C9  UNL     1     -33.709  17.905  -1.491  1.00 20.00     0.010 C 
ENDBRANCH   6   9
TORSDOF 1
ENDMDL
MODEL 6
REMARK VINA RESULT:      -4.6      3.485      6.043
REMARK  1 active torsions:
REMARK  status: ('A' for Active; 'I' for Inactive)
REMARK    1  A    between atoms: C6_6  and  C10_10 
ROOT
HETATM    1  C1  UNL     1     -31.850  18.439  -0.790  1.00 20.00     0.127 C 
HETATM    2  C2  UNL     1     -32.857  19.024   0.175  1.00 20.00     0.082 C 
HETATM    3  C3  UNL     1     -32.403  17.871  -2.077  1.00 20.00     0.083 C 
HETATM    4  C4  UNL     1     -34.609  17.546  -0.890  1.00 20.00     0.010 C 
HETATM    5  C5  UNL     1     -33.995  18.034   0.432  1.00 20.00    -0.011 C 
HETATM    6  C6  UNL     1     -33.545  16.897  -1.789  1.00 20.00    -0.004 C 
HETATM    7  C7  UNL     1     -35.062  18.665   1.323  1.00 20.00     0.010 C 
HETATM    8  O11 UNL     1     -30.641  18.514  -0.583  1.00 20.00    -0.298 OA
ENDROOT
BRANCH   6   9
HETATM    9  C10 UNL     1     -34.170  16.404  -3.093  1.00 20.00    -0.018 C 
HETATM   10  C8  UNL     1     -33.211  15.471  -3.828  1.00 20.00     0.010 C 
HETATM   11  C9  UNL     1     -35.498  15.703  -2.819  1.00 20.00     0.010 C 
ENDBRANCH   6   9
TORSDOF 1
ENDMDL
MODEL 7
REMARK VINA RESULT:      -4.5      2.329      4.395
REMARK  1 active torsions:
REMARK  status: ('A' for Active; 'I' for Inactive)
REMARK    1  A    between atoms: C6_6  and  C10_10 
ROOT
HETATM    1  C1  UNL     1     -35.406  17.194  -1.219  1.00 20.00     0.127 C 
HETATM    2  C2  UNL     1     -34.124  17.745  -0.639  1.00 20.00     0.082 C 
HETATM    3  C3  UNL     1     -35.266  16.043  -2.188  1.00 20.00     0.083 C 
HETATM    4  C4  UNL     1     -32.916  16.838  -2.666  1.00 20.00     0.010 C 
HETATM    5  C5  UNL     1     -33.119  18.056  -1.751  1.00 20.00    -0.011 C 
HETATM    6  C6  UNL     1     -34.248  16.377  -3.278  1.00 20.00    -0.004 C 
HETATM    7  C7  UNL     1     -31.789  18.514  -1.157  1.00 20.00     0.010 C 
HETATM    8  O11 UNL     1     -36.507  17.593  -0.844  1.00 20.00    -0.298 OA
ENDROOT
BRANCH   6   9
HETATM    9  C10 UNL     1     -34.031  15.175  -4.196  1.00 20.00    -0.018 C 
HETATM   10  C8  UNL     1     -32.569  14.737  -4.170  1.00 20.00     0.010 C 
HETATM   11  C9  UNL     1     -34.946  14.022  -3.793  1.00 20.00     0.010 C 
ENDBRANCH   6   9
TORSDOF 1
ENDMDL
MODEL 8
REMARK VINA RESULT:      -4.5     15.632     17.899
REMARK  1 active torsions:
REMARK  status: ('A' for Active; 'I' for Inactive)
REMARK    1  A    between atoms: C6_6  and  C10_10 
ROOT
HETATM    1  C1  UNL     1     -22.603  17.513   9.338  1.00 20.00     0.127 C 
HETATM    2  C2  UNL     1     -22.965  17.896  10.754  1.00 20.00     0.082 C 
HETATM    3  C3  UNL     1     -23.258  18.313   8.236  1.00 20.00     0.083 C 
HETATM    4  C4  UNL     1     -25.121  18.859   9.853  1.00 20.00     0.010 C 
HETATM    5  C5  UNL     1     -24.485  17.959  10.923  1.00 20.00    -0.011 C 
HETATM    6  C6  UNL     1     -24.773  18.369   8.439  1.00 20.00    -0.004 C 
HETATM    7  C7  UNL     1     -24.848  18.446  12.324  1.00 20.00     0.010 C 
HETATM    8  O11 UNL     1     -21.744  16.667   9.099  1.00 20.00    -0.298 OA
ENDROOT
BRANCH   6   9
HETATM    9  C10 UNL     1     -25.422  19.263   7.383  1.00 20.00    -0.018 C 
HETATM   10  C8  UNL     1     -24.618  19.232   6.086  1.00 20.00     0.010 C 
HETATM   11  C9  UNL     1     -26.865  18.834   7.132  1.00 20.00     0.010 C 
ENDBRANCH   6   9
TORSDOF 1
ENDMDL
MODEL 9
REMARK VINA RESULT:      -4.5      2.998      4.590
REMARK  1 active torsions:
REMARK  status: ('A' for Active; 'I' for Inactive)
REMARK    1  A    between atoms: C6_6  and  C10_10 
ROOT
HETATM    1  C1  UNL     1     -32.735  17.914  -2.065  1.00 20.00     0.127 C 
HETATM    2  C2  UNL     1     -32.850  16.656  -2.896  1.00 20.00     0.082 C 
HETATM    3  C3  UNL     1     -33.454  17.910  -0.736  1.00 20.00     0.083 C 
HETATM    4  C4  UNL     1     -35.001  16.145  -1.671  1.00 20.00     0.010 C 
HETATM    5  C5  UNL     1     -34.316  16.240  -3.043  1.00 20.00    -0.011 C 
HETATM    6  C6  UNL     1     -34.910  17.478  -0.913  1.00 20.00    -0.004 C 
HETATM    7  C7  UNL     1     -34.423  14.914  -3.793  1.00 20.00     0.010 C 
HETATM    8  O11 UNL     1     -32.012  18.848  -2.407  1.00 20.00    -0.298 OA
ENDROOT
BRANCH   6   9
HETATM    9  C10 UNL     1     -35.607  17.376   0.443  1.00 20.00    -0.018 C 
HETATM   10  C8  UNL     1     -34.734  17.977   1.542  1.00 20.00     0.010 C 
HETATM   11  C9  UNL     1     -36.968  18.066   0.400  1.00 20.00     0.010 C 
ENDBRANCH   6   9
TORSDOF 1
ENDMDL
