MODEL 1
REMARK VINA RESULT:      -3.7      0.000      0.000
REMARK  2 active torsions:
REMARK  status: ('A' for Active; 'I' for Inactive)
REMARK    1  A    between atoms: C1_1  and  C2_2 
REMARK    2  A    between atoms: C2_2  and  C3_3 
ROOT
HETATM    1  C1  UNL     1     -34.660   5.337   4.968  1.00 20.00     0.173 C 
HETATM    2  O4  UNL     1     -34.922   4.284   4.318  1.00 20.00    -0.648 OA
HETATM    3  O5  UNL     1     -34.847   5.591   6.188  1.00 20.00    -0.648 OA
ENDROOT
BRANCH   1   4
HETATM    4  C2  UNL     1     -34.007   6.443   4.131  1.00 20.00     0.128 C 
BRANCH   4   5
HETATM    5  C3  UNL     1     -33.189   6.000   2.929  1.00 20.00     0.125 C 
HETATM    6 CL6  UNL     1     -32.471   7.397   2.091  1.00 20.00    -0.130 Cl
ENDBRANCH   4   5
ENDBRANCH   1   4
TORSDOF 2
ENDMDL
MODEL 2
REMARK VINA RESULT:      -3.7      3.012      3.470
REMARK  2 active torsions:
REMARK  status: ('A' for Active; 'I' for Inactive)
REMARK    1  A    between atoms: C1_1  and  C2_2 
REMARK    2  A    between atoms: C2_2  and  C3_3 
ROOT
HETATM    1  C1  UNL     1     -32.990   6.247   2.794  1.00 20.00     0.173 C 
HETATM    2  O4  UNL     1     -33.026   5.038   2.421  1.00 20.00    -0.648 OA
HETATM    3  O5  UNL     1     -32.331   7.210   2.318  1.00 20.00    -0.648 OA
ENDROOT
BRANCH   1   4
HETATM    4  C2  UNL     1     -33.899   6.562   3.988  1.00 20.00     0.128 C 
BRANCH   4   5
HETATM    5  C3  UNL     1     -34.880   5.478   4.406  1.00 20.00     0.125 C 
HETATM    6 CL6  UNL     1     -34.784   5.168   6.157  1.00 20.00    -0.130 Cl
ENDBRANCH   4   5
ENDBRANCH   1   4
TORSDOF 2
ENDMDL
MODEL 3
REMARK VINA RESULT:      -3.7     11.741     12.039
REMARK  2 active torsions:
REMARK  status: ('A' for Active; 'I' for Inactive)
REMARK    1  A    between atoms: C1_1  and  C2_2 
REMARK    2  A    between atoms: C2_2  and  C3_3 
ROOT
HETATM    1  C1  UNL     1     -36.467  13.666  -4.496  1.00 20.00     0.173 C 
HETATM    2  O4  UNL     1     -35.779  12.605  -4.498  1.00 20.00    -0.648 OA
HETATM    3  O5  UNL     1     -37.720  13.805  -4.481  1.00 20.00    -0.648 OA
ENDROOT
BRANCH   1   4
HETATM    4  C2  UNL     1     -35.636  14.953  -4.499  1.00 20.00     0.128 C 
BRANCH   4   5
HETATM    5  C3  UNL     1     -34.474  15.020  -3.521  1.00 20.00     0.125 C 
HETATM    6 CL6  UNL     1     -34.919  15.933  -2.058  1.00 20.00    -0.130 Cl
ENDBRANCH   4   5
ENDBRANCH   1   4
TORSDOF 2
ENDMDL
MODEL 4
REMARK VINA RESULT:      -3.7      2.466      2.868
REMARK  2 active torsions:
REMARK  status: ('A' for Active; 'I' for Inactive)
REMARK    1  A    between atoms: C1_1  and  C2_2 
REMARK    2  A    between atoms: C2_2  and  C3_3 
ROOT
HETATM    1  C1  UNL     1     -34.176   4.727   3.616  1.00 20.00     0.173 C 
HETATM    2  O4  UNL     1     -34.086   3.473   3.759  1.00 20.00    -0.648 OA
HETATM    3  O5  UNL     1     -33.555   5.487   2.824  1.00 20.00    -0.648 OA
ENDROOT
BRANCH   1   4
HETATM    4  C2  UNL     1     -35.204   5.392   4.539  1.00 20.00     0.128 C 
BRANCH   4   5
HETATM    5  C3  UNL     1     -34.775   5.635   5.977  1.00 20.00     0.125 C 
HETATM    6 CL6  UNL     1     -33.679   7.034   6.091  1.00 20.00    -0.130 Cl
ENDBRANCH   4   5
ENDBRANCH   1   4
TORSDOF 2
ENDMDL
MODEL 5
REMARK VINA RESULT:      -3.7     11.744     12.063
REMARK  2 active torsions:
REMARK  status: ('A' for Active; 'I' for Inactive)
REMARK    1  A    between atoms: C1_1  and  C2_2 
REMARK    2  A    between atoms: C2_2  and  C3_3 
ROOT
HETATM    1  C1  UNL     1     -36.465  13.661  -4.486  1.00 20.00     0.173 C 
HETATM    2  O4  UNL     1     -37.722  13.799  -4.499  1.00 20.00    -0.648 OA
HETATM    3  O5  UNL     1     -35.776  12.606  -4.513  1.00 20.00    -0.648 OA
ENDROOT
BRANCH   1   4
HETATM    4  C2  UNL     1     -35.690  14.983  -4.444  1.00 20.00     0.128 C 
BRANCH   4   5
HETATM    5  C3  UNL     1     -34.515  15.058  -3.483  1.00 20.00     0.125 C 
HETATM    6 CL6  UNL     1     -34.948  15.962  -2.011  1.00 20.00    -0.130 Cl
ENDBRANCH   4   5
ENDBRANCH   1   4
TORSDOF 2
ENDMDL
MODEL 6
REMARK VINA RESULT:      -3.7      3.006      3.592
REMARK  2 active torsions:
REMARK  status: ('A' for Active; 'I' for Inactive)
REMARK    1  A    between atoms: C1_1  and  C2_2 
REMARK    2  A    between atoms: C2_2  and  C3_3 
ROOT
HETATM    1  C1  UNL     1     -33.001   6.228   2.826  1.00 20.00     0.173 C 
HETATM    2  O4  UNL     1     -32.290   7.199   2.436  1.00 20.00    -0.648 OA
HETATM    3  O5  UNL     1     -33.029   5.040   2.406  1.00 20.00    -0.648 OA
ENDROOT
BRANCH   1   4
HETATM    4  C2  UNL     1     -33.945   6.568   3.984  1.00 20.00     0.128 C 
BRANCH   4   5
HETATM    5  C3  UNL     1     -34.907   5.477   4.425  1.00 20.00     0.125 C 
HETATM    6 CL6  UNL     1     -34.762   5.160   6.171  1.00 20.00    -0.130 Cl
ENDBRANCH   4   5
ENDBRANCH   1   4
TORSDOF 2
ENDMDL
MODEL 7
REMARK VINA RESULT:      -3.6      1.140      1.298
REMARK  2 active torsions:
REMARK  status: ('A' for Active; 'I' for Inactive)
REMARK    1  A    between atoms: C1_1  and  C2_2 
REMARK    2  A    between atoms: C2_2  and  C3_3 
ROOT
HETATM    1  C1  UNL     1     -34.250   5.137   3.843  1.00 20.00     0.173 C 
HETATM    2  O4  UNL     1     -34.391   3.884   3.948  1.00 20.00    -0.648 OA
HETATM    3  O5  UNL     1     -34.738   6.058   4.552  1.00 20.00    -0.648 OA
ENDROOT
BRANCH   1   4
HETATM    4  C2  UNL     1     -33.341   5.571   2.688  1.00 20.00     0.128 C 
BRANCH   4   5
HETATM    5  C3  UNL     1     -32.583   6.876   2.867  1.00 20.00     0.125 C 
HETATM    6 CL6  UNL     1     -32.581   7.828   1.362  1.00 20.00    -0.130 Cl
ENDBRANCH   4   5
ENDBRANCH   1   4
TORSDOF 2
ENDMDL
MODEL 8
REMARK VINA RESULT:      -3.6      1.293      1.451
REMARK  2 active torsions:
REMARK  status: ('A' for Active; 'I' for Inactive)
REMARK    1  A    between atoms: C1_1  and  C2_2 
REMARK    2  A    between atoms: C2_2  and  C3_3 
ROOT
HETATM    1  C1  UNL     1     -34.492   5.869   5.542  1.00 20.00     0.173 C 
HETATM    2  O4  UNL     1     -34.831   4.981   6.377  1.00 20.00    -0.648 OA
HETATM    3  O5  UNL     1     -33.869   6.948   5.731  1.00 20.00    -0.648 OA
ENDROOT
BRANCH   1   4
HETATM    4  C2  UNL     1     -34.896   5.557   4.096  1.00 20.00     0.128 C 
BRANCH   4   5
HETATM    5  C3  UNL     1     -33.800   5.050   3.174  1.00 20.00     0.125 C 
HETATM    6 CL6  UNL     1     -32.813   6.395   2.551  1.00 20.00    -0.130 Cl
ENDBRANCH   4   5
ENDBRANCH   1   4
TORSDOF 2
ENDMDL
MODEL 9
REMARK VINA RESULT:      -3.5     11.914     12.376
REMARK  2 active torsions:
REMARK  status: ('A' for Active; 'I' for Inactive)
REMARK    1  A    between atoms: C1_1  and  C2_2 
REMARK    2  A    between atoms: C2_2  and  C3_3 
ROOT
HETATM    1  C1  UNL     1     -36.289  13.829  -4.956  1.00 20.00     0.173 C 
HETATM    2  O4  UNL     1     -37.429  13.642  -4.439  1.00 20.00    -0.648 OA
HETATM    3  O5  UNL     1     -35.956  13.845  -6.171  1.00 20.00    -0.648 OA
ENDROOT
BRANCH   1   4
HETATM    4  C2  UNL     1     -35.173  14.084  -3.937  1.00 20.00     0.128 C 
BRANCH   4   5
HETATM    5  C3  UNL     1     -35.262  15.371  -3.132  1.00 20.00     0.125 C 
HETATM    6 CL6  UNL     1     -33.642  16.017  -2.774  1.00 20.00    -0.130 Cl
ENDBRANCH   4   5
ENDBRANCH   1   4
TORSDOF 2
ENDMDL
