MODEL 1
REMARK VINA RESULT:      -3.7      0.000      0.000
REMARK  0 active torsions:
REMARK  status: ('A' for Active; 'I' for Inactive)
ROOT
HETATM    1  C1  UNL     1     -24.866  18.200  10.842  1.00 20.00     0.118 C 
HETATM    2  C2  UNL     1     -23.063  16.893   9.805  1.00 20.00     0.118 C 
HETATM    3  C3  UNL     1     -23.820  17.192  11.022  1.00 20.00     0.288 C 
HETATM    4  N4  UNL     1     -25.695  18.999  10.697  1.00 20.00    -0.193 NA
HETATM    5  N5  UNL     1     -22.463  16.657   8.839  1.00 20.00    -0.193 NA
HETATM    6 CL6  UNL     1     -22.682  17.783  12.257  1.00 20.00    -0.069 Cl
HETATM    7 CL7  UNL     1     -24.586  15.687  11.586  1.00 20.00    -0.069 Cl
ENDROOT
TORSDOF 0
ENDMDL
MODEL 2
REMARK VINA RESULT:      -3.7      0.046      3.111
REMARK  0 active torsions:
REMARK  status: ('A' for Active; 'I' for Inactive)
ROOT
HETATM    1  C1  UNL     1     -23.037  16.908   9.802  1.00 20.00     0.118 C 
HETATM    2  C2  UNL     1     -24.866  18.214  10.794  1.00 20.00     0.118 C 
HETATM    3  C3  UNL     1     -23.824  17.207  11.000  1.00 20.00     0.288 C 
HETATM    4  N4  UNL     1     -22.415  16.673   8.851  1.00 20.00    -0.193 NA
HETATM    5  N5  UNL     1     -25.693  19.012  10.630  1.00 20.00    -0.193 NA
HETATM    6 CL6  UNL     1     -24.601  15.701  11.547  1.00 20.00    -0.069 Cl
HETATM    7 CL7  UNL     1     -22.716  17.801  12.261  1.00 20.00    -0.069 Cl
ENDROOT
TORSDOF 0
ENDMDL
MODEL 3
REMARK VINA RESULT:      -3.6     18.683     19.170
REMARK  0 active torsions:
REMARK  status: ('A' for Active; 'I' for Inactive)
ROOT
HETATM    1  C1  UNL     1     -34.132  14.515  -4.318  1.00 20.00     0.118 C 
HETATM    2  C2  UNL     1     -36.585  14.482  -4.208  1.00 20.00     0.118 C 
HETATM    3  C3  UNL     1     -35.357  15.254  -4.012  1.00 20.00     0.288 C 
HETATM    4  N4  UNL     1     -33.161  13.927  -4.561  1.00 20.00    -0.193 NA
HETATM    5  N5  UNL     1     -37.559  13.868  -4.363  1.00 20.00    -0.193 NA
HETATM    6 CL6  UNL     1     -35.288  15.770  -2.309  1.00 20.00    -0.069 Cl
HETATM    7 CL7  UNL     1     -35.424  16.686  -5.068  1.00 20.00    -0.069 Cl
ENDROOT
TORSDOF 0
ENDMDL
MODEL 4
REMARK VINA RESULT:      -3.6     18.599     18.944
REMARK  0 active torsions:
REMARK  status: ('A' for Active; 'I' for Inactive)
ROOT
HETATM    1  C1  UNL     1     -36.453  14.459  -4.208  1.00 20.00     0.118 C 
HETATM    2  C2  UNL     1     -33.999  14.507  -4.286  1.00 20.00     0.118 C 
HETATM    3  C3  UNL     1     -35.233  15.240  -3.998  1.00 20.00     0.288 C 
HETATM    4  N4  UNL     1     -37.420  13.838  -4.376  1.00 20.00    -0.193 NA
HETATM    5  N5  UNL     1     -33.020  13.926  -4.515  1.00 20.00    -0.193 NA
HETATM    6 CL6  UNL     1     -35.295  16.669  -5.057  1.00 20.00    -0.069 Cl
HETATM    7 CL7  UNL     1     -35.189  15.759  -2.295  1.00 20.00    -0.069 Cl
ENDROOT
TORSDOF 0
ENDMDL
MODEL 5
REMARK VINA RESULT:      -3.6     18.559     18.910
REMARK  0 active torsions:
REMARK  status: ('A' for Active; 'I' for Inactive)
ROOT
HETATM    1  C1  UNL     1     -35.327  13.831  -4.329  1.00 20.00     0.118 C 
HETATM    2  C2  UNL     1     -34.820  16.122  -5.052  1.00 20.00     0.118 C 
HETATM    3  C3  UNL     1     -34.522  15.035  -4.119  1.00 20.00     0.288 C 
HETATM    4  N4  UNL     1     -35.966  12.877  -4.496  1.00 20.00    -0.193 NA
HETATM    5  N5  UNL     1     -35.059  16.985  -5.792  1.00 20.00    -0.193 NA
HETATM    6 CL6  UNL     1     -34.813  15.622  -2.464  1.00 20.00    -0.069 Cl
HETATM    7 CL7  UNL     1     -32.805  14.598  -4.305  1.00 20.00    -0.069 Cl
ENDROOT
TORSDOF 0
ENDMDL
MODEL 6
REMARK VINA RESULT:      -3.6     18.212     18.576
REMARK  0 active torsions:
REMARK  status: ('A' for Active; 'I' for Inactive)
ROOT
HETATM    1  C1  UNL     1     -34.876  15.657  -2.742  1.00 20.00     0.118 C 
HETATM    2  C2  UNL     1     -35.450  13.815  -4.262  1.00 20.00     0.118 C 
HETATM    3  C3  UNL     1     -34.688  15.049  -4.060  1.00 20.00     0.288 C 
HETATM    4  N4  UNL     1     -35.026  16.138  -1.697  1.00 20.00    -0.193 NA
HETATM    5  N5  UNL     1     -36.056  12.838  -4.422  1.00 20.00    -0.193 NA
HETATM    6 CL6  UNL     1     -35.192  16.226  -5.296  1.00 20.00    -0.069 Cl
HETATM    7 CL7  UNL     1     -32.958  14.674  -4.261  1.00 20.00    -0.069 Cl
ENDROOT
TORSDOF 0
ENDMDL
MODEL 7
REMARK VINA RESULT:      -3.6     18.535     18.825
REMARK  0 active torsions:
REMARK  status: ('A' for Active; 'I' for Inactive)
ROOT
HETATM    1  C1  UNL     1     -34.934  16.214  -4.942  1.00 20.00     0.118 C 
HETATM    2  C2  UNL     1     -35.337  13.880  -4.291  1.00 20.00     0.118 C 
HETATM    3  C3  UNL     1     -34.590  15.114  -4.040  1.00 20.00     0.288 C 
HETATM    4  N4  UNL     1     -35.209  17.086  -5.657  1.00 20.00    -0.193 NA
HETATM    5  N5  UNL     1     -35.929  12.902  -4.492  1.00 20.00    -0.193 NA
HETATM    6 CL6  UNL     1     -32.854  14.763  -4.223  1.00 20.00    -0.069 Cl
HETATM    7 CL7  UNL     1     -34.921  15.636  -2.370  1.00 20.00    -0.069 Cl
ENDROOT
TORSDOF 0
ENDMDL
MODEL 8
REMARK VINA RESULT:      -3.6     18.190     18.634
REMARK  0 active torsions:
REMARK  status: ('A' for Active; 'I' for Inactive)
ROOT
HETATM    1  C1  UNL     1     -35.363  13.842  -4.317  1.00 20.00     0.118 C 
HETATM    2  C2  UNL     1     -34.851  15.661  -2.747  1.00 20.00     0.118 C 
HETATM    3  C3  UNL     1     -34.620  15.079  -4.070  1.00 20.00     0.288 C 
HETATM    4  N4  UNL     1     -35.954  12.862  -4.511  1.00 20.00    -0.193 NA
HETATM    5  N5  UNL     1     -35.035  16.121  -1.697  1.00 20.00    -0.193 NA
HETATM    6 CL6  UNL     1     -32.882  14.727  -4.230  1.00 20.00    -0.069 Cl
HETATM    7 CL7  UNL     1     -35.103  16.275  -5.297  1.00 20.00    -0.069 Cl
ENDROOT
TORSDOF 0
ENDMDL
MODEL 9
REMARK VINA RESULT:      -3.5      2.061      3.250
REMARK  0 active torsions:
REMARK  status: ('A' for Active; 'I' for Inactive)
ROOT
HETATM    1  C1  UNL     1     -22.893  17.625  11.853  1.00 20.00     0.118 C 
HETATM    2  C2  UNL     1     -25.253  18.295  11.743  1.00 20.00     0.118 C 
HETATM    3  C3  UNL     1     -24.207  17.398  11.249  1.00 20.00     0.288 C 
HETATM    4  N4  UNL     1     -21.852  17.806  12.332  1.00 20.00    -0.193 NA
HETATM    5  N5  UNL     1     -26.082  19.008  12.134  1.00 20.00    -0.193 NA
HETATM    6 CL6  UNL     1     -24.061  17.624   9.490  1.00 20.00    -0.069 Cl
HETATM    7 CL7  UNL     1     -24.700  15.723  11.598  1.00 20.00    -0.069 Cl
ENDROOT
TORSDOF 0
ENDMDL
