MODEL 1
REMARK VINA RESULT:      -3.5      0.000      0.000
REMARK  2 active torsions:
REMARK  status: ('A' for Active; 'I' for Inactive)
REMARK    1  A    between atoms: C2_2  and  C4_4 
REMARK    2  A    between atoms: C3_3  and  C4_4 
ROOT
HETATM    1  C4  UNL     1     -33.939   6.697   4.158  1.00 20.00     0.127 C 
HETATM    2 CL7  UNL     1     -33.522   7.236   5.814  1.00 20.00    -0.121 Cl
ENDROOT
BRANCH   1   3
HETATM    3  C2  UNL     1     -32.683   6.673   3.293  1.00 20.00     0.164 A 
HETATM    4  C1  UNL     1     -32.612   7.441   2.004  1.00 20.00     0.201 A 
HETATM    5  O5  UNL     1     -32.846   6.023   2.028  1.00 20.00    -0.380 OA
ENDBRANCH   1   3
BRANCH   1   6
HETATM    6  C3  UNL     1     -34.688   5.364   4.198  1.00 20.00     0.137 C 
HETATM    7 CL6  UNL     1     -34.893   4.708   5.842  1.00 20.00    -0.129 Cl
ENDBRANCH   1   6
TORSDOF 2
ENDMDL
MODEL 2
REMARK VINA RESULT:      -3.2      1.836      2.024
REMARK  2 active torsions:
REMARK  status: ('A' for Active; 'I' for Inactive)
REMARK    1  A    between atoms: C2_2  and  C4_4 
REMARK    2  A    between atoms: C3_3  and  C4_4 
ROOT
HETATM    1  C4  UNL     1     -33.501   5.463   3.600  1.00 20.00     0.127 C 
HETATM    2 CL7  UNL     1     -33.265   4.467   2.131  1.00 20.00    -0.121 Cl
ENDROOT
BRANCH   1   3
HETATM    3  C2  UNL     1     -33.260   6.932   3.269  1.00 20.00     0.164 A 
HETATM    4  C1  UNL     1     -32.464   7.337   2.060  1.00 20.00     0.201 A 
HETATM    5  O5  UNL     1     -31.895   7.350   3.380  1.00 20.00    -0.380 OA
ENDBRANCH   1   3
BRANCH   1   6
HETATM    6  C3  UNL     1     -34.869   5.187   4.223  1.00 20.00     0.137 C 
HETATM    7 CL6  UNL     1     -34.877   5.281   6.002  1.00 20.00    -0.129 Cl
ENDBRANCH   1   6
TORSDOF 2
ENDMDL
MODEL 3
REMARK VINA RESULT:      -3.2     16.323     16.754
REMARK  2 active torsions:
REMARK  status: ('A' for Active; 'I' for Inactive)
REMARK    1  A    between atoms: C2_2  and  C4_4 
REMARK    2  A    between atoms: C3_3  and  C4_4 
ROOT
HETATM    1  C4  UNL     1     -23.915  17.939  10.421  1.00 20.00     0.127 C 
HETATM    2 CL7  UNL     1     -24.315  16.241  10.819  1.00 20.00    -0.121 Cl
ENDROOT
BRANCH   1   3
HETATM    3  C2  UNL     1     -23.051  17.983   9.165  1.00 20.00     0.164 A 
HETATM    4  C1  UNL     1     -21.563  18.178   9.251  1.00 20.00     0.201 A 
HETATM    5  O5  UNL     1     -22.448  19.255   8.902  1.00 20.00    -0.380 OA
ENDBRANCH   1   3
BRANCH   1   6
HETATM    6  C3  UNL     1     -25.186  18.784  10.326  1.00 20.00     0.137 C 
HETATM    7 CL6  UNL     1     -25.944  19.116  11.903  1.00 20.00    -0.129 Cl
ENDBRANCH   1   6
TORSDOF 2
ENDMDL
MODEL 4
REMARK VINA RESULT:      -3.2     16.030     16.637
REMARK  2 active torsions:
REMARK  status: ('A' for Active; 'I' for Inactive)
REMARK    1  A    between atoms: C2_2  and  C4_4 
REMARK    2  A    between atoms: C3_3  and  C4_4 
ROOT
HETATM    1  C4  UNL     1     -23.898  17.996   9.722  1.00 20.00     0.127 C 
HETATM    2 CL7  UNL     1     -25.119  18.480  10.939  1.00 20.00    -0.121 Cl
ENDROOT
BRANCH   1   3
HETATM    3  C2  UNL     1     -23.850  19.031   8.603  1.00 20.00     0.164 A 
HETATM    4  C1  UNL     1     -24.777  18.943   7.423  1.00 20.00     0.201 A 
HETATM    5  O5  UNL     1     -23.406  18.520   7.341  1.00 20.00    -0.380 OA
ENDBRANCH   1   3
BRANCH   1   6
HETATM    6  C3  UNL     1     -22.545  17.744  10.388  1.00 20.00     0.137 C 
HETATM    7 CL6  UNL     1     -22.615  17.726  12.168  1.00 20.00    -0.129 Cl
ENDBRANCH   1   6
TORSDOF 2
ENDMDL
MODEL 5
REMARK VINA RESULT:      -3.1      2.813      3.887
REMARK  2 active torsions:
REMARK  status: ('A' for Active; 'I' for Inactive)
REMARK    1  A    between atoms: C2_2  and  C4_4 
REMARK    2  A    between atoms: C3_3  and  C4_4 
ROOT
HETATM    1  C4  UNL     1     -33.600   6.383   3.707  1.00 20.00     0.127 C 
HETATM    2 CL7  UNL     1     -33.666   4.899   2.708  1.00 20.00    -0.121 Cl
ENDROOT
BRANCH   1   3
HETATM    3  C2  UNL     1     -33.568   6.008   5.185  1.00 20.00     0.164 A 
HETATM    4  C1  UNL     1     -34.813   5.568   5.903  1.00 20.00     0.201 A 
HETATM    5  O5  UNL     1     -34.290   6.900   6.040  1.00 20.00    -0.380 OA
ENDBRANCH   1   3
BRANCH   1   6
HETATM    6  C3  UNL     1     -32.437   7.275   3.270  1.00 20.00     0.137 C 
HETATM    7 CL6  UNL     1     -32.467   7.694   1.539  1.00 20.00    -0.129 Cl
ENDBRANCH   1   6
TORSDOF 2
ENDMDL
MODEL 6
REMARK VINA RESULT:      -3.1     11.631     12.469
REMARK  2 active torsions:
REMARK  status: ('A' for Active; 'I' for Inactive)
REMARK    1  A    between atoms: C2_2  and  C4_4 
REMARK    2  A    between atoms: C3_3  and  C4_4 
ROOT
HETATM    1  C4  UNL     1     -34.687  14.959  -5.427  1.00 20.00     0.127 C 
HETATM    2 CL7  UNL     1     -33.782  14.969  -6.971  1.00 20.00    -0.121 Cl
ENDROOT
BRANCH   1   3
HETATM    3  C2  UNL     1     -35.914  14.063  -5.555  1.00 20.00     0.164 A 
HETATM    4  C1  UNL     1     -36.963  14.022  -4.480  1.00 20.00     0.201 A 
HETATM    5  O5  UNL     1     -35.970  12.992  -4.607  1.00 20.00    -0.380 OA
ENDBRANCH   1   3
BRANCH   1   6
HETATM    6  C3  UNL     1     -33.766  14.582  -4.266  1.00 20.00     0.137 C 
HETATM    7 CL6  UNL     1     -33.901  15.671  -2.862  1.00 20.00    -0.129 Cl
ENDBRANCH   1   6
TORSDOF 2
ENDMDL
MODEL 7
REMARK VINA RESULT:      -3.1      9.197      9.419
REMARK  2 active torsions:
REMARK  status: ('A' for Active; 'I' for Inactive)
REMARK    1  A    between atoms: C2_2  and  C4_4 
REMARK    2  A    between atoms: C3_3  and  C4_4 
ROOT
HETATM    1  C4  UNL     1     -41.540   7.076   0.428  1.00 20.00     0.127 C 
HETATM    2 CL7  UNL     1     -40.911   5.825  -0.687  1.00 20.00    -0.121 Cl
ENDROOT
BRANCH   1   3
HETATM    3  C2  UNL     1     -41.625   8.416  -0.297  1.00 20.00     0.164 A 
HETATM    4  C1  UNL     1     -41.202   9.692   0.375  1.00 20.00     0.201 A 
HETATM    5  O5  UNL     1     -42.586   9.326   0.248  1.00 20.00    -0.380 OA
ENDBRANCH   1   3
BRANCH   1   6
HETATM    6  C3  UNL     1     -42.862   6.627   1.051  1.00 20.00     0.137 C 
HETATM    7 CL6  UNL     1     -42.968   4.868   1.312  1.00 20.00    -0.129 Cl
ENDBRANCH   1   6
TORSDOF 2
ENDMDL
MODEL 8
REMARK VINA RESULT:      -3.1     16.031     16.759
REMARK  2 active torsions:
REMARK  status: ('A' for Active; 'I' for Inactive)
REMARK    1  A    between atoms: C2_2  and  C4_4 
REMARK    2  A    between atoms: C3_3  and  C4_4 
ROOT
HETATM    1  C4  UNL     1     -24.684  17.313  11.204  1.00 20.00     0.127 C 
HETATM    2 CL7  UNL     1     -24.654  15.588  11.680  1.00 20.00    -0.121 Cl
ENDROOT
BRANCH   1   3
HETATM    3  C2  UNL     1     -25.428  18.126  12.258  1.00 20.00     0.164 A 
HETATM    4  C1  UNL     1     -26.930  18.163  12.294  1.00 20.00     0.201 A 
HETATM    5  O5  UNL     1     -26.159  19.242  11.741  1.00 20.00    -0.380 OA
ENDBRANCH   1   3
BRANCH   1   6
HETATM    6  C3  UNL     1     -23.268  17.818  10.921  1.00 20.00     0.137 C 
HETATM    7 CL6  UNL     1     -22.183  17.733  12.331  1.00 20.00    -0.129 Cl
ENDBRANCH   1   6
TORSDOF 2
ENDMDL
MODEL 9
REMARK VINA RESULT:      -3.1      9.100      9.523
REMARK  2 active torsions:
REMARK  status: ('A' for Active; 'I' for Inactive)
REMARK    1  A    between atoms: C2_2  and  C4_4 
REMARK    2  A    between atoms: C3_3  and  C4_4 
ROOT
HETATM    1  C4  UNL     1     -42.712   6.823   0.101  1.00 20.00     0.127 C 
HETATM    2 CL7  UNL     1     -43.172   5.895   1.561  1.00 20.00    -0.121 Cl
ENDROOT
BRANCH   1   3
HETATM    3  C2  UNL     1     -41.505   7.703   0.410  1.00 20.00     0.164 A 
HETATM    4  C1  UNL     1     -41.608   9.203   0.379  1.00 20.00     0.201 A 
HETATM    5  O5  UNL     1     -41.022   8.462  -0.704  1.00 20.00    -0.380 OA
ENDBRANCH   1   3
BRANCH   1   6
HETATM    6  C3  UNL     1     -42.503   5.886  -1.089  1.00 20.00     0.137 C 
HETATM    7 CL6  UNL     1     -40.876   5.165  -1.156  1.00 20.00    -0.129 Cl
ENDBRANCH   1   6
TORSDOF 2
ENDMDL
