MODEL 1
REMARK VINA RESULT:      -5.1      0.000      0.000
REMARK  0 active torsions:
REMARK  status: ('A' for Active; 'I' for Inactive)
ROOT
HETATM    1  C1  UNL     1     -35.770  13.999  -4.557  1.00 20.00     0.128 C 
HETATM    2  C2  UNL     1     -36.307  14.942  -5.608  1.00 20.00     0.087 C 
HETATM    3  C3  UNL     1     -35.077  14.640  -3.377  1.00 20.00     0.087 C 
HETATM    4  C4  UNL     1     -34.414  16.511  -4.965  1.00 20.00     0.018 C 
HETATM    5  C5  UNL     1     -35.208  15.877  -6.138  1.00 20.00    -0.041 C 
HETATM    6  C6  UNL     1     -33.936  15.564  -3.831  1.00 20.00    -0.041 C 
HETATM    7  C7  UNL     1     -34.295  15.120  -7.120  1.00 20.00     0.015 C 
HETATM    8  C8  UNL     1     -35.878  17.019  -6.934  1.00 20.00     0.015 C 
HETATM    9  C9  UNL     1     -32.708  14.731  -4.244  1.00 20.00     0.015 C 
HETATM   10  C10 UNL     1     -33.504  16.437  -2.630  1.00 20.00     0.015 C 
HETATM   11  O11 UNL     1     -35.957  12.785  -4.618  1.00 20.00    -0.298 OA
ENDROOT
TORSDOF 0
ENDMDL
MODEL 2
REMARK VINA RESULT:      -4.8      1.041      3.425
REMARK  0 active torsions:
REMARK  status: ('A' for Active; 'I' for Inactive)
ROOT
HETATM    1  C1  UNL     1     -35.449  13.853  -4.718  1.00 20.00     0.128 C 
HETATM    2  C2  UNL     1     -34.199  14.354  -4.033  1.00 20.00     0.087 C 
HETATM    3  C3  UNL     1     -35.967  14.696  -5.860  1.00 20.00     0.087 C 
HETATM    4  C4  UNL     1     -34.969  16.697  -4.650  1.00 20.00     0.018 C 
HETATM    5  C5  UNL     1     -34.372  15.798  -3.534  1.00 20.00    -0.041 C 
HETATM    6  C6  UNL     1     -36.200  16.152  -5.424  1.00 20.00    -0.041 C 
HETATM    7  C7  UNL     1     -35.220  15.818  -2.249  1.00 20.00     0.015 C 
HETATM    8  C8  UNL     1     -32.980  16.357  -3.164  1.00 20.00     0.015 C 
HETATM    9  C9  UNL     1     -37.500  16.260  -4.606  1.00 20.00     0.015 C 
HETATM   10  C10 UNL     1     -36.390  17.018  -6.689  1.00 20.00     0.015 C 
HETATM   11  O11 UNL     1     -35.970  12.781  -4.416  1.00 20.00    -0.298 OA
ENDROOT
TORSDOF 0
ENDMDL
MODEL 3
REMARK VINA RESULT:      -4.6      3.044      4.651
REMARK  0 active torsions:
REMARK  status: ('A' for Active; 'I' for Inactive)
ROOT
HETATM    1  C1  UNL     1     -32.769  17.847  -2.182  1.00 20.00     0.128 C 
HETATM    2  C2  UNL     1     -32.919  16.567  -2.969  1.00 20.00     0.087 C 
HETATM    3  C3  UNL     1     -33.412  17.869  -0.815  1.00 20.00     0.087 C 
HETATM    4  C4  UNL     1     -35.128  16.244  -1.753  1.00 20.00     0.018 C 
HETATM    5  C5  UNL     1     -34.397  16.171  -3.121  1.00 20.00    -0.041 C 
HETATM    6  C6  UNL     1     -34.907  17.517  -0.892  1.00 20.00    -0.041 C 
HETATM    7  C7  UNL     1     -35.073  17.044  -4.193  1.00 20.00     0.015 C 
HETATM    8  C8  UNL     1     -34.463  14.710  -3.620  1.00 20.00     0.015 C 
HETATM    9  C9  UNL     1     -35.711  18.723  -1.415  1.00 20.00     0.015 C 
HETATM   10  C10 UNL     1     -35.416  17.222   0.536  1.00 20.00     0.015 C 
HETATM   11  O11 UNL     1     -32.094  18.788  -2.595  1.00 20.00    -0.298 OA
ENDROOT
TORSDOF 0
ENDMDL
MODEL 4
REMARK VINA RESULT:      -4.4      2.174      3.960
REMARK  0 active torsions:
REMARK  status: ('A' for Active; 'I' for Inactive)
ROOT
HETATM    1  C1  UNL     1     -34.718  17.431  -4.732  1.00 20.00     0.128 C 
HETATM    2  C2  UNL     1     -34.997  17.947  -3.340  1.00 20.00     0.087 C 
HETATM    3  C3  UNL     1     -35.182  16.024  -5.027  1.00 20.00     0.087 C 
HETATM    4  C4  UNL     1     -34.808  15.535  -2.560  1.00 20.00     0.018 C 
HETATM    5  C5  UNL     1     -34.420  17.009  -2.267  1.00 20.00    -0.041 C 
HETATM    6  C6  UNL     1     -34.611  15.020  -4.012  1.00 20.00    -0.041 C 
HETATM    7  C7  UNL     1     -32.896  17.202  -2.156  1.00 20.00     0.015 C 
HETATM    8  C8  UNL     1     -35.025  17.399  -0.900  1.00 20.00     0.015 C 
HETATM    9  C9  UNL     1     -33.134  14.721  -4.331  1.00 20.00     0.015 C 
HETATM   10  C10 UNL     1     -35.381  13.687  -4.154  1.00 20.00     0.015 C 
HETATM   11  O11 UNL     1     -34.214  18.142  -5.599  1.00 20.00    -0.298 OA
ENDROOT
TORSDOF 0
ENDMDL
MODEL 5
REMARK VINA RESULT:      -4.4      2.533      4.537
REMARK  0 active torsions:
REMARK  status: ('A' for Active; 'I' for Inactive)
ROOT
HETATM    1  C1  UNL     1     -35.370  17.055  -1.643  1.00 20.00     0.128 C 
HETATM    2  C2  UNL     1     -34.183  17.629  -0.905  1.00 20.00     0.087 C 
HETATM    3  C3  UNL     1     -35.100  15.840  -2.499  1.00 20.00     0.087 C 
HETATM    4  C4  UNL     1     -32.754  16.766  -2.821  1.00 20.00     0.018 C 
HETATM    5  C5  UNL     1     -33.030  17.959  -1.867  1.00 20.00    -0.041 C 
HETATM    6  C6  UNL     1     -33.977  16.107  -3.515  1.00 20.00    -0.041 C 
HETATM    7  C7  UNL     1     -33.330  19.261  -2.630  1.00 20.00     0.015 C 
HETATM    8  C8  UNL     1     -31.754  18.208  -1.033  1.00 20.00     0.015 C 
HETATM    9  C9  UNL     1     -34.511  16.954  -4.686  1.00 20.00     0.015 C 
HETATM   10  C10 UNL     1     -33.520  14.756  -4.108  1.00 20.00     0.015 C 
HETATM   11  O11 UNL     1     -36.506  17.502  -1.493  1.00 20.00    -0.298 OA
ENDROOT
TORSDOF 0
ENDMDL
MODEL 6
REMARK VINA RESULT:      -4.2      1.566      2.277
REMARK  0 active torsions:
REMARK  status: ('A' for Active; 'I' for Inactive)
ROOT
HETATM    1  C1  UNL     1     -36.889  14.649  -4.596  1.00 20.00     0.128 C 
HETATM    2  C2  UNL     1     -35.926  14.443  -5.742  1.00 20.00     0.087 C 
HETATM    3  C3  UNL     1     -37.050  16.070  -4.109  1.00 20.00     0.087 C 
HETATM    4  C4  UNL     1     -34.644  16.444  -4.841  1.00 20.00     0.018 C 
HETATM    5  C5  UNL     1     -34.534  15.006  -5.415  1.00 20.00    -0.041 C 
HETATM    6  C6  UNL     1     -35.696  16.690  -3.725  1.00 20.00    -0.041 C 
HETATM    7  C7  UNL     1     -33.786  14.053  -4.465  1.00 20.00     0.015 C 
HETATM    8  C8  UNL     1     -33.714  15.075  -6.723  1.00 20.00     0.015 C 
HETATM    9  C9  UNL     1     -35.234  16.153  -2.358  1.00 20.00     0.015 C 
HETATM   10  C10 UNL     1     -35.881  18.216  -3.571  1.00 20.00     0.015 C 
HETATM   11  O11 UNL     1     -37.562  13.727  -4.140  1.00 20.00    -0.298 OA
ENDROOT
TORSDOF 0
ENDMDL
MODEL 7
REMARK VINA RESULT:      -4.2      2.184      3.591
REMARK  0 active torsions:
REMARK  status: ('A' for Active; 'I' for Inactive)
ROOT
HETATM    1  C1  UNL     1     -35.329  17.737  -4.160  1.00 20.00     0.128 C 
HETATM    2  C2  UNL     1     -34.616  16.626  -4.894  1.00 20.00     0.087 C 
HETATM    3  C3  UNL     1     -34.563  18.392  -3.034  1.00 20.00     0.087 C 
HETATM    4  C4  UNL     1     -33.403  16.152  -2.711  1.00 20.00     0.018 C 
HETATM    5  C5  UNL     1     -34.139  15.529  -3.927  1.00 20.00    -0.041 C 
HETATM    6  C6  UNL     1     -34.083  17.356  -2.004  1.00 20.00    -0.041 C 
HETATM    7  C7  UNL     1     -35.324  14.643  -3.504  1.00 20.00     0.015 C 
HETATM    8  C8  UNL     1     -33.139  14.619  -4.675  1.00 20.00     0.015 C 
HETATM    9  C9  UNL     1     -35.255  16.919  -1.104  1.00 20.00     0.015 C 
HETATM   10  C10 UNL     1     -33.035  18.025  -1.086  1.00 20.00     0.015 C 
HETATM   11  O11 UNL     1     -36.437  18.139  -4.509  1.00 20.00    -0.298 OA
ENDROOT
TORSDOF 0
ENDMDL
MODEL 8
REMARK VINA RESULT:      -4.1      1.642      2.515
REMARK  0 active torsions:
REMARK  status: ('A' for Active; 'I' for Inactive)
ROOT
HETATM    1  C1  UNL     1     -34.323  14.437  -4.079  1.00 20.00     0.128 C 
HETATM    2  C2  UNL     1     -35.751  13.975  -4.247  1.00 20.00     0.087 C 
HETATM    3  C3  UNL     1     -34.077  15.466  -3.000  1.00 20.00     0.087 C 
HETATM    4  C4  UNL     1     -36.445  16.283  -3.439  1.00 20.00     0.018 C 
HETATM    5  C5  UNL     1     -36.701  15.161  -4.481  1.00 20.00    -0.041 C 
HETATM    6  C6  UNL     1     -34.971  16.703  -3.190  1.00 20.00    -0.041 C 
HETATM    7  C7  UNL     1     -36.574  15.666  -5.929  1.00 20.00     0.015 C 
HETATM    8  C8  UNL     1     -38.154  14.666  -4.301  1.00 20.00     0.015 C 
HETATM    9  C9  UNL     1     -34.417  17.591  -4.321  1.00 20.00     0.015 C 
HETATM   10  C10 UNL     1     -34.927  17.544  -1.895  1.00 20.00     0.015 C 
HETATM   11  O11 UNL     1     -33.401  13.946  -4.727  1.00 20.00    -0.298 OA
ENDROOT
TORSDOF 0
ENDMDL
MODEL 9
REMARK VINA RESULT:      -4.1      1.601      2.089
REMARK  0 active torsions:
REMARK  status: ('A' for Active; 'I' for Inactive)
ROOT
HETATM    1  C1  UNL     1     -34.447  15.031  -4.868  1.00 20.00     0.128 C 
HETATM    2  C2  UNL     1     -35.426  15.875  -5.650  1.00 20.00     0.087 C 
HETATM    3  C3  UNL     1     -34.610  15.040  -3.366  1.00 20.00     0.087 C 
HETATM    4  C4  UNL     1     -35.514  17.403  -3.621  1.00 20.00     0.018 C 
HETATM    5  C5  UNL     1     -35.418  17.335  -5.169  1.00 20.00    -0.041 C 
HETATM    6  C6  UNL     1     -34.576  16.472  -2.805  1.00 20.00    -0.041 C 
HETATM    7  C7  UNL     1     -34.178  18.067  -5.711  1.00 20.00     0.015 C 
HETATM    8  C8  UNL     1     -36.657  18.050  -5.755  1.00 20.00     0.015 C 
HETATM    9  C9  UNL     1     -33.127  16.992  -2.764  1.00 20.00     0.015 C 
HETATM   10  C10 UNL     1     -35.085  16.440  -1.347  1.00 20.00     0.015 C 
HETATM   11  O11 UNL     1     -33.616  14.316  -5.425  1.00 20.00    -0.298 OA
ENDROOT
TORSDOF 0
ENDMDL
