MODEL 1
REMARK VINA RESULT:      -4.9      0.000      0.000
REMARK  2 active torsions:
REMARK  status: ('A' for Active; 'I' for Inactive)
REMARK    1  A    between atoms: C6_6  and  C11_11 
REMARK    2  A    between atoms: C11_11  and  O12_12 
ROOT
HETATM    1  C1  UNL     1     -33.001  17.717  -1.634  1.00 20.00    -0.024 C 
HETATM    2  C2  UNL     1     -33.964  17.806  -0.700  1.00 20.00    -0.087 C 
HETATM    3  C3  UNL     1     -33.070  16.796  -2.816  1.00 20.00     0.035 C 
HETATM    4  C4  UNL     1     -35.232  16.994  -0.783  1.00 20.00     0.034 C 
HETATM    5  C5  UNL     1     -35.452  16.332  -2.147  1.00 20.00     0.012 C 
HETATM    6  C6  UNL     1     -34.155  15.715  -2.680  1.00 20.00     0.023 C 
HETATM    7  C7  UNL     1     -33.838  18.715   0.487  1.00 20.00     0.043 C 
ENDROOT
BRANCH   6   8
HETATM    8  C11 UNL     1     -34.386  15.009  -4.013  1.00 20.00     0.057 C 
HETATM    9  C8  UNL     1     -33.065  14.515  -4.597  1.00 20.00     0.046 C 
HETATM   10  C9  UNL     1     -35.099  15.930  -5.003  1.00 20.00     0.046 C 
BRANCH   8  11
HETATM   11  O12 UNL     1     -35.210  13.864  -3.785  1.00 20.00    -0.385 OA
HETATM   12  C10 UNL     1     -36.245  13.774  -4.751  1.00 20.00     0.202 C 
ENDBRANCH   8  11
ENDBRANCH   6   8
TORSDOF 2
ENDMDL
MODEL 2
REMARK VINA RESULT:      -4.9      1.358      2.406
REMARK  2 active torsions:
REMARK  status: ('A' for Active; 'I' for Inactive)
REMARK    1  A    between atoms: C6_6  and  C11_11 
REMARK    2  A    between atoms: C11_11  and  O12_12 
ROOT
HETATM    1  C1  UNL     1     -35.093  16.643  -1.525  1.00 20.00    -0.024 C 
HETATM    2  C2  UNL     1     -33.906  17.273  -1.477  1.00 20.00    -0.087 C 
HETATM    3  C3  UNL     1     -35.508  15.737  -2.645  1.00 20.00     0.035 C 
HETATM    4  C4  UNL     1     -32.862  17.092  -2.550  1.00 20.00     0.034 C 
HETATM    5  C5  UNL     1     -33.144  15.916  -3.491  1.00 20.00     0.012 C 
HETATM    6  C6  UNL     1     -34.622  15.870  -3.894  1.00 20.00     0.023 C 
HETATM    7  C7  UNL     1     -33.544  18.201  -0.355  1.00 20.00     0.043 C 
ENDROOT
BRANCH   6   8
HETATM    8  C11 UNL     1     -34.891  14.730  -4.874  1.00 20.00     0.057 C 
HETATM    9  C8  UNL     1     -36.048  15.084  -5.805  1.00 20.00     0.046 C 
HETATM   10  C9  UNL     1     -35.180  13.427  -4.130  1.00 20.00     0.046 C 
BRANCH   8  11
HETATM   11  O12 UNL     1     -33.729  14.542  -5.684  1.00 20.00    -0.385 OA
HETATM   12  C10 UNL     1     -33.923  15.059  -6.990  1.00 20.00     0.202 C 
ENDBRANCH   8  11
ENDBRANCH   6   8
TORSDOF 2
ENDMDL
MODEL 3
REMARK VINA RESULT:      -4.9      0.958      1.568
REMARK  2 active torsions:
REMARK  status: ('A' for Active; 'I' for Inactive)
REMARK    1  A    between atoms: C6_6  and  C11_11 
REMARK    2  A    between atoms: C11_11  and  O12_12 
ROOT
HETATM    1  C1  UNL     1     -33.036  17.773  -1.560  1.00 20.00    -0.024 C 
HETATM    2  C2  UNL     1     -34.039  17.789  -0.666  1.00 20.00    -0.087 C 
HETATM    3  C3  UNL     1     -33.015  16.887  -2.771  1.00 20.00     0.035 C 
HETATM    4  C4  UNL     1     -35.265  16.925  -0.826  1.00 20.00     0.034 C 
HETATM    5  C5  UNL     1     -35.399  16.297  -2.217  1.00 20.00     0.012 C 
HETATM    6  C6  UNL     1     -34.054  15.756  -2.713  1.00 20.00     0.023 C 
HETATM    7  C7  UNL     1     -34.004  18.664   0.552  1.00 20.00     0.043 C 
ENDROOT
BRANCH   6   8
HETATM    8  C11 UNL     1     -34.199  15.082  -4.075  1.00 20.00     0.057 C 
HETATM    9  C8  UNL     1     -35.350  14.078  -4.059  1.00 20.00     0.046 C 
HETATM   10  C9  UNL     1     -32.896  14.398  -4.488  1.00 20.00     0.046 C 
BRANCH   8  11
HETATM   11  O12 UNL     1     -34.514  16.081  -5.047  1.00 20.00    -0.385 OA
HETATM   12  C10 UNL     1     -34.405  15.570  -6.365  1.00 20.00     0.202 C 
ENDBRANCH   8  11
ENDBRANCH   6   8
TORSDOF 2
ENDMDL
MODEL 4
REMARK VINA RESULT:      -4.9      1.083      2.083
REMARK  2 active torsions:
REMARK  status: ('A' for Active; 'I' for Inactive)
REMARK    1  A    between atoms: C6_6  and  C11_11 
REMARK    2  A    between atoms: C11_11  and  O12_12 
ROOT
HETATM    1  C1  UNL     1     -35.073  16.812  -1.118  1.00 20.00    -0.024 C 
HETATM    2  C2  UNL     1     -34.044  17.668  -0.989  1.00 20.00    -0.087 C 
HETATM    3  C3  UNL     1     -35.224  15.861  -2.269  1.00 20.00     0.035 C 
HETATM    4  C4  UNL     1     -32.920  17.722  -1.993  1.00 20.00     0.034 C 
HETATM    5  C5  UNL     1     -32.897  16.531  -2.956  1.00 20.00     0.012 C 
HETATM    6  C6  UNL     1     -34.306  16.194  -3.456  1.00 20.00     0.023 C 
HETATM    7  C7  UNL     1     -33.950  18.628   0.160  1.00 20.00     0.043 C 
ENDROOT
BRANCH   6   8
HETATM    8  C11 UNL     1     -34.276  15.043  -4.458  1.00 20.00     0.057 C 
HETATM    9  C8  UNL     1     -35.372  14.027  -4.143  1.00 20.00     0.046 C 
HETATM   10  C9  UNL     1     -32.905  14.366  -4.471  1.00 20.00     0.046 C 
BRANCH   8  11
HETATM   11  O12 UNL     1     -34.536  15.567  -5.761  1.00 20.00    -0.385 OA
HETATM   12  C10 UNL     1     -35.506  14.789  -6.444  1.00 20.00     0.202 C 
ENDBRANCH   8  11
ENDBRANCH   6   8
TORSDOF 2
ENDMDL
MODEL 5
REMARK VINA RESULT:      -4.6      0.569      1.550
REMARK  2 active torsions:
REMARK  status: ('A' for Active; 'I' for Inactive)
REMARK    1  A    between atoms: C6_6  and  C11_11 
REMARK    2  A    between atoms: C11_11  and  O12_12 
ROOT
HETATM    1  C1  UNL     1     -34.900  17.156  -0.740  1.00 20.00    -0.024 C 
HETATM    2  C2  UNL     1     -33.741  17.836  -0.715  1.00 20.00    -0.087 C 
HETATM    3  C3  UNL     1     -35.332  16.290  -1.887  1.00 20.00     0.035 C 
HETATM    4  C4  UNL     1     -32.746  17.759  -1.845  1.00 20.00     0.034 C 
HETATM    5  C5  UNL     1     -33.022  16.622  -2.833  1.00 20.00     0.012 C 
HETATM    6  C6  UNL     1     -34.515  16.529  -3.168  1.00 20.00     0.023 C 
HETATM    7  C7  UNL     1     -33.365  18.720   0.438  1.00 20.00     0.043 C 
ENDROOT
BRANCH   6   8
HETATM    8  C11 UNL     1     -34.783  15.431  -4.194  1.00 20.00     0.057 C 
HETATM    9  C8  UNL     1     -33.590  14.483  -4.292  1.00 20.00     0.046 C 
HETATM   10  C9  UNL     1     -35.104  16.030  -5.563  1.00 20.00     0.046 C 
BRANCH   8  11
HETATM   11  O12 UNL     1     -35.907  14.665  -3.759  1.00 20.00    -0.385 OA
HETATM   12  C10 UNL     1     -36.215  13.634  -4.683  1.00 20.00     0.202 C 
ENDBRANCH   8  11
ENDBRANCH   6   8
TORSDOF 2
ENDMDL
MODEL 6
REMARK VINA RESULT:      -4.3      1.805      2.742
REMARK  2 active torsions:
REMARK  status: ('A' for Active; 'I' for Inactive)
REMARK    1  A    between atoms: C6_6  and  C11_11 
REMARK    2  A    between atoms: C11_11  and  O12_12 
ROOT
HETATM    1  C1  UNL     1     -33.975  16.147  -2.379  1.00 20.00    -0.024 C 
HETATM    2  C2  UNL     1     -33.481  17.291  -2.884  1.00 20.00    -0.087 C 
HETATM    3  C3  UNL     1     -34.906  15.240  -3.128  1.00 20.00     0.035 C 
HETATM    4  C4  UNL     1     -33.802  17.748  -4.285  1.00 20.00     0.034 C 
HETATM    5  C5  UNL     1     -34.452  16.666  -5.153  1.00 20.00     0.012 C 
HETATM    6  C6  UNL     1     -35.524  15.899  -4.371  1.00 20.00     0.023 C 
HETATM    7  C7  UNL     1     -32.581  18.188  -2.086  1.00 20.00     0.043 C 
ENDROOT
BRANCH   6   8
HETATM    8  C11 UNL     1     -36.210  14.858  -5.253  1.00 20.00     0.057 C 
HETATM    9  C8  UNL     1     -36.238  13.499  -4.557  1.00 20.00     0.046 C 
HETATM   10  C9  UNL     1     -35.518  14.751  -6.611  1.00 20.00     0.046 C 
BRANCH   8  11
HETATM   11  O12 UNL     1     -37.564  15.260  -5.464  1.00 20.00    -0.385 OA
HETATM   12  C10 UNL     1     -38.339  15.097  -4.287  1.00 20.00     0.202 C 
ENDBRANCH   8  11
ENDBRANCH   6   8
TORSDOF 2
ENDMDL
MODEL 7
REMARK VINA RESULT:      -4.3      1.358      1.974
REMARK  2 active torsions:
REMARK  status: ('A' for Active; 'I' for Inactive)
REMARK    1  A    between atoms: C6_6  and  C11_11 
REMARK    2  A    between atoms: C11_11  and  O12_12 
ROOT
HETATM    1  C1  UNL     1     -33.210  18.371  -0.296  1.00 20.00    -0.024 C 
HETATM    2  C2  UNL     1     -34.217  18.139   0.564  1.00 20.00    -0.087 C 
HETATM    3  C3  UNL     1     -33.116  17.742  -1.655  1.00 20.00     0.035 C 
HETATM    4  C4  UNL     1     -35.373  17.236   0.215  1.00 20.00     0.034 C 
HETATM    5  C5  UNL     1     -35.451  16.883  -1.274  1.00 20.00     0.012 C 
HETATM    6  C6  UNL     1     -34.067  16.548  -1.838  1.00 20.00     0.023 C 
HETATM    7  C7  UNL     1     -34.254  18.762   1.929  1.00 20.00     0.043 C 
ENDROOT
BRANCH   6   8
HETATM    8  C11 UNL     1     -34.153  16.143  -3.308  1.00 20.00     0.057 C 
HETATM    9  C8  UNL     1     -34.476  17.354  -4.181  1.00 20.00     0.046 C 
HETATM   10  C9  UNL     1     -35.193  15.042  -3.511  1.00 20.00     0.046 C 
BRANCH   8  11
HETATM   11  O12 UNL     1     -32.878  15.645  -3.718  1.00 20.00    -0.385 OA
HETATM   12  C10 UNL     1     -33.013  14.457  -4.483  1.00 20.00     0.202 C 
ENDBRANCH   8  11
ENDBRANCH   6   8
TORSDOF 2
ENDMDL
MODEL 8
REMARK VINA RESULT:      -4.3      1.508      2.598
REMARK  2 active torsions:
REMARK  status: ('A' for Active; 'I' for Inactive)
REMARK    1  A    between atoms: C6_6  and  C11_11 
REMARK    2  A    between atoms: C11_11  and  O12_12 
ROOT
HETATM    1  C1  UNL     1     -35.340  16.872  -2.010  1.00 20.00    -0.024 C 
HETATM    2  C2  UNL     1     -34.001  16.989  -2.003  1.00 20.00    -0.087 C 
HETATM    3  C3  UNL     1     -36.106  16.145  -3.075  1.00 20.00     0.035 C 
HETATM    4  C4  UNL     1     -33.140  16.360  -3.069  1.00 20.00     0.034 C 
HETATM    5  C5  UNL     1     -33.883  15.342  -3.940  1.00 20.00     0.012 C 
HETATM    6  C6  UNL     1     -35.271  15.858  -4.333  1.00 20.00     0.023 C 
HETATM    7  C7  UNL     1     -33.277  17.755  -0.936  1.00 20.00     0.043 C 
ENDROOT
BRANCH   6   8
HETATM    8  C11 UNL     1     -35.989  14.867  -5.247  1.00 20.00     0.057 C 
HETATM    9  C8  UNL     1     -36.106  13.502  -4.573  1.00 20.00     0.046 C 
HETATM   10  C9  UNL     1     -35.271  14.743  -6.590  1.00 20.00     0.046 C 
BRANCH   8  11
HETATM   11  O12 UNL     1     -37.315  15.344  -5.484  1.00 20.00    -0.385 OA
HETATM   12  C10 UNL     1     -37.328  16.354  -6.479  1.00 20.00     0.202 C 
ENDBRANCH   8  11
ENDBRANCH   6   8
TORSDOF 2
ENDMDL
MODEL 9
REMARK VINA RESULT:      -4.2      2.049      4.960
REMARK  2 active torsions:
REMARK  status: ('A' for Active; 'I' for Inactive)
REMARK    1  A    between atoms: C6_6  and  C11_11 
REMARK    2  A    between atoms: C11_11  and  O12_12 
ROOT
HETATM    1  C1  UNL     1     -34.920  15.375  -2.953  1.00 20.00    -0.024 C 
HETATM    2  C2  UNL     1     -33.686  15.529  -3.462  1.00 20.00    -0.087 C 
HETATM    3  C3  UNL     1     -35.491  16.249  -1.875  1.00 20.00     0.035 C 
HETATM    4  C4  UNL     1     -32.766  16.633  -3.003  1.00 20.00     0.034 C 
HETATM    5  C5  UNL     1     -33.466  17.715  -2.175  1.00 20.00     0.012 C 
HETATM    6  C6  UNL     1     -34.429  17.096  -1.156  1.00 20.00     0.023 C 
HETATM    7  C7  UNL     1     -33.141  14.610  -4.515  1.00 20.00     0.043 C 
ENDROOT
BRANCH   6   8
HETATM    8  C11 UNL     1     -35.085  18.171  -0.294  1.00 20.00     0.057 C 
HETATM    9  C8  UNL     1     -35.702  19.260  -1.169  1.00 20.00     0.046 C 
HETATM   10  C9  UNL     1     -34.079  18.777   0.685  1.00 20.00     0.046 C 
BRANCH   8  11
HETATM   11  O12 UNL     1     -36.143  17.571   0.456  1.00 20.00    -0.385 OA
HETATM   12  C10 UNL     1     -36.161  18.049   1.792  1.00 20.00     0.202 C 
ENDBRANCH   8  11
ENDBRANCH   6   8
TORSDOF 2
ENDMDL
