MODEL 1
REMARK VINA RESULT:      -4.0      0.000      0.000
REMARK  2 active torsions:
REMARK  status: ('A' for Active; 'I' for Inactive)
REMARK    1  A    between atoms: C1_1  and  C3_3 
REMARK    2  A    between atoms: C2_2  and  C4_4 
ROOT
HETATM    1  C1  UNL     1     -33.368   6.656   3.456  1.00 20.00    -0.015 C 
HETATM    2  C2  UNL     1     -33.936   5.441   3.469  1.00 20.00    -0.015 C 
ENDROOT
BRANCH   1   3
HETATM    3  C3  UNL     1     -32.212   7.019   2.583  1.00 20.00     0.141 C 
HETATM    4 CL5  UNL     1     -32.749   8.114   1.291  1.00 20.00    -0.126 Cl
ENDBRANCH   1   3
BRANCH   2   5
HETATM    5  C4  UNL     1     -35.081   5.073   4.355  1.00 20.00     0.141 C 
HETATM    6 CL6  UNL     1     -34.701   5.494   6.039  1.00 20.00    -0.126 Cl
ENDBRANCH   2   5
TORSDOF 2
ENDMDL
MODEL 2
REMARK VINA RESULT:      -4.0      0.018      4.088
REMARK  2 active torsions:
REMARK  status: ('A' for Active; 'I' for Inactive)
REMARK    1  A    between atoms: C1_1  and  C3_3 
REMARK    2  A    between atoms: C2_2  and  C4_4 
ROOT
HETATM    1  C1  UNL     1     -33.948   5.449   3.474  1.00 20.00    -0.015 C 
HETATM    2  C2  UNL     1     -33.362   6.655   3.481  1.00 20.00    -0.015 C 
ENDROOT
BRANCH   1   3
HETATM    3  C3  UNL     1     -35.088   5.078   4.363  1.00 20.00     0.141 C 
HETATM    4 CL5  UNL     1     -34.699   5.484   6.048  1.00 20.00    -0.126 Cl
ENDBRANCH   1   3
BRANCH   2   5
HETATM    5  C4  UNL     1     -32.209   7.020   2.604  1.00 20.00     0.141 C 
HETATM    6 CL6  UNL     1     -32.756   8.102   1.305  1.00 20.00    -0.126 Cl
ENDBRANCH   2   5
TORSDOF 2
ENDMDL
MODEL 3
REMARK VINA RESULT:      -3.7      1.104      4.217
REMARK  2 active torsions:
REMARK  status: ('A' for Active; 'I' for Inactive)
REMARK    1  A    between atoms: C1_1  and  C3_3 
REMARK    2  A    between atoms: C2_2  and  C4_4 
ROOT
HETATM    1  C1  UNL     1     -33.676   6.563   4.007  1.00 20.00    -0.015 C 
HETATM    2  C2  UNL     1     -32.713   7.227   3.351  1.00 20.00    -0.015 C 
ENDROOT
BRANCH   1   3
HETATM    3  C3  UNL     1     -33.898   6.669   5.479  1.00 20.00     0.141 C 
HETATM    4 CL5  UNL     1     -34.801   5.253   6.059  1.00 20.00    -0.126 Cl
ENDBRANCH   1   3
BRANCH   2   5
HETATM    5  C4  UNL     1     -32.479   7.106   1.880  1.00 20.00     0.141 C 
HETATM    6 CL6  UNL     1     -32.818   8.658   1.085  1.00 20.00    -0.126 Cl
ENDBRANCH   2   5
TORSDOF 2
ENDMDL
MODEL 4
REMARK VINA RESULT:      -3.7      1.100      1.187
REMARK  2 active torsions:
REMARK  status: ('A' for Active; 'I' for Inactive)
REMARK    1  A    between atoms: C1_1  and  C3_3 
REMARK    2  A    between atoms: C2_2  and  C4_4 
ROOT
HETATM    1  C1  UNL     1     -32.729   7.232   3.351  1.00 20.00    -0.015 C 
HETATM    2  C2  UNL     1     -33.693   6.561   3.999  1.00 20.00    -0.015 C 
ENDROOT
BRANCH   1   3
HETATM    3  C3  UNL     1     -32.479   7.108   1.884  1.00 20.00     0.141 C 
HETATM    4 CL5  UNL     1     -32.797   8.661   1.083  1.00 20.00    -0.126 Cl
ENDBRANCH   1   3
BRANCH   2   5
HETATM    5  C4  UNL     1     -33.931   6.671   5.470  1.00 20.00     0.141 C 
HETATM    6 CL6  UNL     1     -34.804   5.237   6.050  1.00 20.00    -0.126 Cl
ENDBRANCH   2   5
TORSDOF 2
ENDMDL
MODEL 5
REMARK VINA RESULT:      -3.5      1.233      1.233
REMARK  2 active torsions:
REMARK  status: ('A' for Active; 'I' for Inactive)
REMARK    1  A    between atoms: C1_1  and  C3_3 
REMARK    2  A    between atoms: C2_2  and  C4_4 
ROOT
HETATM    1  C1  UNL     1     -33.118   6.454   2.919  1.00 20.00    -0.015 C 
HETATM    2  C2  UNL     1     -33.817   6.603   4.054  1.00 20.00    -0.015 C 
ENDROOT
BRANCH   1   3
HETATM    3  C3  UNL     1     -32.127   7.454   2.422  1.00 20.00     0.141 C 
HETATM    4 CL5  UNL     1     -32.770   8.284   0.990  1.00 20.00    -0.126 Cl
ENDBRANCH   1   3
BRANCH   2   5
HETATM    5  C4  UNL     1     -34.823   5.612   4.542  1.00 20.00     0.141 C 
HETATM    6 CL6  UNL     1     -34.327   3.970   4.081  1.00 20.00    -0.126 Cl
ENDBRANCH   2   5
TORSDOF 2
ENDMDL
MODEL 6
REMARK VINA RESULT:      -3.1      1.931      1.971
REMARK  2 active torsions:
REMARK  status: ('A' for Active; 'I' for Inactive)
REMARK    1  A    between atoms: C1_1  and  C3_3 
REMARK    2  A    between atoms: C2_2  and  C4_4 
ROOT
HETATM    1  C1  UNL     1     -33.630   6.069   3.747  1.00 20.00    -0.015 C 
HETATM    2  C2  UNL     1     -34.480   5.202   4.316  1.00 20.00    -0.015 C 
ENDROOT
BRANCH   1   3
HETATM    3  C3  UNL     1     -33.111   5.925   2.355  1.00 20.00     0.141 C 
HETATM    4 CL5  UNL     1     -32.986   4.205   1.930  1.00 20.00    -0.126 Cl
ENDBRANCH   1   3
BRANCH   2   5
HETATM    5  C4  UNL     1     -34.985   5.336   5.716  1.00 20.00     0.141 C 
HETATM    6 CL6  UNL     1     -34.285   6.782   6.475  1.00 20.00    -0.126 Cl
ENDBRANCH   2   5
TORSDOF 2
ENDMDL
MODEL 7
REMARK VINA RESULT:      -3.1      1.922      3.798
REMARK  2 active torsions:
REMARK  status: ('A' for Active; 'I' for Inactive)
REMARK    1  A    between atoms: C1_1  and  C3_3 
REMARK    2  A    between atoms: C2_2  and  C4_4 
ROOT
HETATM    1  C1  UNL     1     -34.506   5.188   4.280  1.00 20.00    -0.015 C 
HETATM    2  C2  UNL     1     -33.627   6.041   3.732  1.00 20.00    -0.015 C 
ENDROOT
BRANCH   1   3
HETATM    3  C3  UNL     1     -35.006   5.303   5.682  1.00 20.00     0.141 C 
HETATM    4 CL5  UNL     1     -34.296   6.732   6.463  1.00 20.00    -0.126 Cl
ENDBRANCH   1   3
BRANCH   2   5
HETATM    5  C4  UNL     1     -33.113   5.915   2.336  1.00 20.00     0.141 C 
HETATM    6 CL6  UNL     1     -32.988   4.200   1.890  1.00 20.00    -0.126 Cl
ENDBRANCH   2   5
TORSDOF 2
ENDMDL
MODEL 8
REMARK VINA RESULT:      -2.9     11.481     12.187
REMARK  2 active torsions:
REMARK  status: ('A' for Active; 'I' for Inactive)
REMARK    1  A    between atoms: C1_1  and  C3_3 
REMARK    2  A    between atoms: C2_2  and  C4_4 
ROOT
HETATM    1  C1  UNL     1     -34.434  16.106  -2.308  1.00 20.00    -0.015 C 
HETATM    2  C2  UNL     1     -33.389  16.946  -2.274  1.00 20.00    -0.015 C 
ENDROOT
BRANCH   1   3
HETATM    3  C3  UNL     1     -34.614  15.051  -3.349  1.00 20.00     0.141 C 
HETATM    4 CL5  UNL     1     -33.082  14.780  -4.207  1.00 20.00    -0.126 Cl
ENDBRANCH   1   3
BRANCH   2   5
HETATM    5  C4  UNL     1     -33.219  18.014  -1.244  1.00 20.00     0.141 C 
HETATM    6 CL6  UNL     1     -31.498  18.204  -0.849  1.00 20.00    -0.126 Cl
ENDBRANCH   2   5
TORSDOF 2
ENDMDL
MODEL 9
REMARK VINA RESULT:      -2.9     11.480     12.130
REMARK  2 active torsions:
REMARK  status: ('A' for Active; 'I' for Inactive)
REMARK    1  A    between atoms: C1_1  and  C3_3 
REMARK    2  A    between atoms: C2_2  and  C4_4 
ROOT
HETATM    1  C1  UNL     1     -33.354  16.929  -2.268  1.00 20.00    -0.015 C 
HETATM    2  C2  UNL     1     -34.409  16.103  -2.320  1.00 20.00    -0.015 C 
ENDROOT
BRANCH   1   3
HETATM    3  C3  UNL     1     -33.192  18.000  -1.240  1.00 20.00     0.141 C 
HETATM    4 CL5  UNL     1     -31.473  18.197  -0.837  1.00 20.00    -0.126 Cl
ENDBRANCH   1   3
BRANCH   2   5
HETATM    5  C4  UNL     1     -34.580  15.044  -3.359  1.00 20.00     0.141 C 
HETATM    6 CL6  UNL     1     -33.043  14.777  -4.208  1.00 20.00    -0.126 Cl
ENDBRANCH   2   5
TORSDOF 2
ENDMDL
