MODEL 1
REMARK VINA RESULT:      -3.0      0.000      0.000
REMARK  1 active torsions:
REMARK  status: ('A' for Active; 'I' for Inactive)
REMARK    1  A    between atoms: C5_5  and  S6_6 
ROOT
HETATM    1  C1  UNL     1     -25.278  18.346  12.245  1.00 20.00     0.026 C 
HETATM    2  C2  UNL     1     -24.600  16.024  11.558  1.00 20.00     0.026 C 
HETATM    3  C3  UNL     1     -22.849  17.695  12.238  1.00 20.00     0.026 C 
HETATM    4  C5  UNL     1     -24.204  17.504  11.551  1.00 20.00    -0.003 C 
ENDROOT
BRANCH   4   5
HETATM    5  S6  UNL     1     -24.061  18.055   9.806  1.00 20.00    -0.165 SA
HETATM    6  C4  UNL     1     -22.739  16.933   9.305  1.00 20.00     0.090 C 
ENDBRANCH   4   5
TORSDOF 1
ENDMDL
MODEL 2
REMARK VINA RESULT:      -3.0      1.368      2.071
REMARK  1 active torsions:
REMARK  status: ('A' for Active; 'I' for Inactive)
REMARK    1  A    between atoms: C5_5  and  S6_6 
ROOT
HETATM    1  C1  UNL     1     -22.815  17.576  12.203  1.00 20.00     0.026 C 
HETATM    2  C2  UNL     1     -24.539  15.800  11.764  1.00 20.00     0.026 C 
HETATM    3  C3  UNL     1     -23.336  16.884   9.841  1.00 20.00     0.026 C 
HETATM    4  C5  UNL     1     -23.910  17.096  11.245  1.00 20.00    -0.003 C 
ENDROOT
BRANCH   4   5
HETATM    5  S6  UNL     1     -25.217  18.380  11.158  1.00 20.00    -0.165 SA
HETATM    6  C4  UNL     1     -24.874  18.963   9.485  1.00 20.00     0.090 C 
ENDBRANCH   4   5
TORSDOF 1
ENDMDL
MODEL 3
REMARK VINA RESULT:      -2.8      1.611      2.808
REMARK  1 active torsions:
REMARK  status: ('A' for Active; 'I' for Inactive)
REMARK    1  A    between atoms: C5_5  and  S6_6 
ROOT
HETATM    1  C1  UNL     1     -23.897  18.273  10.005  1.00 20.00     0.026 C 
HETATM    2  C2  UNL     1     -22.916  17.830  12.276  1.00 20.00     0.026 C 
HETATM    3  C3  UNL     1     -24.492  16.166  11.244  1.00 20.00     0.026 C 
HETATM    4  C5  UNL     1     -24.147  17.652  11.382  1.00 20.00    -0.003 C 
ENDROOT
BRANCH   4   5
HETATM    5  S6  UNL     1     -25.562  18.514  12.168  1.00 20.00    -0.165 SA
HETATM    6  C4  UNL     1     -26.255  19.254  10.675  1.00 20.00     0.090 C 
ENDBRANCH   4   5
TORSDOF 1
ENDMDL
MODEL 4
REMARK VINA RESULT:      -2.8     23.284     24.119
REMARK  1 active torsions:
REMARK  status: ('A' for Active; 'I' for Inactive)
REMARK    1  A    between atoms: C5_5  and  S6_6 
ROOT
HETATM    1  C1  UNL     1     -41.275   7.469   0.626  1.00 20.00     0.026 C 
HETATM    2  C2  UNL     1     -42.611   5.362   0.931  1.00 20.00     0.026 C 
HETATM    3  C3  UNL     1     -40.962   5.541  -0.959  1.00 20.00     0.026 C 
HETATM    4  C5  UNL     1     -41.966   6.304  -0.090  1.00 20.00    -0.003 C 
ENDROOT
BRANCH   4   5
HETATM    5  S6  UNL     1     -43.287   6.978  -1.170  1.00 20.00    -0.165 SA
HETATM    6  C4  UNL     1     -43.414   8.610  -0.410  1.00 20.00     0.090 C 
ENDBRANCH   4   5
TORSDOF 1
ENDMDL
MODEL 5
REMARK VINA RESULT:      -2.8     23.350     24.234
REMARK  1 active torsions:
REMARK  status: ('A' for Active; 'I' for Inactive)
REMARK    1  A    between atoms: C5_5  and  S6_6 
ROOT
HETATM    1  C1  UNL     1     -41.073   5.493  -0.980  1.00 20.00     0.026 C 
HETATM    2  C2  UNL     1     -41.333   7.463   0.560  1.00 20.00     0.026 C 
HETATM    3  C3  UNL     1     -42.636   5.356   0.986  1.00 20.00     0.026 C 
HETATM    4  C5  UNL     1     -42.045   6.272  -0.089  1.00 20.00    -0.003 C 
ENDROOT
BRANCH   4   5
HETATM    5  S6  UNL     1     -43.412   6.915  -1.131  1.00 20.00    -0.165 SA
HETATM    6  C4  UNL     1     -43.357   8.630  -0.573  1.00 20.00     0.090 C 
ENDBRANCH   4   5
TORSDOF 1
ENDMDL
MODEL 6
REMARK VINA RESULT:      -2.7     18.231     19.047
REMARK  1 active torsions:
REMARK  status: ('A' for Active; 'I' for Inactive)
REMARK    1  A    between atoms: C5_5  and  S6_6 
ROOT
HETATM    1  C1  UNL     1     -35.451  13.907  -4.119  1.00 20.00     0.026 C 
HETATM    2  C2  UNL     1     -33.017  14.495  -4.339  1.00 20.00     0.026 C 
HETATM    3  C3  UNL     1     -34.466  15.738  -2.703  1.00 20.00     0.026 C 
HETATM    4  C5  UNL     1     -34.422  15.040  -4.066  1.00 20.00    -0.003 C 
ENDROOT
BRANCH   4   5
HETATM    5  S6  UNL     1     -34.830  16.266  -5.368  1.00 20.00    -0.165 SA
HETATM    6  C4  UNL     1     -34.253  15.313  -6.788  1.00 20.00     0.090 C 
ENDBRANCH   4   5
TORSDOF 1
ENDMDL
MODEL 7
REMARK VINA RESULT:      -2.7     18.272     19.053
REMARK  1 active torsions:
REMARK  status: ('A' for Active; 'I' for Inactive)
REMARK    1  A    between atoms: C5_5  and  S6_6 
ROOT
HETATM    1  C1  UNL     1     -34.516  15.711  -2.724  1.00 20.00     0.026 C 
HETATM    2  C2  UNL     1     -35.497  13.922  -4.192  1.00 20.00     0.026 C 
HETATM    3  C3  UNL     1     -33.048  14.469  -4.346  1.00 20.00     0.026 C 
HETATM    4  C5  UNL     1     -34.449  15.035  -4.097  1.00 20.00    -0.003 C 
ENDROOT
BRANCH   4   5
HETATM    5  S6  UNL     1     -34.815  16.287  -5.387  1.00 20.00    -0.165 SA
HETATM    6  C4  UNL     1     -34.276  15.327  -6.817  1.00 20.00     0.090 C 
ENDBRANCH   4   5
TORSDOF 1
ENDMDL
MODEL 8
REMARK VINA RESULT:      -2.7     23.180     23.941
REMARK  1 active torsions:
REMARK  status: ('A' for Active; 'I' for Inactive)
REMARK    1  A    between atoms: C5_5  and  S6_6 
ROOT
HETATM    1  C1  UNL     1     -43.415   8.461   0.194  1.00 20.00     0.026 C 
HETATM    2  C2  UNL     1     -43.285   6.340   1.538  1.00 20.00     0.026 C 
HETATM    3  C3  UNL     1     -41.175   7.463   0.757  1.00 20.00     0.026 C 
HETATM    4  C5  UNL     1     -42.637   7.160   0.418  1.00 20.00    -0.003 C 
ENDROOT
BRANCH   4   5
HETATM    5  S6  UNL     1     -42.691   6.171  -1.127  1.00 20.00    -0.165 SA
HETATM    6  C4  UNL     1     -41.035   5.461  -1.017  1.00 20.00     0.090 C 
ENDBRANCH   4   5
TORSDOF 1
ENDMDL
MODEL 9
REMARK VINA RESULT:      -2.7     18.278     19.147
REMARK  1 active torsions:
REMARK  status: ('A' for Active; 'I' for Inactive)
REMARK    1  A    between atoms: C5_5  and  S6_6 
ROOT
HETATM    1  C1  UNL     1     -33.045  14.482  -4.357  1.00 20.00     0.026 C 
HETATM    2  C2  UNL     1     -34.510  15.699  -2.717  1.00 20.00     0.026 C 
HETATM    3  C3  UNL     1     -35.485  13.899  -4.176  1.00 20.00     0.026 C 
HETATM    4  C5  UNL     1     -34.451  15.026  -4.092  1.00 20.00    -0.003 C 
ENDROOT
BRANCH   4   5
HETATM    5  S6  UNL     1     -34.846  16.283  -5.369  1.00 20.00    -0.165 SA
HETATM    6  C4  UNL     1     -34.363  15.319  -6.816  1.00 20.00     0.090 C 
ENDBRANCH   4   5
TORSDOF 1
ENDMDL
