MODEL 1
REMARK VINA RESULT:      -4.3      0.000      0.000
REMARK  2 active torsions:
REMARK  status: ('A' for Active; 'I' for Inactive)
REMARK    1  A    between atoms: C6_6  and  C7_7 
REMARK    2  A    between atoms: C7_7  and  C8_8 
ROOT
HETATM    1  C1  UNL     1     -22.402  17.769  11.653  1.00 20.00     0.069 C 
HETATM    2  C2  UNL     1     -24.696  15.732  11.541  1.00 20.00     0.002 C 
HETATM    3  C3  UNL     1     -25.269  16.907  12.332  1.00 20.00     0.002 C 
HETATM    4  C4  UNL     1     -23.956  16.341  10.349  1.00 20.00     0.024 C 
HETATM    5  C5  UNL     1     -24.849  18.172  11.583  1.00 20.00     0.024 C 
HETATM    6  C6  UNL     1     -23.602  17.768  10.787  1.00 20.00     0.050 C 
HETATM    7  N9  UNL     1     -21.462  17.770  12.332  1.00 20.00    -0.196 NA
ENDROOT
BRANCH   6   8
HETATM    8  C7  UNL     1     -23.362  18.690   9.593  1.00 20.00     0.039 C 
BRANCH   8   9
HETATM    9  C8  UNL     1     -23.270  17.948   8.268  1.00 20.00     0.116 C 
HETATM   10 CL10 UNL     1     -21.611  17.415   7.913  1.00 20.00    -0.130 Cl
ENDBRANCH   8   9
ENDBRANCH   6   8
TORSDOF 2
ENDMDL
MODEL 2
REMARK VINA RESULT:      -4.3     17.869     19.131
REMARK  2 active torsions:
REMARK  status: ('A' for Active; 'I' for Inactive)
REMARK    1  A    between atoms: C6_6  and  C7_7 
REMARK    2  A    between atoms: C7_7  and  C8_8 
ROOT
HETATM    1  C1  UNL     1     -36.317  14.402  -4.257  1.00 20.00     0.069 C 
HETATM    2  C2  UNL     1     -33.887  14.923  -6.057  1.00 20.00     0.002 C 
HETATM    3  C3  UNL     1     -34.771  16.154  -6.247  1.00 20.00     0.002 C 
HETATM    4  C4  UNL     1     -33.866  14.639  -4.555  1.00 20.00     0.024 C 
HETATM    5  C5  UNL     1     -35.245  16.559  -4.851  1.00 20.00     0.024 C 
HETATM    6  C6  UNL     1     -35.150  15.278  -4.012  1.00 20.00     0.050 C 
HETATM    7  N9  UNL     1     -37.232  13.716  -4.448  1.00 20.00    -0.196 NA
ENDROOT
BRANCH   6   8
HETATM    8  C7  UNL     1     -35.051  15.580  -2.518  1.00 20.00     0.039 C 
BRANCH   8   9
HETATM    9  C8  UNL     1     -34.657  17.019  -2.220  1.00 20.00     0.116 C 
HETATM   10 CL10 UNL     1     -32.892  17.224  -2.128  1.00 20.00    -0.130 Cl
ENDBRANCH   8   9
ENDBRANCH   6   8
TORSDOF 2
ENDMDL
MODEL 3
REMARK VINA RESULT:      -4.2     18.849     19.982
REMARK  2 active torsions:
REMARK  status: ('A' for Active; 'I' for Inactive)
REMARK    1  A    between atoms: C6_6  and  C7_7 
REMARK    2  A    between atoms: C7_7  and  C8_8 
ROOT
HETATM    1  C1  UNL     1     -37.049  14.448  -4.547  1.00 20.00     0.069 C 
HETATM    2  C2  UNL     1     -35.571  16.778  -3.203  1.00 20.00     0.002 C 
HETATM    3  C3  UNL     1     -34.854  15.529  -2.694  1.00 20.00     0.002 C 
HETATM    4  C4  UNL     1     -35.776  16.571  -4.704  1.00 20.00     0.024 C 
HETATM    5  C5  UNL     1     -34.658  14.623  -3.910  1.00 20.00     0.024 C 
HETATM    6  C6  UNL     1     -35.746  15.050  -4.903  1.00 20.00     0.050 C 
HETATM    7  N9  UNL     1     -38.071  13.975  -4.268  1.00 20.00    -0.196 NA
ENDROOT
BRANCH   6   8
HETATM    8  C7  UNL     1     -35.390  14.669  -6.339  1.00 20.00     0.039 C 
BRANCH   8   9
HETATM    9  C8  UNL     1     -33.974  15.062  -6.733  1.00 20.00     0.116 C 
HETATM   10 CL10 UNL     1     -33.952  16.388  -7.918  1.00 20.00    -0.130 Cl
ENDBRANCH   8   9
ENDBRANCH   6   8
TORSDOF 2
ENDMDL
MODEL 4
REMARK VINA RESULT:      -4.1      2.095      2.371
REMARK  2 active torsions:
REMARK  status: ('A' for Active; 'I' for Inactive)
REMARK    1  A    between atoms: C6_6  and  C7_7 
REMARK    2  A    between atoms: C7_7  and  C8_8 
ROOT
HETATM    1  C1  UNL     1     -22.416  17.206   9.016  1.00 20.00     0.069 C 
HETATM    2  C2  UNL     1     -24.284  16.134  11.202  1.00 20.00     0.002 C 
HETATM    3  C3  UNL     1     -23.154  16.818  11.969  1.00 20.00     0.002 C 
HETATM    4  C4  UNL     1     -24.661  17.082  10.063  1.00 20.00     0.024 C 
HETATM    5  C5  UNL     1     -22.899  18.148  11.259  1.00 20.00     0.024 C 
HETATM    6  C6  UNL     1     -23.411  17.939   9.829  1.00 20.00     0.050 C 
HETATM    7  N9  UNL     1     -21.636  16.632   8.378  1.00 20.00    -0.196 NA
ENDROOT
BRANCH   6   8
HETATM    8  C7  UNL     1     -23.745  19.263   9.143  1.00 20.00     0.039 C 
BRANCH   8   9
HETATM    9  C8  UNL     1     -25.061  19.229   8.379  1.00 20.00     0.116 C 
HETATM   10 CL10 UNL     1     -24.814  19.263   6.618  1.00 20.00    -0.130 Cl
ENDBRANCH   8   9
ENDBRANCH   6   8
TORSDOF 2
ENDMDL
MODEL 5
REMARK VINA RESULT:      -4.1     15.944     17.160
REMARK  2 active torsions:
REMARK  status: ('A' for Active; 'I' for Inactive)
REMARK    1  A    between atoms: C6_6  and  C7_7 
REMARK    2  A    between atoms: C7_7  and  C8_8 
ROOT
HETATM    1  C1  UNL     1     -34.627  17.870  -3.611  1.00 20.00     0.069 C 
HETATM    2  C2  UNL     1     -34.990  14.831  -3.386  1.00 20.00     0.002 C 
HETATM    3  C3  UNL     1     -33.632  15.003  -4.065  1.00 20.00     0.002 C 
HETATM    4  C4  UNL     1     -35.024  15.842  -2.239  1.00 20.00     0.024 C 
HETATM    5  C5  UNL     1     -32.907  16.110  -3.299  1.00 20.00     0.024 C 
HETATM    6  C6  UNL     1     -34.022  16.932  -2.641  1.00 20.00     0.050 C 
HETATM    7  N9  UNL     1     -35.101  18.607  -4.372  1.00 20.00    -0.196 NA
ENDROOT
BRANCH   6   8
HETATM    8  C7  UNL     1     -33.515  17.716  -1.431  1.00 20.00     0.039 C 
BRANCH   8   9
HETATM    9  C8  UNL     1     -32.207  18.447  -1.694  1.00 20.00     0.116 C 
HETATM   10 CL10 UNL     1     -31.025  18.196  -0.389  1.00 20.00    -0.130 Cl
ENDBRANCH   8   9
ENDBRANCH   6   8
TORSDOF 2
ENDMDL
MODEL 6
REMARK VINA RESULT:      -4.1     24.071     24.831
REMARK  2 active torsions:
REMARK  status: ('A' for Active; 'I' for Inactive)
REMARK    1  A    between atoms: C6_6  and  C7_7 
REMARK    2  A    between atoms: C7_7  and  C8_8 
ROOT
HETATM    1  C1  UNL     1     -42.894   5.890   0.874  1.00 20.00     0.069 C 
HETATM    2  C2  UNL     1     -43.165   8.689  -0.354  1.00 20.00     0.002 C 
HETATM    3  C3  UNL     1     -41.840   8.734   0.406  1.00 20.00     0.002 C 
HETATM    4  C4  UNL     1     -43.181   7.357  -1.105  1.00 20.00     0.024 C 
HETATM    5  C5  UNL     1     -41.116   7.427   0.080  1.00 20.00     0.024 C 
HETATM    6  C6  UNL     1     -42.226   6.448  -0.322  1.00 20.00     0.050 C 
HETATM    7  N9  UNL     1     -43.417   5.451   1.812  1.00 20.00    -0.196 NA
ENDROOT
BRANCH   6   8
HETATM    8  C7  UNL     1     -41.693   5.303  -1.182  1.00 20.00     0.039 C 
BRANCH   8   9
HETATM    9  C8  UNL     1     -42.793   4.464  -1.816  1.00 20.00     0.116 C 
HETATM   10 CL10 UNL     1     -42.143   3.228  -2.918  1.00 20.00    -0.130 Cl
ENDBRANCH   8   9
ENDBRANCH   6   8
TORSDOF 2
ENDMDL
MODEL 7
REMARK VINA RESULT:      -4.0     17.085     18.217
REMARK  2 active torsions:
REMARK  status: ('A' for Active; 'I' for Inactive)
REMARK    1  A    between atoms: C6_6  and  C7_7 
REMARK    2  A    between atoms: C7_7  and  C8_8 
ROOT
HETATM    1  C1  UNL     1     -34.799  17.126  -4.345  1.00 20.00     0.069 C 
HETATM    2  C2  UNL     1     -33.381  17.582  -1.662  1.00 20.00     0.002 C 
HETATM    3  C3  UNL     1     -34.771  17.079  -1.276  1.00 20.00     0.002 C 
HETATM    4  C4  UNL     1     -32.904  16.686  -2.805  1.00 20.00     0.024 C 
HETATM    5  C5  UNL     1     -35.072  15.902  -2.205  1.00 20.00     0.024 C 
HETATM    6  C6  UNL     1     -34.187  16.131  -3.437  1.00 20.00     0.050 C 
HETATM    7  N9  UNL     1     -35.278  17.905  -5.058  1.00 20.00    -0.196 NA
ENDROOT
BRANCH   6   8
HETATM    8  C7  UNL     1     -33.933  14.836  -4.206  1.00 20.00     0.039 C 
BRANCH   8   9
HETATM    9  C8  UNL     1     -34.964  13.754  -3.918  1.00 20.00     0.116 C 
HETATM   10 CL10 UNL     1     -36.407  13.915  -4.945  1.00 20.00    -0.130 Cl
ENDBRANCH   8   9
ENDBRANCH   6   8
TORSDOF 2
ENDMDL
MODEL 8
REMARK VINA RESULT:      -4.0     18.727     19.966
REMARK  2 active torsions:
REMARK  status: ('A' for Active; 'I' for Inactive)
REMARK    1  A    between atoms: C6_6  and  C7_7 
REMARK    2  A    between atoms: C7_7  and  C8_8 
ROOT
HETATM    1  C1  UNL     1     -36.972  14.446  -4.490  1.00 20.00     0.069 C 
HETATM    2  C2  UNL     1     -35.821  15.587  -7.095  1.00 20.00     0.002 C 
HETATM    3  C3  UNL     1     -36.377  16.805  -6.360  1.00 20.00     0.002 C 
HETATM    4  C4  UNL     1     -35.069  14.764  -6.049  1.00 20.00     0.024 C 
HETATM    5  C5  UNL     1     -35.938  16.663  -4.902  1.00 20.00     0.024 C 
HETATM    6  C6  UNL     1     -35.695  15.161  -4.706  1.00 20.00     0.050 C 
HETATM    7  N9  UNL     1     -37.973  13.885  -4.319  1.00 20.00    -0.196 NA
ENDROOT
BRANCH   6   8
HETATM    8  C7  UNL     1     -34.756  14.883  -3.533  1.00 20.00     0.039 C 
BRANCH   8   9
HETATM    9  C8  UNL     1     -33.366  15.471  -3.724  1.00 20.00     0.116 C 
HETATM   10 CL10 UNL     1     -33.018  16.763  -2.552  1.00 20.00    -0.130 Cl
ENDBRANCH   8   9
ENDBRANCH   6   8
TORSDOF 2
ENDMDL
MODEL 9
REMARK VINA RESULT:      -4.0      3.293      3.935
REMARK  2 active torsions:
REMARK  status: ('A' for Active; 'I' for Inactive)
REMARK    1  A    between atoms: C6_6  and  C7_7 
REMARK    2  A    between atoms: C7_7  and  C8_8 
ROOT
HETATM    1  C1  UNL     1     -24.843  18.512  10.006  1.00 20.00     0.069 C 
HETATM    2  C2  UNL     1     -24.299  15.923  11.562  1.00 20.00     0.002 C 
HETATM    3  C3  UNL     1     -23.164  16.859  11.974  1.00 20.00     0.002 C 
HETATM    4  C4  UNL     1     -25.578  16.760  11.601  1.00 20.00     0.024 C 
HETATM    5  C5  UNL     1     -23.809  18.220  12.242  1.00 20.00     0.024 C 
HETATM    6  C6  UNL     1     -25.110  18.210  11.430  1.00 20.00     0.050 C 
HETATM    7  N9  UNL     1     -24.634  18.749   8.890  1.00 20.00    -0.196 NA
ENDROOT
BRANCH   6   8
HETATM    8  C7  UNL     1     -26.130  19.209  11.974  1.00 20.00     0.039 C 
BRANCH   8   9
HETATM    9  C8  UNL     1     -27.413  19.263  11.157  1.00 20.00     0.116 C 
HETATM   10 CL10 UNL     1     -28.753  18.411  11.959  1.00 20.00    -0.130 Cl
ENDBRANCH   8   9
ENDBRANCH   6   8
TORSDOF 2
ENDMDL
