MODEL 1
REMARK VINA RESULT:      -4.5      0.000      0.000
REMARK  1 active torsions:
REMARK  status: ('A' for Active; 'I' for Inactive)
REMARK    1  A    between atoms: C4_4  and  C9_9 
ROOT
HETATM    1  C1  UNL     1     -34.421   5.021   5.958  1.00 20.00    -0.025 C 
HETATM    2  C2  UNL     1     -34.187   4.130   4.982  1.00 20.00    -0.025 C 
HETATM    3  C5  UNL     1     -35.501   5.794   4.069  1.00 20.00     0.017 C 
HETATM    4  C6  UNL     1     -33.473   6.889   4.637  1.00 20.00     0.017 C 
HETATM    5  C7  UNL     1     -34.759   6.335   5.292  1.00 20.00     0.009 C 
HETATM    6  C8  UNL     1     -34.354   4.857   3.666  1.00 20.00     0.016 C 
HETATM    7  C9  UNL     1     -33.166   5.836   3.540  1.00 20.00     0.015 C 
ENDROOT
BRANCH   7   8
HETATM    8  C4  UNL     1     -33.064   6.446   2.176  1.00 20.00    -0.031 C 
HETATM    9  C3  UNL     1     -32.432   7.596   1.916  1.00 20.00     0.007 C 
ENDBRANCH   7   8
TORSDOF 1
ENDMDL
MODEL 2
REMARK VINA RESULT:      -4.4      8.478      9.649
REMARK  1 active torsions:
REMARK  status: ('A' for Active; 'I' for Inactive)
REMARK    1  A    between atoms: C4_4  and  C9_9 
ROOT
HETATM    1  C1  UNL     1     -42.559   9.192   0.034  1.00 20.00    -0.025 C 
HETATM    2  C2  UNL     1     -41.329   8.862   0.456  1.00 20.00    -0.025 C 
HETATM    3  C5  UNL     1     -42.710   7.084   0.966  1.00 20.00     0.017 C 
HETATM    4  C6  UNL     1     -42.727   7.183  -1.406  1.00 20.00     0.017 C 
HETATM    5  C7  UNL     1     -43.321   7.902  -0.174  1.00 20.00     0.009 C 
HETATM    6  C8  UNL     1     -41.268   7.352   0.514  1.00 20.00     0.016 C 
HETATM    7  C9  UNL     1     -41.285   6.844  -0.944  1.00 20.00     0.015 C 
ENDROOT
BRANCH   7   8
HETATM    8  C4  UNL     1     -40.981   5.382  -1.050  1.00 20.00    -0.031 C 
HETATM    9  C3  UNL     1     -41.693   4.521  -1.786  1.00 20.00     0.007 C 
ENDBRANCH   7   8
TORSDOF 1
ENDMDL
MODEL 3
REMARK VINA RESULT:      -4.3     11.640     12.715
REMARK  1 active torsions:
REMARK  status: ('A' for Active; 'I' for Inactive)
REMARK    1  A    between atoms: C4_4  and  C9_9 
ROOT
HETATM    1  C1  UNL     1     -34.864  14.193  -3.846  1.00 20.00    -0.025 C 
HETATM    2  C2  UNL     1     -33.634  14.528  -4.265  1.00 20.00    -0.025 C 
HETATM    3  C5  UNL     1     -34.950  16.412  -4.477  1.00 20.00     0.017 C 
HETATM    4  C6  UNL     1     -34.897  15.990  -2.141  1.00 20.00     0.017 C 
HETATM    5  C7  UNL     1     -35.561  15.471  -3.437  1.00 20.00     0.009 C 
HETATM    6  C8  UNL     1     -33.508  16.028  -4.120  1.00 20.00     0.016 C 
HETATM    7  C9  UNL     1     -33.456  16.331  -2.607  1.00 20.00     0.015 C 
ENDROOT
BRANCH   7   8
HETATM    8  C4  UNL     1     -33.085  17.752  -2.315  1.00 20.00    -0.031 C 
HETATM    9  C3  UNL     1     -32.251  18.121  -1.336  1.00 20.00     0.007 C 
ENDBRANCH   7   8
TORSDOF 1
ENDMDL
MODEL 4
REMARK VINA RESULT:      -4.3      8.691      9.706
REMARK  1 active torsions:
REMARK  status: ('A' for Active; 'I' for Inactive)
REMARK    1  A    between atoms: C4_4  and  C9_9 
ROOT
HETATM    1  C1  UNL     1     -42.134   4.863  -1.588  1.00 20.00    -0.025 C 
HETATM    2  C2  UNL     1     -43.322   5.233  -1.085  1.00 20.00    -0.025 C 
HETATM    3  C5  UNL     1     -41.737   5.706   0.524  1.00 20.00     0.017 C 
HETATM    4  C6  UNL     1     -41.176   7.129  -1.292  1.00 20.00     0.017 C 
HETATM    5  C7  UNL     1     -41.073   5.650  -0.853  1.00 20.00     0.009 C 
HETATM    6  C8  UNL     1     -43.051   6.277  -0.026  1.00 20.00     0.016 C 
HETATM    7  C9  UNL     1     -42.571   7.548  -0.759  1.00 20.00     0.015 C 
ENDROOT
BRANCH   7   8
HETATM    8  C4  UNL     1     -42.502   8.742   0.141  1.00 20.00    -0.031 C 
HETATM    9  C3  UNL     1     -41.390   9.457   0.353  1.00 20.00     0.007 C 
ENDBRANCH   7   8
TORSDOF 1
ENDMDL
MODEL 5
REMARK VINA RESULT:      -4.3     15.857     16.823
REMARK  1 active torsions:
REMARK  status: ('A' for Active; 'I' for Inactive)
REMARK    1  A    between atoms: C4_4  and  C9_9 
ROOT
HETATM    1  C1  UNL     1     -25.433  16.398  12.292  1.00 20.00    -0.025 C 
HETATM    2  C2  UNL     1     -25.792  17.681  12.133  1.00 20.00    -0.025 C 
HETATM    3  C5  UNL     1     -23.491  17.647  12.304  1.00 20.00     0.017 C 
HETATM    4  C6  UNL     1     -23.952  16.450  10.306  1.00 20.00     0.017 C 
HETATM    5  C7  UNL     1     -23.994  16.278  11.842  1.00 20.00     0.009 C 
HETATM    6  C8  UNL     1     -24.597  18.411  11.564  1.00 20.00     0.016 C 
HETATM    7  C9  UNL     1     -24.418  17.917  10.112  1.00 20.00     0.015 C 
ENDROOT
BRANCH   7   8
HETATM    8  C4  UNL     1     -23.425  18.733   9.343  1.00 20.00    -0.031 C 
HETATM    9  C3  UNL     1     -22.272  18.252   8.864  1.00 20.00     0.007 C 
ENDBRANCH   7   8
TORSDOF 1
ENDMDL
MODEL 6
REMARK VINA RESULT:      -4.2      8.647     10.011
REMARK  1 active torsions:
REMARK  status: ('A' for Active; 'I' for Inactive)
REMARK    1  A    between atoms: C4_4  and  C9_9 
ROOT
HETATM    1  C1  UNL     1     -41.455   7.607   0.618  1.00 20.00    -0.025 C 
HETATM    2  C2  UNL     1     -42.716   7.216   0.859  1.00 20.00    -0.025 C 
HETATM    3  C5  UNL     1     -42.563   7.619  -1.408  1.00 20.00     0.017 C 
HETATM    4  C6  UNL     1     -41.091   5.795  -1.033  1.00 20.00     0.017 C 
HETATM    5  C7  UNL     1     -41.173   7.327  -0.841  1.00 20.00     0.009 C 
HETATM    6  C8  UNL     1     -43.267   6.663  -0.435  1.00 20.00     0.016 C 
HETATM    7  C9  UNL     1     -42.534   5.330  -0.703  1.00 20.00     0.015 C 
ENDROOT
BRANCH   7   8
HETATM    8  C4  UNL     1     -43.150   4.548  -1.821  1.00 20.00    -0.031 C 
HETATM    9  C3  UNL     1     -42.496   3.628  -2.540  1.00 20.00     0.007 C 
ENDBRANCH   7   8
TORSDOF 1
ENDMDL
MODEL 7
REMARK VINA RESULT:      -4.2      8.659      9.979
REMARK  1 active torsions:
REMARK  status: ('A' for Active; 'I' for Inactive)
REMARK    1  A    between atoms: C4_4  and  C9_9 
ROOT
HETATM    1  C1  UNL     1     -41.115   8.665  -0.562  1.00 20.00    -0.025 C 
HETATM    2  C2  UNL     1     -42.048   9.056   0.320  1.00 20.00    -0.025 C 
HETATM    3  C5  UNL     1     -43.058   7.536  -1.092  1.00 20.00     0.017 C 
HETATM    4  C6  UNL     1     -41.391   6.276   0.035  1.00 20.00     0.017 C 
HETATM    5  C7  UNL     1     -41.544   7.317  -1.097  1.00 20.00     0.009 C 
HETATM    6  C8  UNL     1     -43.090   7.962   0.382  1.00 20.00     0.016 C 
HETATM    7  C9  UNL     1     -42.431   6.753   1.083  1.00 20.00     0.015 C 
ENDROOT
BRANCH   7   8
HETATM    8  C4  UNL     1     -43.417   5.684   1.435  1.00 20.00    -0.031 C 
HETATM    9  C3  UNL     1     -43.397   4.448   0.921  1.00 20.00     0.007 C 
ENDBRANCH   7   8
TORSDOF 1
ENDMDL
MODEL 8
REMARK VINA RESULT:      -4.2     11.781     12.671
REMARK  1 active torsions:
REMARK  status: ('A' for Active; 'I' for Inactive)
REMARK    1  A    between atoms: C4_4  and  C9_9 
ROOT
HETATM    1  C1  UNL     1     -33.602  17.123  -1.916  1.00 20.00    -0.025 C 
HETATM    2  C2  UNL     1     -34.794  16.612  -1.573  1.00 20.00    -0.025 C 
HETATM    3  C5  UNL     1     -34.936  17.204  -3.799  1.00 20.00     0.017 C 
HETATM    4  C6  UNL     1     -33.300  15.485  -3.750  1.00 20.00     0.017 C 
HETATM    5  C7  UNL     1     -33.471  16.984  -3.416  1.00 20.00     0.009 C 
HETATM    6  C8  UNL     1     -35.449  16.119  -2.843  1.00 20.00     0.016 C 
HETATM    7  C9  UNL     1     -34.657  14.877  -3.306  1.00 20.00     0.015 C 
ENDROOT
BRANCH   7   8
HETATM    8  C4  UNL     1     -35.339  14.137  -4.414  1.00 20.00    -0.031 C 
HETATM    9  C3  UNL     1     -36.666  13.991  -4.510  1.00 20.00     0.007 C 
ENDBRANCH   7   8
TORSDOF 1
ENDMDL
MODEL 9
REMARK VINA RESULT:      -4.1     15.887     17.192
REMARK  1 active torsions:
REMARK  status: ('A' for Active; 'I' for Inactive)
REMARK    1  A    between atoms: C4_4  and  C9_9 
ROOT
HETATM    1  C1  UNL     1     -22.372  17.853  10.250  1.00 20.00    -0.025 C 
HETATM    2  C2  UNL     1     -23.348  18.426   9.528  1.00 20.00    -0.025 C 
HETATM    3  C5  UNL     1     -24.249  16.529  10.486  1.00 20.00     0.017 C 
HETATM    4  C6  UNL     1     -23.715  17.925  12.331  1.00 20.00     0.017 C 
HETATM    5  C7  UNL     1     -23.039  16.993  11.299  1.00 20.00     0.009 C 
HETATM    6  C8  UNL     1     -24.664  17.958  10.107  1.00 20.00     0.016 C 
HETATM    7  C9  UNL     1     -24.811  18.630  11.490  1.00 20.00     0.015 C 
ENDROOT
BRANCH   7   8
HETATM    8  C4  UNL     1     -26.179  18.454  12.074  1.00 20.00    -0.031 C 
HETATM    9  C3  UNL     1     -27.286  19.006  11.566  1.00 20.00     0.007 C 
ENDBRANCH   7   8
TORSDOF 1
ENDMDL
