MODEL 1
REMARK VINA RESULT:      -4.2      0.000      0.000
REMARK  1 active torsions:
REMARK  status: ('A' for Active; 'I' for Inactive)
REMARK    1  A    between atoms: C1_1  and  C2_2 
ROOT
HETATM    1  C1  UNL     1     -33.707   5.288   3.607  1.00 20.00    -0.005 C 
HETATM    2  C3  UNL     1     -34.408   5.877   4.586  1.00 20.00    -0.031 C 
HETATM    3  C5  UNL     1     -34.845   5.176   5.830  1.00 20.00     0.036 C 
ENDROOT
BRANCH   1   4
HETATM    4  C2  UNL     1     -33.290   5.978   2.407  1.00 20.00    -0.005 C 
HETATM    5  C4  UNL     1     -32.640   7.151   2.424  1.00 20.00    -0.031 C 
HETATM    6  C6  UNL     1     -32.205   7.874   1.192  1.00 20.00     0.036 C 
ENDBRANCH   1   4
TORSDOF 1
ENDMDL
MODEL 2
REMARK VINA RESULT:      -4.2      0.077      3.969
REMARK  1 active torsions:
REMARK  status: ('A' for Active; 'I' for Inactive)
REMARK    1  A    between atoms: C1_1  and  C2_2 
ROOT
HETATM    1  C1  UNL     1     -33.399   5.967   2.402  1.00 20.00    -0.005 C 
HETATM    2  C3  UNL     1     -32.680   7.099   2.430  1.00 20.00    -0.031 C 
HETATM    3  C5  UNL     1     -32.249   7.837   1.205  1.00 20.00     0.036 C 
ENDROOT
BRANCH   1   4
HETATM    4  C2  UNL     1     -33.811   5.262   3.594  1.00 20.00    -0.005 C 
HETATM    5  C4  UNL     1     -34.426   5.861   4.625  1.00 20.00    -0.031 C 
HETATM    6  C6  UNL     1     -34.856   5.144   5.862  1.00 20.00     0.036 C 
ENDBRANCH   1   4
TORSDOF 1
ENDMDL
MODEL 3
REMARK VINA RESULT:      -3.3     11.066     12.082
REMARK  1 active torsions:
REMARK  status: ('A' for Active; 'I' for Inactive)
REMARK    1  A    between atoms: C1_1  and  C2_2 
ROOT
HETATM    1  C1  UNL     1     -34.145  16.928  -1.746  1.00 20.00    -0.005 C 
HETATM    2  C3  UNL     1     -32.920  17.301  -2.141  1.00 20.00    -0.031 C 
HETATM    3  C5  UNL     1     -32.137  18.395  -1.493  1.00 20.00     0.036 C 
ENDROOT
BRANCH   1   4
HETATM    4  C2  UNL     1     -34.893  15.867  -2.382  1.00 20.00    -0.005 C 
HETATM    5  C4  UNL     1     -34.404  15.126  -3.388  1.00 20.00    -0.031 C 
HETATM    6  C6  UNL     1     -35.166  14.028  -4.053  1.00 20.00     0.036 C 
ENDBRANCH   1   4
TORSDOF 1
ENDMDL
MODEL 4
REMARK VINA RESULT:      -3.3     11.062     11.930
REMARK  1 active torsions:
REMARK  status: ('A' for Active; 'I' for Inactive)
REMARK    1  A    between atoms: C1_1  and  C2_2 
ROOT
HETATM    1  C1  UNL     1     -34.897  15.866  -2.379  1.00 20.00    -0.005 C 
HETATM    2  C3  UNL     1     -34.407  15.122  -3.380  1.00 20.00    -0.031 C 
HETATM    3  C5  UNL     1     -35.170  14.026  -4.048  1.00 20.00     0.036 C 
ENDROOT
BRANCH   1   4
HETATM    4  C2  UNL     1     -34.148  16.924  -1.740  1.00 20.00    -0.005 C 
HETATM    5  C4  UNL     1     -32.929  17.308  -2.147  1.00 20.00    -0.031 C 
HETATM    6  C6  UNL     1     -32.144  18.400  -1.495  1.00 20.00     0.036 C 
ENDBRANCH   1   4
TORSDOF 1
ENDMDL
MODEL 5
REMARK VINA RESULT:      -3.3     11.243     11.874
REMARK  1 active torsions:
REMARK  status: ('A' for Active; 'I' for Inactive)
REMARK    1  A    between atoms: C1_1  and  C2_2 
ROOT
HETATM    1  C1  UNL     1     -33.234  15.864  -3.410  1.00 20.00    -0.005 C 
HETATM    2  C3  UNL     1     -33.683  16.585  -2.372  1.00 20.00    -0.031 C 
HETATM    3  C5  UNL     1     -32.904  17.684  -1.729  1.00 20.00     0.036 C 
ENDROOT
BRANCH   1   4
HETATM    4  C2  UNL     1     -33.998  14.801  -4.024  1.00 20.00    -0.005 C 
HETATM    5  C4  UNL     1     -35.326  14.675  -3.880  1.00 20.00    -0.031 C 
HETATM    6  C6  UNL     1     -36.126  13.582  -4.509  1.00 20.00     0.036 C 
ENDBRANCH   1   4
TORSDOF 1
ENDMDL
MODEL 6
REMARK VINA RESULT:      -3.3      9.291      9.614
REMARK  1 active torsions:
REMARK  status: ('A' for Active; 'I' for Inactive)
REMARK    1  A    between atoms: C1_1  and  C2_2 
ROOT
HETATM    1  C1  UNL     1     -41.304   5.581  -0.981  1.00 20.00    -0.005 C 
HETATM    2  C3  UNL     1     -42.451   5.071  -1.450  1.00 20.00    -0.031 C 
HETATM    3  C5  UNL     1     -42.527   3.848  -2.302  1.00 20.00     0.036 C 
ENDROOT
BRANCH   1   4
HETATM    4  C2  UNL     1     -41.243   6.767  -0.157  1.00 20.00    -0.005 C 
HETATM    5  C4  UNL     1     -41.500   7.999  -0.623  1.00 20.00    -0.031 C 
HETATM    6  C6  UNL     1     -41.441   9.232   0.217  1.00 20.00     0.036 C 
ENDBRANCH   1   4
TORSDOF 1
ENDMDL
MODEL 7
REMARK VINA RESULT:      -3.3      9.245      9.727
REMARK  1 active torsions:
REMARK  status: ('A' for Active; 'I' for Inactive)
REMARK    1  A    between atoms: C1_1  and  C2_2 
ROOT
HETATM    1  C1  UNL     1     -41.313   6.853  -0.126  1.00 20.00    -0.005 C 
HETATM    2  C3  UNL     1     -41.388   8.106  -0.598  1.00 20.00    -0.031 C 
HETATM    3  C5  UNL     1     -41.415   9.318   0.272  1.00 20.00     0.036 C 
ENDROOT
BRANCH   1   4
HETATM    4  C2  UNL     1     -41.288   5.687  -0.980  1.00 20.00    -0.005 C 
HETATM    5  C4  UNL     1     -42.399   5.075  -1.418  1.00 20.00    -0.031 C 
HETATM    6  C6  UNL     1     -42.387   3.869  -2.299  1.00 20.00     0.036 C 
ENDBRANCH   1   4
TORSDOF 1
ENDMDL
MODEL 8
REMARK VINA RESULT:      -3.2     11.457     11.708
REMARK  1 active torsions:
REMARK  status: ('A' for Active; 'I' for Inactive)
REMARK    1  A    between atoms: C1_1  and  C2_2 
ROOT
HETATM    1  C1  UNL     1     -33.949  17.070  -1.750  1.00 20.00    -0.005 C 
HETATM    2  C3  UNL     1     -35.119  16.710  -1.203  1.00 20.00    -0.031 C 
HETATM    3  C5  UNL     1     -35.739  17.410  -0.039  1.00 20.00     0.036 C 
ENDROOT
BRANCH   1   4
HETATM    4  C2  UNL     1     -33.359  16.385  -2.878  1.00 20.00    -0.005 C 
HETATM    5  C4  UNL     1     -33.908  15.300  -3.446  1.00 20.00    -0.031 C 
HETATM    6  C6  UNL     1     -33.309  14.583  -4.611  1.00 20.00     0.036 C 
ENDBRANCH   1   4
TORSDOF 1
ENDMDL
MODEL 9
REMARK VINA RESULT:      -3.2     11.435     12.076
REMARK  1 active torsions:
REMARK  status: ('A' for Active; 'I' for Inactive)
REMARK    1  A    between atoms: C1_1  and  C2_2 
ROOT
HETATM    1  C1  UNL     1     -33.366  16.390  -2.783  1.00 20.00    -0.005 C 
HETATM    2  C3  UNL     1     -33.925  15.354  -3.424  1.00 20.00    -0.031 C 
HETATM    3  C5  UNL     1     -33.234  14.568  -4.488  1.00 20.00     0.036 C 
ENDROOT
BRANCH   1   4
HETATM    4  C2  UNL     1     -34.045  17.145  -1.755  1.00 20.00    -0.005 C 
HETATM    5  C4  UNL     1     -35.138  16.697  -1.118  1.00 20.00    -0.031 C 
HETATM    6  C6  UNL     1     -35.850  17.466  -0.054  1.00 20.00     0.036 C 
ENDBRANCH   1   4
TORSDOF 1
ENDMDL
