MODEL 1
REMARK VINA RESULT:      -3.5      0.000      0.000
REMARK  1 active torsions:
REMARK  status: ('A' for Active; 'I' for Inactive)
REMARK    1  A    between atoms: C7_7  and  C8_8 
ROOT
HETATM    1  C1  UNL     1     -34.961  17.475  -4.122  1.00 20.00     0.015 C 
HETATM    2  C2  UNL     1     -35.130  15.959  -2.158  1.00 20.00     0.015 C 
HETATM    3  C3  UNL     1     -32.905  16.771  -2.913  1.00 20.00     0.015 C 
HETATM    4  C7  UNL     1     -34.283  16.276  -3.414  1.00 20.00    -0.045 C 
ENDROOT
BRANCH   4   5
HETATM    5  C8  UNL     1     -34.150  15.010  -4.379  1.00 20.00    -0.045 C 
HETATM    6  C4  UNL     1     -35.102  13.862  -3.964  1.00 20.00     0.015 C 
HETATM    7  C5  UNL     1     -32.716  14.426  -4.376  1.00 20.00     0.015 C 
HETATM    8  C6  UNL     1     -34.486  15.362  -5.848  1.00 20.00     0.015 C 
ENDBRANCH   4   5
TORSDOF 1
ENDMDL
MODEL 2
REMARK VINA RESULT:      -3.5      0.075      3.071
REMARK  1 active torsions:
REMARK  status: ('A' for Active; 'I' for Inactive)
REMARK    1  A    between atoms: C7_7  and  C8_8 
ROOT
HETATM    1  C1  UNL     1     -35.190  13.935  -4.051  1.00 20.00     0.015 C 
HETATM    2  C2  UNL     1     -34.447  15.462  -5.868  1.00 20.00     0.015 C 
HETATM    3  C3  UNL     1     -32.770  14.418  -4.359  1.00 20.00     0.015 C 
HETATM    4  C7  UNL     1     -34.179  15.056  -4.398  1.00 20.00    -0.045 C 
ENDROOT
BRANCH   4   5
HETATM    5  C8  UNL     1     -34.301  16.299  -3.403  1.00 20.00    -0.045 C 
HETATM    6  C4  UNL     1     -32.915  16.780  -2.905  1.00 20.00     0.015 C 
HETATM    7  C5  UNL     1     -35.135  15.957  -2.145  1.00 20.00     0.015 C 
HETATM    8  C6  UNL     1     -34.982  17.516  -4.075  1.00 20.00     0.015 C 
ENDBRANCH   4   5
TORSDOF 1
ENDMDL
MODEL 3
REMARK VINA RESULT:      -3.5      0.054      2.157
REMARK  1 active torsions:
REMARK  status: ('A' for Active; 'I' for Inactive)
REMARK    1  A    between atoms: C7_7  and  C8_8 
ROOT
HETATM    1  C1  UNL     1     -35.189  15.937  -2.190  1.00 20.00     0.015 C 
HETATM    2  C2  UNL     1     -32.948  16.751  -2.895  1.00 20.00     0.015 C 
HETATM    3  C3  UNL     1     -34.981  17.483  -4.126  1.00 20.00     0.015 C 
HETATM    4  C7  UNL     1     -34.320  16.270  -3.427  1.00 20.00    -0.045 C 
ENDROOT
BRANCH   4   5
HETATM    5  C8  UNL     1     -34.175  15.020  -4.410  1.00 20.00    -0.045 C 
HETATM    6  C4  UNL     1     -34.470  15.401  -5.881  1.00 20.00     0.015 C 
HETATM    7  C5  UNL     1     -35.148  13.875  -4.040  1.00 20.00     0.015 C 
HETATM    8  C6  UNL     1     -32.747  14.421  -4.380  1.00 20.00     0.015 C 
ENDBRANCH   4   5
TORSDOF 1
ENDMDL
MODEL 4
REMARK VINA RESULT:      -3.5      0.079      3.071
REMARK  1 active torsions:
REMARK  status: ('A' for Active; 'I' for Inactive)
REMARK    1  A    between atoms: C7_7  and  C8_8 
ROOT
HETATM    1  C1  UNL     1     -34.514  15.449  -5.843  1.00 20.00     0.015 C 
HETATM    2  C2  UNL     1     -32.800  14.415  -4.368  1.00 20.00     0.015 C 
HETATM    3  C3  UNL     1     -35.211  13.930  -4.001  1.00 20.00     0.015 C 
HETATM    4  C7  UNL     1     -34.211  15.050  -4.378  1.00 20.00    -0.045 C 
ENDROOT
BRANCH   4   5
HETATM    5  C8  UNL     1     -34.311  16.298  -3.386  1.00 20.00    -0.045 C 
HETATM    6  C4  UNL     1     -34.991  17.518  -4.056  1.00 20.00     0.015 C 
HETATM    7  C5  UNL     1     -32.919  16.771  -2.905  1.00 20.00     0.015 C 
HETATM    8  C6  UNL     1     -35.135  15.967  -2.118  1.00 20.00     0.015 C 
ENDBRANCH   4   5
TORSDOF 1
ENDMDL
MODEL 5
REMARK VINA RESULT:      -3.5      0.146      2.139
REMARK  1 active torsions:
REMARK  status: ('A' for Active; 'I' for Inactive)
REMARK    1  A    between atoms: C7_7  and  C8_8 
ROOT
HETATM    1  C1  UNL     1     -32.905  16.783  -2.870  1.00 20.00     0.015 C 
HETATM    2  C2  UNL     1     -34.984  17.581  -3.976  1.00 20.00     0.015 C 
HETATM    3  C3  UNL     1     -35.121  15.973  -2.085  1.00 20.00     0.015 C 
HETATM    4  C7  UNL     1     -34.308  16.337  -3.351  1.00 20.00    -0.045 C 
ENDROOT
BRANCH   4   5
HETATM    5  C8  UNL     1     -34.228  15.119  -4.381  1.00 20.00    -0.045 C 
HETATM    6  C4  UNL     1     -32.826  14.460  -4.391  1.00 20.00     0.015 C 
HETATM    7  C5  UNL     1     -34.523  15.567  -5.833  1.00 20.00     0.015 C 
HETATM    8  C6  UNL     1     -35.245  14.003  -4.040  1.00 20.00     0.015 C 
ENDBRANCH   4   5
TORSDOF 1
ENDMDL
MODEL 6
REMARK VINA RESULT:      -3.5      0.103      3.071
REMARK  1 active torsions:
REMARK  status: ('A' for Active; 'I' for Inactive)
REMARK    1  A    between atoms: C7_7  and  C8_8 
ROOT
HETATM    1  C1  UNL     1     -32.820  14.440  -4.389  1.00 20.00     0.015 C 
HETATM    2  C2  UNL     1     -35.216  13.930  -3.965  1.00 20.00     0.015 C 
HETATM    3  C3  UNL     1     -34.581  15.461  -5.817  1.00 20.00     0.015 C 
HETATM    4  C7  UNL     1     -34.238  15.061  -4.362  1.00 20.00    -0.045 C 
ENDROOT
BRANCH   4   5
HETATM    5  C8  UNL     1     -34.325  16.305  -3.363  1.00 20.00    -0.045 C 
HETATM    6  C4  UNL     1     -35.167  15.979  -2.105  1.00 20.00     0.015 C 
HETATM    7  C5  UNL     1     -34.977  17.540  -4.030  1.00 20.00     0.015 C 
HETATM    8  C6  UNL     1     -32.928  16.749  -2.866  1.00 20.00     0.015 C 
ENDBRANCH   4   5
TORSDOF 1
ENDMDL
MODEL 7
REMARK VINA RESULT:      -3.5      0.170      1.527
REMARK  1 active torsions:
REMARK  status: ('A' for Active; 'I' for Inactive)
REMARK    1  A    between atoms: C7_7  and  C8_8 
ROOT
HETATM    1  C1  UNL     1     -32.907  16.797  -2.858  1.00 20.00     0.015 C 
HETATM    2  C2  UNL     1     -34.986  17.604  -3.958  1.00 20.00     0.015 C 
HETATM    3  C3  UNL     1     -35.124  15.993  -2.070  1.00 20.00     0.015 C 
HETATM    4  C7  UNL     1     -34.312  16.357  -3.336  1.00 20.00    -0.045 C 
ENDROOT
BRANCH   4   5
HETATM    5  C8  UNL     1     -34.238  15.141  -4.369  1.00 20.00    -0.045 C 
HETATM    6  C4  UNL     1     -35.267  14.033  -4.036  1.00 20.00     0.015 C 
HETATM    7  C5  UNL     1     -32.844  14.469  -4.375  1.00 20.00     0.015 C 
HETATM    8  C6  UNL     1     -34.523  15.595  -5.821  1.00 20.00     0.015 C 
ENDBRANCH   4   5
TORSDOF 1
ENDMDL
MODEL 8
REMARK VINA RESULT:      -3.5     17.144     18.293
REMARK  1 active torsions:
REMARK  status: ('A' for Active; 'I' for Inactive)
REMARK    1  A    between atoms: C7_7  and  C8_8 
ROOT
HETATM    1  C1  UNL     1     -23.268  19.165   8.936  1.00 20.00     0.015 C 
HETATM    2  C2  UNL     1     -21.357  18.164  10.173  1.00 20.00     0.015 C 
HETATM    3  C3  UNL     1     -22.796  16.731   8.739  1.00 20.00     0.015 C 
HETATM    4  C7  UNL     1     -22.821  17.916   9.734  1.00 20.00    -0.045 C 
ENDROOT
BRANCH   4   5
HETATM    5  C8  UNL     1     -23.778  17.629  10.980  1.00 20.00    -0.045 C 
HETATM    6  C4  UNL     1     -24.238  16.152  11.030  1.00 20.00     0.015 C 
HETATM    7  C5  UNL     1     -25.059  18.496  10.940  1.00 20.00     0.015 C 
HETATM    8  C6  UNL     1     -23.078  17.926  12.329  1.00 20.00     0.015 C 
ENDBRANCH   4   5
TORSDOF 1
ENDMDL
MODEL 9
REMARK VINA RESULT:      -3.5     10.980     12.706
REMARK  1 active torsions:
REMARK  status: ('A' for Active; 'I' for Inactive)
REMARK    1  A    between atoms: C7_7  and  C8_8 
ROOT
HETATM    1  C1  UNL     1     -43.407   8.028  -1.677  1.00 20.00     0.015 C 
HETATM    2  C2  UNL     1     -43.417   7.989   0.810  1.00 20.00     0.015 C 
HETATM    3  C3  UNL     1     -41.284   8.338  -0.419  1.00 20.00     0.015 C 
HETATM    4  C7  UNL     1     -42.614   7.546  -0.437  1.00 20.00    -0.045 C 
ENDROOT
BRANCH   4   5
HETATM    5  C8  UNL     1     -42.370   5.968  -0.461  1.00 20.00    -0.045 C 
HETATM    6  C4  UNL     1     -43.363   5.242  -1.402  1.00 20.00     0.015 C 
HETATM    7  C5  UNL     1     -42.536   5.334   0.941  1.00 20.00     0.015 C 
HETATM    8  C6  UNL     1     -40.945   5.609  -0.950  1.00 20.00     0.015 C 
ENDBRANCH   4   5
TORSDOF 1
ENDMDL
