MODEL 1
REMARK VINA RESULT:      -4.9      0.000      0.000
REMARK  0 active torsions:
REMARK  status: ('A' for Active; 'I' for Inactive)
ROOT
HETATM    1  C1  UNL     1     -35.673  13.944  -4.377  1.00 20.00     0.064 C 
HETATM    2  C2  UNL     1     -33.413  16.913  -2.206  1.00 20.00     0.005 C 
HETATM    3  C3  UNL     1     -34.358  17.391  -4.470  1.00 20.00     0.005 C 
HETATM    4  C4  UNL     1     -34.819  16.543  -1.710  1.00 20.00     0.006 C 
HETATM    5  C5  UNL     1     -35.754  16.990  -3.974  1.00 20.00     0.006 C 
HETATM    6  C6  UNL     1     -33.512  15.103  -3.937  1.00 20.00     0.024 C 
HETATM    7  C7  UNL     1     -34.886  14.683  -3.375  1.00 20.00     0.097 C 
HETATM    8  C8  UNL     1     -33.278  16.608  -3.708  1.00 20.00    -0.013 C 
HETATM    9  C9  UNL     1     -35.643  15.931  -2.860  1.00 20.00     0.003 C 
HETATM   10  N10 UNL     1     -36.293  13.362  -5.166  1.00 20.00    -0.197 NA
ENDROOT
TORSDOF 0
ENDMDL
MODEL 2
REMARK VINA RESULT:      -4.9      1.144      2.196
REMARK  0 active torsions:
REMARK  status: ('A' for Active; 'I' for Inactive)
ROOT
HETATM    1  C1  UNL     1     -36.807  14.649  -4.209  1.00 20.00     0.064 C 
HETATM    2  C2  UNL     1     -33.399  17.240  -3.654  1.00 20.00     0.005 C 
HETATM    3  C3  UNL     1     -33.121  14.822  -4.225  1.00 20.00     0.005 C 
HETATM    4  C4  UNL     1     -34.273  17.423  -4.904  1.00 20.00     0.006 C 
HETATM    5  C5  UNL     1     -34.020  15.007  -5.455  1.00 20.00     0.006 C 
HETATM    6  C6  UNL     1     -34.999  15.539  -2.743  1.00 20.00     0.024 C 
HETATM    7  C7  UNL     1     -35.913  15.794  -3.960  1.00 20.00     0.097 C 
HETATM    8  C8  UNL     1     -33.528  15.805  -3.116  1.00 20.00    -0.013 C 
HETATM    9  C9  UNL     1     -35.050  16.125  -5.201  1.00 20.00     0.003 C 
HETATM   10  N10 UNL     1     -37.511  13.749  -4.405  1.00 20.00    -0.197 NA
ENDROOT
TORSDOF 0
ENDMDL
MODEL 3
REMARK VINA RESULT:      -4.7      1.404      1.929
REMARK  0 active torsions:
REMARK  status: ('A' for Active; 'I' for Inactive)
ROOT
HETATM    1  C1  UNL     1     -37.170  14.446  -4.123  1.00 20.00     0.064 C 
HETATM    2  C2  UNL     1     -33.092  15.777  -3.645  1.00 20.00     0.005 C 
HETATM    3  C3  UNL     1     -33.976  15.057  -5.869  1.00 20.00     0.005 C 
HETATM    4  C4  UNL     1     -34.224  16.809  -3.541  1.00 20.00     0.006 C 
HETATM    5  C5  UNL     1     -35.123  16.069  -5.743  1.00 20.00     0.006 C 
HETATM    6  C6  UNL     1     -34.759  13.911  -3.792  1.00 20.00     0.024 C 
HETATM    7  C7  UNL     1     -35.887  14.946  -3.600  1.00 20.00     0.097 C 
HETATM    8  C8  UNL     1     -33.545  14.566  -4.478  1.00 20.00    -0.013 C 
HETATM    9  C9  UNL     1     -35.484  16.287  -4.260  1.00 20.00     0.003 C 
HETATM   10  N10 UNL     1     -38.180  14.052  -4.535  1.00 20.00    -0.197 NA
ENDROOT
TORSDOF 0
ENDMDL
MODEL 4
REMARK VINA RESULT:      -4.7      0.813      1.183
REMARK  0 active torsions:
REMARK  status: ('A' for Active; 'I' for Inactive)
ROOT
HETATM    1  C1  UNL     1     -35.162  13.653  -4.209  1.00 20.00     0.064 C 
HETATM    2  C2  UNL     1     -33.331  17.504  -3.534  1.00 20.00     0.005 C 
HETATM    3  C3  UNL     1     -35.703  17.303  -4.297  1.00 20.00     0.005 C 
HETATM    4  C4  UNL     1     -33.658  16.617  -2.324  1.00 20.00     0.006 C 
HETATM    5  C5  UNL     1     -36.013  16.392  -3.102  1.00 20.00     0.006 C 
HETATM    6  C6  UNL     1     -33.997  15.666  -5.103  1.00 20.00     0.024 C 
HETATM    7  C7  UNL     1     -34.239  14.754  -3.882  1.00 20.00     0.097 C 
HETATM    8  C8  UNL     1     -34.236  17.140  -4.724  1.00 20.00    -0.013 C 
HETATM    9  C9  UNL     1     -34.756  15.600  -2.693  1.00 20.00     0.003 C 
HETATM   10  N10 UNL     1     -35.889  12.786  -4.465  1.00 20.00    -0.197 NA
ENDROOT
TORSDOF 0
ENDMDL
MODEL 5
REMARK VINA RESULT:      -4.7     10.631     12.489
REMARK  0 active torsions:
REMARK  status: ('A' for Active; 'I' for Inactive)
ROOT
HETATM    1  C1  UNL     1     -41.953   9.137   0.314  1.00 20.00     0.064 C 
HETATM    2  C2  UNL     1     -43.374   5.115  -0.348  1.00 20.00     0.005 C 
HETATM    3  C3  UNL     1     -41.125   5.852  -1.152  1.00 20.00     0.005 C 
HETATM    4  C4  UNL     1     -42.991   5.540   1.077  1.00 20.00     0.006 C 
HETATM    5  C5  UNL     1     -40.763   6.303   0.269  1.00 20.00     0.006 C 
HETATM    6  C6  UNL     1     -43.039   7.457  -1.173  1.00 20.00     0.024 C 
HETATM    7  C7  UNL     1     -42.741   7.892   0.277  1.00 20.00     0.097 C 
HETATM    8  C8  UNL     1     -42.639   5.984  -1.382  1.00 20.00    -0.013 C 
HETATM    9  C9  UNL     1     -42.028   6.743   1.030  1.00 20.00     0.003 C 
HETATM   10  N10 UNL     1     -41.333  10.116   0.343  1.00 20.00    -0.197 NA
ENDROOT
TORSDOF 0
ENDMDL
MODEL 6
REMARK VINA RESULT:      -4.5     10.492     12.399
REMARK  0 active torsions:
REMARK  status: ('A' for Active; 'I' for Inactive)
ROOT
HETATM    1  C1  UNL     1     -41.613   9.129  -0.217  1.00 20.00     0.064 C 
HETATM    2  C2  UNL     1     -42.349   5.019  -1.312  1.00 20.00     0.005 C 
HETATM    3  C3  UNL     1     -42.372   5.757   1.076  1.00 20.00     0.005 C 
HETATM    4  C4  UNL     1     -43.417   6.075  -1.636  1.00 20.00     0.006 C 
HETATM    5  C5  UNL     1     -43.416   6.829   0.737  1.00 20.00     0.006 C 
HETATM    6  C6  UNL     1     -40.773   6.805  -0.531  1.00 20.00     0.024 C 
HETATM    7  C7  UNL     1     -41.818   7.863  -0.942  1.00 20.00     0.097 C 
HETATM    8  C8  UNL     1     -41.471   5.489  -0.140  1.00 20.00    -0.013 C 
HETATM    9  C9  UNL     1     -43.244   7.302  -0.720  1.00 20.00     0.003 C 
HETATM   10  N10 UNL     1     -41.453  10.126   0.353  1.00 20.00    -0.197 NA
ENDROOT
TORSDOF 0
ENDMDL
MODEL 7
REMARK VINA RESULT:      -4.3      2.382      3.647
REMARK  0 active torsions:
REMARK  status: ('A' for Active; 'I' for Inactive)
ROOT
HETATM    1  C1  UNL     1     -33.072  17.665  -2.407  1.00 20.00     0.064 C 
HETATM    2  C2  UNL     1     -34.941  14.030  -3.795  1.00 20.00     0.005 C 
HETATM    3  C3  UNL     1     -35.762  16.278  -4.518  1.00 20.00     0.005 C 
HETATM    4  C4  UNL     1     -33.540  14.388  -4.315  1.00 20.00     0.006 C 
HETATM    5  C5  UNL     1     -34.353  16.638  -5.006  1.00 20.00     0.006 C 
HETATM    6  C6  UNL     1     -34.881  15.964  -2.203  1.00 20.00     0.024 C 
HETATM    7  C7  UNL     1     -33.440  16.263  -2.668  1.00 20.00     0.097 C 
HETATM    8  C8  UNL     1     -35.682  15.298  -3.337  1.00 20.00    -0.013 C 
HETATM    9  C9  UNL     1     -33.291  15.902  -4.166  1.00 20.00     0.003 C 
HETATM   10  N10 UNL     1     -32.781  18.769  -2.202  1.00 20.00    -0.197 NA
ENDROOT
TORSDOF 0
ENDMDL
MODEL 8
REMARK VINA RESULT:      -4.3     11.275     12.460
REMARK  0 active torsions:
REMARK  status: ('A' for Active; 'I' for Inactive)
ROOT
HETATM    1  C1  UNL     1     -42.781   4.415  -1.836  1.00 20.00     0.064 C 
HETATM    2  C2  UNL     1     -41.571   7.560   0.861  1.00 20.00     0.005 C 
HETATM    3  C3  UNL     1     -42.022   8.016  -1.555  1.00 20.00     0.005 C 
HETATM    4  C4  UNL     1     -42.981   6.967   1.001  1.00 20.00     0.006 C 
HETATM    5  C5  UNL     1     -43.417   7.393  -1.413  1.00 20.00     0.006 C 
HETATM    6  C6  UNL     1     -40.985   5.849  -0.873  1.00 20.00     0.024 C 
HETATM    7  C7  UNL     1     -42.372   5.206  -0.662  1.00 20.00     0.097 C 
HETATM    8  C8  UNL     1     -41.044   7.358  -0.569  1.00 20.00    -0.013 C 
HETATM    9  C9  UNL     1     -43.409   6.304  -0.323  1.00 20.00     0.003 C 
HETATM   10  N10 UNL     1     -43.104   3.792  -2.759  1.00 20.00    -0.197 NA
ENDROOT
TORSDOF 0
ENDMDL
MODEL 9
REMARK VINA RESULT:      -4.3      1.532      2.579
REMARK  0 active torsions:
REMARK  status: ('A' for Active; 'I' for Inactive)
ROOT
HETATM    1  C1  UNL     1     -35.393  15.095  -6.699  1.00 20.00     0.064 C 
HETATM    2  C2  UNL     1     -33.141  16.384  -3.249  1.00 20.00     0.005 C 
HETATM    3  C3  UNL     1     -35.427  15.398  -3.021  1.00 20.00     0.005 C 
HETATM    4  C4  UNL     1     -32.686  15.126  -4.003  1.00 20.00     0.006 C 
HETATM    5  C5  UNL     1     -34.971  14.158  -3.802  1.00 20.00     0.006 C 
HETATM    6  C6  UNL     1     -34.887  16.836  -4.990  1.00 20.00     0.024 C 
HETATM    7  C7  UNL     1     -34.365  15.621  -5.784  1.00 20.00     0.097 C 
HETATM    8  C8  UNL     1     -34.641  16.635  -3.482  1.00 20.00    -0.013 C 
HETATM    9  C9  UNL     1     -33.862  14.533  -4.804  1.00 20.00     0.003 C 
HETATM   10  N10 UNL     1     -36.202  14.681  -7.419  1.00 20.00    -0.197 NA
ENDROOT
TORSDOF 0
ENDMDL
