MODEL 1
REMARK VINA RESULT:      -3.2      0.000      0.000
REMARK  1 active torsions:
REMARK  status: ('A' for Active; 'I' for Inactive)
REMARK    1  A    between atoms: C3_3  and  C4_4 
ROOT
HETATM    1  C1  UNL     1     -34.053   4.116   3.891  1.00 20.00     0.033 C 
HETATM    2  C2  UNL     1     -34.724   5.287   6.013  1.00 20.00     0.033 C 
HETATM    3  C4  UNL     1     -34.572   5.425   4.494  1.00 20.00     0.042 C 
HETATM    4 CL6  UNL     1     -36.220   5.723   3.810  1.00 20.00    -0.119 Cl
ENDROOT
BRANCH   3   5
HETATM    5  C3  UNL     1     -33.698   6.630   4.106  1.00 20.00     0.139 C 
HETATM    6 CL5  UNL     1     -32.795   6.397   2.585  1.00 20.00    -0.129 Cl
ENDBRANCH   3   5
TORSDOF 1
ENDMDL
MODEL 2
REMARK VINA RESULT:      -3.2      1.350      1.875
REMARK  1 active torsions:
REMARK  status: ('A' for Active; 'I' for Inactive)
REMARK    1  A    between atoms: C3_3  and  C4_4 
ROOT
HETATM    1  C1  UNL     1     -34.689   5.347   6.026  1.00 20.00     0.033 C 
HETATM    2  C2  UNL     1     -35.999   5.690   3.907  1.00 20.00     0.033 C 
HETATM    3  C4  UNL     1     -34.601   5.486   4.503  1.00 20.00     0.042 C 
HETATM    4 CL6  UNL     1     -33.956   3.928   3.851  1.00 20.00    -0.119 Cl
ENDROOT
BRANCH   3   5
HETATM    5  C3  UNL     1     -33.623   6.594   4.077  1.00 20.00     0.139 C 
HETATM    6 CL5  UNL     1     -32.802   6.265   2.528  1.00 20.00    -0.129 Cl
ENDBRANCH   3   5
TORSDOF 1
ENDMDL
MODEL 3
REMARK VINA RESULT:      -3.1      1.359      1.880
REMARK  1 active torsions:
REMARK  status: ('A' for Active; 'I' for Inactive)
REMARK    1  A    between atoms: C3_3  and  C4_4 
ROOT
HETATM    1  C1  UNL     1     -35.990   5.676   3.882  1.00 20.00     0.033 C 
HETATM    2  C2  UNL     1     -34.024   4.108   3.824  1.00 20.00     0.033 C 
HETATM    3  C4  UNL     1     -34.562   5.431   4.382  1.00 20.00     0.042 C 
HETATM    4 CL6  UNL     1     -34.637   5.270   6.182  1.00 20.00    -0.119 Cl
ENDROOT
BRANCH   3   5
HETATM    5  C3  UNL     1     -33.628   6.613   4.073  1.00 20.00     0.139 C 
HETATM    6 CL5  UNL     1     -32.765   6.455   2.520  1.00 20.00    -0.129 Cl
ENDBRANCH   3   5
TORSDOF 1
ENDMDL
MODEL 4
REMARK VINA RESULT:      -3.1     16.368     17.364
REMARK  1 active torsions:
REMARK  status: ('A' for Active; 'I' for Inactive)
REMARK    1  A    between atoms: C3_3  and  C4_4 
ROOT
HETATM    1  C1  UNL     1     -22.924  17.663  12.224  1.00 20.00     0.033 C 
HETATM    2  C2  UNL     1     -24.587  15.892  11.576  1.00 20.00     0.033 C 
HETATM    3  C4  UNL     1     -23.907  17.196  11.145  1.00 20.00     0.042 C 
HETATM    4 CL6  UNL     1     -22.948  16.841   9.654  1.00 20.00    -0.119 Cl
ENDROOT
BRANCH   3   5
HETATM    5  C3  UNL     1     -24.926  18.288  10.778  1.00 20.00     0.139 C 
HETATM    6 CL5  UNL     1     -25.811  18.941  12.181  1.00 20.00    -0.129 Cl
ENDBRANCH   3   5
TORSDOF 1
ENDMDL
MODEL 5
REMARK VINA RESULT:      -3.1      0.757      1.909
REMARK  1 active torsions:
REMARK  status: ('A' for Active; 'I' for Inactive)
REMARK    1  A    between atoms: C3_3  and  C4_4 
ROOT
HETATM    1  C1  UNL     1     -34.770   5.253   6.024  1.00 20.00     0.033 C 
HETATM    2  C2  UNL     1     -33.780   6.716   4.234  1.00 20.00     0.033 C 
HETATM    3  C4  UNL     1     -34.611   5.459   4.514  1.00 20.00     0.042 C 
HETATM    4 CL6  UNL     1     -36.261   5.736   3.827  1.00 20.00    -0.119 Cl
ENDROOT
BRANCH   3   5
HETATM    5  C3  UNL     1     -34.034   4.216   3.816  1.00 20.00     0.139 C 
HETATM    6 CL5  UNL     1     -33.078   4.593   2.359  1.00 20.00    -0.129 Cl
ENDBRANCH   3   5
TORSDOF 1
ENDMDL
MODEL 6
REMARK VINA RESULT:      -3.1     16.922     17.358
REMARK  1 active torsions:
REMARK  status: ('A' for Active; 'I' for Inactive)
REMARK    1  A    between atoms: C3_3  and  C4_4 
ROOT
HETATM    1  C1  UNL     1     -22.717  17.734  12.332  1.00 20.00     0.033 C 
HETATM    2  C2  UNL     1     -25.151  18.366  12.309  1.00 20.00     0.033 C 
HETATM    3  C4  UNL     1     -24.059  17.541  11.618  1.00 20.00     0.042 C 
HETATM    4 CL6  UNL     1     -24.514  15.798  11.776  1.00 20.00    -0.119 Cl
ENDROOT
BRANCH   3   5
HETATM    5  C3  UNL     1     -23.965  17.849  10.113  1.00 20.00     0.139 C 
HETATM    6 CL5  UNL     1     -22.788  16.826   9.248  1.00 20.00    -0.129 Cl
ENDBRANCH   3   5
TORSDOF 1
ENDMDL
MODEL 7
REMARK VINA RESULT:      -3.0     16.889     17.595
REMARK  1 active torsions:
REMARK  status: ('A' for Active; 'I' for Inactive)
REMARK    1  A    between atoms: C3_3  and  C4_4 
ROOT
HETATM    1  C1  UNL     1     -25.393  18.440  12.228  1.00 20.00     0.033 C 
HETATM    2  C2  UNL     1     -24.679  16.141  11.500  1.00 20.00     0.033 C 
HETATM    3  C4  UNL     1     -24.356  17.638  11.434  1.00 20.00     0.042 C 
HETATM    4 CL6  UNL     1     -22.752  17.882  12.232  1.00 20.00    -0.119 Cl
ENDROOT
BRANCH   3   5
HETATM    5  C3  UNL     1     -24.221  18.138   9.985  1.00 20.00     0.139 C 
HETATM    6 CL5  UNL     1     -22.546  18.533   9.519  1.00 20.00    -0.129 Cl
ENDBRANCH   3   5
TORSDOF 1
ENDMDL
MODEL 8
REMARK VINA RESULT:      -3.0      8.417      9.056
REMARK  1 active torsions:
REMARK  status: ('A' for Active; 'I' for Inactive)
REMARK    1  A    between atoms: C3_3  and  C4_4 
ROOT
HETATM    1  C1  UNL     1     -42.700   5.429   0.944  1.00 20.00     0.033 C 
HETATM    2  C2  UNL     1     -43.078   6.934  -1.035  1.00 20.00     0.033 C 
HETATM    3  C4  UNL     1     -42.038   6.390  -0.050  1.00 20.00     0.042 C 
HETATM    4 CL6  UNL     1     -40.832   5.438  -1.004  1.00 20.00    -0.119 Cl
ENDROOT
BRANCH   3   5
HETATM    5  C3  UNL     1     -41.266   7.516   0.659  1.00 20.00     0.139 C 
HETATM    6 CL5  UNL     1     -41.686   9.147   0.076  1.00 20.00    -0.129 Cl
ENDBRANCH   3   5
TORSDOF 1
ENDMDL
MODEL 9
REMARK VINA RESULT:      -3.0      8.570      9.155
REMARK  1 active torsions:
REMARK  status: ('A' for Active; 'I' for Inactive)
REMARK    1  A    between atoms: C3_3  and  C4_4 
ROOT
HETATM    1  C1  UNL     1     -42.440   7.732  -1.549  1.00 20.00     0.033 C 
HETATM    2  C2  UNL     1     -43.417   7.664   0.767  1.00 20.00     0.033 C 
HETATM    3  C4  UNL     1     -42.122   7.741  -0.050  1.00 20.00     0.042 C 
HETATM    4 CL6  UNL     1     -41.336   9.325   0.329  1.00 20.00    -0.119 Cl
ENDROOT
BRANCH   3   5
HETATM    5  C3  UNL     1     -41.124   6.637   0.339  1.00 20.00     0.139 C 
HETATM    6 CL5  UNL     1     -40.799   5.474  -0.972  1.00 20.00    -0.129 Cl
ENDBRANCH   3   5
TORSDOF 1
ENDMDL
