MODEL 1
REMARK VINA RESULT:      -4.7      0.000      0.000
REMARK  0 active torsions:
REMARK  status: ('A' for Active; 'I' for Inactive)
ROOT
HETATM    1  C1  UNL     1     -42.765   6.332   0.498  1.00 20.00    -0.077 C 
HETATM    2  C2  UNL     1     -43.047   5.442   1.454  1.00 20.00     0.015 C 
HETATM    3  C3  UNL     1     -41.658   8.530   0.701  1.00 20.00     0.009 C 
HETATM    4  C4  UNL     1     -41.078   8.380  -0.718  1.00 20.00     0.006 C 
HETATM    5  C5  UNL     1     -43.417   8.130  -0.852  1.00 20.00     0.014 C 
HETATM    6  C6  UNL     1     -43.021   7.824   0.591  1.00 20.00     0.015 C 
HETATM    7  C7  UNL     1     -42.137   7.515  -1.438  1.00 20.00    -0.002 C 
HETATM    8  C8  UNL     1     -42.181   6.051  -0.884  1.00 20.00    -0.021 C 
HETATM    9  C9  UNL     1     -43.115   5.169  -1.734  1.00 20.00     0.020 C 
HETATM   10  C10 UNL     1     -40.801   5.382  -0.820  1.00 20.00     0.020 C 
ENDROOT
TORSDOF 0
ENDMDL
MODEL 2
REMARK VINA RESULT:      -4.4     10.361     12.261
REMARK  0 active torsions:
REMARK  status: ('A' for Active; 'I' for Inactive)
ROOT
HETATM    1  C1  UNL     1     -35.378  14.790  -4.170  1.00 20.00    -0.077 C 
HETATM    2  C2  UNL     1     -36.025  13.637  -4.368  1.00 20.00     0.015 C 
HETATM    3  C3  UNL     1     -34.973  15.999  -2.056  1.00 20.00     0.009 C 
HETATM    4  C4  UNL     1     -33.652  16.557  -2.618  1.00 20.00     0.006 C 
HETATM    5  C5  UNL     1     -35.383  17.130  -4.110  1.00 20.00     0.014 C 
HETATM    6  C6  UNL     1     -35.873  15.930  -3.301  1.00 20.00     0.015 C 
HETATM    7  C7  UNL     1     -33.926  16.642  -4.137  1.00 20.00    -0.002 C 
HETATM    8  C8  UNL     1     -34.056  15.227  -4.794  1.00 20.00    -0.021 C 
HETATM    9  C9  UNL     1     -34.152  15.340  -6.327  1.00 20.00     0.020 C 
HETATM   10  C10 UNL     1     -32.896  14.285  -4.445  1.00 20.00     0.020 C 
ENDROOT
TORSDOF 0
ENDMDL
MODEL 3
REMARK VINA RESULT:      -4.3     22.947     24.167
REMARK  0 active torsions:
REMARK  status: ('A' for Active; 'I' for Inactive)
ROOT
HETATM    1  C1  UNL     1     -24.412  18.453  10.113  1.00 20.00    -0.077 C 
HETATM    2  C2  UNL     1     -24.929  19.218   9.147  1.00 20.00     0.015 C 
HETATM    3  C3  UNL     1     -25.560  16.865  11.616  1.00 20.00     0.009 C 
HETATM    4  C4  UNL     1     -24.291  15.996  11.684  1.00 20.00     0.006 C 
HETATM    5  C5  UNL     1     -23.715  18.188  12.332  1.00 20.00     0.014 C 
HETATM    6  C6  UNL     1     -24.995  18.291  11.504  1.00 20.00     0.015 C 
HETATM    7  C7  UNL     1     -23.153  17.026  11.498  1.00 20.00    -0.002 C 
HETATM    8  C8  UNL     1     -23.130  17.628  10.052  1.00 20.00    -0.021 C 
HETATM    9  C9  UNL     1     -21.886  18.512   9.845  1.00 20.00     0.020 C 
HETATM   10  C10 UNL     1     -23.163  16.562   8.948  1.00 20.00     0.020 C 
ENDROOT
TORSDOF 0
ENDMDL
MODEL 4
REMARK VINA RESULT:      -4.3     10.480     12.475
REMARK  0 active torsions:
REMARK  status: ('A' for Active; 'I' for Inactive)
ROOT
HETATM    1  C1  UNL     1     -33.721  15.137  -3.968  1.00 20.00    -0.077 C 
HETATM    2  C2  UNL     1     -32.725  14.367  -4.420  1.00 20.00     0.015 C 
HETATM    3  C3  UNL     1     -33.683  17.533  -3.376  1.00 20.00     0.009 C 
HETATM    4  C4  UNL     1     -35.160  17.669  -3.790  1.00 20.00     0.006 C 
HETATM    5  C5  UNL     1     -35.003  15.950  -2.186  1.00 20.00     0.014 C 
HETATM    6  C6  UNL     1     -33.616  16.106  -2.806  1.00 20.00     0.015 C 
HETATM    7  C7  UNL     1     -35.734  16.263  -3.501  1.00 20.00    -0.002 C 
HETATM    8  C8  UNL     1     -35.160  15.178  -4.474  1.00 20.00    -0.021 C 
HETATM    9  C9  UNL     1     -35.877  13.829  -4.278  1.00 20.00     0.020 C 
HETATM   10  C10 UNL     1     -35.256  15.574  -5.953  1.00 20.00     0.020 C 
ENDROOT
TORSDOF 0
ENDMDL
MODEL 5
REMARK VINA RESULT:      -4.3     23.127     24.523
REMARK  0 active torsions:
REMARK  status: ('A' for Active; 'I' for Inactive)
ROOT
HETATM    1  C1  UNL     1     -22.616  17.883  11.073  1.00 20.00    -0.077 C 
HETATM    2  C2  UNL     1     -22.167  17.813  12.331  1.00 20.00     0.015 C 
HETATM    3  C3  UNL     1     -21.468  17.260   8.978  1.00 20.00     0.009 C 
HETATM    4  C4  UNL     1     -22.818  16.889   8.337  1.00 20.00     0.006 C 
HETATM    5  C5  UNL     1     -22.958  19.111   9.111  1.00 20.00     0.014 C 
HETATM    6  C6  UNL     1     -21.836  18.437   9.897  1.00 20.00     0.015 C 
HETATM    7  C7  UNL     1     -23.813  17.836   9.048  1.00 20.00    -0.002 C 
HETATM    8  C8  UNL     1     -23.994  17.475  10.561  1.00 20.00    -0.021 C 
HETATM    9  C9  UNL     1     -25.117  18.318  11.196  1.00 20.00     0.020 C 
HETATM   10  C10 UNL     1     -24.301  15.991  10.801  1.00 20.00     0.020 C 
ENDROOT
TORSDOF 0
ENDMDL
MODEL 6
REMARK VINA RESULT:      -4.3     10.959     12.753
REMARK  0 active torsions:
REMARK  status: ('A' for Active; 'I' for Inactive)
ROOT
HETATM    1  C1  UNL     1     -35.160  16.793  -4.148  1.00 20.00    -0.077 C 
HETATM    2  C2  UNL     1     -35.548  18.061  -4.324  1.00 20.00     0.015 C 
HETATM    3  C3  UNL     1     -34.159  15.236  -5.781  1.00 20.00     0.009 C 
HETATM    4  C4  UNL     1     -33.381  14.536  -4.651  1.00 20.00     0.006 C 
HETATM    5  C5  UNL     1     -35.669  14.509  -4.091  1.00 20.00     0.014 C 
HETATM    6  C6  UNL     1     -35.470  15.647  -5.091  1.00 20.00     0.015 C 
HETATM    7  C7  UNL     1     -34.302  14.725  -3.424  1.00 20.00    -0.002 C 
HETATM    8  C8  UNL     1     -34.380  16.221  -2.968  1.00 20.00    -0.021 C 
HETATM    9  C9  UNL     1     -35.159  16.352  -1.645  1.00 20.00     0.020 C 
HETATM   10  C10 UNL     1     -33.004  16.877  -2.793  1.00 20.00     0.020 C 
ENDROOT
TORSDOF 0
ENDMDL
MODEL 7
REMARK VINA RESULT:      -4.2     10.918     12.935
REMARK  0 active torsions:
REMARK  status: ('A' for Active; 'I' for Inactive)
ROOT
HETATM    1  C1  UNL     1     -34.444  16.412  -4.851  1.00 20.00    -0.077 C 
HETATM    2  C2  UNL     1     -34.677  16.455  -6.167  1.00 20.00     0.015 C 
HETATM    3  C3  UNL     1     -35.600  17.612  -3.029  1.00 20.00     0.009 C 
HETATM    4  C4  UNL     1     -35.311  16.446  -2.065  1.00 20.00     0.006 C 
HETATM    5  C5  UNL     1     -33.262  17.168  -2.978  1.00 20.00     0.014 C 
HETATM    6  C6  UNL     1     -34.360  17.620  -3.939  1.00 20.00     0.015 C 
HETATM    7  C7  UNL     1     -33.986  15.864  -2.608  1.00 20.00    -0.002 C 
HETATM    8  C8  UNL     1     -34.170  15.173  -4.002  1.00 20.00    -0.021 C 
HETATM    9  C9  UNL     1     -32.879  14.453  -4.434  1.00 20.00     0.020 C 
HETATM   10  C10 UNL     1     -35.328  14.166  -4.034  1.00 20.00     0.020 C 
ENDROOT
TORSDOF 0
ENDMDL
MODEL 8
REMARK VINA RESULT:      -4.2     11.138     12.569
REMARK  0 active torsions:
REMARK  status: ('A' for Active; 'I' for Inactive)
ROOT
HETATM    1  C1  UNL     1     -34.622  15.744  -5.471  1.00 20.00    -0.077 C 
HETATM    2  C2  UNL     1     -34.407  16.149  -6.727  1.00 20.00     0.015 C 
HETATM    3  C3  UNL     1     -33.066  15.739  -3.554  1.00 20.00     0.009 C 
HETATM    4  C4  UNL     1     -34.245  15.946  -2.585  1.00 20.00     0.006 C 
HETATM    5  C5  UNL     1     -34.689  14.029  -3.880  1.00 20.00     0.014 C 
HETATM    6  C6  UNL     1     -33.682  14.870  -4.663  1.00 20.00     0.015 C 
HETATM    7  C7  UNL     1     -35.421  15.255  -3.312  1.00 20.00    -0.002 C 
HETATM    8  C8  UNL     1     -35.849  16.023  -4.608  1.00 20.00    -0.021 C 
HETATM    9  C9  UNL     1     -37.128  15.413  -5.211  1.00 20.00     0.020 C 
HETATM   10  C10 UNL     1     -36.083  17.522  -4.378  1.00 20.00     0.020 C 
ENDROOT
TORSDOF 0
ENDMDL
MODEL 9
REMARK VINA RESULT:      -4.2     10.514     12.509
REMARK  0 active torsions:
REMARK  status: ('A' for Active; 'I' for Inactive)
ROOT
HETATM    1  C1  UNL     1     -34.879  15.769  -3.212  1.00 20.00    -0.077 C 
HETATM    2  C2  UNL     1     -35.016  16.119  -1.929  1.00 20.00     0.015 C 
HETATM    3  C3  UNL     1     -35.779  13.793  -4.387  1.00 20.00     0.009 C 
HETATM    4  C4  UNL     1     -35.865  14.599  -5.696  1.00 20.00     0.006 C 
HETATM    5  C5  UNL     1     -33.649  14.721  -4.905  1.00 20.00     0.014 C 
HETATM    6  C6  UNL     1     -34.530  14.379  -3.705  1.00 20.00     0.015 C 
HETATM    7  C7  UNL     1     -34.713  15.620  -5.555  1.00 20.00    -0.002 C 
HETATM    8  C8  UNL     1     -34.993  16.677  -4.434  1.00 20.00    -0.021 C 
HETATM    9  C9  UNL     1     -33.917  17.778  -4.435  1.00 20.00     0.020 C 
HETATM   10  C10 UNL     1     -36.373  17.339  -4.553  1.00 20.00     0.020 C 
ENDROOT
TORSDOF 0
ENDMDL
