MODEL 1
REMARK VINA RESULT:      -4.2      0.000      0.000
REMARK  1 active torsions:
REMARK  status: ('A' for Active; 'I' for Inactive)
REMARK    1  A    between atoms: C1_1  and  N7_7 
ROOT
HETATM    1  C2  UNL     1     -34.897   5.053   5.623  1.00 20.00     0.003 C 
HETATM    2  C3  UNL     1     -34.353   4.328   4.391  1.00 20.00     0.020 C 
HETATM    3  C4  UNL     1     -34.033   6.265   5.971  1.00 20.00     0.020 C 
HETATM    4  C5  UNL     1     -34.190   5.285   3.214  1.00 20.00     0.123 C 
HETATM    5  C6  UNL     1     -33.873   7.194   4.771  1.00 20.00     0.123 C 
HETATM    6  N7  UNL     1     -33.414   6.458   3.599  1.00 20.00    -0.381 N 
ENDROOT
BRANCH   6   7
HETATM    7  C1  UNL     1     -32.358   6.883   2.863  1.00 20.00     0.168 C 
HETATM    8  S8  UNL     1     -32.513   7.838   1.508  1.00 20.00    -0.074 SA
ENDBRANCH   6   7
TORSDOF 1
ENDMDL
MODEL 2
REMARK VINA RESULT:      -3.6      0.827      1.884
REMARK  1 active torsions:
REMARK  status: ('A' for Active; 'I' for Inactive)
REMARK    1  A    between atoms: C1_1  and  N7_7 
ROOT
HETATM    1  C2  UNL     1     -34.691   5.595   5.952  1.00 20.00     0.003 C 
HETATM    2  C3  UNL     1     -34.084   6.947   5.576  1.00 20.00     0.020 C 
HETATM    3  C4  UNL     1     -35.149   4.835   4.706  1.00 20.00     0.020 C 
HETATM    4  C5  UNL     1     -32.969   6.785   4.548  1.00 20.00     0.123 C 
HETATM    5  C6  UNL     1     -34.018   4.704   3.690  1.00 20.00     0.123 C 
HETATM    6  N7  UNL     1     -33.422   6.004   3.404  1.00 20.00    -0.381 N 
ENDROOT
BRANCH   6   7
HETATM    7  C1  UNL     1     -33.236   6.435   2.132  1.00 20.00     0.168 C 
HETATM    8  S8  UNL     1     -32.427   7.839   1.751  1.00 20.00    -0.074 SA
ENDBRANCH   6   7
TORSDOF 1
ENDMDL
MODEL 3
REMARK VINA RESULT:      -3.4     12.141     12.579
REMARK  1 active torsions:
REMARK  status: ('A' for Active; 'I' for Inactive)
REMARK    1  A    between atoms: C1_1  and  N7_7 
ROOT
HETATM    1  C2  UNL     1     -33.310  15.923  -3.225  1.00 20.00     0.003 C 
HETATM    2  C3  UNL     1     -34.553  16.005  -2.337  1.00 20.00     0.020 C 
HETATM    3  C4  UNL     1     -33.443  14.796  -4.249  1.00 20.00     0.020 C 
HETATM    4  C5  UNL     1     -35.823  16.124  -3.174  1.00 20.00     0.123 C 
HETATM    5  C6  UNL     1     -34.729  14.931  -5.058  1.00 20.00     0.123 C 
HETATM    6  N7  UNL     1     -35.885  15.070  -4.180  1.00 20.00    -0.381 N 
ENDROOT
BRANCH   6   7
HETATM    7  C1  UNL     1     -36.992  14.303  -4.336  1.00 20.00     0.168 C 
HETATM    8  S8  UNL     1     -38.540  14.915  -4.309  1.00 20.00    -0.074 SA
ENDBRANCH   6   7
TORSDOF 1
ENDMDL
MODEL 4
REMARK VINA RESULT:      -3.4     12.257     12.683
REMARK  1 active torsions:
REMARK  status: ('A' for Active; 'I' for Inactive)
REMARK    1  A    between atoms: C1_1  and  N7_7 
ROOT
HETATM    1  C2  UNL     1     -34.213  15.971  -2.379  1.00 20.00     0.003 C 
HETATM    2  C3  UNL     1     -33.172  15.937  -3.498  1.00 20.00     0.020 C 
HETATM    3  C4  UNL     1     -35.631  16.017  -2.950  1.00 20.00     0.020 C 
HETATM    4  C5  UNL     1     -33.446  14.794  -4.472  1.00 20.00     0.123 C 
HETATM    5  C6  UNL     1     -35.869  14.874  -3.933  1.00 20.00     0.123 C 
HETATM    6  N7  UNL     1     -34.823  14.833  -4.948  1.00 20.00    -0.381 N 
ENDROOT
BRANCH   6   7
HETATM    7  C1  UNL     1     -35.120  14.765  -6.269  1.00 20.00     0.168 C 
HETATM    8  S8  UNL     1     -34.148  15.408  -7.458  1.00 20.00    -0.074 SA
ENDBRANCH   6   7
TORSDOF 1
ENDMDL
MODEL 5
REMARK VINA RESULT:      -3.4      9.536     10.179
REMARK  1 active torsions:
REMARK  status: ('A' for Active; 'I' for Inactive)
REMARK    1  A    between atoms: C1_1  and  N7_7 
ROOT
HETATM    1  C2  UNL     1     -41.529   7.517   0.605  1.00 20.00     0.003 C 
HETATM    2  C3  UNL     1     -41.226   7.234  -0.867  1.00 20.00     0.020 C 
HETATM    3  C4  UNL     1     -42.881   6.926   1.009  1.00 20.00     0.020 C 
HETATM    4  C5  UNL     1     -41.327   5.743  -1.175  1.00 20.00     0.123 C 
HETATM    5  C6  UNL     1     -42.958   5.440   0.673  1.00 20.00     0.123 C 
HETATM    6  N7  UNL     1     -42.602   5.201  -0.721  1.00 20.00    -0.381 N 
ENDROOT
BRANCH   6   7
HETATM    7  C1  UNL     1     -43.386   4.453  -1.536  1.00 20.00     0.168 C 
HETATM    8  S8  UNL     1     -42.779   3.373  -2.648  1.00 20.00    -0.074 SA
ENDBRANCH   6   7
TORSDOF 1
ENDMDL
MODEL 6
REMARK VINA RESULT:      -3.3      9.750     10.392
REMARK  1 active torsions:
REMARK  status: ('A' for Active; 'I' for Inactive)
REMARK    1  A    between atoms: C1_1  and  N7_7 
ROOT
HETATM    1  C2  UNL     1     -41.577   8.624   0.171  1.00 20.00     0.003 C 
HETATM    2  C3  UNL     1     -43.025   8.567  -0.318  1.00 20.00     0.020 C 
HETATM    3  C4  UNL     1     -41.100   7.246   0.631  1.00 20.00     0.020 C 
HETATM    4  C5  UNL     1     -43.203   7.499  -1.393  1.00 20.00     0.123 C 
HETATM    5  C6  UNL     1     -41.307   6.197  -0.456  1.00 20.00     0.123 C 
HETATM    6  N7  UNL     1     -42.682   6.214  -0.942  1.00 20.00    -0.381 N 
ENDROOT
BRANCH   6   7
HETATM    7  C1  UNL     1     -43.415   5.078  -1.036  1.00 20.00     0.168 C 
HETATM    8  S8  UNL     1     -43.219   3.961  -2.255  1.00 20.00    -0.074 SA
ENDBRANCH   6   7
TORSDOF 1
ENDMDL
MODEL 7
REMARK VINA RESULT:      -3.2     12.185     12.687
REMARK  1 active torsions:
REMARK  status: ('A' for Active; 'I' for Inactive)
REMARK    1  A    between atoms: C1_1  and  N7_7 
ROOT
HETATM    1  C2  UNL     1     -35.170  15.947  -2.474  1.00 20.00     0.003 C 
HETATM    2  C3  UNL     1     -33.763  15.777  -3.050  1.00 20.00     0.020 C 
HETATM    3  C4  UNL     1     -35.125  16.656  -1.120  1.00 20.00     0.020 C 
HETATM    4  C5  UNL     1     -33.028  17.113  -3.114  1.00 20.00     0.123 C 
HETATM    5  C6  UNL     1     -34.369  17.978  -1.211  1.00 20.00     0.123 C 
HETATM    6  N7  UNL     1     -33.059  17.788  -1.822  1.00 20.00    -0.381 N 
ENDROOT
BRANCH   6   7
HETATM    7  C1  UNL     1     -31.931  18.277  -1.250  1.00 20.00     0.168 C 
HETATM    8  S8  UNL     1     -31.817  18.653   0.368  1.00 20.00    -0.074 SA
ENDBRANCH   6   7
TORSDOF 1
ENDMDL
MODEL 8
REMARK VINA RESULT:      -3.2     11.686     12.303
REMARK  1 active torsions:
REMARK  status: ('A' for Active; 'I' for Inactive)
REMARK    1  A    between atoms: C1_1  and  N7_7 
ROOT
HETATM    1  C2  UNL     1     -34.004  17.633  -1.436  1.00 20.00     0.003 C 
HETATM    2  C3  UNL     1     -35.149  16.643  -1.217  1.00 20.00     0.020 C 
HETATM    3  C4  UNL     1     -32.902  17.014  -2.296  1.00 20.00     0.020 C 
HETATM    4  C5  UNL     1     -35.677  16.108  -2.545  1.00 20.00     0.123 C 
HETATM    5  C6  UNL     1     -33.462  16.472  -3.608  1.00 20.00     0.123 C 
HETATM    6  N7  UNL     1     -34.591  15.582  -3.364  1.00 20.00    -0.381 N 
ENDROOT
BRANCH   6   7
HETATM    7  C1  UNL     1     -34.661  14.352  -3.929  1.00 20.00     0.168 C 
HETATM    8  S8  UNL     1     -36.065  13.709  -4.550  1.00 20.00    -0.074 SA
ENDBRANCH   6   7
TORSDOF 1
ENDMDL
MODEL 9
REMARK VINA RESULT:      -3.2     11.588     12.343
REMARK  1 active torsions:
REMARK  status: ('A' for Active; 'I' for Inactive)
REMARK    1  A    between atoms: C1_1  and  N7_7 
ROOT
HETATM    1  C2  UNL     1     -33.175  15.907  -3.392  1.00 20.00     0.003 C 
HETATM    2  C3  UNL     1     -33.292  14.701  -4.325  1.00 20.00     0.020 C 
HETATM    3  C4  UNL     1     -34.484  16.697  -3.351  1.00 20.00     0.020 C 
HETATM    4  C5  UNL     1     -34.487  13.829  -3.952  1.00 20.00     0.123 C 
HETATM    5  C6  UNL     1     -35.662  15.796  -2.994  1.00 20.00     0.123 C 
HETATM    6  N7  UNL     1     -35.705  14.625  -3.862  1.00 20.00    -0.381 N 
ENDROOT
BRANCH   6   7
HETATM    7  C1  UNL     1     -36.843  14.256  -4.499  1.00 20.00     0.168 C 
HETATM    8  S8  UNL     1     -38.315  14.989  -4.240  1.00 20.00    -0.074 SA
ENDBRANCH   6   7
TORSDOF 1
ENDMDL
