MODEL 1
REMARK VINA RESULT:      -2.9      0.000      0.000
REMARK  3 active torsions:
REMARK  status: ('A' for Active; 'I' for Inactive)
REMARK    1  A    between atoms: C1_1  and  S7_7 
REMARK    2  A    between atoms: C1_1  and  S8_8 
REMARK    3  A    between atoms: C5_5  and  S8_8 
ROOT
HETATM    1  S8  UNL     1     -34.848  16.951  -4.878  1.00 20.00    -0.103 SA
ENDROOT
BRANCH   1   2
HETATM    2  C1  UNL     1     -35.084  15.461  -5.773  1.00 20.00     0.102 C 
HETATM    3  S6  UNL     1     -36.147  14.264  -5.285  1.00 20.00    -0.065 SA
BRANCH   2   4
HETATM    4  S7  UNL     1     -34.168  15.357  -7.269  1.00 20.00    -0.124 SA
HETATM    5  H18 UNL     1     -35.159  15.737  -8.091  1.00 20.00     0.108 HD
ENDBRANCH   2   4
ENDBRANCH   1   2
BRANCH   1   6
HETATM    6  C5  UNL     1     -33.881  16.277  -3.472  1.00 20.00     0.003 C 
HETATM    7  C2  UNL     1     -33.045  15.095  -3.973  1.00 20.00     0.026 C 
HETATM    8  C3  UNL     1     -32.968  17.385  -2.939  1.00 20.00     0.026 C 
HETATM    9  C4  UNL     1     -34.852  15.818  -2.381  1.00 20.00     0.026 C 
ENDBRANCH   1   6
TORSDOF 3
ENDMDL
MODEL 2
REMARK VINA RESULT:      -2.9      0.016      1.541
REMARK  3 active torsions:
REMARK  status: ('A' for Active; 'I' for Inactive)
REMARK    1  A    between atoms: C1_1  and  S7_7 
REMARK    2  A    between atoms: C1_1  and  S8_8 
REMARK    3  A    between atoms: C5_5  and  S8_8 
ROOT
HETATM    1  S8  UNL     1     -34.832  16.962  -4.872  1.00 20.00    -0.103 SA
ENDROOT
BRANCH   1   2
HETATM    2  C1  UNL     1     -35.080  15.475  -5.769  1.00 20.00     0.102 C 
HETATM    3  S6  UNL     1     -36.148  14.284  -5.280  1.00 20.00    -0.065 SA
BRANCH   2   4
HETATM    4  S7  UNL     1     -34.168  15.368  -7.268  1.00 20.00    -0.124 SA
HETATM    5  H18 UNL     1     -33.444  16.484  -7.096  1.00 20.00     0.108 HD
ENDBRANCH   2   4
ENDBRANCH   1   2
BRANCH   1   6
HETATM    6  C5  UNL     1     -33.871  16.279  -3.467  1.00 20.00     0.003 C 
HETATM    7  C2  UNL     1     -32.958  17.378  -2.915  1.00 20.00     0.026 C 
HETATM    8  C3  UNL     1     -34.856  15.815  -2.389  1.00 20.00     0.026 C 
HETATM    9  C4  UNL     1     -33.038  15.097  -3.969  1.00 20.00     0.026 C 
ENDBRANCH   1   6
TORSDOF 3
ENDMDL
MODEL 3
REMARK VINA RESULT:      -2.9      0.017      1.539
REMARK  3 active torsions:
REMARK  status: ('A' for Active; 'I' for Inactive)
REMARK    1  A    between atoms: C1_1  and  S7_7 
REMARK    2  A    between atoms: C1_1  and  S8_8 
REMARK    3  A    between atoms: C5_5  and  S8_8 
ROOT
HETATM    1  S8  UNL     1     -34.856  16.945  -4.868  1.00 20.00    -0.103 SA
ENDROOT
BRANCH   1   2
HETATM    2  C1  UNL     1     -35.091  15.451  -5.757  1.00 20.00     0.102 C 
HETATM    3  S6  UNL     1     -36.159  14.258  -5.267  1.00 20.00    -0.065 SA
BRANCH   2   4
HETATM    4  S7  UNL     1     -34.169  15.337  -7.248  1.00 20.00    -0.124 SA
HETATM    5  H18 UNL     1     -34.724  14.200  -7.695  1.00 20.00     0.108 HD
ENDBRANCH   2   4
ENDBRANCH   1   2
BRANCH   1   6
HETATM    6  C5  UNL     1     -33.884  16.279  -3.462  1.00 20.00     0.003 C 
HETATM    7  C2  UNL     1     -34.854  15.815  -2.370  1.00 20.00     0.026 C 
HETATM    8  C3  UNL     1     -33.050  15.098  -3.968  1.00 20.00     0.026 C 
HETATM    9  C4  UNL     1     -32.970  17.384  -2.928  1.00 20.00     0.026 C 
ENDBRANCH   1   6
TORSDOF 3
ENDMDL
MODEL 4
REMARK VINA RESULT:      -2.9      1.199      2.413
REMARK  3 active torsions:
REMARK  status: ('A' for Active; 'I' for Inactive)
REMARK    1  A    between atoms: C1_1  and  S7_7 
REMARK    2  A    between atoms: C1_1  and  S8_8 
REMARK    3  A    between atoms: C5_5  and  S8_8 
ROOT
HETATM    1  S8  UNL     1     -33.519  14.865  -4.201  1.00 20.00    -0.103 SA
ENDROOT
BRANCH   1   2
HETATM    2  C1  UNL     1     -34.817  14.752  -5.377  1.00 20.00     0.102 C 
HETATM    3  S6  UNL     1     -34.670  15.303  -6.950  1.00 20.00    -0.065 SA
BRANCH   2   4
HETATM    4  S7  UNL     1     -36.263  13.943  -4.791  1.00 20.00    -0.124 SA
HETATM    5  H18 UNL     1     -35.836  13.740  -3.535  1.00 20.00     0.108 HD
ENDBRANCH   2   4
ENDBRANCH   1   2
BRANCH   1   6
HETATM    6  C5  UNL     1     -34.091  16.360  -3.303  1.00 20.00     0.003 C 
HETATM    7  C2  UNL     1     -34.810  17.282  -4.293  1.00 20.00     0.026 C 
HETATM    8  C3  UNL     1     -35.050  15.919  -2.194  1.00 20.00     0.026 C 
HETATM    9  C4  UNL     1     -32.873  17.068  -2.703  1.00 20.00     0.026 C 
ENDBRANCH   1   6
TORSDOF 3
ENDMDL
MODEL 5
REMARK VINA RESULT:      -2.7      1.143      1.646
REMARK  3 active torsions:
REMARK  status: ('A' for Active; 'I' for Inactive)
REMARK    1  A    between atoms: C1_1  and  S7_7 
REMARK    2  A    between atoms: C1_1  and  S8_8 
REMARK    3  A    between atoms: C5_5  and  S8_8 
ROOT
HETATM    1  S8  UNL     1     -34.467  17.114  -4.916  1.00 20.00    -0.103 SA
ENDROOT
BRANCH   1   2
HETATM    2  C1  UNL     1     -35.825  16.149  -5.466  1.00 20.00     0.102 C 
HETATM    3  S6  UNL     1     -35.642  14.750  -6.366  1.00 20.00    -0.065 SA
BRANCH   2   4
HETATM    4  S7  UNL     1     -37.395  16.729  -4.930  1.00 20.00    -0.124 SA
HETATM    5  H18 UNL     1     -37.635  17.534  -5.975  1.00 20.00     0.108 HD
ENDBRANCH   2   4
ENDBRANCH   1   2
BRANCH   1   6
HETATM    6  C5  UNL     1     -33.880  16.019  -3.566  1.00 20.00     0.003 C 
HETATM    7  C2  UNL     1     -33.045  14.889  -4.176  1.00 20.00     0.026 C 
HETATM    8  C3  UNL     1     -33.025  16.853  -2.606  1.00 20.00     0.026 C 
HETATM    9  C4  UNL     1     -35.096  15.447  -2.833  1.00 20.00     0.026 C 
ENDBRANCH   1   6
TORSDOF 3
ENDMDL
MODEL 6
REMARK VINA RESULT:      -2.7      1.138      2.282
REMARK  3 active torsions:
REMARK  status: ('A' for Active; 'I' for Inactive)
REMARK    1  A    between atoms: C1_1  and  S7_7 
REMARK    2  A    between atoms: C1_1  and  S8_8 
REMARK    3  A    between atoms: C5_5  and  S8_8 
ROOT
HETATM    1  S8  UNL     1     -34.517  17.140  -4.875  1.00 20.00    -0.103 SA
ENDROOT
BRANCH   1   2
HETATM    2  C1  UNL     1     -35.860  16.140  -5.397  1.00 20.00     0.102 C 
HETATM    3  S6  UNL     1     -35.660  14.744  -6.298  1.00 20.00    -0.065 SA
BRANCH   2   4
HETATM    4  S7  UNL     1     -37.434  16.682  -4.833  1.00 20.00    -0.124 SA
HETATM    5  H18 UNL     1     -37.121  16.759  -3.531  1.00 20.00     0.108 HD
ENDBRANCH   2   4
ENDBRANCH   1   2
BRANCH   1   6
HETATM    6  C5  UNL     1     -33.882  16.068  -3.529  1.00 20.00     0.003 C 
HETATM    7  C2  UNL     1     -33.013  16.915  -2.594  1.00 20.00     0.026 C 
HETATM    8  C3  UNL     1     -35.079  15.492  -2.766  1.00 20.00     0.026 C 
HETATM    9  C4  UNL     1     -33.055  14.938  -4.148  1.00 20.00     0.026 C 
ENDBRANCH   1   6
TORSDOF 3
ENDMDL
MODEL 7
REMARK VINA RESULT:      -2.7      1.282      2.087
REMARK  3 active torsions:
REMARK  status: ('A' for Active; 'I' for Inactive)
REMARK    1  A    between atoms: C1_1  and  S7_7 
REMARK    2  A    between atoms: C1_1  and  S8_8 
REMARK    3  A    between atoms: C5_5  and  S8_8 
ROOT
HETATM    1  S8  UNL     1     -35.790  16.592  -4.605  1.00 20.00    -0.103 SA
ENDROOT
BRANCH   1   2
HETATM    2  C1  UNL     1     -34.729  16.755  -5.993  1.00 20.00     0.102 C 
HETATM    3  S6  UNL     1     -34.316  15.468  -6.979  1.00 20.00    -0.065 SA
BRANCH   2   4
HETATM    4  S7  UNL     1     -34.193  18.398  -6.310  1.00 20.00    -0.124 SA
HETATM    5  H18 UNL     1     -33.733  18.658  -5.078  1.00 20.00     0.108 HD
ENDBRANCH   2   4
ENDBRANCH   1   2
BRANCH   1   6
HETATM    6  C5  UNL     1     -34.620  15.761  -3.461  1.00 20.00     0.003 C 
HETATM    7  C2  UNL     1     -33.221  16.345  -3.679  1.00 20.00     0.026 C 
HETATM    8  C3  UNL     1     -35.085  16.018  -2.024  1.00 20.00     0.026 C 
HETATM    9  C4  UNL     1     -34.623  14.259  -3.759  1.00 20.00     0.026 C 
ENDBRANCH   1   6
TORSDOF 3
ENDMDL
MODEL 8
REMARK VINA RESULT:      -2.6      1.882      2.556
REMARK  3 active torsions:
REMARK  status: ('A' for Active; 'I' for Inactive)
REMARK    1  A    between atoms: C1_1  and  S7_7 
REMARK    2  A    between atoms: C1_1  and  S8_8 
REMARK    3  A    between atoms: C5_5  and  S8_8 
ROOT
HETATM    1  S8  UNL     1     -35.407  16.621  -4.757  1.00 20.00    -0.103 SA
ENDROOT
BRANCH   1   2
HETATM    2  C1  UNL     1     -37.034  16.398  -4.139  1.00 20.00     0.102 C 
HETATM    3  S6  UNL     1     -37.873  14.958  -4.284  1.00 20.00    -0.065 SA
BRANCH   2   4
HETATM    4  S7  UNL     1     -37.687  17.790  -3.288  1.00 20.00    -0.124 SA
HETATM    5  H18 UNL     1     -38.284  18.360  -4.345  1.00 20.00     0.108 HD
ENDBRANCH   2   4
ENDBRANCH   1   2
BRANCH   1   6
HETATM    6  C5  UNL     1     -34.496  15.670  -3.480  1.00 20.00     0.003 C 
HETATM    7  C2  UNL     1     -34.561  14.181  -3.836  1.00 20.00     0.026 C 
HETATM    8  C3  UNL     1     -33.041  16.149  -3.467  1.00 20.00     0.026 C 
HETATM    9  C4  UNL     1     -35.150  15.921  -2.118  1.00 20.00     0.026 C 
ENDBRANCH   1   6
TORSDOF 3
ENDMDL
MODEL 9
REMARK VINA RESULT:      -2.6      1.306      2.087
REMARK  3 active torsions:
REMARK  status: ('A' for Active; 'I' for Inactive)
REMARK    1  A    between atoms: C1_1  and  S7_7 
REMARK    2  A    between atoms: C1_1  and  S8_8 
REMARK    3  A    between atoms: C5_5  and  S8_8 
ROOT
HETATM    1  S8  UNL     1     -34.703  17.026  -4.836  1.00 20.00    -0.103 SA
ENDROOT
BRANCH   1   2
HETATM    2  C1  UNL     1     -35.246  16.230  -6.302  1.00 20.00     0.102 C 
HETATM    3  S6  UNL     1     -34.217  15.377  -7.310  1.00 20.00    -0.065 SA
BRANCH   2   4
HETATM    4  S7  UNL     1     -36.976  16.336  -6.590  1.00 20.00    -0.124 SA
HETATM    5  H18 UNL     1     -37.355  15.517  -5.598  1.00 20.00     0.108 HD
ENDBRANCH   2   4
ENDBRANCH   1   2
BRANCH   1   6
HETATM    6  C5  UNL     1     -34.486  15.541  -3.781  1.00 20.00     0.003 C 
HETATM    7  C2  UNL     1     -35.616  14.552  -4.085  1.00 20.00     0.026 C 
HETATM    8  C3  UNL     1     -33.127  14.912  -4.106  1.00 20.00     0.026 C 
HETATM    9  C4  UNL     1     -34.534  15.970  -2.312  1.00 20.00     0.026 C 
ENDBRANCH   1   6
TORSDOF 3
ENDMDL
