MODEL 1
REMARK VINA RESULT:      -5.1      0.000      0.000
REMARK  2 active torsions:
REMARK  status: ('A' for Active; 'I' for Inactive)
REMARK    1  A    between atoms: C1_1  and  C6_6 
REMARK    2  A    between atoms: C5_5  and  C10_10 
ROOT
HETATM    1  C2  UNL     1     -33.404  15.509  -3.396  1.00 20.00     0.006 C 
HETATM    2  C3  UNL     1     -33.816  14.559  -4.523  1.00 20.00     0.016 C 
HETATM    3  C4  UNL     1     -35.656  16.063  -3.927  1.00 20.00     0.021 C 
HETATM    4  C5  UNL     1     -34.717  15.909  -2.731  1.00 20.00    -0.010 C 
HETATM    5  C6  UNL     1     -35.295  14.874  -4.832  1.00 20.00     0.010 C 
HETATM    6  C7  UNL     1     -35.527  15.192  -6.307  1.00 20.00     0.023 C 
ENDROOT
BRANCH   4   7
HETATM    7  C10 UNL     1     -34.601  17.174  -1.896  1.00 20.00    -0.019 C 
HETATM    8  C8  UNL     1     -35.283  16.995  -0.539  1.00 20.00     0.010 C 
HETATM    9  C9  UNL     1     -33.135  17.569  -1.705  1.00 20.00     0.010 C 
ENDBRANCH   4   7
BRANCH   5  10
HETATM   10  C1  UNL     1     -36.156  13.684  -4.490  1.00 20.00     0.240 C 
HETATM   11  O11 UNL     1     -35.730  12.535  -4.438  1.00 20.00    -0.306 OA
ENDBRANCH   5  10
TORSDOF 2
ENDMDL
MODEL 2
REMARK VINA RESULT:      -5.1      0.536      1.142
REMARK  2 active torsions:
REMARK  status: ('A' for Active; 'I' for Inactive)
REMARK    1  A    between atoms: C1_1  and  C6_6 
REMARK    2  A    between atoms: C5_5  and  C10_10 
ROOT
HETATM    1  C2  UNL     1     -33.502  15.463  -3.620  1.00 20.00     0.006 C 
HETATM    2  C3  UNL     1     -34.070  14.713  -4.827  1.00 20.00     0.016 C 
HETATM    3  C4  UNL     1     -35.839  15.908  -3.625  1.00 20.00     0.021 C 
HETATM    4  C5  UNL     1     -34.684  15.613  -2.668  1.00 20.00    -0.010 C 
HETATM    5  C6  UNL     1     -35.594  14.949  -4.801  1.00 20.00     0.010 C 
HETATM    6  C7  UNL     1     -36.116  15.520  -6.117  1.00 20.00     0.023 C 
ENDROOT
BRANCH   4   7
HETATM    7  C10 UNL     1     -34.478  16.701  -1.627  1.00 20.00    -0.019 C 
HETATM    8  C8  UNL     1     -33.188  17.477  -1.898  1.00 20.00     0.010 C 
HETATM    9  C9  UNL     1     -35.673  17.656  -1.593  1.00 20.00     0.010 C 
ENDBRANCH   4   7
BRANCH   5  10
HETATM   10  C1  UNL     1     -36.313  13.646  -4.563  1.00 20.00     0.240 C 
HETATM   11  O11 UNL     1     -35.738  12.566  -4.462  1.00 20.00    -0.306 OA
ENDBRANCH   5  10
TORSDOF 2
ENDMDL
MODEL 3
REMARK VINA RESULT:      -4.8      1.085      1.830
REMARK  2 active torsions:
REMARK  status: ('A' for Active; 'I' for Inactive)
REMARK    1  A    between atoms: C1_1  and  C6_6 
REMARK    2  A    between atoms: C5_5  and  C10_10 
ROOT
HETATM    1  C2  UNL     1     -33.962  16.791  -4.418  1.00 20.00     0.006 C 
HETATM    2  C3  UNL     1     -34.872  15.772  -5.108  1.00 20.00     0.016 C 
HETATM    3  C4  UNL     1     -35.015  15.570  -2.670  1.00 20.00     0.021 C 
HETATM    4  C5  UNL     1     -33.669  16.184  -3.051  1.00 20.00    -0.010 C 
HETATM    5  C6  UNL     1     -35.513  14.937  -3.980  1.00 20.00     0.010 C 
HETATM    6  C7  UNL     1     -37.038  14.924  -4.061  1.00 20.00     0.023 C 
ENDROOT
BRANCH   4   7
HETATM    7  C10 UNL     1     -33.169  17.202  -2.040  1.00 20.00    -0.019 C 
HETATM    8  C8  UNL     1     -32.637  18.451  -2.743  1.00 20.00     0.010 C 
HETATM    9  C9  UNL     1     -34.277  17.581  -1.055  1.00 20.00     0.010 C 
ENDBRANCH   4   7
BRANCH   5  10
HETATM   10  C1  UNL     1     -35.048  13.506  -4.072  1.00 20.00     0.240 C 
HETATM   11  O11 UNL     1     -35.765  12.586  -4.451  1.00 20.00    -0.306 OA
ENDBRANCH   5  10
TORSDOF 2
ENDMDL
MODEL 4
REMARK VINA RESULT:      -4.5      1.850      2.575
REMARK  2 active torsions:
REMARK  status: ('A' for Active; 'I' for Inactive)
REMARK    1  A    between atoms: C1_1  and  C6_6 
REMARK    2  A    between atoms: C5_5  and  C10_10 
ROOT
HETATM    1  C2  UNL     1     -34.928  16.357  -1.702  1.00 20.00     0.006 C 
HETATM    2  C3  UNL     1     -35.049  15.446  -2.926  1.00 20.00     0.016 C 
HETATM    3  C4  UNL     1     -33.075  16.887  -3.096  1.00 20.00     0.021 C 
HETATM    4  C5  UNL     1     -34.110  17.549  -2.187  1.00 20.00    -0.010 C 
HETATM    5  C6  UNL     1     -33.883  15.827  -3.862  1.00 20.00     0.010 C 
HETATM    6  C7  UNL     1     -33.025  14.622  -4.241  1.00 20.00     0.023 C 
ENDROOT
BRANCH   4   7
HETATM    7  C10 UNL     1     -33.487  18.346  -1.054  1.00 20.00    -0.019 C 
HETATM    8  C8  UNL     1     -34.096  17.948   0.291  1.00 20.00     0.010 C 
HETATM    9  C9  UNL     1     -31.969  18.159  -1.025  1.00 20.00     0.010 C 
ENDBRANCH   4   7
BRANCH   5  10
HETATM   10  C1  UNL     1     -34.422  16.413  -5.142  1.00 20.00     0.240 C 
HETATM   11  O11 UNL     1     -35.619  16.505  -5.392  1.00 20.00    -0.306 OA
ENDBRANCH   5  10
TORSDOF 2
ENDMDL
MODEL 5
REMARK VINA RESULT:      -4.4      2.667      4.675
REMARK  2 active torsions:
REMARK  status: ('A' for Active; 'I' for Inactive)
REMARK    1  A    between atoms: C1_1  and  C6_6 
REMARK    2  A    between atoms: C5_5  and  C10_10 
ROOT
HETATM    1  C2  UNL     1     -35.021  15.918  -2.254  1.00 20.00     0.006 C 
HETATM    2  C3  UNL     1     -34.631  17.227  -1.564  1.00 20.00     0.016 C 
HETATM    3  C4  UNL     1     -33.318  16.885  -3.604  1.00 20.00     0.021 C 
HETATM    4  C5  UNL     1     -33.794  15.533  -3.073  1.00 20.00    -0.010 C 
HETATM    5  C6  UNL     1     -33.485  17.830  -2.403  1.00 20.00     0.010 C 
HETATM    6  C7  UNL     1     -33.778  19.262  -2.844  1.00 20.00     0.023 C 
ENDROOT
BRANCH   4   7
HETATM    7  C10 UNL     1     -34.102  14.533  -4.175  1.00 20.00    -0.019 C 
HETATM    8  C8  UNL     1     -35.529  13.999  -4.042  1.00 20.00     0.010 C 
HETATM    9  C9  UNL     1     -33.898  15.162  -5.554  1.00 20.00     0.010 C 
ENDBRANCH   4   7
BRANCH   5  10
HETATM   10  C1  UNL     1     -32.215  17.863  -1.591  1.00 20.00     0.240 C 
HETATM   11  O11 UNL     1     -31.506  18.858  -1.485  1.00 20.00    -0.306 OA
ENDBRANCH   5  10
TORSDOF 2
ENDMDL
MODEL 6
REMARK VINA RESULT:      -4.4      1.493      2.167
REMARK  2 active torsions:
REMARK  status: ('A' for Active; 'I' for Inactive)
REMARK    1  A    between atoms: C1_1  and  C6_6 
REMARK    2  A    between atoms: C5_5  and  C10_10 
ROOT
HETATM    1  C2  UNL     1     -34.118  17.832  -4.026  1.00 20.00     0.006 C 
HETATM    2  C3  UNL     1     -34.415  16.612  -4.900  1.00 20.00     0.016 C 
HETATM    3  C4  UNL     1     -34.001  15.949  -2.578  1.00 20.00     0.021 C 
HETATM    4  C5  UNL     1     -33.308  17.282  -2.857  1.00 20.00    -0.010 C 
HETATM    5  C6  UNL     1     -34.282  15.381  -3.978  1.00 20.00     0.010 C 
HETATM    6  C7  UNL     1     -35.532  14.504  -3.996  1.00 20.00     0.023 C 
ENDROOT
BRANCH   4   7
HETATM    7  C10 UNL     1     -33.290  18.210  -1.654  1.00 20.00    -0.019 C 
HETATM    8  C8  UNL     1     -34.292  17.747  -0.595  1.00 20.00     0.010 C 
HETATM    9  C9  UNL     1     -31.886  18.298  -1.053  1.00 20.00     0.010 C 
ENDBRANCH   4   7
BRANCH   5  10
HETATM   10  C1  UNL     1     -33.127  14.523  -4.429  1.00 20.00     0.240 C 
HETATM   11  O11 UNL     1     -33.097  13.305  -4.293  1.00 20.00    -0.306 OA
ENDBRANCH   5  10
TORSDOF 2
ENDMDL
MODEL 7
REMARK VINA RESULT:      -4.4      1.694      2.341
REMARK  2 active torsions:
REMARK  status: ('A' for Active; 'I' for Inactive)
REMARK    1  A    between atoms: C1_1  and  C6_6 
REMARK    2  A    between atoms: C5_5  and  C10_10 
ROOT
HETATM    1  C2  UNL     1     -34.896  15.296  -4.767  1.00 20.00     0.006 C 
HETATM    2  C3  UNL     1     -36.183  15.296  -5.595  1.00 20.00     0.016 C 
HETATM    3  C4  UNL     1     -36.505  16.480  -3.474  1.00 20.00     0.021 C 
HETATM    4  C5  UNL     1     -35.366  15.472  -3.326  1.00 20.00    -0.010 C 
HETATM    5  C6  UNL     1     -37.247  16.012  -4.737  1.00 20.00     0.010 C 
HETATM    6  C7  UNL     1     -37.904  17.176  -5.474  1.00 20.00     0.023 C 
ENDROOT
BRANCH   4   7
HETATM    7  C10 UNL     1     -34.264  15.949  -2.394  1.00 20.00    -0.019 C 
HETATM    8  C8  UNL     1     -33.136  16.618  -3.181  1.00 20.00     0.010 C 
HETATM    9  C9  UNL     1     -34.819  16.911  -1.342  1.00 20.00     0.010 C 
ENDBRANCH   4   7
BRANCH   5  10
HETATM   10  C1  UNL     1     -38.341  15.044  -4.363  1.00 20.00     0.240 C 
HETATM   11  O11 UNL     1     -38.198  13.826  -4.372  1.00 20.00    -0.306 OA
ENDBRANCH   5  10
TORSDOF 2
ENDMDL
MODEL 8
REMARK VINA RESULT:      -4.3      2.261      4.500
REMARK  2 active torsions:
REMARK  status: ('A' for Active; 'I' for Inactive)
REMARK    1  A    between atoms: C1_1  and  C6_6 
REMARK    2  A    between atoms: C5_5  and  C10_10 
ROOT
HETATM    1  C2  UNL     1     -33.047  16.678  -2.673  1.00 20.00     0.006 C 
HETATM    2  C3  UNL     1     -33.333  17.862  -1.747  1.00 20.00     0.016 C 
HETATM    3  C4  UNL     1     -35.160  16.231  -1.677  1.00 20.00     0.021 C 
HETATM    4  C5  UNL     1     -34.422  16.110  -3.009  1.00 20.00    -0.010 C 
HETATM    5  C6  UNL     1     -34.730  17.606  -1.142  1.00 20.00     0.010 C 
HETATM    6  C7  UNL     1     -34.718  17.644   0.384  1.00 20.00     0.023 C 
ENDROOT
BRANCH   4   7
HETATM    7  C10 UNL     1     -34.366  14.686  -3.535  1.00 20.00    -0.019 C 
HETATM    8  C8  UNL     1     -35.681  14.306  -4.218  1.00 20.00     0.010 C 
HETATM    9  C9  UNL     1     -33.195  14.507  -4.503  1.00 20.00     0.010 C 
ENDBRANCH   4   7
BRANCH   5  10
HETATM   10  C1  UNL     1     -35.694  18.667  -1.609  1.00 20.00     0.240 C 
HETATM   11  O11 UNL     1     -36.880  18.450  -1.833  1.00 20.00    -0.306 OA
ENDBRANCH   5  10
TORSDOF 2
ENDMDL
MODEL 9
REMARK VINA RESULT:      -4.2      1.770      2.537
REMARK  2 active torsions:
REMARK  status: ('A' for Active; 'I' for Inactive)
REMARK    1  A    between atoms: C1_1  and  C6_6 
REMARK    2  A    between atoms: C5_5  and  C10_10 
ROOT
HETATM    1  C2  UNL     1     -35.440  14.116  -4.053  1.00 20.00     0.006 C 
HETATM    2  C3  UNL     1     -35.927  14.109  -5.503  1.00 20.00     0.016 C 
HETATM    3  C4  UNL     1     -34.705  16.172  -4.999  1.00 20.00     0.021 C 
HETATM    4  C5  UNL     1     -35.282  15.593  -3.707  1.00 20.00    -0.010 C 
HETATM    5  C6  UNL     1     -35.505  15.465  -6.106  1.00 20.00     0.010 C 
HETATM    6  C7  UNL     1     -34.685  15.304  -7.384  1.00 20.00     0.023 C 
ENDROOT
BRANCH   4   7
HETATM    7  C10 UNL     1     -34.393  15.831  -2.497  1.00 20.00    -0.019 C 
HETATM    8  C8  UNL     1     -33.111  16.562  -2.899  1.00 20.00     0.010 C 
HETATM    9  C9  UNL     1     -35.138  16.620  -1.420  1.00 20.00     0.010 C 
ENDBRANCH   4   7
BRANCH   5  10
HETATM   10  C1  UNL     1     -36.727  16.274  -6.457  1.00 20.00     0.240 C 
HETATM   11  O11 UNL     1     -37.569  15.908  -7.270  1.00 20.00    -0.306 OA
ENDBRANCH   5  10
TORSDOF 2
ENDMDL
