MODEL 1
REMARK VINA RESULT:      -5.4      0.000      0.000
REMARK  0 active torsions:
REMARK  status: ('A' for Active; 'I' for Inactive)
ROOT
HETATM    1  C1  UNL     1     -37.026  14.579  -4.280  1.00 20.00     0.047 C 
HETATM    2  C2  UNL     1     -36.988  15.872  -3.943  1.00 20.00    -0.013 C 
HETATM    3  C3  UNL     1     -33.192  16.996  -2.189  1.00 20.00    -0.030 C 
HETATM    4  C4  UNL     1     -34.321  17.095  -1.476  1.00 20.00    -0.030 C 
HETATM    5  C5  UNL     1     -35.790  13.762  -4.250  1.00 20.00     0.149 C 
HETATM    6  C6  UNL     1     -33.158  16.543  -3.618  1.00 20.00     0.033 C 
HETATM    7  C7  UNL     1     -35.680  16.775  -2.026  1.00 20.00     0.040 C 
HETATM    8  C8  UNL     1     -34.514  14.404  -3.755  1.00 20.00     0.088 C 
HETATM    9  C9  UNL     1     -34.471  15.899  -4.109  1.00 20.00     0.008 C 
HETATM   10  C10 UNL     1     -35.732  16.639  -3.572  1.00 20.00    -0.019 C 
HETATM   11  C11 UNL     1     -35.820  18.040  -4.219  1.00 20.00     0.020 C 
HETATM   12  O12 UNL     1     -35.836  12.574  -4.565  1.00 20.00    -0.293 OA
ENDROOT
TORSDOF 0
ENDMDL
MODEL 2
REMARK VINA RESULT:      -5.1      1.208      2.772
REMARK  0 active torsions:
REMARK  status: ('A' for Active; 'I' for Inactive)
ROOT
HETATM    1  C1  UNL     1     -33.415  14.511  -4.233  1.00 20.00     0.047 C 
HETATM    2  C2  UNL     1     -32.936  15.704  -3.864  1.00 20.00    -0.013 C 
HETATM    3  C3  UNL     1     -36.038  18.312  -2.342  1.00 20.00    -0.030 C 
HETATM    4  C4  UNL     1     -35.351  18.650  -3.441  1.00 20.00    -0.030 C 
HETATM    5  C5  UNL     1     -34.806  14.127  -3.897  1.00 20.00     0.149 C 
HETATM    6  C6  UNL     1     -35.769  17.066  -1.553  1.00 20.00     0.033 C 
HETATM    7  C7  UNL     1     -34.229  17.827  -4.002  1.00 20.00     0.040 C 
HETATM    8  C8  UNL     1     -35.686  15.142  -3.203  1.00 20.00     0.088 C 
HETATM    9  C9  UNL     1     -34.863  16.046  -2.272  1.00 20.00     0.008 C 
HETATM   10  C10 UNL     1     -33.694  16.729  -3.042  1.00 20.00    -0.019 C 
HETATM   11  C11 UNL     1     -32.707  17.353  -2.030  1.00 20.00     0.020 C 
HETATM   12  O12 UNL     1     -35.235  13.026  -4.239  1.00 20.00    -0.293 OA
ENDROOT
TORSDOF 0
ENDMDL
MODEL 3
REMARK VINA RESULT:      -5.1      1.428      2.467
REMARK  0 active torsions:
REMARK  status: ('A' for Active; 'I' for Inactive)
ROOT
HETATM    1  C1  UNL     1     -36.061  14.079  -5.511  1.00 20.00     0.047 C 
HETATM    2  C2  UNL     1     -34.824  14.589  -5.508  1.00 20.00    -0.013 C 
HETATM    3  C3  UNL     1     -34.323  17.644  -2.481  1.00 20.00    -0.030 C 
HETATM    4  C4  UNL     1     -34.181  17.949  -3.777  1.00 20.00    -0.030 C 
HETATM    5  C5  UNL     1     -37.006  14.403  -4.417  1.00 20.00     0.149 C 
HETATM    6  C6  UNL     1     -34.616  16.259  -1.987  1.00 20.00     0.033 C 
HETATM    7  C7  UNL     1     -34.287  16.939  -4.881  1.00 20.00     0.040 C 
HETATM    8  C8  UNL     1     -36.566  15.379  -3.350  1.00 20.00     0.088 C 
HETATM    9  C9  UNL     1     -35.055  15.274  -3.090  1.00 20.00     0.008 C 
HETATM   10  C10 UNL     1     -34.245  15.460  -4.408  1.00 20.00    -0.019 C 
HETATM   11  C11 UNL     1     -32.781  15.026  -4.177  1.00 20.00     0.020 C 
HETATM   12  O12 UNL     1     -38.139  13.926  -4.429  1.00 20.00    -0.293 OA
ENDROOT
TORSDOF 0
ENDMDL
MODEL 4
REMARK VINA RESULT:      -5.0      0.979      1.026
REMARK  0 active torsions:
REMARK  status: ('A' for Active; 'I' for Inactive)
ROOT
HETATM    1  C1  UNL     1     -36.478  14.875  -5.411  1.00 20.00     0.047 C 
HETATM    2  C2  UNL     1     -36.221  16.186  -5.349  1.00 20.00    -0.013 C 
HETATM    3  C3  UNL     1     -33.686  17.197  -1.988  1.00 20.00    -0.030 C 
HETATM    4  C4  UNL     1     -34.927  17.694  -2.071  1.00 20.00    -0.030 C 
HETATM    5  C5  UNL     1     -35.743  13.927  -4.541  1.00 20.00     0.149 C 
HETATM    6  C6  UNL     1     -33.080  16.315  -3.037  1.00 20.00     0.033 C 
HETATM    7  C7  UNL     1     -35.848  17.433  -3.226  1.00 20.00     0.040 C 
HETATM    8  C8  UNL     1     -34.763  14.483  -3.534  1.00 20.00     0.088 C 
HETATM    9  C9  UNL     1     -34.093  15.762  -4.061  1.00 20.00     0.008 C 
HETATM   10  C10 UNL     1     -35.156  16.823  -4.475  1.00 20.00    -0.019 C 
HETATM   11  C11 UNL     1     -34.473  17.941  -5.295  1.00 20.00     0.020 C 
HETATM   12  O12 UNL     1     -35.987  12.723  -4.609  1.00 20.00    -0.293 OA
ENDROOT
TORSDOF 0
ENDMDL
MODEL 5
REMARK VINA RESULT:      -4.9      1.420      1.869
REMARK  0 active torsions:
REMARK  status: ('A' for Active; 'I' for Inactive)
ROOT
HETATM    1  C1  UNL     1     -37.837  16.124  -4.417  1.00 20.00     0.047 C 
HETATM    2  C2  UNL     1     -36.861  17.038  -4.459  1.00 20.00    -0.013 C 
HETATM    3  C3  UNL     1     -32.957  15.290  -3.794  1.00 20.00    -0.030 C 
HETATM    4  C4  UNL     1     -33.441  16.204  -2.943  1.00 20.00    -0.030 C 
HETATM    5  C5  UNL     1     -37.509  14.680  -4.388  1.00 20.00     0.149 C 
HETATM    6  C6  UNL     1     -33.685  14.844  -5.026  1.00 20.00     0.033 C 
HETATM    7  C7  UNL     1     -34.760  16.893  -3.131  1.00 20.00     0.040 C 
HETATM    8  C8  UNL     1     -36.055  14.273  -4.326  1.00 20.00     0.088 C 
HETATM    9  C9  UNL     1     -35.164  15.276  -5.077  1.00 20.00     0.008 C 
HETATM   10  C10 UNL     1     -35.379  16.724  -4.545  1.00 20.00    -0.019 C 
HETATM   11  C11 UNL     1     -34.734  17.732  -5.523  1.00 20.00     0.020 C 
HETATM   12  O12 UNL     1     -38.415  13.849  -4.353  1.00 20.00    -0.293 OA
ENDROOT
TORSDOF 0
ENDMDL
MODEL 6
REMARK VINA RESULT:      -4.8      1.376      1.680
REMARK  0 active torsions:
REMARK  status: ('A' for Active; 'I' for Inactive)
ROOT
HETATM    1  C1  UNL     1     -35.300  14.653  -3.865  1.00 20.00     0.047 C 
HETATM    2  C2  UNL     1     -35.886  15.699  -3.272  1.00 20.00    -0.013 C 
HETATM    3  C3  UNL     1     -33.010  18.361  -1.432  1.00 20.00    -0.030 C 
HETATM    4  C4  UNL     1     -33.925  17.734  -0.682  1.00 20.00    -0.030 C 
HETATM    5  C5  UNL     1     -33.828  14.620  -4.036  1.00 20.00     0.149 C 
HETATM    6  C6  UNL     1     -32.936  18.229  -2.924  1.00 20.00     0.033 C 
HETATM    7  C7  UNL     1     -34.987  16.838  -1.248  1.00 20.00     0.040 C 
HETATM    8  C8  UNL     1     -33.009  15.750  -3.457  1.00 20.00     0.088 C 
HETATM    9  C9  UNL     1     -33.785  17.076  -3.499  1.00 20.00     0.008 C 
HETATM   10  C10 UNL     1     -35.164  16.942  -2.787  1.00 20.00    -0.019 C 
HETATM   11  C11 UNL     1     -36.041  18.167  -3.132  1.00 20.00     0.020 C 
HETATM   12  O12 UNL     1     -33.301  13.655  -4.586  1.00 20.00    -0.293 OA
ENDROOT
TORSDOF 0
ENDMDL
MODEL 7
REMARK VINA RESULT:      -4.8      1.056      2.758
REMARK  0 active torsions:
REMARK  status: ('A' for Active; 'I' for Inactive)
ROOT
HETATM    1  C1  UNL     1     -35.698  13.805  -4.166  1.00 20.00     0.047 C 
HETATM    2  C2  UNL     1     -34.624  14.567  -3.935  1.00 20.00    -0.013 C 
HETATM    3  C3  UNL     1     -35.557  18.792  -4.066  1.00 20.00    -0.030 C 
HETATM    4  C4  UNL     1     -34.692  18.265  -4.941  1.00 20.00    -0.030 C 
HETATM    5  C5  UNL     1     -37.049  14.411  -4.206  1.00 20.00     0.149 C 
HETATM    6  C6  UNL     1     -36.219  17.998  -2.981  1.00 20.00     0.033 C 
HETATM    7  C7  UNL     1     -34.277  16.823  -4.929  1.00 20.00     0.040 C 
HETATM    8  C8  UNL     1     -37.172  15.910  -4.061  1.00 20.00     0.088 C 
HETATM    9  C9  UNL     1     -36.077  16.470  -3.140  1.00 20.00     0.008 C 
HETATM   10  C10 UNL     1     -34.660  16.054  -3.636  1.00 20.00    -0.019 C 
HETATM   11  C11 UNL     1     -33.622  16.343  -2.528  1.00 20.00     0.020 C 
HETATM   12  O12 UNL     1     -38.030  13.699  -4.416  1.00 20.00    -0.293 OA
ENDROOT
TORSDOF 0
ENDMDL
MODEL 8
REMARK VINA RESULT:      -4.7     16.246     17.947
REMARK  0 active torsions:
REMARK  status: ('A' for Active; 'I' for Inactive)
ROOT
HETATM    1  C1  UNL     1     -25.145  19.210   8.600  1.00 20.00     0.047 C 
HETATM    2  C2  UNL     1     -25.637  19.131   9.842  1.00 20.00    -0.013 C 
HETATM    3  C3  UNL     1     -23.599  16.141  12.219  1.00 20.00    -0.030 C 
HETATM    4  C4  UNL     1     -24.906  16.018  11.956  1.00 20.00    -0.030 C 
HETATM    5  C5  UNL     1     -23.895  18.500   8.245  1.00 20.00     0.149 C 
HETATM    6  C6  UNL     1     -22.773  17.305  11.762  1.00 20.00     0.033 C 
HETATM    7  C7  UNL     1     -25.695  17.035  11.185  1.00 20.00     0.040 C 
HETATM    8  C8  UNL     1     -23.240  17.626   9.289  1.00 20.00     0.088 C 
HETATM    9  C9  UNL     1     -23.459  18.191  10.702  1.00 20.00     0.008 C 
HETATM   10  C10 UNL     1     -24.975  18.397  10.994  1.00 20.00    -0.019 C 
HETATM   11  C11 UNL     1     -25.141  19.260  12.265  1.00 20.00     0.020 C 
HETATM   12  O12 UNL     1     -23.451  18.583   7.101  1.00 20.00    -0.293 OA
ENDROOT
TORSDOF 0
ENDMDL
MODEL 9
REMARK VINA RESULT:      -4.7      2.012      4.082
REMARK  0 active torsions:
REMARK  status: ('A' for Active; 'I' for Inactive)
ROOT
HETATM    1  C1  UNL     1     -33.089  16.995  -2.327  1.00 20.00     0.047 C 
HETATM    2  C2  UNL     1     -33.136  16.421  -3.535  1.00 20.00    -0.013 C 
HETATM    3  C3  UNL     1     -36.890  14.379  -4.230  1.00 20.00    -0.030 C 
HETATM    4  C4  UNL     1     -35.740  13.693  -4.219  1.00 20.00    -0.030 C 
HETATM    5  C5  UNL     1     -34.310  17.081  -1.493  1.00 20.00     0.149 C 
HETATM    6  C6  UNL     1     -36.964  15.866  -4.049  1.00 20.00     0.033 C 
HETATM    7  C7  UNL     1     -34.395  14.333  -4.037  1.00 20.00     0.040 C 
HETATM    8  C8  UNL     1     -35.579  16.438  -2.003  1.00 20.00     0.088 C 
HETATM    9  C9  UNL     1     -35.658  16.506  -3.536  1.00 20.00     0.008 C 
HETATM   10  C10 UNL     1     -34.392  15.878  -4.191  1.00 20.00    -0.019 C 
HETATM   11  C11 UNL     1     -34.348  16.255  -5.689  1.00 20.00     0.020 C 
HETATM   12  O12 UNL     1     -34.255  17.613  -0.385  1.00 20.00    -0.293 OA
ENDROOT
TORSDOF 0
ENDMDL
