MODEL 1
REMARK VINA RESULT:      -3.7      0.000      0.000
REMARK  2 active torsions:
REMARK  status: ('A' for Active; 'I' for Inactive)
REMARK    1  A    between atoms: C1_1  and  C3_3 
REMARK    2  A    between atoms: C2_2  and  C3_3 
ROOT
HETATM    1  C3  UNL     1     -34.218   5.512   3.438  1.00 20.00     0.109 C 
HETATM    2 CL6  UNL     1     -33.124   4.541   2.394  1.00 20.00    -0.123 Cl
ENDROOT
BRANCH   1   3
HETATM    3  C1  UNL     1     -33.497   6.778   3.913  1.00 20.00     0.135 C 
HETATM    4 CL4  UNL     1     -32.121   7.243   2.883  1.00 20.00    -0.129 Cl
ENDBRANCH   1   3
BRANCH   1   5
HETATM    5  C2  UNL     1     -34.770   4.608   4.541  1.00 20.00     0.135 C 
HETATM    6 CL5  UNL     1     -34.721   5.398   6.135  1.00 20.00    -0.129 Cl
ENDBRANCH   1   5
TORSDOF 2
ENDMDL
MODEL 2
REMARK VINA RESULT:      -3.6      1.361      1.480
REMARK  2 active torsions:
REMARK  status: ('A' for Active; 'I' for Inactive)
REMARK    1  A    between atoms: C1_1  and  C3_3 
REMARK    2  A    between atoms: C2_2  and  C3_3 
ROOT
HETATM    1  C3  UNL     1     -33.736   6.549   3.771  1.00 20.00     0.109 C 
HETATM    2 CL6  UNL     1     -34.045   4.833   3.335  1.00 20.00    -0.123 Cl
ENDROOT
BRANCH   1   3
HETATM    3  C1  UNL     1     -32.416   7.016   3.147  1.00 20.00     0.135 C 
HETATM    4 CL4  UNL     1     -32.617   7.805   1.563  1.00 20.00    -0.129 Cl
ENDBRANCH   1   3
BRANCH   1   5
HETATM    5  C2  UNL     1     -33.841   6.693   5.290  1.00 20.00     0.135 C 
HETATM    6 CL5  UNL     1     -34.762   5.358   6.023  1.00 20.00    -0.129 Cl
ENDBRANCH   1   5
TORSDOF 2
ENDMDL
MODEL 3
REMARK VINA RESULT:      -3.6      1.481      3.656
REMARK  2 active torsions:
REMARK  status: ('A' for Active; 'I' for Inactive)
REMARK    1  A    between atoms: C1_1  and  C3_3 
REMARK    2  A    between atoms: C2_2  and  C3_3 
ROOT
HETATM    1  C3  UNL     1     -34.008   6.443   3.876  1.00 20.00     0.109 C 
HETATM    2 CL6  UNL     1     -33.202   7.212   5.286  1.00 20.00    -0.123 Cl
ENDROOT
BRANCH   1   3
HETATM    3  C1  UNL     1     -34.859   5.258   4.343  1.00 20.00     0.135 C 
HETATM    4 CL4  UNL     1     -34.878   5.049   6.112  1.00 20.00    -0.129 Cl
ENDBRANCH   1   3
BRANCH   1   5
HETATM    5  C2  UNL     1     -32.947   6.124   2.821  1.00 20.00     0.135 C 
HETATM    6 CL5  UNL     1     -32.499   7.563   1.872  1.00 20.00    -0.129 Cl
ENDBRANCH   1   5
TORSDOF 2
ENDMDL
MODEL 4
REMARK VINA RESULT:      -3.6      0.721      3.005
REMARK  2 active torsions:
REMARK  status: ('A' for Active; 'I' for Inactive)
REMARK    1  A    between atoms: C1_1  and  C3_3 
REMARK    2  A    between atoms: C2_2  and  C3_3 
ROOT
HETATM    1  C3  UNL     1     -33.917   6.535   3.911  1.00 20.00     0.109 C 
HETATM    2 CL6  UNL     1     -32.353   7.073   3.208  1.00 20.00    -0.123 Cl
ENDROOT
BRANCH   1   3
HETATM    3  C1  UNL     1     -33.888   6.700   5.434  1.00 20.00     0.135 C 
HETATM    4 CL4  UNL     1     -34.715   5.388   6.309  1.00 20.00    -0.129 Cl
ENDBRANCH   1   3
BRANCH   1   5
HETATM    5  C2  UNL     1     -34.222   5.126   3.401  1.00 20.00     0.135 C 
HETATM    6 CL5  UNL     1     -33.006   4.565   2.229  1.00 20.00    -0.129 Cl
ENDBRANCH   1   5
TORSDOF 2
ENDMDL
MODEL 5
REMARK VINA RESULT:      -3.5      1.329      2.734
REMARK  2 active torsions:
REMARK  status: ('A' for Active; 'I' for Inactive)
REMARK    1  A    between atoms: C1_1  and  C3_3 
REMARK    2  A    between atoms: C2_2  and  C3_3 
ROOT
HETATM    1  C3  UNL     1     -34.769   5.404   4.440  1.00 20.00     0.109 C 
HETATM    2 CL6  UNL     1     -34.961   5.000   6.181  1.00 20.00    -0.123 Cl
ENDROOT
BRANCH   1   3
HETATM    3  C1  UNL     1     -34.199   4.198   3.685  1.00 20.00     0.135 C 
HETATM    4 CL4  UNL     1     -33.110   4.645   2.348  1.00 20.00    -0.129 Cl
ENDBRANCH   1   3
BRANCH   1   5
HETATM    5  C2  UNL     1     -33.966   6.700   4.325  1.00 20.00     0.135 C 
HETATM    6 CL5  UNL     1     -33.386   7.266   5.910  1.00 20.00    -0.129 Cl
ENDBRANCH   1   5
TORSDOF 2
ENDMDL
MODEL 6
REMARK VINA RESULT:      -3.5      1.062      3.496
REMARK  2 active torsions:
REMARK  status: ('A' for Active; 'I' for Inactive)
REMARK    1  A    between atoms: C1_1  and  C3_3 
REMARK    2  A    between atoms: C2_2  and  C3_3 
ROOT
HETATM    1  C3  UNL     1     -33.813   6.642   3.952  1.00 20.00     0.109 C 
HETATM    2 CL6  UNL     1     -33.798   6.890   5.732  1.00 20.00    -0.123 Cl
ENDROOT
BRANCH   1   3
HETATM    3  C1  UNL     1     -34.240   5.205   3.630  1.00 20.00     0.135 C 
HETATM    4 CL4  UNL     1     -33.212   4.414   2.409  1.00 20.00    -0.129 Cl
ENDBRANCH   1   3
BRANCH   1   5
HETATM    5  C2  UNL     1     -32.461   7.076   3.387  1.00 20.00     0.135 C 
HETATM    6 CL5  UNL     1     -32.607   7.719   1.733  1.00 20.00    -0.129 Cl
ENDBRANCH   1   5
TORSDOF 2
ENDMDL
MODEL 7
REMARK VINA RESULT:      -3.3      0.607      3.230
REMARK  2 active torsions:
REMARK  status: ('A' for Active; 'I' for Inactive)
REMARK    1  A    between atoms: C1_1  and  C3_3 
REMARK    2  A    between atoms: C2_2  and  C3_3 
ROOT
HETATM    1  C3  UNL     1     -33.532   5.456   3.715  1.00 20.00     0.109 C 
HETATM    2 CL6  UNL     1     -33.331   4.631   2.131  1.00 20.00    -0.123 Cl
ENDROOT
BRANCH   1   3
HETATM    3  C1  UNL     1     -34.895   5.100   4.319  1.00 20.00     0.135 C 
HETATM    4 CL4  UNL     1     -34.957   5.279   6.090  1.00 20.00    -0.129 Cl
ENDBRANCH   1   3
BRANCH   1   5
HETATM    5  C2  UNL     1     -33.258   6.949   3.527  1.00 20.00     0.135 C 
HETATM    6 CL5  UNL     1     -32.447   7.286   1.979  1.00 20.00    -0.129 Cl
ENDBRANCH   1   5
TORSDOF 2
ENDMDL
MODEL 8
REMARK VINA RESULT:      -3.2      1.621      2.656
REMARK  2 active torsions:
REMARK  status: ('A' for Active; 'I' for Inactive)
REMARK    1  A    between atoms: C1_1  and  C3_3 
REMARK    2  A    between atoms: C2_2  and  C3_3 
ROOT
HETATM    1  C3  UNL     1     -32.942   6.392   3.229  1.00 20.00     0.109 C 
HETATM    2 CL6  UNL     1     -32.533   7.517   1.888  1.00 20.00    -0.123 Cl
ENDROOT
BRANCH   1   3
HETATM    3  C1  UNL     1     -33.308   5.016   2.661  1.00 20.00     0.135 C 
HETATM    4 CL4  UNL     1     -34.235   4.002   3.795  1.00 20.00    -0.129 Cl
ENDBRANCH   1   3
BRANCH   1   5
HETATM    5  C2  UNL     1     -34.003   7.050   4.112  1.00 20.00     0.135 C 
HETATM    6 CL5  UNL     1     -33.673   6.803   5.844  1.00 20.00    -0.129 Cl
ENDBRANCH   1   5
TORSDOF 2
ENDMDL
MODEL 9
REMARK VINA RESULT:      -3.1      8.998      9.363
REMARK  2 active torsions:
REMARK  status: ('A' for Active; 'I' for Inactive)
REMARK    1  A    between atoms: C1_1  and  C3_3 
REMARK    2  A    between atoms: C2_2  and  C3_3 
ROOT
HETATM    1  C3  UNL     1     -41.658   7.604   0.396  1.00 20.00     0.109 C 
HETATM    2 CL6  UNL     1     -41.414   9.383   0.472  1.00 20.00    -0.123 Cl
ENDROOT
BRANCH   1   3
HETATM    3  C1  UNL     1     -41.292   7.088  -1.000  1.00 20.00     0.135 C 
HETATM    4 CL4  UNL     1     -40.838   5.365  -1.026  1.00 20.00    -0.129 Cl
ENDBRANCH   1   3
BRANCH   1   5
HETATM    5  C2  UNL     1     -43.076   7.284   0.871  1.00 20.00     0.135 C 
HETATM    6 CL5  UNL     1     -43.174   5.680   1.638  1.00 20.00    -0.129 Cl
ENDBRANCH   1   5
TORSDOF 2
ENDMDL
