MODEL 1
REMARK VINA RESULT:      -4.8      0.000      0.000
REMARK  2 active torsions:
REMARK  status: ('A' for Active; 'I' for Inactive)
REMARK    1  A    between atoms: C1_1  and  C6_6 
REMARK    2  A    between atoms: C1_1  and  C7_7 
ROOT
HETATM    1  C1  UNL     1     -33.915   5.703   3.488  1.00 20.00     0.135 C 
HETATM    2  O8  UNL     1     -33.585   4.698   2.862  1.00 20.00    -0.297 OA
ENDROOT
BRANCH   1   3
HETATM    3  C6  UNL     1     -33.389   7.029   3.148  1.00 20.00     0.056 A 
HETATM    4  C2  UNL     1     -31.934   7.330   3.387  1.00 20.00     0.013 A 
HETATM    5  C3  UNL     1     -32.443   7.171   1.987  1.00 20.00     0.013 A 
ENDBRANCH   1   3
BRANCH   1   6
HETATM    6  C7  UNL     1     -34.880   5.632   4.641  1.00 20.00     0.056 A 
HETATM    7  C4  UNL     1     -34.563   4.715   5.767  1.00 20.00     0.013 A 
HETATM    8  C5  UNL     1     -34.453   6.199   5.947  1.00 20.00     0.013 A 
ENDBRANCH   1   6
TORSDOF 2
ENDMDL
MODEL 2
REMARK VINA RESULT:      -4.7      0.060      3.411
REMARK  2 active torsions:
REMARK  status: ('A' for Active; 'I' for Inactive)
REMARK    1  A    between atoms: C1_1  and  C6_6 
REMARK    2  A    between atoms: C1_1  and  C7_7 
ROOT
HETATM    1  C1  UNL     1     -33.902   5.703   3.486  1.00 20.00     0.135 C 
HETATM    2  O8  UNL     1     -33.572   4.719   2.828  1.00 20.00    -0.297 OA
ENDROOT
BRANCH   1   3
HETATM    3  C6  UNL     1     -34.855   5.602   4.596  1.00 20.00     0.056 A 
HETATM    4  C2  UNL     1     -34.535   4.709   5.765  1.00 20.00     0.013 A 
HETATM    5  C3  UNL     1     -34.498   6.198   5.931  1.00 20.00     0.013 A 
ENDBRANCH   1   3
BRANCH   1   6
HETATM    6  C7  UNL     1     -33.348   7.071   3.192  1.00 20.00     0.056 A 
HETATM    7  C4  UNL     1     -31.885   7.283   3.346  1.00 20.00     0.013 A 
HETATM    8  C5  UNL     1     -32.502   7.238   1.981  1.00 20.00     0.013 A 
ENDBRANCH   1   6
TORSDOF 2
ENDMDL
MODEL 3
REMARK VINA RESULT:      -4.3      1.521      1.717
REMARK  2 active torsions:
REMARK  status: ('A' for Active; 'I' for Inactive)
REMARK    1  A    between atoms: C1_1  and  C6_6 
REMARK    2  A    between atoms: C1_1  and  C7_7 
ROOT
HETATM    1  C1  UNL     1     -33.519   6.690   4.321  1.00 20.00     0.135 C 
HETATM    2  O8  UNL     1     -33.083   7.436   5.196  1.00 20.00    -0.297 OA
ENDROOT
BRANCH   1   3
HETATM    3  C6  UNL     1     -32.832   6.528   3.035  1.00 20.00     0.056 A 
HETATM    4  C2  UNL     1     -32.985   7.587   1.977  1.00 20.00     0.013 A 
HETATM    5  C3  UNL     1     -31.679   7.435   2.696  1.00 20.00     0.013 A 
ENDBRANCH   1   3
BRANCH   1   6
HETATM    6  C7  UNL     1     -34.783   5.897   4.518  1.00 20.00     0.056 A 
HETATM    7  C4  UNL     1     -34.710   4.418   4.389  1.00 20.00     0.013 A 
HETATM    8  C5  UNL     1     -34.895   5.051   5.735  1.00 20.00     0.013 A 
ENDBRANCH   1   6
TORSDOF 2
ENDMDL
MODEL 4
REMARK VINA RESULT:      -4.2      1.562      3.739
REMARK  2 active torsions:
REMARK  status: ('A' for Active; 'I' for Inactive)
REMARK    1  A    between atoms: C1_1  and  C6_6 
REMARK    2  A    between atoms: C1_1  and  C7_7 
ROOT
HETATM    1  C1  UNL     1     -33.741   6.776   4.550  1.00 20.00     0.135 C 
HETATM    2  O8  UNL     1     -33.065   7.272   5.449  1.00 20.00    -0.297 OA
ENDROOT
BRANCH   1   3
HETATM    3  C6  UNL     1     -34.880   5.898   4.837  1.00 20.00     0.056 A 
HETATM    4  C2  UNL     1     -34.722   4.408   4.683  1.00 20.00     0.013 A 
HETATM    5  C3  UNL     1     -34.838   5.009   6.051  1.00 20.00     0.013 A 
ENDBRANCH   1   3
BRANCH   1   6
HETATM    6  C7  UNL     1     -33.440   7.042   3.099  1.00 20.00     0.056 A 
HETATM    7  C4  UNL     1     -32.021   7.227   2.699  1.00 20.00     0.013 A 
HETATM    8  C5  UNL     1     -32.757   5.977   2.320  1.00 20.00     0.013 A 
ENDBRANCH   1   6
TORSDOF 2
ENDMDL
MODEL 5
REMARK VINA RESULT:      -4.0      1.919      4.249
REMARK  2 active torsions:
REMARK  status: ('A' for Active; 'I' for Inactive)
REMARK    1  A    between atoms: C1_1  and  C6_6 
REMARK    2  A    between atoms: C1_1  and  C7_7 
ROOT
HETATM    1  C1  UNL     1     -32.461   7.247   2.307  1.00 20.00     0.135 C 
HETATM    2  O8  UNL     1     -31.849   7.458   3.352  1.00 20.00    -0.297 OA
ENDROOT
BRANCH   1   3
HETATM    3  C6  UNL     1     -33.495   6.211   2.216  1.00 20.00     0.056 A 
HETATM    4  C2  UNL     1     -33.122   4.772   2.453  1.00 20.00     0.013 A 
HETATM    5  C3  UNL     1     -33.944   5.506   3.468  1.00 20.00     0.013 A 
ENDBRANCH   1   3
BRANCH   1   6
HETATM    6  C7  UNL     1     -32.186   8.040   1.058  1.00 20.00     0.056 A 
HETATM    7  C4  UNL     1     -33.256   8.123   0.029  1.00 20.00     0.013 A 
HETATM    8  C5  UNL     1     -32.918   9.320   0.867  1.00 20.00     0.013 A 
ENDBRANCH   1   6
TORSDOF 2
ENDMDL
MODEL 6
REMARK VINA RESULT:      -3.8      1.564      3.132
REMARK  2 active torsions:
REMARK  status: ('A' for Active; 'I' for Inactive)
REMARK    1  A    between atoms: C1_1  and  C6_6 
REMARK    2  A    between atoms: C1_1  and  C7_7 
ROOT
HETATM    1  C1  UNL     1     -33.516   6.450   3.722  1.00 20.00     0.135 C 
HETATM    2  O8  UNL     1     -32.468   7.059   3.518  1.00 20.00    -0.297 OA
ENDROOT
BRANCH   1   3
HETATM    3  C6  UNL     1     -34.376   6.761   4.869  1.00 20.00     0.056 A 
HETATM    4  C2  UNL     1     -34.477   5.779   6.005  1.00 20.00     0.013 A 
HETATM    5  C3  UNL     1     -33.746   7.073   6.200  1.00 20.00     0.013 A 
ENDBRANCH   1   3
BRANCH   1   6
HETATM    6  C7  UNL     1     -33.980   5.350   2.806  1.00 20.00     0.056 A 
HETATM    7  C4  UNL     1     -32.966   4.399   2.281  1.00 20.00     0.013 A 
HETATM    8  C5  UNL     1     -33.952   3.955   3.319  1.00 20.00     0.013 A 
ENDBRANCH   1   6
TORSDOF 2
ENDMDL
MODEL 7
REMARK VINA RESULT:      -3.8      1.556      2.264
REMARK  2 active torsions:
REMARK  status: ('A' for Active; 'I' for Inactive)
REMARK    1  A    between atoms: C1_1  and  C6_6 
REMARK    2  A    between atoms: C1_1  and  C7_7 
ROOT
HETATM    1  C1  UNL     1     -33.490   6.475   3.700  1.00 20.00     0.135 C 
HETATM    2  O8  UNL     1     -32.449   7.090   3.473  1.00 20.00    -0.297 OA
ENDROOT
BRANCH   1   3
HETATM    3  C6  UNL     1     -33.945   5.386   2.830  1.00 20.00     0.056 A 
HETATM    4  C2  UNL     1     -32.958   4.349   2.365  1.00 20.00     0.013 A 
HETATM    5  C3  UNL     1     -34.004   3.984   3.374  1.00 20.00     0.013 A 
ENDBRANCH   1   3
BRANCH   1   6
HETATM    6  C7  UNL     1     -34.358   6.803   4.885  1.00 20.00     0.056 A 
HETATM    7  C4  UNL     1     -34.500   5.782   5.955  1.00 20.00     0.013 A 
HETATM    8  C5  UNL     1     -33.695   7.023   6.198  1.00 20.00     0.013 A 
ENDBRANCH   1   6
TORSDOF 2
ENDMDL
MODEL 8
REMARK VINA RESULT:      -3.8     11.442     12.343
REMARK  2 active torsions:
REMARK  status: ('A' for Active; 'I' for Inactive)
REMARK    1  A    between atoms: C1_1  and  C6_6 
REMARK    2  A    between atoms: C1_1  and  C7_7 
ROOT
HETATM    1  C1  UNL     1     -35.746  13.906  -4.183  1.00 20.00     0.135 C 
HETATM    2  O8  UNL     1     -36.003  12.792  -4.634  1.00 20.00    -0.297 OA
ENDROOT
BRANCH   1   3
HETATM    3  C6  UNL     1     -36.795  14.903  -3.948  1.00 20.00     0.056 A 
HETATM    4  C2  UNL     1     -37.432  15.597  -5.122  1.00 20.00     0.013 A 
HETATM    5  C3  UNL     1     -38.214  14.586  -4.339  1.00 20.00     0.013 A 
ENDBRANCH   1   3
BRANCH   1   6
HETATM    6  C7  UNL     1     -34.337  14.313  -3.845  1.00 20.00     0.056 A 
HETATM    7  C4  UNL     1     -33.785  15.533  -4.489  1.00 20.00     0.013 A 
HETATM    8  C5  UNL     1     -34.140  15.543  -3.033  1.00 20.00     0.013 A 
ENDBRANCH   1   6
TORSDOF 2
ENDMDL
MODEL 9
REMARK VINA RESULT:      -3.7     15.881     16.759
REMARK  2 active torsions:
REMARK  status: ('A' for Active; 'I' for Inactive)
REMARK    1  A    between atoms: C1_1  and  C6_6 
REMARK    2  A    between atoms: C1_1  and  C7_7 
ROOT
HETATM    1  C1  UNL     1     -22.942  17.664  10.861  1.00 20.00     0.135 C 
HETATM    2  O8  UNL     1     -22.425  17.798  11.968  1.00 20.00    -0.297 OA
ENDROOT
BRANCH   1   3
HETATM    3  C6  UNL     1     -22.334  18.231   9.653  1.00 20.00     0.056 A 
HETATM    4  C2  UNL     1     -21.294  17.438   8.908  1.00 20.00     0.013 A 
HETATM    5  C3  UNL     1     -22.656  17.627   8.313  1.00 20.00     0.013 A 
ENDBRANCH   1   3
BRANCH   1   6
HETATM    6  C7  UNL     1     -24.232  16.910  10.679  1.00 20.00     0.056 A 
HETATM    7  C4  UNL     1     -24.493  15.744  11.563  1.00 20.00     0.013 A 
HETATM    8  C5  UNL     1     -25.262  17.018  11.746  1.00 20.00     0.013 A 
ENDBRANCH   1   6
TORSDOF 2
ENDMDL
