MODEL 1
REMARK VINA RESULT:      -3.8      0.000      0.000
REMARK  2 active torsions:
REMARK  status: ('A' for Active; 'I' for Inactive)
REMARK    1  A    between atoms: C4_4  and  C5_5 
REMARK    2  A    between atoms: C4_4  and  C6_6 
ROOT
HETATM    1  C1  UNL     1     -35.403  13.811  -4.302  1.00 20.00     0.068 C 
HETATM    2  C2  UNL     1     -33.085  14.606  -4.353  1.00 20.00     0.031 C 
HETATM    3  C3  UNL     1     -34.941  16.070  -5.166  1.00 20.00     0.031 C 
HETATM    4  C6  UNL     1     -34.554  15.011  -4.123  1.00 20.00     0.043 C 
HETATM    5  N7  UNL     1     -36.069  12.871  -4.445  1.00 20.00    -0.196 NA
ENDROOT
BRANCH   4   6
HETATM    6  C4  UNL     1     -34.693  15.555  -2.677  1.00 20.00     0.039 C 
BRANCH   6   7
HETATM    7  C5  UNL     1     -34.549  17.070  -2.540  1.00 20.00     0.116 C 
HETATM    8 CL8  UNL     1     -32.922  17.482  -1.939  1.00 20.00    -0.130 Cl
ENDBRANCH   6   7
ENDBRANCH   4   6
TORSDOF 2
ENDMDL
MODEL 2
REMARK VINA RESULT:      -3.8     10.925     11.901
REMARK  2 active torsions:
REMARK  status: ('A' for Active; 'I' for Inactive)
REMARK    1  A    between atoms: C4_4  and  C5_5 
REMARK    2  A    between atoms: C4_4  and  C6_6 
ROOT
HETATM    1  C1  UNL     1     -41.674   9.118   0.079  1.00 20.00     0.068 C 
HETATM    2  C2  UNL     1     -42.551   6.974   0.883  1.00 20.00     0.031 C 
HETATM    3  C3  UNL     1     -43.417   7.978  -1.235  1.00 20.00     0.031 C 
HETATM    4  C6  UNL     1     -42.166   7.792  -0.364  1.00 20.00     0.043 C 
HETATM    5  N7  UNL     1     -41.290  10.157   0.426  1.00 20.00    -0.196 NA
ENDROOT
BRANCH   4   6
HETATM    6  C4  UNL     1     -41.048   7.033  -1.125  1.00 20.00     0.039 C 
BRANCH   6   7
HETATM    7  C5  UNL     1     -40.953   5.539  -0.815  1.00 20.00     0.116 C 
HETATM    8 CL8  UNL     1     -42.103   4.627  -1.826  1.00 20.00    -0.130 Cl
ENDBRANCH   6   7
ENDBRANCH   4   6
TORSDOF 2
ENDMDL
MODEL 3
REMARK VINA RESULT:      -3.8     17.680     18.276
REMARK  2 active torsions:
REMARK  status: ('A' for Active; 'I' for Inactive)
REMARK    1  A    between atoms: C4_4  and  C5_5 
REMARK    2  A    between atoms: C4_4  and  C6_6 
ROOT
HETATM    1  C1  UNL     1     -23.127  16.881   9.890  1.00 20.00     0.068 C 
HETATM    2  C2  UNL     1     -24.571  15.842  11.576  1.00 20.00     0.031 C 
HETATM    3  C3  UNL     1     -23.006  17.683  12.215  1.00 20.00     0.031 C 
HETATM    4  C6  UNL     1     -23.929  17.160  11.104  1.00 20.00     0.043 C 
HETATM    5  N7  UNL     1     -22.497  16.662   8.940  1.00 20.00    -0.196 NA
ENDROOT
BRANCH   4   6
HETATM    6  C4  UNL     1     -25.060  18.170  10.778  1.00 20.00     0.039 C 
BRANCH   6   7
HETATM    7  C5  UNL     1     -25.724  18.812  11.996  1.00 20.00     0.116 C 
HETATM    8 CL8  UNL     1     -27.288  18.023  12.331  1.00 20.00    -0.130 Cl
ENDBRANCH   6   7
ENDBRANCH   4   6
TORSDOF 2
ENDMDL
MODEL 4
REMARK VINA RESULT:      -3.7      2.260      3.114
REMARK  2 active torsions:
REMARK  status: ('A' for Active; 'I' for Inactive)
REMARK    1  A    between atoms: C4_4  and  C5_5 
REMARK    2  A    between atoms: C4_4  and  C6_6 
ROOT
HETATM    1  C1  UNL     1     -35.266  13.755  -4.332  1.00 20.00     0.068 C 
HETATM    2  C2  UNL     1     -34.707  15.563  -2.775  1.00 20.00     0.031 C 
HETATM    3  C3  UNL     1     -32.954  14.601  -4.275  1.00 20.00     0.031 C 
HETATM    4  C6  UNL     1     -34.441  14.975  -4.173  1.00 20.00     0.043 C 
HETATM    5  N7  UNL     1     -35.912  12.798  -4.456  1.00 20.00    -0.196 NA
ENDROOT
BRANCH   4   6
HETATM    6  C4  UNL     1     -34.838  16.032  -5.236  1.00 20.00     0.039 C 
BRANCH   6   7
HETATM    7  C5  UNL     1     -35.256  15.463  -6.591  1.00 20.00     0.116 C 
HETATM    8 CL8  UNL     1     -33.826  15.248  -7.635  1.00 20.00    -0.130 Cl
ENDBRANCH   6   7
ENDBRANCH   4   6
TORSDOF 2
ENDMDL
MODEL 5
REMARK VINA RESULT:      -3.7     17.500     18.074
REMARK  2 active torsions:
REMARK  status: ('A' for Active; 'I' for Inactive)
REMARK    1  A    between atoms: C4_4  and  C5_5 
REMARK    2  A    between atoms: C4_4  and  C6_6 
ROOT
HETATM    1  C1  UNL     1     -22.072  17.257   8.100  1.00 20.00     0.068 C 
HETATM    2  C2  UNL     1     -21.497  18.094  10.331  1.00 20.00     0.031 C 
HETATM    3  C3  UNL     1     -23.358  19.139   9.031  1.00 20.00     0.031 C 
HETATM    4  C6  UNL     1     -22.648  17.814   9.346  1.00 20.00     0.043 C 
HETATM    5  N7  UNL     1     -21.620  16.821   7.123  1.00 20.00    -0.196 NA
ENDROOT
BRANCH   4   6
HETATM    6  C4  UNL     1     -23.613  16.789   9.995  1.00 20.00     0.039 C 
BRANCH   6   7
HETATM    7  C5  UNL     1     -23.554  16.721  11.521  1.00 20.00     0.116 C 
HETATM    8 CL8  UNL     1     -24.625  17.955  12.234  1.00 20.00    -0.130 Cl
ENDBRANCH   6   7
ENDBRANCH   4   6
TORSDOF 2
ENDMDL
MODEL 6
REMARK VINA RESULT:      -3.7     16.769     17.633
REMARK  2 active torsions:
REMARK  status: ('A' for Active; 'I' for Inactive)
REMARK    1  A    between atoms: C4_4  and  C5_5 
REMARK    2  A    between atoms: C4_4  and  C6_6 
ROOT
HETATM    1  C1  UNL     1     -22.805  16.914   9.423  1.00 20.00     0.068 C 
HETATM    2  C2  UNL     1     -24.453  16.124  11.056  1.00 20.00     0.031 C 
HETATM    3  C3  UNL     1     -22.765  17.850  11.700  1.00 20.00     0.031 C 
HETATM    4  C6  UNL     1     -23.656  17.344  10.556  1.00 20.00     0.043 C 
HETATM    5  N7  UNL     1     -22.136  16.577   8.536  1.00 20.00    -0.196 NA
ENDROOT
BRANCH   4   6
HETATM    6  C4  UNL     1     -24.661  18.430  10.091  1.00 20.00     0.039 C 
BRANCH   6   7
HETATM    7  C5  UNL     1     -24.204  19.263   8.893  1.00 20.00     0.116 C 
HETATM    8 CL8  UNL     1     -25.205  18.888   7.466  1.00 20.00    -0.130 Cl
ENDBRANCH   6   7
ENDBRANCH   4   6
TORSDOF 2
ENDMDL
MODEL 7
REMARK VINA RESULT:      -3.7      1.092      1.397
REMARK  2 active torsions:
REMARK  status: ('A' for Active; 'I' for Inactive)
REMARK    1  A    between atoms: C4_4  and  C5_5 
REMARK    2  A    between atoms: C4_4  and  C6_6 
ROOT
HETATM    1  C1  UNL     1     -35.712  13.902  -4.325  1.00 20.00     0.068 C 
HETATM    2  C2  UNL     1     -34.843  15.989  -5.274  1.00 20.00     0.031 C 
HETATM    3  C3  UNL     1     -36.890  16.009  -3.840  1.00 20.00     0.031 C 
HETATM    4  C6  UNL     1     -35.521  15.345  -4.049  1.00 20.00     0.043 C 
HETATM    5  N7  UNL     1     -35.863  12.771  -4.542  1.00 20.00    -0.196 NA
ENDROOT
BRANCH   4   6
HETATM    6  C4  UNL     1     -34.598  15.537  -2.818  1.00 20.00     0.039 C 
BRANCH   6   7
HETATM    7  C5  UNL     1     -33.229  16.144  -3.124  1.00 20.00     0.116 C 
HETATM    8 CL8  UNL     1     -32.863  17.450  -1.967  1.00 20.00    -0.130 Cl
ENDBRANCH   6   7
ENDBRANCH   4   6
TORSDOF 2
ENDMDL
MODEL 8
REMARK VINA RESULT:      -3.6      1.358      1.515
REMARK  2 active torsions:
REMARK  status: ('A' for Active; 'I' for Inactive)
REMARK    1  A    between atoms: C4_4  and  C5_5 
REMARK    2  A    between atoms: C4_4  and  C6_6 
ROOT
HETATM    1  C1  UNL     1     -37.022  14.353  -4.418  1.00 20.00     0.068 C 
HETATM    2  C2  UNL     1     -34.691  13.785  -3.917  1.00 20.00     0.031 C 
HETATM    3  C3  UNL     1     -35.243  15.247  -5.867  1.00 20.00     0.031 C 
HETATM    4  C6  UNL     1     -35.640  14.886  -4.427  1.00 20.00     0.043 C 
HETATM    5  N7  UNL     1     -38.105  13.936  -4.412  1.00 20.00    -0.196 NA
ENDROOT
BRANCH   4   6
HETATM    6  C4  UNL     1     -35.530  16.109  -3.480  1.00 20.00     0.039 C 
BRANCH   6   7
HETATM    7  C5  UNL     1     -34.533  15.951  -2.333  1.00 20.00     0.116 C 
HETATM    8 CL8  UNL     1     -32.987  16.736  -2.749  1.00 20.00    -0.130 Cl
ENDBRANCH   6   7
ENDBRANCH   4   6
TORSDOF 2
ENDMDL
MODEL 9
REMARK VINA RESULT:      -3.6     17.462     18.123
REMARK  2 active torsions:
REMARK  status: ('A' for Active; 'I' for Inactive)
REMARK    1  A    between atoms: C4_4  and  C5_5 
REMARK    2  A    between atoms: C4_4  and  C6_6 
ROOT
HETATM    1  C1  UNL     1     -25.198  18.200  11.543  1.00 20.00     0.068 C 
HETATM    2  C2  UNL     1     -22.915  17.569  12.171  1.00 20.00     0.031 C 
HETATM    3  C3  UNL     1     -24.624  15.811  11.689  1.00 20.00     0.031 C 
HETATM    4  C6  UNL     1     -24.127  17.209  11.292  1.00 20.00     0.043 C 
HETATM    5  N7  UNL     1     -26.038  18.977  11.741  1.00 20.00    -0.196 NA
ENDROOT
BRANCH   4   6
HETATM    6  C4  UNL     1     -23.689  17.258   9.805  1.00 20.00     0.039 C 
BRANCH   6   7
HETATM    7  C5  UNL     1     -23.255  18.635   9.303  1.00 20.00     0.116 C 
HETATM    8 CL8  UNL     1     -24.423  19.249   8.104  1.00 20.00    -0.130 Cl
ENDBRANCH   6   7
ENDBRANCH   4   6
TORSDOF 2
ENDMDL
