MODEL 1
REMARK VINA RESULT:      -4.9      0.000      0.000
REMARK  1 active torsions:
REMARK  status: ('A' for Active; 'I' for Inactive)
REMARK    1  A    between atoms: C7_7  and  O12_12 
ROOT
HETATM    1  C1  UNL     1     -31.086  18.508  -0.400  1.00 20.00     0.015 C 
HETATM    2  C2  UNL     1     -32.031  18.178  -1.061  1.00 20.00    -0.079 C 
HETATM    3  C3  UNL     1     -34.329  17.301  -0.950  1.00 20.00     0.055 C 
HETATM    4  C4  UNL     1     -35.085  15.599  -2.688  1.00 20.00     0.013 C 
HETATM    5  C5  UNL     1     -32.768  16.648  -2.840  1.00 20.00     0.060 C 
HETATM    6  C6  UNL     1     -35.526  16.661  -1.668  1.00 20.00    -0.014 C 
HETATM    7  C7  UNL     1     -33.196  17.769  -1.876  1.00 20.00     0.121 C 
HETATM    8  C8  UNL     1     -33.919  15.977  -3.631  1.00 20.00    -0.044 C 
HETATM    9  C9  UNL     1     -36.507  17.689  -2.233  1.00 20.00     0.010 C 
HETATM   10  C10 UNL     1     -33.371  14.674  -4.262  1.00 20.00     0.015 C 
HETATM   11  C11 UNL     1     -34.393  16.856  -4.803  1.00 20.00     0.015 C 
ENDROOT
BRANCH   7  12
HETATM   12  O12 UNL     1     -33.613  18.901  -2.630  1.00 20.00    -0.378 OA
HETATM   13  H30 UNL     1     -34.570  18.970  -2.505  1.00 20.00     0.211 HD
ENDBRANCH   7  12
TORSDOF 1
ENDMDL
MODEL 2
REMARK VINA RESULT:      -4.7      1.443      4.108
REMARK  1 active torsions:
REMARK  status: ('A' for Active; 'I' for Inactive)
REMARK    1  A    between atoms: C7_7  and  O12_12 
ROOT
HETATM    1  C1  UNL     1     -34.818  13.968  -3.964  1.00 20.00     0.015 C 
HETATM    2  C2  UNL     1     -34.653  15.053  -3.479  1.00 20.00    -0.079 C 
HETATM    3  C3  UNL     1     -32.946  16.677  -2.768  1.00 20.00     0.055 C 
HETATM    4  C4  UNL     1     -33.331  18.020  -0.638  1.00 20.00     0.013 C 
HETATM    5  C5  UNL     1     -35.128  16.432  -1.499  1.00 20.00     0.060 C 
HETATM    6  C6  UNL     1     -32.588  17.947  -1.982  1.00 20.00    -0.014 C 
HETATM    7  C7  UNL     1     -34.451  16.390  -2.881  1.00 20.00     0.121 C 
HETATM    8  C8  UNL     1     -34.844  17.702  -0.659  1.00 20.00    -0.044 C 
HETATM    9  C9  UNL     1     -32.698  19.223  -2.818  1.00 20.00     0.010 C 
HETATM   10  C10 UNL     1     -35.295  17.424   0.797  1.00 20.00     0.015 C 
HETATM   11  C11 UNL     1     -35.676  18.904  -1.144  1.00 20.00     0.015 C 
ENDROOT
BRANCH   7  12
HETATM   12  O12 UNL     1     -35.071  17.344  -3.735  1.00 20.00    -0.378 OA
HETATM   13  H30 UNL     1     -34.891  17.053  -4.640  1.00 20.00     0.211 HD
ENDBRANCH   7  12
TORSDOF 1
ENDMDL
MODEL 3
REMARK VINA RESULT:      -4.4      1.882      2.741
REMARK  1 active torsions:
REMARK  status: ('A' for Active; 'I' for Inactive)
REMARK    1  A    between atoms: C7_7  and  O12_12 
ROOT
HETATM    1  C1  UNL     1     -35.538  17.350   0.632  1.00 20.00     0.015 C 
HETATM    2  C2  UNL     1     -35.132  17.209  -0.488  1.00 20.00    -0.079 C 
HETATM    3  C3  UNL     1     -35.253  18.107  -2.777  1.00 20.00     0.055 C 
HETATM    4  C4  UNL     1     -35.262  16.485  -4.741  1.00 20.00     0.013 C 
HETATM    5  C5  UNL     1     -34.992  15.619  -2.360  1.00 20.00     0.060 C 
HETATM    6  C6  UNL     1     -34.977  17.922  -4.277  1.00 20.00    -0.014 C 
HETATM    7  C7  UNL     1     -34.634  17.033  -1.869  1.00 20.00     0.121 C 
HETATM    8  C8  UNL     1     -34.708  15.343  -3.857  1.00 20.00    -0.044 C 
HETATM    9  C9  UNL     1     -33.607  18.449  -4.705  1.00 20.00     0.010 C 
HETATM   10  C10 UNL     1     -35.439  14.035  -4.251  1.00 20.00     0.015 C 
HETATM   11  C11 UNL     1     -33.211  15.093  -4.116  1.00 20.00     0.015 C 
ENDROOT
BRANCH   7  12
HETATM   12  O12 UNL     1     -33.218  17.172  -1.838  1.00 20.00    -0.378 OA
HETATM   13  H30 UNL     1     -32.920  16.719  -1.036  1.00 20.00     0.211 HD
ENDBRANCH   7  12
TORSDOF 1
ENDMDL
MODEL 4
REMARK VINA RESULT:      -4.4      2.276      3.843
REMARK  1 active torsions:
REMARK  status: ('A' for Active; 'I' for Inactive)
REMARK    1  A    between atoms: C7_7  and  O12_12 
ROOT
HETATM    1  C1  UNL     1     -33.311  17.418  -1.618  1.00 20.00     0.015 C 
HETATM    2  C2  UNL     1     -33.742  16.773  -2.533  1.00 20.00    -0.079 C 
HETATM    3  C3  UNL     1     -34.224  16.818  -4.947  1.00 20.00     0.055 C 
HETATM    4  C4  UNL     1     -36.339  15.686  -5.804  1.00 20.00     0.013 C 
HETATM    5  C5  UNL     1     -35.716  15.546  -3.337  1.00 20.00     0.060 C 
HETATM    6  C6  UNL     1     -34.929  16.187  -6.157  1.00 20.00    -0.014 C 
HETATM    7  C7  UNL     1     -34.274  15.978  -3.661  1.00 20.00     0.121 C 
HETATM    8  C8  UNL     1     -36.482  14.867  -4.500  1.00 20.00    -0.044 C 
HETATM    9  C9  UNL     1     -34.069  15.152  -6.882  1.00 20.00     0.010 C 
HETATM   10  C10 UNL     1     -37.984  14.825  -4.124  1.00 20.00     0.015 C 
HETATM   11  C11 UNL     1     -36.047  13.403  -4.692  1.00 20.00     0.015 C 
ENDROOT
BRANCH   7  12
HETATM   12  O12 UNL     1     -33.459  14.821  -3.796  1.00 20.00    -0.378 OA
HETATM   13  H30 UNL     1     -33.445  14.609  -4.741  1.00 20.00     0.211 HD
ENDBRANCH   7  12
TORSDOF 1
ENDMDL
MODEL 5
REMARK VINA RESULT:      -4.3      2.467      4.656
REMARK  1 active torsions:
REMARK  status: ('A' for Active; 'I' for Inactive)
REMARK    1  A    between atoms: C7_7  and  O12_12 
ROOT
HETATM    1  C1  UNL     1     -36.030  18.184  -7.678  1.00 20.00     0.015 C 
HETATM    2  C2  UNL     1     -35.720  17.322  -6.903  1.00 20.00    -0.079 C 
HETATM    3  C3  UNL     1     -36.582  15.787  -5.183  1.00 20.00     0.055 C 
HETATM    4  C4  UNL     1     -35.175  15.345  -3.106  1.00 20.00     0.013 C 
HETATM    5  C5  UNL     1     -34.270  16.810  -4.984  1.00 20.00     0.060 C 
HETATM    6  C6  UNL     1     -36.298  14.826  -4.018  1.00 20.00    -0.014 C 
HETATM    7  C7  UNL     1     -35.337  16.260  -5.948  1.00 20.00     0.121 C 
HETATM    8  C8  UNL     1     -33.901  15.880  -3.801  1.00 20.00    -0.044 C 
HETATM    9  C9  UNL     1     -36.108  13.377  -4.467  1.00 20.00     0.010 C 
HETATM   10  C10 UNL     1     -33.105  16.713  -2.766  1.00 20.00     0.015 C 
HETATM   11  C11 UNL     1     -32.967  14.738  -4.243  1.00 20.00     0.015 C 
ENDROOT
BRANCH   7  12
HETATM   12  O12 UNL     1     -34.781  15.186  -6.696  1.00 20.00    -0.378 OA
HETATM   13  H30 UNL     1     -34.168  15.586  -7.330  1.00 20.00     0.211 HD
ENDBRANCH   7  12
TORSDOF 1
ENDMDL
MODEL 6
REMARK VINA RESULT:      -4.3      1.711      4.319
REMARK  1 active torsions:
REMARK  status: ('A' for Active; 'I' for Inactive)
REMARK    1  A    between atoms: C7_7  and  O12_12 
ROOT
HETATM    1  C1  UNL     1     -36.595  18.668  -6.566  1.00 20.00     0.015 C 
HETATM    2  C2  UNL     1     -35.882  18.036  -5.837  1.00 20.00    -0.079 C 
HETATM    3  C3  UNL     1     -35.279  15.759  -5.123  1.00 20.00     0.055 C 
HETATM    4  C4  UNL     1     -34.772  15.330  -2.664  1.00 20.00     0.013 C 
HETATM    5  C5  UNL     1     -35.258  17.693  -3.483  1.00 20.00     0.060 C 
HETATM    6  C6  UNL     1     -34.578  14.842  -4.108  1.00 20.00    -0.014 C 
HETATM    7  C7  UNL     1     -35.003  17.258  -4.937  1.00 20.00     0.121 C 
HETATM    8  C8  UNL     1     -34.553  16.838  -2.400  1.00 20.00    -0.044 C 
HETATM    9  C9  UNL     1     -33.122  14.548  -4.471  1.00 20.00     0.010 C 
HETATM   10  C10 UNL     1     -35.188  17.181  -1.030  1.00 20.00     0.015 C 
HETATM   11  C11 UNL     1     -33.059  17.188  -2.281  1.00 20.00     0.015 C 
ENDROOT
BRANCH   7  12
HETATM   12  O12 UNL     1     -33.656  17.557  -5.284  1.00 20.00    -0.378 OA
HETATM   13  H30 UNL     1     -33.153  16.743  -5.140  1.00 20.00     0.211 HD
ENDBRANCH   7  12
TORSDOF 1
ENDMDL
MODEL 7
REMARK VINA RESULT:      -4.2      1.787      4.296
REMARK  1 active torsions:
REMARK  status: ('A' for Active; 'I' for Inactive)
REMARK    1  A    between atoms: C7_7  and  O12_12 
ROOT
HETATM    1  C1  UNL     1     -34.050  15.142  -7.644  1.00 20.00     0.015 C 
HETATM    2  C2  UNL     1     -34.179  15.683  -6.580  1.00 20.00    -0.079 C 
HETATM    3  C3  UNL     1     -33.733  15.463  -4.169  1.00 20.00     0.055 C 
HETATM    4  C4  UNL     1     -35.489  16.272  -2.511  1.00 20.00     0.013 C 
HETATM    5  C5  UNL     1     -35.833  16.607  -5.013  1.00 20.00     0.060 C 
HETATM    6  C6  UNL     1     -34.005  15.940  -2.734  1.00 20.00    -0.014 C 
HETATM    7  C7  UNL     1     -34.338  16.348  -5.269  1.00 20.00     0.121 C 
HETATM    8  C8  UNL     1     -36.185  17.126  -3.596  1.00 20.00    -0.044 C 
HETATM    9  C9  UNL     1     -33.049  17.043  -2.276  1.00 20.00     0.010 C 
HETATM   10  C10 UNL     1     -37.715  16.992  -3.402  1.00 20.00     0.015 C 
HETATM   11  C11 UNL     1     -35.862  18.624  -3.442  1.00 20.00     0.015 C 
ENDROOT
BRANCH   7  12
HETATM   12  O12 UNL     1     -33.653  17.594  -5.331  1.00 20.00    -0.378 OA
HETATM   13  H30 UNL     1     -32.976  17.565  -4.640  1.00 20.00     0.211 HD
ENDBRANCH   7  12
TORSDOF 1
ENDMDL
MODEL 8
REMARK VINA RESULT:      -4.2      1.788      3.103
REMARK  1 active torsions:
REMARK  status: ('A' for Active; 'I' for Inactive)
REMARK    1  A    between atoms: C7_7  and  O12_12 
ROOT
HETATM    1  C1  UNL     1     -32.688  18.025  -1.024  1.00 20.00     0.015 C 
HETATM    2  C2  UNL     1     -33.430  17.408  -1.737  1.00 20.00    -0.079 C 
HETATM    3  C3  UNL     1     -33.540  15.618  -3.423  1.00 20.00     0.055 C 
HETATM    4  C4  UNL     1     -35.128  15.878  -5.398  1.00 20.00     0.013 C 
HETATM    5  C5  UNL     1     -35.078  17.631  -3.549  1.00 20.00     0.060 C 
HETATM    6  C6  UNL     1     -34.334  14.896  -4.522  1.00 20.00    -0.014 C 
HETATM    7  C7  UNL     1     -34.345  16.650  -2.617  1.00 20.00     0.121 C 
HETATM    8  C8  UNL     1     -35.933  16.976  -4.663  1.00 20.00    -0.044 C 
HETATM    9  C9  UNL     1     -35.169  13.729  -3.992  1.00 20.00     0.010 C 
HETATM   10  C10 UNL     1     -36.298  18.073  -5.694  1.00 20.00     0.015 C 
HETATM   11  C11 UNL     1     -37.268  16.439  -4.117  1.00 20.00     0.015 C 
ENDROOT
BRANCH   7  12
HETATM   12  O12 UNL     1     -35.296  15.993  -1.788  1.00 20.00    -0.378 OA
HETATM   13  H30 UNL     1     -34.850  15.212  -1.431  1.00 20.00     0.211 HD
ENDBRANCH   7  12
TORSDOF 1
ENDMDL
MODEL 9
REMARK VINA RESULT:      -4.2      2.093      3.302
REMARK  1 active torsions:
REMARK  status: ('A' for Active; 'I' for Inactive)
REMARK    1  A    between atoms: C7_7  and  O12_12 
ROOT
HETATM    1  C1  UNL     1     -34.427  17.641  -0.637  1.00 20.00     0.015 C 
HETATM    2  C2  UNL     1     -34.798  17.124  -1.654  1.00 20.00    -0.079 C 
HETATM    3  C3  UNL     1     -34.567  15.122  -3.068  1.00 20.00     0.055 C 
HETATM    4  C4  UNL     1     -34.544  15.395  -5.600  1.00 20.00     0.013 C 
HETATM    5  C5  UNL     1     -34.925  17.414  -4.093  1.00 20.00     0.060 C 
HETATM    6  C6  UNL     1     -34.797  14.438  -4.425  1.00 20.00    -0.014 C 
HETATM    7  C7  UNL     1     -35.253  16.487  -2.909  1.00 20.00     0.121 C 
HETATM    8  C8  UNL     1     -35.166  16.807  -5.498  1.00 20.00    -0.044 C 
HETATM    9  C9  UNL     1     -36.133  13.699  -4.506  1.00 20.00     0.010 C 
HETATM   10  C10 UNL     1     -34.465  17.715  -6.539  1.00 20.00     0.015 C 
HETATM   11  C11 UNL     1     -36.660  16.803  -5.868  1.00 20.00     0.015 C 
ENDROOT
BRANCH   7  12
HETATM   12  O12 UNL     1     -36.663  16.322  -2.822  1.00 20.00    -0.378 OA
HETATM   13  H30 UNL     1     -37.046  16.902  -3.496  1.00 20.00     0.211 HD
ENDBRANCH   7  12
TORSDOF 1
ENDMDL
