MODEL 1
REMARK VINA RESULT:      -5.4      0.000      0.000
REMARK  0 active torsions:
REMARK  status: ('A' for Active; 'I' for Inactive)
ROOT
HETATM    1  C1  UNL     1     -23.083  17.353  11.671  1.00 20.00     0.002 A 
HETATM    2  C2  UNL     1     -22.653  17.430  10.346  1.00 20.00     0.016 A 
HETATM    3  C3  UNL     1     -24.324  17.892  12.052  1.00 20.00     0.019 A 
HETATM    4  C4  UNL     1     -23.493  18.053   9.442  1.00 20.00     0.017 A 
HETATM    5  C5  UNL     1     -24.724  18.592   9.797  1.00 20.00    -0.026 A 
HETATM    6  C6  UNL     1     -25.152  18.516  11.112  1.00 20.00     0.018 A 
HETATM    7  C7  UNL     1     -23.296  18.269   8.017  1.00 20.00     0.160 A 
HETATM    8  C8  UNL     1     -25.442  19.209   8.641  1.00 20.00     0.048 A 
HETATM    9  C9  UNL     1     -24.492  18.995   7.449  1.00 20.00     0.088 A 
HETATM   10  O10 UNL     1     -22.309  17.912   7.400  1.00 20.00    -0.292 OA
HETATM   11 BR11 UNL     1     -26.812  19.229  11.667  1.00 20.00    -0.051 Br
ENDROOT
TORSDOF 0
ENDMDL
MODEL 2
REMARK VINA RESULT:      -4.9     16.672     18.027
REMARK  0 active torsions:
REMARK  status: ('A' for Active; 'I' for Inactive)
ROOT
HETATM    1  C1  UNL     1     -33.092  15.804  -3.439  1.00 20.00     0.002 A 
HETATM    2  C2  UNL     1     -33.819  14.679  -3.828  1.00 20.00     0.016 A 
HETATM    3  C3  UNL     1     -33.742  17.029  -3.204  1.00 20.00     0.019 A 
HETATM    4  C4  UNL     1     -35.186  14.825  -3.970  1.00 20.00     0.017 A 
HETATM    5  C5  UNL     1     -35.848  16.026  -3.743  1.00 20.00    -0.026 A 
HETATM    6  C6  UNL     1     -35.127  17.144  -3.357  1.00 20.00     0.018 A 
HETATM    7  C7  UNL     1     -36.173  13.830  -4.359  1.00 20.00     0.160 A 
HETATM    8  C8  UNL     1     -37.324  15.926  -3.963  1.00 20.00     0.048 A 
HETATM    9  C9  UNL     1     -37.545  14.460  -4.374  1.00 20.00     0.088 A 
HETATM   10  O10 UNL     1     -35.908  12.672  -4.628  1.00 20.00    -0.292 OA
HETATM   11 BR11 UNL     1     -35.961  18.809  -3.033  1.00 20.00    -0.051 Br
ENDROOT
TORSDOF 0
ENDMDL
MODEL 3
REMARK VINA RESULT:      -4.6     16.093     17.595
REMARK  0 active torsions:
REMARK  status: ('A' for Active; 'I' for Inactive)
ROOT
HETATM    1  C1  UNL     1     -34.033  17.163  -2.099  1.00 20.00     0.002 A 
HETATM    2  C2  UNL     1     -33.761  15.929  -2.689  1.00 20.00     0.016 A 
HETATM    3  C3  UNL     1     -35.326  17.712  -2.155  1.00 20.00     0.019 A 
HETATM    4  C4  UNL     1     -34.808  15.283  -3.321  1.00 20.00     0.017 A 
HETATM    5  C5  UNL     1     -36.093  15.808  -3.387  1.00 20.00    -0.026 A 
HETATM    6  C6  UNL     1     -36.364  17.034  -2.802  1.00 20.00     0.018 A 
HETATM    7  C7  UNL     1     -34.805  14.002  -4.008  1.00 20.00     0.160 A 
HETATM    8  C8  UNL     1     -37.045  14.920  -4.122  1.00 20.00     0.048 A 
HETATM    9  C9  UNL     1     -36.189  13.712  -4.539  1.00 20.00     0.088 A 
HETATM   10  O10 UNL     1     -33.824  13.290  -4.127  1.00 20.00    -0.292 OA
HETATM   11 BR11 UNL     1     -38.087  17.808  -2.855  1.00 20.00    -0.051 Br
ENDROOT
TORSDOF 0
ENDMDL
MODEL 4
REMARK VINA RESULT:      -4.5     16.757     18.331
REMARK  0 active torsions:
REMARK  status: ('A' for Active; 'I' for Inactive)
ROOT
HETATM    1  C1  UNL     1     -34.274  16.265  -2.355  1.00 20.00     0.002 A 
HETATM    2  C2  UNL     1     -34.835  15.105  -2.889  1.00 20.00     0.016 A 
HETATM    3  C3  UNL     1     -34.013  17.376  -3.175  1.00 20.00     0.019 A 
HETATM    4  C4  UNL     1     -35.115  15.101  -4.243  1.00 20.00     0.017 A 
HETATM    5  C5  UNL     1     -34.865  16.189  -5.072  1.00 20.00    -0.026 A 
HETATM    6  C6  UNL     1     -34.308  17.341  -4.542  1.00 20.00     0.018 A 
HETATM    7  C7  UNL     1     -35.694  14.039  -5.050  1.00 20.00     0.160 A 
HETATM    8  C8  UNL     1     -35.256  15.938  -6.493  1.00 20.00     0.048 A 
HETATM    9  C9  UNL     1     -35.812  14.503  -6.482  1.00 20.00     0.088 A 
HETATM   10  O10 UNL     1     -36.025  12.951  -4.615  1.00 20.00    -0.292 OA
HETATM   11 BR11 UNL     1     -33.939  18.856  -5.610  1.00 20.00    -0.051 Br
ENDROOT
TORSDOF 0
ENDMDL
MODEL 5
REMARK VINA RESULT:      -4.5     12.623     14.322
REMARK  0 active torsions:
REMARK  status: ('A' for Active; 'I' for Inactive)
ROOT
HETATM    1  C1  UNL     1     -34.132  16.574  -2.529  1.00 20.00     0.002 A 
HETATM    2  C2  UNL     1     -32.895  17.085  -2.138  1.00 20.00     0.016 A 
HETATM    3  C3  UNL     1     -35.287  16.843  -1.774  1.00 20.00     0.019 A 
HETATM    4  C4  UNL     1     -32.860  17.857  -0.992  1.00 20.00     0.017 A 
HETATM    5  C5  UNL     1     -33.990  18.136  -0.231  1.00 20.00    -0.026 A 
HETATM    6  C6  UNL     1     -35.220  17.628  -0.618  1.00 20.00     0.018 A 
HETATM    7  C7  UNL     1     -31.720  18.507  -0.366  1.00 20.00     0.160 A 
HETATM    8  C8  UNL     1     -33.692  18.991   0.958  1.00 20.00     0.048 A 
HETATM    9  C9  UNL     1     -32.176  19.242   0.872  1.00 20.00     0.088 A 
HETATM   10  O10 UNL     1     -30.580  18.452  -0.792  1.00 20.00    -0.292 OA
HETATM   11 BR11 UNL     1     -36.796  17.965   0.368  1.00 20.00    -0.051 Br
ENDROOT
TORSDOF 0
ENDMDL
MODEL 6
REMARK VINA RESULT:      -4.4     17.190     18.652
REMARK  0 active torsions:
REMARK  status: ('A' for Active; 'I' for Inactive)
ROOT
HETATM    1  C1  UNL     1     -38.662  15.988  -4.008  1.00 20.00     0.002 A 
HETATM    2  C2  UNL     1     -37.956  14.822  -4.304  1.00 20.00     0.016 A 
HETATM    3  C3  UNL     1     -38.006  17.098  -3.447  1.00 20.00     0.019 A 
HETATM    4  C4  UNL     1     -36.603  14.812  -4.023  1.00 20.00     0.017 A 
HETATM    5  C5  UNL     1     -35.934  15.897  -3.470  1.00 20.00    -0.026 A 
HETATM    6  C6  UNL     1     -36.634  17.056  -3.175  1.00 20.00     0.018 A 
HETATM    7  C7  UNL     1     -35.639  13.742  -4.229  1.00 20.00     0.160 A 
HETATM    8  C8  UNL     1     -34.477  15.638  -3.263  1.00 20.00     0.048 A 
HETATM    9  C9  UNL     1     -34.275  14.199  -3.770  1.00 20.00     0.088 A 
HETATM   10  O10 UNL     1     -35.914  12.653  -4.700  1.00 20.00    -0.292 OA
HETATM   11 BR11 UNL     1     -35.791  18.569  -2.420  1.00 20.00    -0.051 Br
ENDROOT
TORSDOF 0
ENDMDL
MODEL 7
REMARK VINA RESULT:      -4.4     17.061     18.242
REMARK  0 active torsions:
REMARK  status: ('A' for Active; 'I' for Inactive)
ROOT
HETATM    1  C1  UNL     1     -37.084  17.916  -3.094  1.00 20.00     0.002 A 
HETATM    2  C2  UNL     1     -37.561  16.699  -3.581  1.00 20.00     0.016 A 
HETATM    3  C3  UNL     1     -35.724  18.075  -2.777  1.00 20.00     0.019 A 
HETATM    4  C4  UNL     1     -36.645  15.674  -3.733  1.00 20.00     0.017 A 
HETATM    5  C5  UNL     1     -35.296  15.811  -3.427  1.00 20.00    -0.026 A 
HETATM    6  C6  UNL     1     -34.822  17.019  -2.943  1.00 20.00     0.018 A 
HETATM    7  C7  UNL     1     -36.866  14.320  -4.215  1.00 20.00     0.160 A 
HETATM    8  C8  UNL     1     -34.515  14.562  -3.679  1.00 20.00     0.048 A 
HETATM    9  C9  UNL     1     -35.560  13.563  -4.206  1.00 20.00     0.088 A 
HETATM   10  O10 UNL     1     -37.949  13.886  -4.565  1.00 20.00    -0.292 OA
HETATM   11 BR11 UNL     1     -33.002  17.275  -2.503  1.00 20.00    -0.051 Br
ENDROOT
TORSDOF 0
ENDMDL
MODEL 8
REMARK VINA RESULT:      -4.4     16.761     18.123
REMARK  0 active torsions:
REMARK  status: ('A' for Active; 'I' for Inactive)
ROOT
HETATM    1  C1  UNL     1     -33.524  14.834  -3.794  1.00 20.00     0.002 A 
HETATM    2  C2  UNL     1     -34.771  14.274  -4.073  1.00 20.00     0.016 A 
HETATM    3  C3  UNL     1     -33.419  16.175  -3.385  1.00 20.00     0.019 A 
HETATM    4  C4  UNL     1     -35.879  15.089  -3.932  1.00 20.00     0.017 A 
HETATM    5  C5  UNL     1     -35.797  16.416  -3.529  1.00 20.00    -0.026 A 
HETATM    6  C6  UNL     1     -34.560  16.974  -3.251  1.00 20.00     0.018 A 
HETATM    7  C7  UNL     1     -37.280  14.767  -4.154  1.00 20.00     0.160 A 
HETATM    8  C8  UNL     1     -37.133  17.083  -3.452  1.00 20.00     0.048 A 
HETATM    9  C9  UNL     1     -38.127  15.984  -3.868  1.00 20.00     0.088 A 
HETATM   10  O10 UNL     1     -37.683  13.676  -4.516  1.00 20.00    -0.292 OA
HETATM   11 BR11 UNL     1     -34.373  18.772  -2.701  1.00 20.00    -0.051 Br
ENDROOT
TORSDOF 0
ENDMDL
MODEL 9
REMARK VINA RESULT:      -4.4     12.698     14.119
REMARK  0 active torsions:
REMARK  status: ('A' for Active; 'I' for Inactive)
ROOT
HETATM    1  C1  UNL     1     -31.560  19.011  -0.035  1.00 20.00     0.002 A 
HETATM    2  C2  UNL     1     -31.812  18.273  -1.192  1.00 20.00     0.016 A 
HETATM    3  C3  UNL     1     -32.529  19.100   0.980  1.00 20.00     0.019 A 
HETATM    4  C4  UNL     1     -33.040  17.646  -1.290  1.00 20.00     0.017 A 
HETATM    5  C5  UNL     1     -34.011  17.721  -0.298  1.00 20.00    -0.026 A 
HETATM    6  C6  UNL     1     -33.762  18.453   0.851  1.00 20.00     0.018 A 
HETATM    7  C7  UNL     1     -33.559  16.824  -2.372  1.00 20.00     0.160 A 
HETATM    8  C8  UNL     1     -35.250  16.957  -0.640  1.00 20.00     0.048 A 
HETATM    9  C9  UNL     1     -34.952  16.355  -2.024  1.00 20.00     0.088 A 
HETATM   10  O10 UNL     1     -32.945  16.567  -3.392  1.00 20.00    -0.292 OA
HETATM   11 BR11 UNL     1     -35.037  18.601   2.239  1.00 20.00    -0.051 Br
ENDROOT
TORSDOF 0
ENDMDL
