MODEL 1
REMARK VINA RESULT:      -5.2      0.000      0.000
REMARK  3 active torsions:
REMARK  status: ('A' for Active; 'I' for Inactive)
REMARK    1  A    between atoms: C2_2  and  C8_8 
REMARK    2  A    between atoms: C4_4  and  C7_7 
REMARK    3  A    between atoms: C7_7  and  C8_8 
ROOT
HETATM    1  C7  UNL     1     -32.530   7.018   3.326  1.00 20.00     0.034 C 
ENDROOT
BRANCH   1   2
HETATM    2  C4  UNL     1     -32.544   7.342   1.858  1.00 20.00    -0.030 C 
HETATM    3  C3  UNL     1     -32.934   8.524   1.358  1.00 20.00    -0.035 C 
HETATM    4  C5  UNL     1     -32.946   8.847  -0.099  1.00 20.00     0.035 C 
ENDBRANCH   1   2
BRANCH   1   5
HETATM    5  C8  UNL     1     -33.879   6.464   3.826  1.00 20.00     0.007 C 
HETATM    6  C6  UNL     1     -34.043   5.006   3.387  1.00 20.00     0.014 C 
BRANCH   5   7
HETATM    7  C2  UNL     1     -33.989   6.549   5.329  1.00 20.00    -0.032 C 
HETATM    8  C1  UNL     1     -34.648   5.661   6.081  1.00 20.00     0.007 C 
ENDBRANCH   5   7
ENDBRANCH   1   5
TORSDOF 3
ENDMDL
MODEL 2
REMARK VINA RESULT:      -4.8      0.925      4.489
REMARK  3 active torsions:
REMARK  status: ('A' for Active; 'I' for Inactive)
REMARK    1  A    between atoms: C2_2  and  C8_8 
REMARK    2  A    between atoms: C4_4  and  C7_7 
REMARK    3  A    between atoms: C7_7  and  C8_8 
ROOT
HETATM    1  C7  UNL     1     -33.102   5.702   2.311  1.00 20.00     0.034 C 
ENDROOT
BRANCH   1   2
HETATM    2  C4  UNL     1     -33.818   5.130   3.503  1.00 20.00    -0.030 C 
HETATM    3  C3  UNL     1     -34.362   5.875   4.476  1.00 20.00    -0.035 C 
HETATM    4  C5  UNL     1     -35.074   5.308   5.658  1.00 20.00     0.035 C 
ENDBRANCH   1   2
BRANCH   1   5
HETATM    5  C8  UNL     1     -32.853   7.218   2.438  1.00 20.00     0.007 C 
HETATM    6  C6  UNL     1     -31.694   7.481   3.404  1.00 20.00     0.014 C 
BRANCH   5   7
HETATM    7  C2  UNL     1     -32.538   7.840   1.099  1.00 20.00    -0.032 C 
HETATM    8  C1  UNL     1     -32.958   9.052   0.721  1.00 20.00     0.007 C 
ENDBRANCH   5   7
ENDBRANCH   1   5
TORSDOF 3
ENDMDL
MODEL 3
REMARK VINA RESULT:      -4.2      1.093      1.982
REMARK  3 active torsions:
REMARK  status: ('A' for Active; 'I' for Inactive)
REMARK    1  A    between atoms: C2_2  and  C8_8 
REMARK    2  A    between atoms: C4_4  and  C7_7 
REMARK    3  A    between atoms: C7_7  and  C8_8 
ROOT
HETATM    1  C7  UNL     1     -33.862   4.825   3.514  1.00 20.00     0.034 C 
ENDROOT
BRANCH   1   2
HETATM    2  C4  UNL     1     -33.548   5.784   2.399  1.00 20.00    -0.030 C 
HETATM    3  C3  UNL     1     -32.620   6.749   2.484  1.00 20.00    -0.035 C 
HETATM    4  C5  UNL     1     -32.307   7.700   1.377  1.00 20.00     0.035 C 
ENDBRANCH   1   2
BRANCH   1   5
HETATM    5  C8  UNL     1     -34.783   5.440   4.586  1.00 20.00     0.007 C 
HETATM    6  C6  UNL     1     -34.804   4.551   5.833  1.00 20.00     0.014 C 
BRANCH   5   7
HETATM    7  C2  UNL     1     -34.334   6.829   4.970  1.00 20.00    -0.032 C 
HETATM    8  C1  UNL     1     -33.635   7.109   6.075  1.00 20.00     0.007 C 
ENDBRANCH   5   7
ENDBRANCH   1   5
TORSDOF 3
ENDMDL
MODEL 4
REMARK VINA RESULT:      -4.2      0.909      1.545
REMARK  3 active torsions:
REMARK  status: ('A' for Active; 'I' for Inactive)
REMARK    1  A    between atoms: C2_2  and  C8_8 
REMARK    2  A    between atoms: C4_4  and  C7_7 
REMARK    3  A    between atoms: C7_7  and  C8_8 
ROOT
HETATM    1  C7  UNL     1     -32.208   7.365   3.347  1.00 20.00     0.034 C 
ENDROOT
BRANCH   1   2
HETATM    2  C4  UNL     1     -32.764   7.415   1.951  1.00 20.00    -0.030 C 
HETATM    3  C3  UNL     1     -32.744   8.512   1.178  1.00 20.00    -0.035 C 
HETATM    4  C5  UNL     1     -33.294   8.562  -0.208  1.00 20.00     0.035 C 
ENDBRANCH   1   2
BRANCH   1   5
HETATM    5  C8  UNL     1     -33.018   6.441   4.277  1.00 20.00     0.007 C 
HETATM    6  C6  UNL     1     -33.535   7.230   5.483  1.00 20.00     0.014 C 
BRANCH   5   7
HETATM    7  C2  UNL     1     -34.185   5.814   3.553  1.00 20.00    -0.032 C 
HETATM    8  C1  UNL     1     -35.151   5.114   4.158  1.00 20.00     0.007 C 
ENDBRANCH   5   7
ENDBRANCH   1   5
TORSDOF 3
ENDMDL
MODEL 5
REMARK VINA RESULT:      -4.1      0.991      1.399
REMARK  3 active torsions:
REMARK  status: ('A' for Active; 'I' for Inactive)
REMARK    1  A    between atoms: C2_2  and  C8_8 
REMARK    2  A    between atoms: C4_4  and  C7_7 
REMARK    3  A    between atoms: C7_7  and  C8_8 
ROOT
HETATM    1  C7  UNL     1     -33.026   6.026   2.446  1.00 20.00     0.034 C 
ENDROOT
BRANCH   1   2
HETATM    2  C4  UNL     1     -32.611   7.417   2.052  1.00 20.00    -0.030 C 
HETATM    3  C3  UNL     1     -33.103   8.069   0.988  1.00 20.00    -0.035 C 
HETATM    4  C5  UNL     1     -32.694   9.450   0.598  1.00 20.00     0.035 C 
ENDBRANCH   1   2
BRANCH   1   5
HETATM    5  C8  UNL     1     -33.304   5.894   3.957  1.00 20.00     0.007 C 
HETATM    6  C6  UNL     1     -33.200   7.265   4.632  1.00 20.00     0.014 C 
BRANCH   5   7
HETATM    7  C2  UNL     1     -34.671   5.311   4.218  1.00 20.00    -0.032 C 
HETATM    8  C1  UNL     1     -35.148   5.041   5.438  1.00 20.00     0.007 C 
ENDBRANCH   5   7
ENDBRANCH   1   5
TORSDOF 3
ENDMDL
MODEL 6
REMARK VINA RESULT:      -3.8     10.486     11.562
REMARK  3 active torsions:
REMARK  status: ('A' for Active; 'I' for Inactive)
REMARK    1  A    between atoms: C2_2  and  C8_8 
REMARK    2  A    between atoms: C4_4  and  C7_7 
REMARK    3  A    between atoms: C7_7  and  C8_8 
ROOT
HETATM    1  C7  UNL     1     -34.802  15.499  -2.807  1.00 20.00     0.034 C 
ENDROOT
BRANCH   1   2
HETATM    2  C4  UNL     1     -33.579  16.359  -2.640  1.00 20.00    -0.030 C 
HETATM    3  C3  UNL     1     -33.490  17.369  -1.762  1.00 20.00    -0.035 C 
HETATM    4  C5  UNL     1     -32.277  18.221  -1.595  1.00 20.00     0.035 C 
ENDBRANCH   1   2
BRANCH   1   5
HETATM    5  C8  UNL     1     -34.581  14.337  -3.796  1.00 20.00     0.007 C 
HETATM    6  C6  UNL     1     -35.923  13.881  -4.377  1.00 20.00     0.014 C 
BRANCH   5   7
HETATM    7  C2  UNL     1     -33.658  14.736  -4.921  1.00 20.00    -0.032 C 
HETATM    8  C1  UNL     1     -34.074  15.038  -6.156  1.00 20.00     0.007 C 
ENDBRANCH   5   7
ENDBRANCH   1   5
TORSDOF 3
ENDMDL
MODEL 7
REMARK VINA RESULT:      -3.8     15.773     16.629
REMARK  3 active torsions:
REMARK  status: ('A' for Active; 'I' for Inactive)
REMARK    1  A    between atoms: C2_2  and  C8_8 
REMARK    2  A    between atoms: C4_4  and  C7_7 
REMARK    3  A    between atoms: C7_7  and  C8_8 
ROOT
HETATM    1  C7  UNL     1     -23.952  18.101  12.332  1.00 20.00     0.034 C 
ENDROOT
BRANCH   1   2
HETATM    2  C4  UNL     1     -25.448  18.256  12.322  1.00 20.00    -0.030 C 
HETATM    3  C3  UNL     1     -26.105  19.109  11.522  1.00 20.00    -0.035 C 
HETATM    4  C5  UNL     1     -27.589  19.262  11.511  1.00 20.00     0.035 C 
ENDBRANCH   1   2
BRANCH   1   5
HETATM    5  C8  UNL     1     -23.478  16.854  11.560  1.00 20.00     0.007 C 
HETATM    6  C6  UNL     1     -24.539  15.753  11.638  1.00 20.00     0.014 C 
BRANCH   5   7
HETATM    7  C2  UNL     1     -23.196  17.174  10.112  1.00 20.00    -0.032 C 
HETATM    8  C1  UNL     1     -22.410  18.179   9.709  1.00 20.00     0.007 C 
ENDBRANCH   5   7
ENDBRANCH   1   5
TORSDOF 3
ENDMDL
MODEL 8
REMARK VINA RESULT:      -3.8     10.389     11.351
REMARK  3 active torsions:
REMARK  status: ('A' for Active; 'I' for Inactive)
REMARK    1  A    between atoms: C2_2  and  C8_8 
REMARK    2  A    between atoms: C4_4  and  C7_7 
REMARK    3  A    between atoms: C7_7  and  C8_8 
ROOT
HETATM    1  C7  UNL     1     -34.396  15.827  -2.667  1.00 20.00     0.034 C 
ENDROOT
BRANCH   1   2
HETATM    2  C4  UNL     1     -33.222  16.753  -2.502  1.00 20.00    -0.030 C 
HETATM    3  C3  UNL     1     -33.122  17.663  -1.522  1.00 20.00    -0.035 C 
HETATM    4  C5  UNL     1     -31.957  18.581  -1.356  1.00 20.00     0.035 C 
ENDBRANCH   1   2
BRANCH   1   5
HETATM    5  C8  UNL     1     -34.374  15.073  -4.011  1.00 20.00     0.007 C 
HETATM    6  C6  UNL     1     -32.947  14.625  -4.338  1.00 20.00     0.014 C 
BRANCH   5   7
HETATM    7  C2  UNL     1     -35.282  13.867  -3.982  1.00 20.00    -0.032 C 
HETATM    8  C1  UNL     1     -36.370  13.732  -4.749  1.00 20.00     0.007 C 
ENDBRANCH   5   7
ENDBRANCH   1   5
TORSDOF 3
ENDMDL
MODEL 9
REMARK VINA RESULT:      -3.7     10.757     11.657
REMARK  3 active torsions:
REMARK  status: ('A' for Active; 'I' for Inactive)
REMARK    1  A    between atoms: C2_2  and  C8_8 
REMARK    2  A    between atoms: C4_4  and  C7_7 
REMARK    3  A    between atoms: C7_7  and  C8_8 
ROOT
HETATM    1  C7  UNL     1     -33.790  14.807  -4.176  1.00 20.00     0.034 C 
ENDROOT
BRANCH   1   2
HETATM    2  C4  UNL     1     -33.839  15.819  -3.064  1.00 20.00    -0.030 C 
HETATM    3  C3  UNL     1     -34.882  15.965  -2.233  1.00 20.00    -0.035 C 
HETATM    4  C5  UNL     1     -34.930  16.968  -1.129  1.00 20.00     0.035 C 
ENDBRANCH   1   2
BRANCH   1   5
HETATM    5  C8  UNL     1     -34.608  15.237  -5.409  1.00 20.00     0.007 C 
HETATM    6  C6  UNL     1     -33.793  15.011  -6.685  1.00 20.00     0.014 C 
BRANCH   5   7
HETATM    7  C2  UNL     1     -35.907  14.474  -5.503  1.00 20.00    -0.032 C 
HETATM    8  C1  UNL     1     -36.309  13.570  -4.604  1.00 20.00     0.007 C 
ENDBRANCH   5   7
ENDBRANCH   1   5
TORSDOF 3
ENDMDL
