MODEL 1
REMARK VINA RESULT:      -4.8      0.000      0.000
REMARK  1 active torsions:
REMARK  status: ('A' for Active; 'I' for Inactive)
REMARK    1  A    between atoms: C7_7  and  C8_8 
ROOT
HETATM    1  C1  UNL     1     -35.409  13.878  -4.198  1.00 20.00     0.064 C 
HETATM    2  C2  UNL     1     -32.927  16.681  -3.413  1.00 20.00     0.002 C 
HETATM    3  C3  UNL     1     -33.430  15.314  -3.871  1.00 20.00     0.019 C 
HETATM    4  C4  UNL     1     -33.442  17.032  -2.020  1.00 20.00     0.005 C 
HETATM    5  C5  UNL     1     -35.471  15.576  -2.405  1.00 20.00     0.024 C 
HETATM    6  C6  UNL     1     -34.958  15.226  -3.809  1.00 20.00     0.093 C 
HETATM    7  C7  UNL     1     -34.972  16.953  -1.945  1.00 20.00    -0.003 C 
HETATM    8  N9  UNL     1     -35.764  12.816  -4.503  1.00 20.00    -0.197 NA
ENDROOT
BRANCH   7   9
HETATM    9  C8  UNL     1     -35.459  17.260  -0.531  1.00 20.00     0.089 C 
HETATM   10 BR10 UNL     1     -34.076  18.219   0.433  1.00 20.00    -0.096 Br
ENDBRANCH   7   9
TORSDOF 1
ENDMDL
MODEL 2
REMARK VINA RESULT:      -4.7     15.841     16.633
REMARK  1 active torsions:
REMARK  status: ('A' for Active; 'I' for Inactive)
REMARK    1  A    between atoms: C7_7  and  C8_8 
ROOT
HETATM    1  C1  UNL     1     -23.524  18.345   8.241  1.00 20.00     0.064 C 
HETATM    2  C2  UNL     1     -23.997  16.377  11.486  1.00 20.00     0.002 C 
HETATM    3  C3  UNL     1     -23.694  16.637  10.013  1.00 20.00     0.019 C 
HETATM    4  C4  UNL     1     -25.340  16.974  11.898  1.00 20.00     0.005 C 
HETATM    5  C5  UNL     1     -25.113  18.727  10.092  1.00 20.00     0.024 C 
HETATM    6  C6  UNL     1     -23.760  18.131   9.679  1.00 20.00     0.093 C 
HETATM    7  C7  UNL     1     -25.416  18.472  11.576  1.00 20.00    -0.003 C 
HETATM    8  N9  UNL     1     -23.339  18.513   7.107  1.00 20.00    -0.197 NA
ENDROOT
BRANCH   7   9
HETATM    9  C8  UNL     1     -26.785  19.034  11.952  1.00 20.00     0.089 C 
HETATM   10 BR10 UNL     1     -28.001  17.573  12.332  1.00 20.00    -0.096 Br
ENDBRANCH   7   9
TORSDOF 1
ENDMDL
MODEL 3
REMARK VINA RESULT:      -4.7      3.562      4.854
REMARK  1 active torsions:
REMARK  status: ('A' for Active; 'I' for Inactive)
REMARK    1  A    between atoms: C7_7  and  C8_8 
ROOT
HETATM    1  C1  UNL     1     -31.744  18.220  -1.071  1.00 20.00     0.064 C 
HETATM    2  C2  UNL     1     -35.395  17.105  -1.310  1.00 20.00     0.002 C 
HETATM    3  C3  UNL     1     -34.080  17.538  -0.667  1.00 20.00     0.019 C 
HETATM    4  C4  UNL     1     -35.194  15.937  -2.271  1.00 20.00     0.005 C 
HETATM    5  C5  UNL     1     -32.816  16.686  -2.683  1.00 20.00     0.024 C 
HETATM    6  C6  UNL     1     -33.018  17.866  -1.721  1.00 20.00     0.093 C 
HETATM    7  C7  UNL     1     -34.137  16.255  -3.336  1.00 20.00    -0.003 C 
HETATM    8  N9  UNL     1     -30.741  18.498  -0.559  1.00 20.00    -0.197 NA
ENDROOT
BRANCH   7   9
HETATM    9  C8  UNL     1     -33.919  15.054  -4.254  1.00 20.00     0.089 C 
HETATM   10 BR10 UNL     1     -35.495  13.925  -4.224  1.00 20.00    -0.096 Br
ENDBRANCH   7   9
TORSDOF 1
ENDMDL
MODEL 4
REMARK VINA RESULT:      -4.6      1.614      2.577
REMARK  1 active torsions:
REMARK  status: ('A' for Active; 'I' for Inactive)
REMARK    1  A    between atoms: C7_7  and  C8_8 
ROOT
HETATM    1  C1  UNL     1     -33.865  14.974  -4.520  1.00 20.00     0.064 C 
HETATM    2  C2  UNL     1     -35.350  16.499  -1.342  1.00 20.00     0.002 C 
HETATM    3  C3  UNL     1     -35.310  15.869  -2.732  1.00 20.00     0.019 C 
HETATM    4  C4  UNL     1     -34.441  17.721  -1.252  1.00 20.00     0.005 C 
HETATM    5  C5  UNL     1     -32.967  16.756  -3.065  1.00 20.00     0.024 C 
HETATM    6  C6  UNL     1     -33.878  15.523  -3.154  1.00 20.00     0.093 C 
HETATM    7  C7  UNL     1     -33.002  17.387  -1.665  1.00 20.00    -0.003 C 
HETATM    8  N9  UNL     1     -33.855  14.543  -5.598  1.00 20.00    -0.197 NA
ENDROOT
BRANCH   7   9
HETATM    9  C8  UNL     1     -32.123  18.635  -1.614  1.00 20.00     0.089 C 
HETATM   10 BR10 UNL     1     -31.072  18.618   0.015  1.00 20.00    -0.096 Br
ENDBRANCH   7   9
TORSDOF 1
ENDMDL
MODEL 5
REMARK VINA RESULT:      -4.6      1.407      1.608
REMARK  1 active torsions:
REMARK  status: ('A' for Active; 'I' for Inactive)
REMARK    1  A    between atoms: C7_7  and  C8_8 
ROOT
HETATM    1  C1  UNL     1     -37.099  14.568  -4.274  1.00 20.00     0.064 C 
HETATM    2  C2  UNL     1     -33.339  15.205  -3.975  1.00 20.00     0.002 C 
HETATM    3  C3  UNL     1     -34.643  14.420  -4.095  1.00 20.00     0.019 C 
HETATM    4  C4  UNL     1     -33.388  16.203  -2.821  1.00 20.00     0.005 C 
HETATM    5  C5  UNL     1     -35.899  16.352  -3.057  1.00 20.00     0.024 C 
HETATM    6  C6  UNL     1     -35.853  15.352  -4.221  1.00 20.00     0.093 C 
HETATM    7  C7  UNL     1     -34.591  17.147  -2.939  1.00 20.00    -0.003 C 
HETATM    8  N9  UNL     1     -38.081  13.951  -4.314  1.00 20.00    -0.197 NA
ENDROOT
BRANCH   7   9
HETATM    9  C8  UNL     1     -34.645  18.102  -1.748  1.00 20.00     0.089 C 
HETATM   10 BR10 UNL     1     -35.418  17.188  -0.223  1.00 20.00    -0.096 Br
ENDBRANCH   7   9
TORSDOF 1
ENDMDL
MODEL 6
REMARK VINA RESULT:      -4.4     15.389     16.462
REMARK  1 active torsions:
REMARK  status: ('A' for Active; 'I' for Inactive)
REMARK    1  A    between atoms: C7_7  and  C8_8 
ROOT
HETATM    1  C1  UNL     1     -24.743  18.930   7.187  1.00 20.00     0.064 C 
HETATM    2  C2  UNL     1     -21.724  17.910   9.303  1.00 20.00     0.002 C 
HETATM    3  C3  UNL     1     -22.634  18.015   8.081  1.00 20.00     0.019 C 
HETATM    4  C4  UNL     1     -22.486  17.419  10.530  1.00 20.00     0.005 C 
HETATM    5  C5  UNL     1     -24.620  18.398   9.596  1.00 20.00     0.024 C 
HETATM    6  C6  UNL     1     -23.855  18.897   8.361  1.00 20.00     0.093 C 
HETATM    7  C7  UNL     1     -23.708  18.298  10.827  1.00 20.00    -0.003 C 
HETATM    8  N9  UNL     1     -25.443  18.955   6.262  1.00 20.00    -0.197 NA
ENDROOT
BRANCH   7   9
HETATM    9  C8  UNL     1     -24.481  17.758  12.029  1.00 20.00     0.089 C 
HETATM   10 BR10 UNL     1     -24.727  15.845  11.831  1.00 20.00    -0.096 Br
ENDBRANCH   7   9
TORSDOF 1
ENDMDL
MODEL 7
REMARK VINA RESULT:      -4.4      3.115      4.172
REMARK  1 active torsions:
REMARK  status: ('A' for Active; 'I' for Inactive)
REMARK    1  A    between atoms: C7_7  and  C8_8 
ROOT
HETATM    1  C1  UNL     1     -34.850  17.169  -1.452  1.00 20.00     0.064 C 
HETATM    2  C2  UNL     1     -32.802  15.200  -4.013  1.00 20.00     0.002 C 
HETATM    3  C3  UNL     1     -33.232  16.372  -3.134  1.00 20.00     0.019 C 
HETATM    4  C4  UNL     1     -33.966  14.662  -4.841  1.00 20.00     0.005 C 
HETATM    5  C5  UNL     1     -35.590  15.465  -3.079  1.00 20.00     0.024 C 
HETATM    6  C6  UNL     1     -34.421  16.002  -2.241  1.00 20.00     0.093 C 
HETATM    7  C7  UNL     1     -35.161  14.281  -3.958  1.00 20.00    -0.003 C 
HETATM    8  N9  UNL     1     -35.189  18.089  -0.830  1.00 20.00    -0.197 NA
ENDROOT
BRANCH   7   9
HETATM    9  C8  UNL     1     -36.328  13.792  -4.813  1.00 20.00     0.089 C 
HETATM   10 BR10 UNL     1     -37.923  14.801  -4.364  1.00 20.00    -0.096 Br
ENDBRANCH   7   9
TORSDOF 1
ENDMDL
MODEL 8
REMARK VINA RESULT:      -4.2      3.121      4.161
REMARK  1 active torsions:
REMARK  status: ('A' for Active; 'I' for Inactive)
REMARK    1  A    between atoms: C7_7  and  C8_8 
ROOT
HETATM    1  C1  UNL     1     -36.224  17.579  -0.479  1.00 20.00     0.064 C 
HETATM    2  C2  UNL     1     -32.750  17.384  -2.068  1.00 20.00     0.002 C 
HETATM    3  C3  UNL     1     -33.978  18.004  -1.405  1.00 20.00     0.019 C 
HETATM    4  C4  UNL     1     -33.129  16.563  -3.297  1.00 20.00     0.005 C 
HETATM    5  C5  UNL     1     -35.409  16.123  -2.300  1.00 20.00     0.024 C 
HETATM    6  C6  UNL     1     -35.028  16.944  -1.059  1.00 20.00     0.093 C 
HETATM    7  C7  UNL     1     -34.176  15.493  -2.963  1.00 20.00    -0.003 C 
HETATM    8  N9  UNL     1     -37.166  18.080  -0.022  1.00 20.00    -0.197 NA
ENDROOT
BRANCH   7   9
HETATM    9  C8  UNL     1     -34.574  14.718  -4.217  1.00 20.00     0.089 C 
HETATM   10 BR10 UNL     1     -36.490  14.417  -4.209  1.00 20.00    -0.096 Br
ENDBRANCH   7   9
TORSDOF 1
ENDMDL
MODEL 9
REMARK VINA RESULT:      -4.1      1.365      1.499
REMARK  1 active torsions:
REMARK  status: ('A' for Active; 'I' for Inactive)
REMARK    1  A    between atoms: C7_7  and  C8_8 
ROOT
HETATM    1  C1  UNL     1     -35.678  13.878  -4.313  1.00 20.00     0.064 C 
HETATM    2  C2  UNL     1     -34.325  17.381  -5.043  1.00 20.00     0.002 C 
HETATM    3  C3  UNL     1     -34.594  15.891  -5.240  1.00 20.00     0.019 C 
HETATM    4  C4  UNL     1     -33.740  17.670  -3.664  1.00 20.00     0.005 C 
HETATM    5  C5  UNL     1     -34.893  15.618  -2.745  1.00 20.00     0.024 C 
HETATM    6  C6  UNL     1     -35.488  15.327  -4.131  1.00 20.00     0.093 C 
HETATM    7  C7  UNL     1     -34.630  17.117  -2.544  1.00 20.00    -0.003 C 
HETATM    8  N9  UNL     1     -35.827  12.736  -4.456  1.00 20.00    -0.197 NA
ENDROOT
BRANCH   7   9
HETATM    9  C8  UNL     1     -33.998  17.376  -1.177  1.00 20.00     0.089 C 
HETATM   10 BR10 UNL     1     -32.289  18.261  -1.414  1.00 20.00    -0.096 Br
ENDBRANCH   7   9
TORSDOF 1
ENDMDL
