MODEL 1
REMARK VINA RESULT:      -3.9      0.000      0.000
REMARK  2 active torsions:
REMARK  status: ('A' for Active; 'I' for Inactive)
REMARK    1  A    between atoms: C1_1  and  C3_3 
REMARK    2  A    between atoms: C1_1  and  O5_5 
ROOT
HETATM    1  C1  UNL     1     -33.273   5.947   3.139  1.00 20.00     0.291 C 
HETATM    2  O4  UNL     1     -33.183   4.909   2.497  1.00 20.00    -0.262 OA
ENDROOT
BRANCH   1   3
HETATM    3  C3  UNL     1     -34.282   6.218   4.223  1.00 20.00     0.277 C 
HETATM    4 CL6  UNL     1     -34.980   4.690   4.785  1.00 20.00    -0.097 Cl
HETATM    5 CL7  UNL     1     -33.455   7.055   5.543  1.00 20.00    -0.097 Cl
ENDBRANCH   1   3
BRANCH   1   6
HETATM    6  O5  UNL     1     -32.454   7.035   3.007  1.00 20.00    -0.324 OA
HETATM    7  C2  UNL     1     -32.472   7.669   1.724  1.00 20.00     0.213 C 
ENDBRANCH   1   6
TORSDOF 2
ENDMDL
MODEL 2
REMARK VINA RESULT:      -3.9     11.207     12.047
REMARK  2 active torsions:
REMARK  status: ('A' for Active; 'I' for Inactive)
REMARK    1  A    between atoms: C1_1  and  C3_3 
REMARK    2  A    between atoms: C1_1  and  O5_5 
ROOT
HETATM    1  C1  UNL     1     -36.311  13.611  -4.472  1.00 20.00     0.291 C 
HETATM    2  O4  UNL     1     -35.746  12.526  -4.450  1.00 20.00    -0.262 OA
ENDROOT
BRANCH   1   3
HETATM    3  C3  UNL     1     -35.626  14.950  -4.533  1.00 20.00     0.277 C 
HETATM    4 CL6  UNL     1     -34.662  15.198  -3.068  1.00 20.00    -0.097 Cl
HETATM    5 CL7  UNL     1     -34.599  14.974  -5.973  1.00 20.00    -0.097 Cl
ENDBRANCH   1   3
BRANCH   1   6
HETATM    6  O5  UNL     1     -37.666  13.800  -4.474  1.00 20.00    -0.324 OA
HETATM    7  C2  UNL     1     -38.100  15.158  -4.353  1.00 20.00     0.213 C 
ENDBRANCH   1   6
TORSDOF 2
ENDMDL
MODEL 3
REMARK VINA RESULT:      -3.7      1.548      1.972
REMARK  2 active torsions:
REMARK  status: ('A' for Active; 'I' for Inactive)
REMARK    1  A    between atoms: C1_1  and  C3_3 
REMARK    2  A    between atoms: C1_1  and  O5_5 
ROOT
HETATM    1  C1  UNL     1     -33.720   6.550   4.374  1.00 20.00     0.291 C 
HETATM    2  O4  UNL     1     -33.300   7.275   5.266  1.00 20.00    -0.262 OA
ENDROOT
BRANCH   1   3
HETATM    3  C3  UNL     1     -34.753   5.468   4.543  1.00 20.00     0.277 C 
HETATM    4 CL6  UNL     1     -34.221   3.997   3.711  1.00 20.00    -0.097 Cl
HETATM    5 CL7  UNL     1     -34.956   5.172   6.275  1.00 20.00    -0.097 Cl
ENDBRANCH   1   3
BRANCH   1   6
HETATM    6  O5  UNL     1     -33.349   6.613   3.059  1.00 20.00    -0.324 OA
HETATM    7  C2  UNL     1     -32.103   7.268   2.800  1.00 20.00     0.213 C 
ENDBRANCH   1   6
TORSDOF 2
ENDMDL
MODEL 4
REMARK VINA RESULT:      -3.6      2.415      3.321
REMARK  2 active torsions:
REMARK  status: ('A' for Active; 'I' for Inactive)
REMARK    1  A    between atoms: C1_1  and  C3_3 
REMARK    2  A    between atoms: C1_1  and  O5_5 
ROOT
HETATM    1  C1  UNL     1     -34.383   5.370   4.004  1.00 20.00     0.291 C 
HETATM    2  O4  UNL     1     -34.828   4.290   4.369  1.00 20.00    -0.262 OA
ENDROOT
BRANCH   1   3
HETATM    3  C3  UNL     1     -33.664   5.624   2.706  1.00 20.00     0.277 C 
HETATM    4 CL6  UNL     1     -32.462   6.906   2.928  1.00 20.00    -0.097 Cl
HETATM    5 CL7  UNL     1     -32.889   4.115   2.205  1.00 20.00    -0.097 Cl
ENDBRANCH   1   3
BRANCH   1   6
HETATM    6  O5  UNL     1     -34.485   6.545   4.698  1.00 20.00    -0.324 OA
HETATM    7  C2  UNL     1     -34.139   6.475   6.084  1.00 20.00     0.213 C 
ENDBRANCH   1   6
TORSDOF 2
ENDMDL
MODEL 5
REMARK VINA RESULT:      -3.6      2.325      3.663
REMARK  2 active torsions:
REMARK  status: ('A' for Active; 'I' for Inactive)
REMARK    1  A    between atoms: C1_1  and  C3_3 
REMARK    2  A    between atoms: C1_1  and  O5_5 
ROOT
HETATM    1  C1  UNL     1     -33.821   6.519   4.487  1.00 20.00     0.291 C 
HETATM    2  O4  UNL     1     -33.292   7.174   5.375  1.00 20.00    -0.262 OA
ENDROOT
BRANCH   1   3
HETATM    3  C3  UNL     1     -33.390   6.496   3.045  1.00 20.00     0.277 C 
HETATM    4 CL6  UNL     1     -31.856   7.365   2.865  1.00 20.00    -0.097 Cl
HETATM    5 CL7  UNL     1     -33.217   4.807   2.552  1.00 20.00    -0.097 Cl
ENDBRANCH   1   3
BRANCH   1   6
HETATM    6  O5  UNL     1     -34.879   5.668   4.652  1.00 20.00    -0.324 OA
HETATM    7  C2  UNL     1     -34.911   4.954   5.891  1.00 20.00     0.213 C 
ENDBRANCH   1   6
TORSDOF 2
ENDMDL
MODEL 6
REMARK VINA RESULT:      -3.4     11.285     11.992
REMARK  2 active torsions:
REMARK  status: ('A' for Active; 'I' for Inactive)
REMARK    1  A    between atoms: C1_1  and  C3_3 
REMARK    2  A    between atoms: C1_1  and  O5_5 
ROOT
HETATM    1  C1  UNL     1     -35.731  13.855  -4.853  1.00 20.00     0.291 C 
HETATM    2  O4  UNL     1     -35.796  12.712  -4.420  1.00 20.00    -0.262 OA
ENDROOT
BRANCH   1   3
HETATM    3  C3  UNL     1     -34.802  14.927  -4.350  1.00 20.00     0.277 C 
HETATM    4 CL6  UNL     1     -35.240  15.367  -2.690  1.00 20.00    -0.097 Cl
HETATM    5 CL7  UNL     1     -33.151  14.297  -4.419  1.00 20.00    -0.097 Cl
ENDBRANCH   1   3
BRANCH   1   6
HETATM    6  O5  UNL     1     -36.470  14.352  -5.891  1.00 20.00    -0.324 OA
HETATM    7  C2  UNL     1     -35.717  14.891  -6.982  1.00 20.00     0.213 C 
ENDBRANCH   1   6
TORSDOF 2
ENDMDL
MODEL 7
REMARK VINA RESULT:      -3.4      1.640      2.044
REMARK  2 active torsions:
REMARK  status: ('A' for Active; 'I' for Inactive)
REMARK    1  A    between atoms: C1_1  and  C3_3 
REMARK    2  A    between atoms: C1_1  and  O5_5 
ROOT
HETATM    1  C1  UNL     1     -32.363   7.196   2.738  1.00 20.00     0.291 C 
HETATM    2  O4  UNL     1     -31.591   7.629   3.584  1.00 20.00    -0.262 OA
ENDROOT
BRANCH   1   3
HETATM    3  C3  UNL     1     -33.578   6.352   3.016  1.00 20.00     0.277 C 
HETATM    4 CL6  UNL     1     -33.251   4.668   2.577  1.00 20.00    -0.097 Cl
HETATM    5 CL7  UNL     1     -33.959   6.491   4.737  1.00 20.00    -0.097 Cl
ENDBRANCH   1   3
BRANCH   1   6
HETATM    6  O5  UNL     1     -32.275   7.427   1.393  1.00 20.00    -0.324 OA
HETATM    7  C2  UNL     1     -32.825   8.668   0.941  1.00 20.00     0.213 C 
ENDBRANCH   1   6
TORSDOF 2
ENDMDL
MODEL 8
REMARK VINA RESULT:      -3.3      9.196      9.638
REMARK  2 active torsions:
REMARK  status: ('A' for Active; 'I' for Inactive)
REMARK    1  A    between atoms: C1_1  and  C3_3 
REMARK    2  A    between atoms: C1_1  and  O5_5 
ROOT
HETATM    1  C1  UNL     1     -41.662   7.487  -1.134  1.00 20.00     0.291 C 
HETATM    2  O4  UNL     1     -42.459   7.931  -1.949  1.00 20.00    -0.262 OA
ENDROOT
BRANCH   1   3
HETATM    3  C3  UNL     1     -41.597   7.870   0.321  1.00 20.00     0.277 C 
HETATM    4 CL6  UNL     1     -41.348   9.617   0.469  1.00 20.00    -0.097 Cl
HETATM    5 CL7  UNL     1     -43.117   7.384   1.082  1.00 20.00    -0.097 Cl
ENDBRANCH   1   3
BRANCH   1   6
HETATM    6  O5  UNL     1     -40.707   6.542  -1.392  1.00 20.00    -0.324 OA
HETATM    7  C2  UNL     1     -41.083   5.191  -1.110  1.00 20.00     0.213 C 
ENDBRANCH   1   6
TORSDOF 2
ENDMDL
MODEL 9
REMARK VINA RESULT:      -3.3     16.216     17.096
REMARK  2 active torsions:
REMARK  status: ('A' for Active; 'I' for Inactive)
REMARK    1  A    between atoms: C1_1  and  C3_3 
REMARK    2  A    between atoms: C1_1  and  O5_5 
ROOT
HETATM    1  C1  UNL     1     -22.845  18.563   9.517  1.00 20.00     0.291 C 
HETATM    2  O4  UNL     1     -21.919  19.175   9.002  1.00 20.00    -0.262 OA
ENDROOT
BRANCH   1   3
HETATM    3  C3  UNL     1     -22.704  17.389  10.449  1.00 20.00     0.277 C 
HETATM    4 CL6  UNL     1     -22.456  17.967  12.105  1.00 20.00    -0.097 Cl
HETATM    5 CL7  UNL     1     -24.179  16.419  10.335  1.00 20.00    -0.097 Cl
ENDBRANCH   1   3
BRANCH   1   6
HETATM    6  O5  UNL     1     -24.173  18.854   9.360  1.00 20.00    -0.324 OA
HETATM    7  C2  UNL     1     -24.576  19.201   8.032  1.00 20.00     0.213 C 
ENDBRANCH   1   6
TORSDOF 2
ENDMDL
