MODEL 1
REMARK VINA RESULT:      -3.6      0.000      0.000
REMARK  3 active torsions:
REMARK  status: ('A' for Active; 'I' for Inactive)
REMARK    1  A    between atoms: C2_2  and  C6_6 
REMARK    2  A    between atoms: C2_2  and  C7_7 
REMARK    3  A    between atoms: C6_6  and  C8_8 
ROOT
HETATM    1  C6  UNL     1     -34.741  14.702  -3.794  1.00 20.00     0.042 C 
ENDROOT
BRANCH   1   2
HETATM    2  C2  UNL     1     -35.903  14.529  -4.754  1.00 20.00    -0.075 C 
HETATM    3  C1  UNL     1     -37.151  14.321  -4.303  1.00 20.00     0.015 C 
BRANCH   2   4
HETATM    4  C7  UNL     1     -35.614  14.540  -6.229  1.00 20.00     0.147 C 
HETATM    5 CL9  UNL     1     -33.899  14.905  -6.527  1.00 20.00    -0.126 Cl
ENDBRANCH   2   4
ENDBRANCH   1   2
BRANCH   1   6
HETATM    6  C8  UNL     1     -34.525  16.114  -3.172  1.00 20.00    -0.048 C 
HETATM    7  C3  UNL     1     -35.093  16.192  -1.745  1.00 20.00     0.015 C 
HETATM    8  C4  UNL     1     -33.006  16.373  -3.103  1.00 20.00     0.015 C 
HETATM    9  C5  UNL     1     -35.165  17.221  -4.026  1.00 20.00     0.015 C 
ENDBRANCH   1   6
TORSDOF 3
ENDMDL
MODEL 2
REMARK VINA RESULT:      -3.5     10.621     12.133
REMARK  3 active torsions:
REMARK  status: ('A' for Active; 'I' for Inactive)
REMARK    1  A    between atoms: C2_2  and  C6_6 
REMARK    2  A    between atoms: C2_2  and  C7_7 
REMARK    3  A    between atoms: C6_6  and  C8_8 
ROOT
HETATM    1  C6  UNL     1     -41.326   6.996   0.435  1.00 20.00     0.042 C 
ENDROOT
BRANCH   1   2
HETATM    2  C2  UNL     1     -41.673   5.682  -0.238  1.00 20.00    -0.075 C 
HETATM    3  C1  UNL     1     -40.807   5.076  -1.067  1.00 20.00     0.015 C 
BRANCH   2   4
HETATM    4  C7  UNL     1     -43.037   5.098   0.003  1.00 20.00     0.147 C 
HETATM    5 CL9  UNL     1     -43.403   5.064   1.743  1.00 20.00    -0.126 Cl
ENDBRANCH   2   4
ENDBRANCH   1   2
BRANCH   1   6
HETATM    6  C8  UNL     1     -42.052   8.278  -0.071  1.00 20.00    -0.048 C 
HETATM    7  C3  UNL     1     -43.417   8.459   0.615  1.00 20.00     0.015 C 
HETATM    8  C4  UNL     1     -41.169   9.493   0.280  1.00 20.00     0.015 C 
HETATM    9  C5  UNL     1     -42.259   8.257  -1.595  1.00 20.00     0.015 C 
ENDBRANCH   1   6
TORSDOF 3
ENDMDL
MODEL 3
REMARK VINA RESULT:      -3.5     17.991     18.848
REMARK  3 active torsions:
REMARK  status: ('A' for Active; 'I' for Inactive)
REMARK    1  A    between atoms: C2_2  and  C6_6 
REMARK    2  A    between atoms: C2_2  and  C7_7 
REMARK    3  A    between atoms: C6_6  and  C8_8 
ROOT
HETATM    1  C6  UNL     1     -24.431  17.266   9.974  1.00 20.00     0.042 C 
ENDROOT
BRANCH   1   2
HETATM    2  C2  UNL     1     -24.737  16.924  11.419  1.00 20.00    -0.075 C 
HETATM    3  C1  UNL     1     -24.630  15.665  11.873  1.00 20.00     0.015 C 
BRANCH   2   4
HETATM    4  C7  UNL     1     -25.221  18.024  12.323  1.00 20.00     0.147 C 
HETATM    5 CL9  UNL     1     -26.125  19.243  11.395  1.00 20.00    -0.126 Cl
ENDBRANCH   2   4
ENDBRANCH   1   2
BRANCH   1   6
HETATM    6  C8  UNL     1     -23.013  17.825   9.651  1.00 20.00    -0.048 C 
HETATM    7  C3  UNL     1     -22.284  16.945   8.621  1.00 20.00     0.015 C 
HETATM    8  C4  UNL     1     -23.185  19.234   9.049  1.00 20.00     0.015 C 
HETATM    9  C5  UNL     1     -22.141  17.942  10.912  1.00 20.00     0.015 C 
ENDBRANCH   1   6
TORSDOF 3
ENDMDL
MODEL 4
REMARK VINA RESULT:      -3.5     10.477     12.020
REMARK  3 active torsions:
REMARK  status: ('A' for Active; 'I' for Inactive)
REMARK    1  A    between atoms: C2_2  and  C6_6 
REMARK    2  A    between atoms: C2_2  and  C7_7 
REMARK    3  A    between atoms: C6_6  and  C8_8 
ROOT
HETATM    1  C6  UNL     1     -41.506   6.886   0.631  1.00 20.00     0.042 C 
ENDROOT
BRANCH   1   2
HETATM    2  C2  UNL     1     -42.505   5.745   0.593  1.00 20.00    -0.075 C 
HETATM    3  C1  UNL     1     -43.172   5.369   1.696  1.00 20.00     0.015 C 
BRANCH   2   4
HETATM    4  C7  UNL     1     -42.692   5.007  -0.703  1.00 20.00     0.147 C 
HETATM    5 CL9  UNL     1     -41.126   4.751  -1.507  1.00 20.00    -0.126 Cl
ENDBRANCH   2   4
ENDBRANCH   1   2
BRANCH   1   6
HETATM    6  C8  UNL     1     -41.920   8.229  -0.041  1.00 20.00    -0.048 C 
HETATM    7  C3  UNL     1     -41.106   9.409   0.515  1.00 20.00     0.015 C 
HETATM    8  C4  UNL     1     -41.631   8.111  -1.552  1.00 20.00     0.015 C 
HETATM    9  C5  UNL     1     -43.417   8.525   0.142  1.00 20.00     0.015 C 
ENDBRANCH   1   6
TORSDOF 3
ENDMDL
MODEL 5
REMARK VINA RESULT:      -3.5      0.520      1.531
REMARK  3 active torsions:
REMARK  status: ('A' for Active; 'I' for Inactive)
REMARK    1  A    between atoms: C2_2  and  C6_6 
REMARK    2  A    between atoms: C2_2  and  C7_7 
REMARK    3  A    between atoms: C6_6  and  C8_8 
ROOT
HETATM    1  C6  UNL     1     -34.207  14.878  -4.151  1.00 20.00     0.042 C 
ENDROOT
BRANCH   1   2
HETATM    2  C2  UNL     1     -35.401  14.493  -5.004  1.00 20.00    -0.075 C 
HETATM    3  C1  UNL     1     -36.460  13.861  -4.471  1.00 20.00     0.015 C 
BRANCH   2   4
HETATM    4  C7  UNL     1     -35.348  14.788  -6.477  1.00 20.00     0.147 C 
HETATM    5 CL9  UNL     1     -33.662  14.957  -7.019  1.00 20.00    -0.126 Cl
ENDBRANCH   2   4
ENDBRANCH   1   2
BRANCH   1   6
HETATM    6  C8  UNL     1     -34.290  16.214  -3.356  1.00 20.00    -0.048 C 
HETATM    7  C3  UNL     1     -35.039  17.296  -4.152  1.00 20.00     0.015 C 
HETATM    8  C4  UNL     1     -35.070  15.943  -2.054  1.00 20.00     0.015 C 
HETATM    9  C5  UNL     1     -32.896  16.746  -2.981  1.00 20.00     0.015 C 
ENDBRANCH   1   6
TORSDOF 3
ENDMDL
MODEL 6
REMARK VINA RESULT:      -3.5     11.642     12.463
REMARK  3 active torsions:
REMARK  status: ('A' for Active; 'I' for Inactive)
REMARK    1  A    between atoms: C2_2  and  C6_6 
REMARK    2  A    between atoms: C2_2  and  C7_7 
REMARK    3  A    between atoms: C6_6  and  C8_8 
ROOT
HETATM    1  C6  UNL     1     -33.563   6.508   4.194  1.00 20.00     0.042 C 
ENDROOT
BRANCH   1   2
HETATM    2  C2  UNL     1     -32.953   6.423   2.808  1.00 20.00    -0.075 C 
HETATM    3  C1  UNL     1     -33.097   5.321   2.053  1.00 20.00     0.015 C 
BRANCH   2   4
HETATM    4  C7  UNL     1     -32.133   7.584   2.319  1.00 20.00     0.147 C 
HETATM    5 CL9  UNL     1     -32.830   8.255   0.826  1.00 20.00    -0.126 Cl
ENDBRANCH   2   4
ENDBRANCH   1   2
BRANCH   1   6
HETATM    6  C8  UNL     1     -34.612   5.426   4.588  1.00 20.00    -0.048 C 
HETATM    7  C3  UNL     1     -34.125   4.013   4.224  1.00 20.00     0.015 C 
HETATM    8  C4  UNL     1     -34.808   5.491   6.116  1.00 20.00     0.015 C 
HETATM    9  C5  UNL     1     -35.972   5.675   3.916  1.00 20.00     0.015 C 
ENDBRANCH   1   6
TORSDOF 3
ENDMDL
MODEL 7
REMARK VINA RESULT:      -3.4      1.183      1.329
REMARK  3 active torsions:
REMARK  status: ('A' for Active; 'I' for Inactive)
REMARK    1  A    between atoms: C2_2  and  C6_6 
REMARK    2  A    between atoms: C2_2  and  C7_7 
REMARK    3  A    between atoms: C6_6  and  C8_8 
ROOT
HETATM    1  C6  UNL     1     -33.544  15.414  -3.520  1.00 20.00     0.042 C 
ENDROOT
BRANCH   1   2
HETATM    2  C2  UNL     1     -34.442  14.758  -4.552  1.00 20.00    -0.075 C 
HETATM    3  C1  UNL     1     -35.448  13.948  -4.182  1.00 20.00     0.015 C 
BRANCH   2   4
HETATM    4  C7  UNL     1     -34.145  14.993  -6.006  1.00 20.00     0.147 C 
HETATM    5 CL9  UNL     1     -35.620  14.807  -6.983  1.00 20.00    -0.126 Cl
ENDBRANCH   2   4
ENDBRANCH   1   2
BRANCH   1   6
HETATM    6  C8  UNL     1     -34.084  16.684  -2.798  1.00 20.00    -0.048 C 
HETATM    7  C3  UNL     1     -35.041  16.314  -1.652  1.00 20.00     0.015 C 
HETATM    8  C4  UNL     1     -32.878  17.435  -2.198  1.00 20.00     0.015 C 
HETATM    9  C5  UNL     1     -34.808  17.631  -3.768  1.00 20.00     0.015 C 
ENDBRANCH   1   6
TORSDOF 3
ENDMDL
MODEL 8
REMARK VINA RESULT:      -3.4      1.277      1.959
REMARK  3 active torsions:
REMARK  status: ('A' for Active; 'I' for Inactive)
REMARK    1  A    between atoms: C2_2  and  C6_6 
REMARK    2  A    between atoms: C2_2  and  C7_7 
REMARK    3  A    between atoms: C6_6  and  C8_8 
ROOT
HETATM    1  C6  UNL     1     -33.326  15.533  -3.550  1.00 20.00     0.042 C 
ENDROOT
BRANCH   1   2
HETATM    2  C2  UNL     1     -34.239  14.779  -4.498  1.00 20.00    -0.075 C 
HETATM    3  C1  UNL     1     -35.144  13.900  -4.038  1.00 20.00     0.015 C 
BRANCH   2   4
HETATM    4  C7  UNL     1     -34.067  14.998  -5.975  1.00 20.00     0.147 C 
HETATM    5 CL9  UNL     1     -35.610  14.753  -6.826  1.00 20.00    -0.126 Cl
ENDBRANCH   2   4
ENDBRANCH   1   2
BRANCH   1   6
HETATM    6  C8  UNL     1     -33.932  16.741  -2.776  1.00 20.00    -0.048 C 
HETATM    7  C3  UNL     1     -32.839  17.560  -2.068  1.00 20.00     0.015 C 
HETATM    8  C4  UNL     1     -34.636  17.655  -3.799  1.00 20.00     0.015 C 
HETATM    9  C5  UNL     1     -34.972  16.293  -1.735  1.00 20.00     0.015 C 
ENDBRANCH   1   6
TORSDOF 3
ENDMDL
MODEL 9
REMARK VINA RESULT:      -3.4      1.623      2.560
REMARK  3 active torsions:
REMARK  status: ('A' for Active; 'I' for Inactive)
REMARK    1  A    between atoms: C2_2  and  C6_6 
REMARK    2  A    between atoms: C2_2  and  C7_7 
REMARK    3  A    between atoms: C6_6  and  C8_8 
ROOT
HETATM    1  C6  UNL     1     -34.817  15.218  -2.771  1.00 20.00     0.042 C 
ENDROOT
BRANCH   1   2
HETATM    2  C2  UNL     1     -34.411  14.753  -4.156  1.00 20.00    -0.075 C 
HETATM    3  C1  UNL     1     -33.120  14.557  -4.472  1.00 20.00     0.015 C 
BRANCH   2   4
HETATM    4  C7  UNL     1     -35.487  14.571  -5.189  1.00 20.00     0.147 C 
HETATM    5 CL9  UNL     1     -37.043  14.201  -4.411  1.00 20.00    -0.126 Cl
ENDBRANCH   2   4
ENDBRANCH   1   2
BRANCH   1   6
HETATM    6  C8  UNL     1     -34.572  16.713  -2.411  1.00 20.00    -0.048 C 
HETATM    7  C3  UNL     1     -35.236  17.653  -3.433  1.00 20.00     0.015 C 
HETATM    8  C4  UNL     1     -35.203  16.978  -1.029  1.00 20.00     0.015 C 
HETATM    9  C5  UNL     1     -33.073  17.046  -2.329  1.00 20.00     0.015 C 
ENDBRANCH   1   6
TORSDOF 3
ENDMDL
