MODEL 1
REMARK VINA RESULT:      -5.0      0.000      0.000
REMARK  3 active torsions:
REMARK  status: ('A' for Active; 'I' for Inactive)
REMARK    1  A    between atoms: C3_3  and  C8_8 
REMARK    2  A    between atoms: C6_6  and  C7_7 
REMARK    3  A    between atoms: C7_7  and  C8_8 
ROOT
HETATM    1  C5  UNL     1     -33.306   4.553   2.187  1.00 20.00     0.010 C 
HETATM    2  C8  UNL     1     -33.482   5.419   3.436  1.00 20.00    -0.014 C 
ENDROOT
BRANCH   2   3
HETATM    3  C3  UNL     1     -33.263   6.891   3.077  1.00 20.00    -0.011 A 
HETATM    4  C1  UNL     1     -31.932   7.543   3.333  1.00 20.00     0.005 A 
HETATM    5  C2  UNL     1     -32.374   7.264   1.923  1.00 20.00     0.005 A 
ENDBRANCH   2   3
BRANCH   2   6
HETATM    6  C7  UNL     1     -34.866   5.240   4.085  1.00 20.00     0.004 C 
BRANCH   6   7
HETATM    7  C6  UNL     1     -34.817   5.157   5.613  1.00 20.00    -0.004 C 
HETATM    8  C4  UNL     1     -34.244   6.429   6.219  1.00 20.00     0.005 C 
ENDBRANCH   6   7
ENDBRANCH   2   6
TORSDOF 3
ENDMDL
MODEL 2
REMARK VINA RESULT:      -4.7      0.992      3.779
REMARK  3 active torsions:
REMARK  status: ('A' for Active; 'I' for Inactive)
REMARK    1  A    between atoms: C3_3  and  C8_8 
REMARK    2  A    between atoms: C6_6  and  C7_7 
REMARK    3  A    between atoms: C7_7  and  C8_8 
ROOT
HETATM    1  C5  UNL     1     -33.644   4.999   2.652  1.00 20.00     0.010 C 
HETATM    2  C8  UNL     1     -33.635   6.315   3.433  1.00 20.00    -0.014 C 
ENDROOT
BRANCH   2   3
HETATM    3  C3  UNL     1     -33.532   6.025   4.932  1.00 20.00    -0.011 A 
HETATM    4  C1  UNL     1     -34.269   6.883   5.922  1.00 20.00     0.005 A 
HETATM    5  C2  UNL     1     -34.713   5.468   5.677  1.00 20.00     0.005 A 
ENDBRANCH   2   3
BRANCH   2   6
HETATM    6  C7  UNL     1     -32.487   7.246   3.000  1.00 20.00     0.004 C 
BRANCH   6   7
HETATM    7  C6  UNL     1     -32.364   7.398   1.483  1.00 20.00    -0.004 C 
HETATM    8  C4  UNL     1     -32.891   8.747   1.016  1.00 20.00     0.005 C 
ENDBRANCH   6   7
ENDBRANCH   2   6
TORSDOF 3
ENDMDL
MODEL 3
REMARK VINA RESULT:      -4.4      1.139      4.107
REMARK  3 active torsions:
REMARK  status: ('A' for Active; 'I' for Inactive)
REMARK    1  A    between atoms: C3_3  and  C8_8 
REMARK    2  A    between atoms: C6_6  and  C7_7 
REMARK    3  A    between atoms: C7_7  and  C8_8 
ROOT
HETATM    1  C5  UNL     1     -32.274   7.683   4.297  1.00 20.00     0.010 C 
HETATM    2  C8  UNL     1     -33.034   6.549   3.606  1.00 20.00    -0.014 C 
ENDROOT
BRANCH   2   3
HETATM    3  C3  UNL     1     -34.382   6.335   4.297  1.00 20.00    -0.011 A 
HETATM    4  C1  UNL     1     -34.795   4.960   4.744  1.00 20.00     0.005 A 
HETATM    5  C2  UNL     1     -34.436   6.006   5.763  1.00 20.00     0.005 A 
ENDBRANCH   2   3
BRANCH   2   6
HETATM    6  C7  UNL     1     -33.252   6.817   2.106  1.00 20.00     0.004 C 
BRANCH   6   7
HETATM    7  C6  UNL     1     -32.262   7.824   1.516  1.00 20.00    -0.004 C 
HETATM    8  C4  UNL     1     -32.975   8.887   0.694  1.00 20.00     0.005 C 
ENDBRANCH   6   7
ENDBRANCH   2   6
TORSDOF 3
ENDMDL
MODEL 4
REMARK VINA RESULT:      -4.0      1.346      2.740
REMARK  3 active torsions:
REMARK  status: ('A' for Active; 'I' for Inactive)
REMARK    1  A    between atoms: C3_3  and  C8_8 
REMARK    2  A    between atoms: C6_6  and  C7_7 
REMARK    3  A    between atoms: C7_7  and  C8_8 
ROOT
HETATM    1  C5  UNL     1     -31.816   7.688   3.604  1.00 20.00     0.010 C 
HETATM    2  C8  UNL     1     -32.782   7.218   2.514  1.00 20.00    -0.014 C 
ENDROOT
BRANCH   2   3
HETATM    3  C3  UNL     1     -32.371   7.819   1.168  1.00 20.00    -0.011 A 
HETATM    4  C1  UNL     1     -33.409   8.101   0.116  1.00 20.00     0.005 A 
HETATM    5  C2  UNL     1     -32.736   9.239   0.832  1.00 20.00     0.005 A 
ENDBRANCH   2   3
BRANCH   2   6
HETATM    6  C7  UNL     1     -32.842   5.683   2.405  1.00 20.00     0.004 C 
BRANCH   6   7
HETATM    7  C6  UNL     1     -34.068   5.071   3.086  1.00 20.00    -0.004 C 
HETATM    8  C4  UNL     1     -34.476   5.869   4.314  1.00 20.00     0.005 C 
ENDBRANCH   6   7
ENDBRANCH   2   6
TORSDOF 3
ENDMDL
MODEL 5
REMARK VINA RESULT:      -3.9     15.599     17.042
REMARK  3 active torsions:
REMARK  status: ('A' for Active; 'I' for Inactive)
REMARK    1  A    between atoms: C3_3  and  C8_8 
REMARK    2  A    between atoms: C6_6  and  C7_7 
REMARK    3  A    between atoms: C7_7  and  C8_8 
ROOT
HETATM    1  C5  UNL     1     -24.657  15.888  11.725  1.00 20.00     0.010 C 
HETATM    2  C8  UNL     1     -24.425  17.353  11.350  1.00 20.00    -0.014 C 
ENDROOT
BRANCH   2   3
HETATM    3  C3  UNL     1     -25.287  18.255  12.236  1.00 20.00    -0.011 A 
HETATM    4  C1  UNL     1     -26.236  19.243  11.615  1.00 20.00     0.005 A 
HETATM    5  C2  UNL     1     -26.771  18.030  12.326  1.00 20.00     0.005 A 
ENDBRANCH   2   3
BRANCH   2   6
HETATM    6  C7  UNL     1     -22.946  17.763  11.469  1.00 20.00     0.004 C 
BRANCH   6   7
HETATM    7  C6  UNL     1     -22.288  18.072  10.122  1.00 20.00    -0.004 C 
HETATM    8  C4  UNL     1     -23.312  18.542   9.100  1.00 20.00     0.005 C 
ENDBRANCH   6   7
ENDBRANCH   2   6
TORSDOF 3
ENDMDL
MODEL 6
REMARK VINA RESULT:      -3.8     11.519     12.500
REMARK  3 active torsions:
REMARK  status: ('A' for Active; 'I' for Inactive)
REMARK    1  A    between atoms: C3_3  and  C8_8 
REMARK    2  A    between atoms: C6_6  and  C7_7 
REMARK    3  A    between atoms: C7_7  and  C8_8 
ROOT
HETATM    1  C5  UNL     1     -35.119  16.428  -1.683  1.00 20.00     0.010 C 
HETATM    2  C8  UNL     1     -33.786  16.214  -2.403  1.00 20.00    -0.014 C 
ENDROOT
BRANCH   2   3
HETATM    3  C3  UNL     1     -34.042  15.680  -3.814  1.00 20.00    -0.011 A 
HETATM    4  C1  UNL     1     -33.183  14.580  -4.375  1.00 20.00     0.005 A 
HETATM    5  C2  UNL     1     -34.614  14.303  -4.009  1.00 20.00     0.005 A 
ENDBRANCH   2   3
BRANCH   2   6
HETATM    6  C7  UNL     1     -32.945  17.502  -2.476  1.00 20.00     0.004 C 
BRANCH   6   7
HETATM    7  C6  UNL     1     -32.834  18.234  -1.137  1.00 20.00    -0.004 C 
HETATM    8  C4  UNL     1     -31.390  18.311  -0.665  1.00 20.00     0.005 C 
ENDBRANCH   6   7
ENDBRANCH   2   6
TORSDOF 3
ENDMDL
MODEL 7
REMARK VINA RESULT:      -3.8      1.020      2.323
REMARK  3 active torsions:
REMARK  status: ('A' for Active; 'I' for Inactive)
REMARK    1  A    between atoms: C3_3  and  C8_8 
REMARK    2  A    between atoms: C6_6  and  C7_7 
REMARK    3  A    between atoms: C7_7  and  C8_8 
ROOT
HETATM    1  C5  UNL     1     -33.580   6.985   5.754  1.00 20.00     0.010 C 
HETATM    2  C8  UNL     1     -34.071   6.882   4.308  1.00 20.00    -0.014 C 
ENDROOT
BRANCH   2   3
HETATM    3  C3  UNL     1     -32.886   6.607   3.380  1.00 20.00    -0.011 A 
HETATM    4  C1  UNL     1     -32.677   7.445   2.148  1.00 20.00     0.005 A 
HETATM    5  C2  UNL     1     -31.737   7.575   3.314  1.00 20.00     0.005 A 
ENDBRANCH   2   3
BRANCH   2   6
HETATM    6  C7  UNL     1     -35.141   5.790   4.127  1.00 20.00     0.004 C 
BRANCH   6   7
HETATM    7  C6  UNL     1     -34.708   4.419   4.653  1.00 20.00    -0.004 C 
HETATM    8  C4  UNL     1     -33.916   3.649   3.608  1.00 20.00     0.005 C 
ENDBRANCH   6   7
ENDBRANCH   2   6
TORSDOF 3
ENDMDL
MODEL 8
REMARK VINA RESULT:      -3.8     15.564     16.547
REMARK  3 active torsions:
REMARK  status: ('A' for Active; 'I' for Inactive)
REMARK    1  A    between atoms: C3_3  and  C8_8 
REMARK    2  A    between atoms: C6_6  and  C7_7 
REMARK    3  A    between atoms: C7_7  and  C8_8 
ROOT
HETATM    1  C5  UNL     1     -24.516  15.767  11.646  1.00 20.00     0.010 C 
HETATM    2  C8  UNL     1     -23.883  17.157  11.541  1.00 20.00    -0.014 C 
ENDROOT
BRANCH   2   3
HETATM    3  C3  UNL     1     -23.787  17.568  10.070  1.00 20.00    -0.011 A 
HETATM    4  C1  UNL     1     -22.598  18.346   9.577  1.00 20.00     0.005 A 
HETATM    5  C2  UNL     1     -22.782  16.912   9.165  1.00 20.00     0.005 A 
ENDBRANCH   2   3
BRANCH   2   6
HETATM    6  C7  UNL     1     -24.666  18.220  12.332  1.00 20.00     0.004 C 
BRANCH   6   7
HETATM    7  C6  UNL     1     -25.844  18.812  11.555  1.00 20.00    -0.004 C 
HETATM    8  C4  UNL     1     -27.174  18.329  12.112  1.00 20.00     0.005 C 
ENDBRANCH   6   7
ENDBRANCH   2   6
TORSDOF 3
ENDMDL
MODEL 9
REMARK VINA RESULT:      -3.7     11.420     12.433
REMARK  3 active torsions:
REMARK  status: ('A' for Active; 'I' for Inactive)
REMARK    1  A    between atoms: C3_3  and  C8_8 
REMARK    2  A    between atoms: C6_6  and  C7_7 
REMARK    3  A    between atoms: C7_7  and  C8_8 
ROOT
HETATM    1  C5  UNL     1     -33.157  14.412  -4.389  1.00 20.00     0.010 C 
HETATM    2  C8  UNL     1     -34.498  14.492  -3.654  1.00 20.00    -0.014 C 
ENDROOT
BRANCH   2   3
HETATM    3  C3  UNL     1     -34.752  15.932  -3.203  1.00 20.00    -0.011 A 
HETATM    4  C1  UNL     1     -35.028  16.235  -1.756  1.00 20.00     0.005 A 
HETATM    5  C2  UNL     1     -33.726  16.658  -2.376  1.00 20.00     0.005 A 
ENDBRANCH   2   3
BRANCH   2   6
HETATM    6  C7  UNL     1     -35.672  14.001  -4.520  1.00 20.00     0.004 C 
BRANCH   6   7
HETATM    7  C6  UNL     1     -36.323  15.110  -5.350  1.00 20.00    -0.004 C 
HETATM    8  C4  UNL     1     -35.850  15.071  -6.795  1.00 20.00     0.005 C 
ENDBRANCH   6   7
ENDBRANCH   2   6
TORSDOF 3
ENDMDL
