MODEL 1
REMARK VINA RESULT:      -3.7      0.000      0.000
REMARK  0 active torsions:
REMARK  status: ('A' for Active; 'I' for Inactive)
ROOT
HETATM    1  C1  UNL     1     -33.330   6.553   3.456  1.00 20.00     0.111 C 
HETATM    2  C2  UNL     1     -35.109   5.159   4.293  1.00 20.00     0.049 C 
HETATM    3  C3  UNL     1     -34.181   6.099   4.498  1.00 20.00     0.104 C 
HETATM    4  N4  UNL     1     -32.634   6.926   2.605  1.00 20.00    -0.190 NA
HETATM    5 CL5  UNL     1     -33.969   6.806   6.057  1.00 20.00    -0.073 Cl
ENDROOT
TORSDOF 0
ENDMDL
MODEL 2
REMARK VINA RESULT:      -3.6      1.425      1.690
REMARK  0 active torsions:
REMARK  status: ('A' for Active; 'I' for Inactive)
ROOT
HETATM    1  C1  UNL     1     -33.264   6.651   3.522  1.00 20.00     0.111 C 
HETATM    2  C2  UNL     1     -33.925   6.827   5.833  1.00 20.00     0.049 C 
HETATM    3  C3  UNL     1     -34.058   6.258   4.631  1.00 20.00     0.104 C 
HETATM    4  N4  UNL     1     -32.615   6.972   2.614  1.00 20.00    -0.190 NA
HETATM    5 CL5  UNL     1     -35.218   5.009   4.368  1.00 20.00    -0.073 Cl
ENDROOT
TORSDOF 0
ENDMDL
MODEL 3
REMARK VINA RESULT:      -3.2     11.308     11.612
REMARK  0 active torsions:
REMARK  status: ('A' for Active; 'I' for Inactive)
ROOT
HETATM    1  C1  UNL     1     -35.262  13.748  -4.116  1.00 20.00     0.111 C 
HETATM    2  C2  UNL     1     -33.231  15.044  -4.113  1.00 20.00     0.049 C 
HETATM    3  C3  UNL     1     -34.442  14.788  -3.608  1.00 20.00     0.104 C 
HETATM    4  N4  UNL     1     -35.935  12.897  -4.531  1.00 20.00    -0.190 NA
HETATM    5 CL5  UNL     1     -35.070  15.725  -2.303  1.00 20.00    -0.073 Cl
ENDROOT
TORSDOF 0
ENDMDL
MODEL 4
REMARK VINA RESULT:      -3.2      2.563      3.063
REMARK  0 active torsions:
REMARK  status: ('A' for Active; 'I' for Inactive)
ROOT
HETATM    1  C1  UNL     1     -33.592   6.596   4.391  1.00 20.00     0.111 C 
HETATM    2  C2  UNL     1     -32.505   7.293   2.356  1.00 20.00     0.049 C 
HETATM    3  C3  UNL     1     -33.096   6.341   3.086  1.00 20.00     0.104 C 
HETATM    4  N4  UNL     1     -33.999   6.802   5.458  1.00 20.00    -0.190 NA
HETATM    5 CL5  UNL     1     -33.280   4.742   2.467  1.00 20.00    -0.073 Cl
ENDROOT
TORSDOF 0
ENDMDL
MODEL 5
REMARK VINA RESULT:      -3.2     11.475     11.658
REMARK  0 active torsions:
REMARK  status: ('A' for Active; 'I' for Inactive)
ROOT
HETATM    1  C1  UNL     1     -35.252  13.732  -4.113  1.00 20.00     0.111 C 
HETATM    2  C2  UNL     1     -34.879  15.634  -2.682  1.00 20.00     0.049 C 
HETATM    3  C3  UNL     1     -34.428  14.762  -3.589  1.00 20.00     0.104 C 
HETATM    4  N4  UNL     1     -35.924  12.888  -4.543  1.00 20.00    -0.190 NA
HETATM    5 CL5  UNL     1     -32.806  14.849  -4.168  1.00 20.00    -0.073 Cl
ENDROOT
TORSDOF 0
ENDMDL
MODEL 6
REMARK VINA RESULT:      -3.2      2.560      2.757
REMARK  0 active torsions:
REMARK  status: ('A' for Active; 'I' for Inactive)
ROOT
HETATM    1  C1  UNL     1     -33.650   6.526   4.368  1.00 20.00     0.111 C 
HETATM    2  C2  UNL     1     -33.378   4.969   2.549  1.00 20.00     0.049 C 
HETATM    3  C3  UNL     1     -33.218   6.195   3.058  1.00 20.00     0.104 C 
HETATM    4  N4  UNL     1     -34.003   6.799   5.440  1.00 20.00    -0.190 NA
HETATM    5 CL5  UNL     1     -32.474   7.445   2.130  1.00 20.00    -0.073 Cl
ENDROOT
TORSDOF 0
ENDMDL
MODEL 7
REMARK VINA RESULT:      -3.1      2.437      2.783
REMARK  0 active torsions:
REMARK  status: ('A' for Active; 'I' for Inactive)
ROOT
HETATM    1  C1  UNL     1     -34.605   5.373   4.439  1.00 20.00     0.111 C 
HETATM    2  C2  UNL     1     -33.601   7.173   5.687  1.00 20.00     0.049 C 
HETATM    3  C3  UNL     1     -33.735   6.488   4.546  1.00 20.00     0.104 C 
HETATM    4  N4  UNL     1     -35.317   4.459   4.349  1.00 20.00    -0.190 NA
HETATM    5 CL5  UNL     1     -32.842   6.933   3.140  1.00 20.00    -0.073 Cl
ENDROOT
TORSDOF 0
ENDMDL
MODEL 8
REMARK VINA RESULT:      -3.0     16.730     17.143
REMARK  0 active torsions:
REMARK  status: ('A' for Active; 'I' for Inactive)
ROOT
HETATM    1  C1  UNL     1     -22.516  18.391   9.694  1.00 20.00     0.111 C 
HETATM    2  C2  UNL     1     -23.985  16.609  10.383  1.00 20.00     0.049 C 
HETATM    3  C3  UNL     1     -23.050  17.518  10.677  1.00 20.00     0.104 C 
HETATM    4  N4  UNL     1     -22.078  19.106   8.891  1.00 20.00    -0.190 NA
HETATM    5 CL5  UNL     1     -22.441  17.670  12.284  1.00 20.00    -0.073 Cl
ENDROOT
TORSDOF 0
ENDMDL
MODEL 9
REMARK VINA RESULT:      -3.0      1.883      2.414
REMARK  0 active torsions:
REMARK  status: ('A' for Active; 'I' for Inactive)
ROOT
HETATM    1  C1  UNL     1     -34.414   5.297   4.203  1.00 20.00     0.111 C 
HETATM    2  C2  UNL     1     -32.942   6.798   3.026  1.00 20.00     0.049 C 
HETATM    3  C3  UNL     1     -33.569   6.436   4.149  1.00 20.00     0.104 C 
HETATM    4  N4  UNL     1     -35.106   4.366   4.250  1.00 20.00    -0.190 NA
HETATM    5 CL5  UNL     1     -33.380   7.350   5.600  1.00 20.00    -0.073 Cl
ENDROOT
TORSDOF 0
ENDMDL
