MODEL 1
REMARK VINA RESULT:      -4.4      0.000      0.000
REMARK  4 active torsions:
REMARK  status: ('A' for Active; 'I' for Inactive)
REMARK    1  A    between atoms: C1_1  and  C9_9 
REMARK    2  A    between atoms: C2_2  and  C7_7 
REMARK    3  A    between atoms: C2_2  and  C9_9 
REMARK    4  A    between atoms: C7_7  and  C8_8 
ROOT
HETATM    1  C5  UNL     1     -24.297  15.888  11.292  1.00 20.00     0.031 C 
HETATM    2  C6  UNL     1     -22.804  17.668  12.220  1.00 20.00     0.031 C 
HETATM    3  C9  UNL     1     -23.631  17.239  10.995  1.00 20.00     0.073 C 
ENDROOT
BRANCH   3   4
HETATM    4  C1  UNL     1     -22.664  17.155   9.800  1.00 20.00     0.138 C 
HETATM    5  C3  UNL     1     -21.590  18.206   9.661  1.00 20.00     0.092 C 
HETATM    6  O10 UNL     1     -22.777  16.273   8.945  1.00 20.00    -0.297 OA
ENDBRANCH   3   4
BRANCH   3   7
HETATM    7  C2  UNL     1     -24.741  18.285  10.735  1.00 20.00     0.142 C 
HETATM    8  O11 UNL     1     -25.047  18.632   9.594  1.00 20.00    -0.297 OA
BRANCH   7   9
HETATM    9  C7  UNL     1     -25.433  18.888  11.955  1.00 20.00     0.079 C 
BRANCH   9  10
HETATM   10  C8  UNL     1     -26.957  18.892  11.847  1.00 20.00     0.003 C 
HETATM   11  C4  UNL     1     -27.579  17.590  12.332  1.00 20.00     0.005 C 
ENDBRANCH   9  10
ENDBRANCH   7   9
ENDBRANCH   3   7
TORSDOF 4
ENDMDL
MODEL 2
REMARK VINA RESULT:      -4.4     17.900     18.615
REMARK  4 active torsions:
REMARK  status: ('A' for Active; 'I' for Inactive)
REMARK    1  A    between atoms: C1_1  and  C9_9 
REMARK    2  A    between atoms: C2_2  and  C7_7 
REMARK    3  A    between atoms: C2_2  and  C9_9 
REMARK    4  A    between atoms: C7_7  and  C8_8 
ROOT
HETATM    1  C5  UNL     1     -33.530  14.276  -4.217  1.00 20.00     0.031 C 
HETATM    2  C6  UNL     1     -34.812  15.297  -6.106  1.00 20.00     0.031 C 
HETATM    3  C9  UNL     1     -34.884  14.869  -4.631  1.00 20.00     0.073 C 
ENDROOT
BRANCH   3   4
HETATM    4  C1  UNL     1     -36.025  13.841  -4.510  1.00 20.00     0.138 C 
HETATM    5  C3  UNL     1     -37.440  14.344  -4.353  1.00 20.00     0.092 C 
HETATM    6  O10 UNL     1     -35.797  12.629  -4.501  1.00 20.00    -0.297 OA
ENDBRANCH   3   4
BRANCH   3   7
HETATM    7  C2  UNL     1     -35.163  16.110  -3.751  1.00 20.00     0.142 C 
HETATM    8  O11 UNL     1     -35.537  17.177  -4.238  1.00 20.00    -0.297 OA
BRANCH   7   9
HETATM    9  C7  UNL     1     -34.938  15.967  -2.247  1.00 20.00     0.079 C 
BRANCH   9  10
HETATM   10  C8  UNL     1     -34.246  17.175  -1.620  1.00 20.00     0.003 C 
HETATM   11  C4  UNL     1     -32.814  17.345  -2.108  1.00 20.00     0.005 C 
ENDBRANCH   9  10
ENDBRANCH   7   9
ENDBRANCH   3   7
TORSDOF 4
ENDMDL
MODEL 3
REMARK VINA RESULT:      -4.4     18.016     18.749
REMARK  4 active torsions:
REMARK  status: ('A' for Active; 'I' for Inactive)
REMARK    1  A    between atoms: C1_1  and  C9_9 
REMARK    2  A    between atoms: C2_2  and  C7_7 
REMARK    3  A    between atoms: C2_2  and  C9_9 
REMARK    4  A    between atoms: C7_7  and  C8_8 
ROOT
HETATM    1  C5  UNL     1     -34.584  14.847  -6.456  1.00 20.00     0.031 C 
HETATM    2  C6  UNL     1     -35.836  16.438  -4.987  1.00 20.00     0.031 C 
HETATM    3  C9  UNL     1     -35.129  15.073  -5.039  1.00 20.00     0.073 C 
ENDROOT
BRANCH   3   4
HETATM    4  C1  UNL     1     -36.168  14.007  -4.644  1.00 20.00     0.138 C 
HETATM    5  C3  UNL     1     -37.559  14.456  -4.267  1.00 20.00     0.092 C 
HETATM    6  O10 UNL     1     -35.872  12.811  -4.595  1.00 20.00    -0.297 OA
ENDBRANCH   3   4
BRANCH   3   7
HETATM    7  C2  UNL     1     -33.938  15.075  -4.052  1.00 20.00     0.142 C 
HETATM    8  O11 UNL     1     -32.874  14.515  -4.321  1.00 20.00    -0.297 OA
BRANCH   7   9
HETATM    9  C7  UNL     1     -34.137  15.787  -2.716  1.00 20.00     0.079 C 
BRANCH   9  10
HETATM   10  C8  UNL     1     -33.126  16.903  -2.466  1.00 20.00     0.003 C 
HETATM   11  C4  UNL     1     -33.495  17.766  -1.267  1.00 20.00     0.005 C 
ENDBRANCH   9  10
ENDBRANCH   7   9
ENDBRANCH   3   7
TORSDOF 4
ENDMDL
MODEL 4
REMARK VINA RESULT:      -4.3     17.132     17.806
REMARK  4 active torsions:
REMARK  status: ('A' for Active; 'I' for Inactive)
REMARK    1  A    between atoms: C1_1  and  C9_9 
REMARK    2  A    between atoms: C2_2  and  C7_7 
REMARK    3  A    between atoms: C2_2  and  C9_9 
REMARK    4  A    between atoms: C7_7  and  C8_8 
ROOT
HETATM    1  C5  UNL     1     -32.810  14.412  -4.476  1.00 20.00     0.031 C 
HETATM    2  C6  UNL     1     -34.600  15.876  -5.425  1.00 20.00     0.031 C 
HETATM    3  C9  UNL     1     -34.225  14.961  -4.248  1.00 20.00     0.073 C 
ENDROOT
BRANCH   3   4
HETATM    4  C1  UNL     1     -35.277  13.838  -4.189  1.00 20.00     0.138 C 
HETATM    5  C3  UNL     1     -36.730  14.196  -4.384  1.00 20.00     0.092 C 
HETATM    6  O10 UNL     1     -34.956  12.671  -3.952  1.00 20.00    -0.297 OA
ENDBRANCH   3   4
BRANCH   3   7
HETATM    7  C2  UNL     1     -34.223  15.786  -2.938  1.00 20.00     0.142 C 
HETATM    8  O11 UNL     1     -35.107  15.653  -2.091  1.00 20.00    -0.297 OA
BRANCH   7   9
HETATM    9  C7  UNL     1     -33.089  16.789  -2.745  1.00 20.00     0.079 C 
BRANCH   9  10
HETATM   10  C8  UNL     1     -33.261  17.668  -1.507  1.00 20.00     0.003 C 
HETATM   11  C4  UNL     1     -31.936  18.199  -0.981  1.00 20.00     0.005 C 
ENDBRANCH   9  10
ENDBRANCH   7   9
ENDBRANCH   3   7
TORSDOF 4
ENDMDL
MODEL 5
REMARK VINA RESULT:      -4.0     18.491     19.198
REMARK  4 active torsions:
REMARK  status: ('A' for Active; 'I' for Inactive)
REMARK    1  A    between atoms: C1_1  and  C9_9 
REMARK    2  A    between atoms: C2_2  and  C7_7 
REMARK    3  A    between atoms: C2_2  and  C9_9 
REMARK    4  A    between atoms: C7_7  and  C8_8 
ROOT
HETATM    1  C5  UNL     1     -36.349  16.594  -4.482  1.00 20.00     0.031 C 
HETATM    2  C6  UNL     1     -37.306  14.285  -4.559  1.00 20.00     0.031 C 
HETATM    3  C9  UNL     1     -36.037  15.123  -4.787  1.00 20.00     0.073 C 
ENDROOT
BRANCH   3   4
HETATM    4  C1  UNL     1     -35.612  14.916  -6.253  1.00 20.00     0.138 C 
HETATM    5  C3  UNL     1     -34.379  15.627  -6.758  1.00 20.00     0.092 C 
HETATM    6  O10 UNL     1     -36.278  14.218  -7.021  1.00 20.00    -0.297 OA
ENDBRANCH   3   4
BRANCH   3   7
HETATM    7  C2  UNL     1     -34.928  14.647  -3.818  1.00 20.00     0.142 C 
HETATM    8  O11 UNL     1     -34.430  13.524  -3.907  1.00 20.00    -0.297 OA
BRANCH   7   9
HETATM    9  C7  UNL     1     -34.485  15.622  -2.730  1.00 20.00     0.079 C 
BRANCH   9  10
HETATM   10  C8  UNL     1     -33.143  16.288  -3.022  1.00 20.00     0.003 C 
HETATM   11  C4  UNL     1     -32.891  17.503  -2.139  1.00 20.00     0.005 C 
ENDBRANCH   9  10
ENDBRANCH   7   9
ENDBRANCH   3   7
TORSDOF 4
ENDMDL
MODEL 6
REMARK VINA RESULT:      -4.0     18.479     19.143
REMARK  4 active torsions:
REMARK  status: ('A' for Active; 'I' for Inactive)
REMARK    1  A    between atoms: C1_1  and  C9_9 
REMARK    2  A    between atoms: C2_2  and  C7_7 
REMARK    3  A    between atoms: C2_2  and  C9_9 
REMARK    4  A    between atoms: C7_7  and  C8_8 
ROOT
HETATM    1  C5  UNL     1     -35.161  15.841  -2.205  1.00 20.00     0.031 C 
HETATM    2  C6  UNL     1     -33.083  15.766  -3.594  1.00 20.00     0.031 C 
HETATM    3  C9  UNL     1     -34.610  15.586  -3.615  1.00 20.00     0.073 C 
ENDROOT
BRANCH   3   4
HETATM    4  C1  UNL     1     -34.894  14.150  -4.094  1.00 20.00     0.138 C 
HETATM    5  C3  UNL     1     -36.304  13.783  -4.488  1.00 20.00     0.092 C 
HETATM    6  O10 UNL     1     -34.004  13.297  -4.123  1.00 20.00    -0.297 OA
ENDBRANCH   3   4
BRANCH   3   7
HETATM    7  C2  UNL     1     -35.235  16.623  -4.579  1.00 20.00     0.142 C 
HETATM    8  O11 UNL     1     -36.343  17.117  -4.367  1.00 20.00    -0.297 OA
BRANCH   7   9
HETATM    9  C7  UNL     1     -34.428  17.000  -5.819  1.00 20.00     0.079 C 
BRANCH   9  10
HETATM   10  C8  UNL     1     -34.889  16.280  -7.084  1.00 20.00     0.003 C 
HETATM   11  C4  UNL     1     -33.905  15.210  -7.537  1.00 20.00     0.005 C 
ENDBRANCH   9  10
ENDBRANCH   7   9
ENDBRANCH   3   7
TORSDOF 4
ENDMDL
MODEL 7
REMARK VINA RESULT:      -3.9     18.306     19.022
REMARK  4 active torsions:
REMARK  status: ('A' for Active; 'I' for Inactive)
REMARK    1  A    between atoms: C1_1  and  C9_9 
REMARK    2  A    between atoms: C2_2  and  C7_7 
REMARK    3  A    between atoms: C2_2  and  C9_9 
REMARK    4  A    between atoms: C7_7  and  C8_8 
ROOT
HETATM    1  C5  UNL     1     -34.945  15.547  -2.659  1.00 20.00     0.031 C 
HETATM    2  C6  UNL     1     -33.550  14.243  -4.273  1.00 20.00     0.031 C 
HETATM    3  C9  UNL     1     -34.888  14.978  -4.083  1.00 20.00     0.073 C 
ENDROOT
BRANCH   3   4
HETATM    4  C1  UNL     1     -36.010  13.955  -4.341  1.00 20.00     0.138 C 
HETATM    5  C3  UNL     1     -37.440  14.438  -4.368  1.00 20.00     0.092 C 
HETATM    6  O10 UNL     1     -35.762  12.755  -4.486  1.00 20.00    -0.297 OA
ENDBRANCH   3   4
BRANCH   3   7
HETATM    7  C2  UNL     1     -34.973  16.155  -5.084  1.00 20.00     0.142 C 
HETATM    8  O11 UNL     1     -34.839  15.983  -6.296  1.00 20.00    -0.297 OA
BRANCH   7   9
HETATM    9  C7  UNL     1     -35.211  17.548  -4.507  1.00 20.00     0.079 C 
BRANCH   9  10
HETATM   10  C8  UNL     1     -34.085  18.532  -4.815  1.00 20.00     0.003 C 
HETATM   11  C4  UNL     1     -32.955  18.462  -3.797  1.00 20.00     0.005 C 
ENDBRANCH   9  10
ENDBRANCH   7   9
ENDBRANCH   3   7
TORSDOF 4
ENDMDL
MODEL 8
REMARK VINA RESULT:      -3.9     18.292     18.885
REMARK  4 active torsions:
REMARK  status: ('A' for Active; 'I' for Inactive)
REMARK    1  A    between atoms: C1_1  and  C9_9 
REMARK    2  A    between atoms: C2_2  and  C7_7 
REMARK    3  A    between atoms: C2_2  and  C9_9 
REMARK    4  A    between atoms: C7_7  and  C8_8 
ROOT
HETATM    1  C5  UNL     1     -36.873  15.046  -4.256  1.00 20.00     0.031 C 
HETATM    2  C6  UNL     1     -34.712  13.821  -3.964  1.00 20.00     0.031 C 
HETATM    3  C9  UNL     1     -35.400  14.994  -4.683  1.00 20.00     0.073 C 
ENDROOT
BRANCH   3   4
HETATM    4  C1  UNL     1     -35.246  14.753  -6.196  1.00 20.00     0.138 C 
HETATM    5  C3  UNL     1     -33.910  15.028  -6.842  1.00 20.00     0.092 C 
HETATM    6  O10 UNL     1     -36.199  14.381  -6.886  1.00 20.00    -0.297 OA
ENDBRANCH   3   4
BRANCH   3   7
HETATM    7  C2  UNL     1     -34.722  16.320  -4.263  1.00 20.00     0.142 C 
HETATM    8  O11 UNL     1     -35.102  17.407  -4.702  1.00 20.00    -0.297 OA
BRANCH   7   9
HETATM    9  C7  UNL     1     -33.547  16.229  -3.293  1.00 20.00     0.079 C 
BRANCH   9  10
HETATM   10  C8  UNL     1     -33.778  16.988  -1.988  1.00 20.00     0.003 C 
HETATM   11  C4  UNL     1     -35.092  16.609  -1.318  1.00 20.00     0.005 C 
ENDBRANCH   9  10
ENDBRANCH   7   9
ENDBRANCH   3   7
TORSDOF 4
ENDMDL
MODEL 9
REMARK VINA RESULT:      -3.9     18.053     18.687
REMARK  4 active torsions:
REMARK  status: ('A' for Active; 'I' for Inactive)
REMARK    1  A    between atoms: C1_1  and  C9_9 
REMARK    2  A    between atoms: C2_2  and  C7_7 
REMARK    3  A    between atoms: C2_2  and  C9_9 
REMARK    4  A    between atoms: C7_7  and  C8_8 
ROOT
HETATM    1  C5  UNL     1     -34.339  16.145  -5.404  1.00 20.00     0.031 C 
HETATM    2  C6  UNL     1     -32.608  14.687  -4.341  1.00 20.00     0.031 C 
HETATM    3  C9  UNL     1     -34.061  15.182  -4.242  1.00 20.00     0.073 C 
ENDROOT
BRANCH   3   4
HETATM    4  C1  UNL     1     -34.216  15.870  -2.873  1.00 20.00     0.138 C 
HETATM    5  C3  UNL     1     -33.143  16.829  -2.418  1.00 20.00     0.092 C 
HETATM    6  O10 UNL     1     -35.173  15.621  -2.136  1.00 20.00    -0.297 OA
ENDBRANCH   3   4
BRANCH   3   7
HETATM    7  C2  UNL     1     -35.022  13.976  -4.367  1.00 20.00     0.142 C 
HETATM    8  O11 UNL     1     -34.753  12.881  -3.872  1.00 20.00    -0.297 OA
BRANCH   7   9
HETATM    9  C7  UNL     1     -36.316  14.191  -5.147  1.00 20.00     0.079 C 
BRANCH   9  10
HETATM   10  C8  UNL     1     -37.531  14.430  -4.254  1.00 20.00     0.003 C 
HETATM   11  C4  UNL     1     -38.168  15.793  -4.486  1.00 20.00     0.005 C 
ENDBRANCH   9  10
ENDBRANCH   7   9
ENDBRANCH   3   7
TORSDOF 4
ENDMDL
