MODEL 1
REMARK VINA RESULT:      -3.7      0.000      0.000
REMARK  3 active torsions:
REMARK  status: ('A' for Active; 'I' for Inactive)
REMARK    1  A    between atoms: C6_6  and  C7_7 
REMARK    2  A    between atoms: C6_6  and  C8_8 
REMARK    3  A    between atoms: C7_7  and  C9_9 
ROOT
HETATM    1  C7  UNL     1     -33.976  15.201  -4.015  1.00 20.00     0.008 C 
ENDROOT
BRANCH   1   2
HETATM    2  C6  UNL     1     -34.932  14.020  -3.787  1.00 20.00     0.004 C 
BRANCH   2   3
HETATM    3  C8  UNL     1     -36.023  13.902  -4.872  1.00 20.00    -0.023 C 
HETATM    4  C1  UNL     1     -35.628  14.594  -6.177  1.00 20.00     0.009 C 
HETATM    5  C2  UNL     1     -37.336  14.491  -4.353  1.00 20.00     0.009 C 
ENDBRANCH   2   3
ENDBRANCH   1   2
BRANCH   1   6
HETATM    6  C9  UNL     1     -34.211  16.441  -3.110  1.00 20.00    -0.051 C 
HETATM    7  C3  UNL     1     -35.067  16.082  -1.884  1.00 20.00     0.014 C 
HETATM    8  C4  UNL     1     -34.962  17.503  -3.937  1.00 20.00     0.014 C 
HETATM    9  C5  UNL     1     -32.879  17.048  -2.638  1.00 20.00     0.014 C 
ENDBRANCH   1   6
TORSDOF 3
ENDMDL
MODEL 2
REMARK VINA RESULT:      -3.7      0.049      1.442
REMARK  3 active torsions:
REMARK  status: ('A' for Active; 'I' for Inactive)
REMARK    1  A    between atoms: C6_6  and  C7_7 
REMARK    2  A    between atoms: C6_6  and  C8_8 
REMARK    3  A    between atoms: C7_7  and  C9_9 
ROOT
HETATM    1  C7  UNL     1     -34.001  15.188  -4.028  1.00 20.00     0.008 C 
ENDROOT
BRANCH   1   2
HETATM    2  C6  UNL     1     -34.946  13.999  -3.801  1.00 20.00     0.004 C 
BRANCH   2   3
HETATM    3  C8  UNL     1     -36.054  13.890  -4.870  1.00 20.00    -0.023 C 
HETATM    4  C1  UNL     1     -35.678  14.588  -6.177  1.00 20.00     0.009 C 
HETATM    5  C2  UNL     1     -37.357  14.481  -4.326  1.00 20.00     0.009 C 
ENDBRANCH   2   3
ENDBRANCH   1   2
BRANCH   1   6
HETATM    6  C9  UNL     1     -34.271  16.440  -3.149  1.00 20.00    -0.051 C 
HETATM    7  C3  UNL     1     -35.012  17.528  -3.944  1.00 20.00     0.014 C 
HETATM    8  C4  UNL     1     -32.913  17.007  -2.693  1.00 20.00     0.014 C 
HETATM    9  C5  UNL     1     -35.090  16.079  -1.899  1.00 20.00     0.014 C 
ENDBRANCH   1   6
TORSDOF 3
ENDMDL
MODEL 3
REMARK VINA RESULT:      -3.7     11.029     12.435
REMARK  3 active torsions:
REMARK  status: ('A' for Active; 'I' for Inactive)
REMARK    1  A    between atoms: C6_6  and  C7_7 
REMARK    2  A    between atoms: C6_6  and  C8_8 
REMARK    3  A    between atoms: C7_7  and  C9_9 
ROOT
HETATM    1  C7  UNL     1     -33.782   6.430   3.967  1.00 20.00     0.008 C 
ENDROOT
BRANCH   1   2
HETATM    2  C6  UNL     1     -33.281   6.216   2.530  1.00 20.00     0.004 C 
BRANCH   2   3
HETATM    3  C8  UNL     1     -32.147   7.184   2.130  1.00 20.00    -0.023 C 
HETATM    4  C1  UNL     1     -31.507   7.867   3.338  1.00 20.00     0.009 C 
HETATM    5  C2  UNL     1     -32.687   8.242   1.165  1.00 20.00     0.009 C 
ENDBRANCH   2   3
ENDBRANCH   1   2
BRANCH   1   6
HETATM    6  C9  UNL     1     -34.656   5.288   4.552  1.00 20.00    -0.051 C 
HETATM    7  C3  UNL     1     -34.113   3.907   4.147  1.00 20.00     0.014 C 
HETATM    8  C4  UNL     1     -36.082   5.438   3.986  1.00 20.00     0.014 C 
HETATM    9  C5  UNL     1     -34.733   5.372   6.086  1.00 20.00     0.014 C 
ENDBRANCH   1   6
TORSDOF 3
ENDMDL
MODEL 4
REMARK VINA RESULT:      -3.7      0.041      1.446
REMARK  3 active torsions:
REMARK  status: ('A' for Active; 'I' for Inactive)
REMARK    1  A    between atoms: C6_6  and  C7_7 
REMARK    2  A    between atoms: C6_6  and  C8_8 
REMARK    3  A    between atoms: C7_7  and  C9_9 
ROOT
HETATM    1  C7  UNL     1     -33.994  15.184  -4.023  1.00 20.00     0.008 C 
ENDROOT
BRANCH   1   2
HETATM    2  C6  UNL     1     -34.971  14.025  -3.773  1.00 20.00     0.004 C 
BRANCH   2   3
HETATM    3  C8  UNL     1     -36.058  13.901  -4.861  1.00 20.00    -0.023 C 
HETATM    4  C1  UNL     1     -35.664  14.593  -6.165  1.00 20.00     0.009 C 
HETATM    5  C2  UNL     1     -37.375  14.486  -4.344  1.00 20.00     0.009 C 
ENDBRANCH   2   3
ENDBRANCH   1   2
BRANCH   1   6
HETATM    6  C9  UNL     1     -34.224  16.455  -3.160  1.00 20.00    -0.051 C 
HETATM    7  C3  UNL     1     -32.891  17.041  -2.666  1.00 20.00     0.014 C 
HETATM    8  C4  UNL     1     -35.066  16.055  -1.933  1.00 20.00     0.014 C 
HETATM    9  C5  UNL     1     -34.991  17.532  -3.945  1.00 20.00     0.014 C 
ENDBRANCH   1   6
TORSDOF 3
ENDMDL
MODEL 5
REMARK VINA RESULT:      -3.6     11.042     12.481
REMARK  3 active torsions:
REMARK  status: ('A' for Active; 'I' for Inactive)
REMARK    1  A    between atoms: C6_6  and  C7_7 
REMARK    2  A    between atoms: C6_6  and  C8_8 
REMARK    3  A    between atoms: C7_7  and  C9_9 
ROOT
HETATM    1  C7  UNL     1     -33.778   6.408   3.981  1.00 20.00     0.008 C 
ENDROOT
BRANCH   1   2
HETATM    2  C6  UNL     1     -33.266   6.192   2.549  1.00 20.00     0.004 C 
BRANCH   2   3
HETATM    3  C8  UNL     1     -32.141   7.169   2.150  1.00 20.00    -0.023 C 
HETATM    4  C1  UNL     1     -31.519   7.870   3.358  1.00 20.00     0.009 C 
HETATM    5  C2  UNL     1     -32.685   8.213   1.172  1.00 20.00     0.009 C 
ENDBRANCH   2   3
ENDBRANCH   1   2
BRANCH   1   6
HETATM    6  C9  UNL     1     -34.694   5.288   4.545  1.00 20.00    -0.051 C 
HETATM    7  C3  UNL     1     -34.735   5.324   6.082  1.00 20.00     0.014 C 
HETATM    8  C4  UNL     1     -34.118   3.929   4.102  1.00 20.00     0.014 C 
HETATM    9  C5  UNL     1     -36.126   5.409   3.997  1.00 20.00     0.014 C 
ENDBRANCH   1   6
TORSDOF 3
ENDMDL
MODEL 6
REMARK VINA RESULT:      -3.6      1.390      3.724
REMARK  3 active torsions:
REMARK  status: ('A' for Active; 'I' for Inactive)
REMARK    1  A    between atoms: C6_6  and  C7_7 
REMARK    2  A    between atoms: C6_6  and  C8_8 
REMARK    3  A    between atoms: C7_7  and  C9_9 
ROOT
HETATM    1  C7  UNL     1     -33.676  14.917  -5.015  1.00 20.00     0.008 C 
ENDROOT
BRANCH   1   2
HETATM    2  C6  UNL     1     -34.516  14.552  -3.782  1.00 20.00     0.004 C 
BRANCH   2   3
HETATM    3  C8  UNL     1     -34.450  15.615  -2.665  1.00 20.00    -0.023 C 
HETATM    4  C1  UNL     1     -35.688  16.512  -2.635  1.00 20.00     0.009 C 
HETATM    5  C2  UNL     1     -33.195  16.474  -2.842  1.00 20.00     0.009 C 
ENDBRANCH   2   3
ENDBRANCH   1   2
BRANCH   1   6
HETATM    6  C9  UNL     1     -34.475  15.412  -6.252  1.00 20.00    -0.051 C 
HETATM    7  C3  UNL     1     -34.705  16.931  -6.193  1.00 20.00     0.014 C 
HETATM    8  C4  UNL     1     -35.847  14.709  -6.248  1.00 20.00     0.014 C 
HETATM    9  C5  UNL     1     -33.752  15.058  -7.562  1.00 20.00     0.014 C 
ENDBRANCH   1   6
TORSDOF 3
ENDMDL
MODEL 7
REMARK VINA RESULT:      -3.5      1.522      4.239
REMARK  3 active torsions:
REMARK  status: ('A' for Active; 'I' for Inactive)
REMARK    1  A    between atoms: C6_6  and  C7_7 
REMARK    2  A    between atoms: C6_6  and  C8_8 
REMARK    3  A    between atoms: C7_7  and  C9_9 
ROOT
HETATM    1  C7  UNL     1     -34.653  15.611  -2.639  1.00 20.00     0.008 C 
ENDROOT
BRANCH   1   2
HETATM    2  C6  UNL     1     -33.656  16.727  -2.292  1.00 20.00     0.004 C 
BRANCH   2   3
HETATM    3  C8  UNL     1     -34.203  17.732  -1.256  1.00 20.00    -0.023 C 
HETATM    4  C1  UNL     1     -33.113  18.269  -0.329  1.00 20.00     0.009 C 
HETATM    5  C2  UNL     1     -35.306  17.070  -0.427  1.00 20.00     0.009 C 
ENDBRANCH   2   3
ENDBRANCH   1   2
BRANCH   1   6
HETATM    6  C9  UNL     1     -34.548  15.038  -4.079  1.00 20.00    -0.051 C 
HETATM    7  C3  UNL     1     -34.945  16.091  -5.127  1.00 20.00     0.014 C 
HETATM    8  C4  UNL     1     -35.519  13.846  -4.192  1.00 20.00     0.014 C 
HETATM    9  C5  UNL     1     -33.126  14.535  -4.378  1.00 20.00     0.014 C 
ENDBRANCH   1   6
TORSDOF 3
ENDMDL
MODEL 8
REMARK VINA RESULT:      -3.5      1.423      4.403
REMARK  3 active torsions:
REMARK  status: ('A' for Active; 'I' for Inactive)
REMARK    1  A    between atoms: C6_6  and  C7_7 
REMARK    2  A    between atoms: C6_6  and  C8_8 
REMARK    3  A    between atoms: C7_7  and  C9_9 
ROOT
HETATM    1  C7  UNL     1     -34.151  15.875  -2.651  1.00 20.00     0.008 C 
ENDROOT
BRANCH   1   2
HETATM    2  C6  UNL     1     -32.989  16.878  -2.567  1.00 20.00     0.004 C 
BRANCH   2   3
HETATM    3  C8  UNL     1     -33.234  18.008  -1.545  1.00 20.00    -0.023 C 
HETATM    4  C1  UNL     1     -32.001  18.304  -0.692  1.00 20.00     0.009 C 
HETATM    5  C2  UNL     1     -34.411  17.640  -0.639  1.00 20.00     0.009 C 
ENDBRANCH   2   3
ENDBRANCH   1   2
BRANCH   1   6
HETATM    6  C9  UNL     1     -34.360  15.202  -4.035  1.00 20.00    -0.051 C 
HETATM    7  C3  UNL     1     -35.495  14.166  -3.984  1.00 20.00     0.014 C 
HETATM    8  C4  UNL     1     -33.053  14.478  -4.418  1.00 20.00     0.014 C 
HETATM    9  C5  UNL     1     -34.672  16.244  -5.122  1.00 20.00     0.014 C 
ENDBRANCH   1   6
TORSDOF 3
ENDMDL
MODEL 9
REMARK VINA RESULT:      -3.5      1.219      4.007
REMARK  3 active torsions:
REMARK  status: ('A' for Active; 'I' for Inactive)
REMARK    1  A    between atoms: C6_6  and  C7_7 
REMARK    2  A    between atoms: C6_6  and  C8_8 
REMARK    3  A    between atoms: C7_7  and  C9_9 
ROOT
HETATM    1  C7  UNL     1     -34.508  14.989  -3.376  1.00 20.00     0.008 C 
ENDROOT
BRANCH   1   2
HETATM    2  C6  UNL     1     -33.191  15.773  -3.477  1.00 20.00     0.004 C 
BRANCH   2   3
HETATM    3  C8  UNL     1     -33.100  16.942  -2.473  1.00 20.00    -0.023 C 
HETATM    4  C1  UNL     1     -34.338  17.047  -1.583  1.00 20.00     0.009 C 
HETATM    5  C2  UNL     1     -32.895  18.257  -3.228  1.00 20.00     0.009 C 
ENDBRANCH   2   3
ENDBRANCH   1   2
BRANCH   1   6
HETATM    6  C9  UNL     1     -35.376  14.963  -4.664  1.00 20.00    -0.051 C 
HETATM    7  C3  UNL     1     -36.355  16.148  -4.699  1.00 20.00     0.014 C 
HETATM    8  C4  UNL     1     -36.191  13.655  -4.665  1.00 20.00     0.014 C 
HETATM    9  C5  UNL     1     -34.501  14.990  -5.928  1.00 20.00     0.014 C 
ENDBRANCH   1   6
TORSDOF 3
ENDMDL
