MODEL 1
REMARK VINA RESULT:      -4.6      0.000      0.000
REMARK  2 active torsions:
REMARK  status: ('A' for Active; 'I' for Inactive)
REMARK    1  A    between atoms: C1_1  and  C8_8 
REMARK    2  A    between atoms: C8_8  and  O10_10 
ROOT
HETATM    1  C1  UNL     1     -33.402  15.696  -3.579  1.00 20.00    -0.069 C 
HETATM    2  C2  UNL     1     -33.108  16.585  -2.827  1.00 20.00    -0.108 C 
HETATM    3  C9  UNL     1     -32.749  17.668  -1.911  1.00 20.00     0.112 C 
ENDROOT
BRANCH   1   4
HETATM    4  C8  UNL     1     -33.763  14.605  -4.502  1.00 20.00     0.121 C 
HETATM    5  C6  UNL     1     -34.956  13.805  -3.956  1.00 20.00     0.051 C 
HETATM    6  C4  UNL     1     -36.275  14.574  -4.031  1.00 20.00     0.004 C 
HETATM    7  C3  UNL     1     -36.547  15.087  -5.442  1.00 20.00     0.000 C 
HETATM    8  C5  UNL     1     -35.385  15.920  -5.975  1.00 20.00     0.004 C 
HETATM    9  C7  UNL     1     -34.064  15.155  -5.905  1.00 20.00     0.051 C 
BRANCH   4  10
HETATM   10  O10 UNL     1     -32.636  13.731  -4.591  1.00 20.00    -0.378 OA
HETATM   11  H24 UNL     1     -31.973  14.077  -3.974  1.00 20.00     0.211 HD
ENDBRANCH   4  10
ENDBRANCH   1   4
TORSDOF 2
ENDMDL
MODEL 2
REMARK VINA RESULT:      -4.4     11.390     13.308
REMARK  2 active torsions:
REMARK  status: ('A' for Active; 'I' for Inactive)
REMARK    1  A    between atoms: C1_1  and  C8_8 
REMARK    2  A    between atoms: C8_8  and  O10_10 
ROOT
HETATM    1  C1  UNL     1     -42.588   5.182  -0.723  1.00 20.00    -0.069 C 
HETATM    2  C2  UNL     1     -42.963   4.642  -1.729  1.00 20.00    -0.108 C 
HETATM    3  C9  UNL     1     -43.417   3.983  -2.953  1.00 20.00     0.112 C 
ENDROOT
BRANCH   1   4
HETATM    4  C8  UNL     1     -42.129   5.845   0.510  1.00 20.00     0.121 C 
HETATM    5  C6  UNL     1     -40.824   6.617   0.258  1.00 20.00     0.051 C 
HETATM    6  C4  UNL     1     -41.029   7.877  -0.582  1.00 20.00     0.004 C 
HETATM    7  C3  UNL     1     -42.104   8.781   0.014  1.00 20.00     0.000 C 
HETATM    8  C5  UNL     1     -43.417   8.033   0.225  1.00 20.00     0.004 C 
HETATM    9  C7  UNL     1     -43.219   6.773   1.067  1.00 20.00     0.051 C 
BRANCH   4  10
HETATM   10  O10 UNL     1     -41.870   4.822   1.474  1.00 20.00    -0.378 OA
HETATM   11  H24 UNL     1     -41.786   3.994   0.977  1.00 20.00     0.211 HD
ENDBRANCH   4  10
ENDBRANCH   1   4
TORSDOF 2
ENDMDL
MODEL 3
REMARK VINA RESULT:      -4.3      1.456      1.705
REMARK  2 active torsions:
REMARK  status: ('A' for Active; 'I' for Inactive)
REMARK    1  A    between atoms: C1_1  and  C8_8 
REMARK    2  A    between atoms: C8_8  and  O10_10 
ROOT
HETATM    1  C1  UNL     1     -34.933  15.210  -3.179  1.00 20.00    -0.069 C 
HETATM    2  C2  UNL     1     -34.966  15.939  -2.226  1.00 20.00    -0.108 C 
HETATM    3  C9  UNL     1     -35.008  16.829  -1.065  1.00 20.00     0.112 C 
ENDROOT
BRANCH   1   4
HETATM    4  C8  UNL     1     -34.891  14.315  -4.349  1.00 20.00     0.121 C 
HETATM    5  C6  UNL     1     -36.301  14.106  -4.925  1.00 20.00     0.051 C 
HETATM    6  C4  UNL     1     -36.843  15.343  -5.639  1.00 20.00     0.004 C 
HETATM    7  C3  UNL     1     -35.875  15.845  -6.707  1.00 20.00     0.000 C 
HETATM    8  C5  UNL     1     -34.483  16.098  -6.134  1.00 20.00     0.004 C 
HETATM    9  C7  UNL     1     -33.935  14.862  -5.420  1.00 20.00     0.051 C 
BRANCH   4  10
HETATM   10  O10 UNL     1     -34.394  13.051  -3.903  1.00 20.00    -0.378 OA
HETATM   11  H24 UNL     1     -35.170  12.524  -3.660  1.00 20.00     0.211 HD
ENDBRANCH   4  10
ENDBRANCH   1   4
TORSDOF 2
ENDMDL
MODEL 4
REMARK VINA RESULT:      -4.3      1.203      3.320
REMARK  2 active torsions:
REMARK  status: ('A' for Active; 'I' for Inactive)
REMARK    1  A    between atoms: C1_1  and  C8_8 
REMARK    2  A    between atoms: C8_8  and  O10_10 
ROOT
HETATM    1  C1  UNL     1     -34.151  15.746  -5.705  1.00 20.00    -0.069 C 
HETATM    2  C2  UNL     1     -34.483  16.417  -6.644  1.00 20.00    -0.108 C 
HETATM    3  C9  UNL     1     -34.887  17.237  -7.786  1.00 20.00     0.112 C 
ENDROOT
BRANCH   1   4
HETATM    4  C8  UNL     1     -33.745  14.920  -4.553  1.00 20.00     0.121 C 
HETATM    5  C6  UNL     1     -32.956  15.759  -3.535  1.00 20.00     0.051 C 
HETATM    6  C4  UNL     1     -33.834  16.750  -2.771  1.00 20.00     0.004 C 
HETATM    7  C3  UNL     1     -35.026  16.057  -2.117  1.00 20.00     0.000 C 
HETATM    8  C5  UNL     1     -35.840  15.258  -3.130  1.00 20.00     0.004 C 
HETATM    9  C7  UNL     1     -34.969  14.263  -3.896  1.00 20.00     0.051 C 
BRANCH   4  10
HETATM   10  O10 UNL     1     -32.889  13.889  -5.048  1.00 20.00    -0.378 OA
HETATM   11  H24 UNL     1     -32.410  13.540  -4.281  1.00 20.00     0.211 HD
ENDBRANCH   4  10
ENDBRANCH   1   4
TORSDOF 2
ENDMDL
MODEL 5
REMARK VINA RESULT:      -4.2      1.594      1.642
REMARK  2 active torsions:
REMARK  status: ('A' for Active; 'I' for Inactive)
REMARK    1  A    between atoms: C1_1  and  C8_8 
REMARK    2  A    between atoms: C8_8  and  O10_10 
ROOT
HETATM    1  C1  UNL     1     -34.516  16.086  -2.595  1.00 20.00    -0.069 C 
HETATM    2  C2  UNL     1     -34.909  16.535  -1.553  1.00 20.00    -0.108 C 
HETATM    3  C9  UNL     1     -35.389  17.080  -0.283  1.00 20.00     0.112 C 
ENDROOT
BRANCH   1   4
HETATM    4  C8  UNL     1     -34.033  15.537  -3.875  1.00 20.00     0.121 C 
HETATM    5  C6  UNL     1     -34.468  14.071  -4.035  1.00 20.00     0.051 C 
HETATM    6  C4  UNL     1     -35.965  13.920  -4.305  1.00 20.00     0.004 C 
HETATM    7  C3  UNL     1     -36.411  14.767  -5.494  1.00 20.00     0.000 C 
HETATM    8  C5  UNL     1     -36.022  16.232  -5.321  1.00 20.00     0.004 C 
HETATM    9  C7  UNL     1     -34.525  16.390  -5.054  1.00 20.00     0.051 C 
BRANCH   4  10
HETATM   10  O10 UNL     1     -32.605  15.584  -3.848  1.00 20.00    -0.378 OA
HETATM   11  H24 UNL     1     -32.344  15.430  -2.927  1.00 20.00     0.211 HD
ENDBRANCH   4  10
ENDBRANCH   1   4
TORSDOF 2
ENDMDL
MODEL 6
REMARK VINA RESULT:      -4.2      1.576      3.838
REMARK  2 active torsions:
REMARK  status: ('A' for Active; 'I' for Inactive)
REMARK    1  A    between atoms: C1_1  and  C8_8 
REMARK    2  A    between atoms: C8_8  and  O10_10 
ROOT
HETATM    1  C1  UNL     1     -35.667  14.876  -5.664  1.00 20.00    -0.069 C 
HETATM    2  C2  UNL     1     -35.943  15.453  -6.680  1.00 20.00    -0.108 C 
HETATM    3  C9  UNL     1     -36.277  16.158  -7.918  1.00 20.00     0.112 C 
ENDROOT
BRANCH   1   4
HETATM    4  C8  UNL     1     -35.329  14.167  -4.416  1.00 20.00     0.121 C 
HETATM    5  C6  UNL     1     -33.806  14.116  -4.216  1.00 20.00     0.051 C 
HETATM    6  C4  UNL     1     -33.207  15.472  -3.844  1.00 20.00     0.004 C 
HETATM    7  C3  UNL     1     -33.908  16.083  -2.633  1.00 20.00     0.000 C 
HETATM    8  C5  UNL     1     -35.416  16.178  -2.842  1.00 20.00     0.004 C 
HETATM    9  C7  UNL     1     -36.021  14.825  -3.212  1.00 20.00     0.051 C 
BRANCH   4  10
HETATM   10  O10 UNL     1     -35.813  12.828  -4.541  1.00 20.00    -0.378 OA
HETATM   11  H24 UNL     1     -36.439  12.696  -3.813  1.00 20.00     0.211 HD
ENDBRANCH   4  10
ENDBRANCH   1   4
TORSDOF 2
ENDMDL
MODEL 7
REMARK VINA RESULT:      -4.1      1.979      4.023
REMARK  2 active torsions:
REMARK  status: ('A' for Active; 'I' for Inactive)
REMARK    1  A    between atoms: C1_1  and  C8_8 
REMARK    2  A    between atoms: C8_8  and  O10_10 
ROOT
HETATM    1  C1  UNL     1     -37.316  14.492  -4.387  1.00 20.00    -0.069 C 
HETATM    2  C2  UNL     1     -38.457  14.828  -4.219  1.00 20.00    -0.108 C 
HETATM    3  C9  UNL     1     -39.847  15.237  -4.015  1.00 20.00     0.112 C 
ENDROOT
BRANCH   1   4
HETATM    4  C8  UNL     1     -35.916  14.081  -4.593  1.00 20.00     0.121 C 
HETATM    5  C6  UNL     1     -35.404  14.562  -5.960  1.00 20.00     0.051 C 
HETATM    6  C4  UNL     1     -35.178  16.072  -6.015  1.00 20.00     0.004 C 
HETATM    7  C3  UNL     1     -34.272  16.547  -4.882  1.00 20.00     0.000 C 
HETATM    8  C5  UNL     1     -34.798  16.111  -3.518  1.00 20.00     0.004 C 
HETATM    9  C7  UNL     1     -35.023  14.601  -3.456  1.00 20.00     0.051 C 
BRANCH   4  10
HETATM   10  O10 UNL     1     -35.883  12.652  -4.576  1.00 20.00    -0.378 OA
HETATM   11  H24 UNL     1     -34.953  12.399  -4.670  1.00 20.00     0.211 HD
ENDBRANCH   4  10
ENDBRANCH   1   4
TORSDOF 2
ENDMDL
MODEL 8
REMARK VINA RESULT:      -4.0      2.036      2.869
REMARK  2 active torsions:
REMARK  status: ('A' for Active; 'I' for Inactive)
REMARK    1  A    between atoms: C1_1  and  C8_8 
REMARK    2  A    between atoms: C8_8  and  O10_10 
ROOT
HETATM    1  C1  UNL     1     -35.448  15.938  -2.605  1.00 20.00    -0.069 C 
HETATM    2  C2  UNL     1     -35.089  16.610  -1.677  1.00 20.00    -0.108 C 
HETATM    3  C9  UNL     1     -34.653  17.431  -0.547  1.00 20.00     0.112 C 
ENDROOT
BRANCH   1   4
HETATM    4  C8  UNL     1     -35.887  15.112  -3.744  1.00 20.00     0.121 C 
HETATM    5  C6  UNL     1     -35.944  15.950  -5.032  1.00 20.00     0.051 C 
HETATM    6  C4  UNL     1     -34.560  16.312  -5.570  1.00 20.00     0.004 C 
HETATM    7  C3  UNL     1     -33.684  15.075  -5.748  1.00 20.00     0.000 C 
HETATM    8  C5  UNL     1     -33.587  14.261  -4.461  1.00 20.00     0.004 C 
HETATM    9  C7  UNL     1     -34.968  13.894  -3.920  1.00 20.00     0.051 C 
BRANCH   4  10
HETATM   10  O10 UNL     1     -37.206  14.646  -3.450  1.00 20.00    -0.378 OA
HETATM   11  H24 UNL     1     -37.606  15.309  -2.868  1.00 20.00     0.211 HD
ENDBRANCH   4  10
ENDBRANCH   1   4
TORSDOF 2
ENDMDL
MODEL 9
REMARK VINA RESULT:      -3.9     16.462     18.562
REMARK  2 active torsions:
REMARK  status: ('A' for Active; 'I' for Inactive)
REMARK    1  A    between atoms: C1_1  and  C8_8 
REMARK    2  A    between atoms: C8_8  and  O10_10 
ROOT
HETATM    1  C1  UNL     1     -23.905  18.342   9.996  1.00 20.00    -0.069 C 
HETATM    2  C2  UNL     1     -24.079  18.637   8.845  1.00 20.00    -0.108 C 
HETATM    3  C9  UNL     1     -24.292  18.994   7.442  1.00 20.00     0.112 C 
ENDROOT
BRANCH   1   4
HETATM    4  C8  UNL     1     -23.691  17.981  11.409  1.00 20.00     0.121 C 
HETATM    5  C6  UNL     1     -24.770  18.615  12.301  1.00 20.00     0.051 C 
HETATM    6  C4  UNL     1     -26.141  17.960  12.134  1.00 20.00     0.004 C 
HETATM    7  C3  UNL     1     -26.071  16.448  12.332  1.00 20.00     0.000 C 
HETATM    8  C5  UNL     1     -25.032  15.806  11.417  1.00 20.00     0.004 C 
HETATM    9  C7  UNL     1     -23.658  16.455  11.582  1.00 20.00     0.051 C 
BRANCH   4  10
HETATM   10  O10 UNL     1     -22.419  18.507  11.795  1.00 20.00    -0.378 OA
HETATM   11  H24 UNL     1     -22.565  18.990  12.623  1.00 20.00     0.211 HD
ENDBRANCH   4  10
ENDBRANCH   1   4
TORSDOF 2
ENDMDL
