MODEL 1
REMARK VINA RESULT:      -3.9      0.000      0.000
REMARK  2 active torsions:
REMARK  status: ('A' for Active; 'I' for Inactive)
REMARK    1  A    between atoms: C3_3  and  C4_4 
REMARK    2  A    between atoms: C4_4  and  O5_5 
ROOT
HETATM    1  C1  UNL     1     -34.706   5.280   6.058  1.00 20.00     0.046 C 
HETATM    2  C2  UNL     1     -34.131   4.056   3.954  1.00 20.00     0.046 C 
HETATM    3  C4  UNL     1     -34.700   5.356   4.527  1.00 20.00     0.063 C 
ENDROOT
BRANCH   3   4
HETATM    4  C3  UNL     1     -33.917   6.599   4.078  1.00 20.00     0.151 C 
HETATM    5 CL6  UNL     1     -32.858   6.289   2.677  1.00 20.00    -0.127 Cl
ENDBRANCH   3   4
BRANCH   3   6
HETATM    6  O5  UNL     1     -36.057   5.467   4.094  1.00 20.00    -0.390 OA
HETATM    7  H15 UNL     1     -36.556   4.800   4.587  1.00 20.00     0.210 HD
ENDBRANCH   3   6
TORSDOF 2
ENDMDL
MODEL 2
REMARK VINA RESULT:      -3.9      0.697      1.861
REMARK  2 active torsions:
REMARK  status: ('A' for Active; 'I' for Inactive)
REMARK    1  A    between atoms: C3_3  and  C4_4 
REMARK    2  A    between atoms: C4_4  and  O5_5 
ROOT
HETATM    1  C1  UNL     1     -33.966   6.623   4.219  1.00 20.00     0.046 C 
HETATM    2  C2  UNL     1     -34.726   5.149   6.092  1.00 20.00     0.046 C 
HETATM    3  C4  UNL     1     -34.717   5.334   4.573  1.00 20.00     0.063 C 
ENDROOT
BRANCH   3   4
HETATM    4  C3  UNL     1     -34.081   4.149   3.831  1.00 20.00     0.151 C 
HETATM    5 CL6  UNL     1     -33.128   4.648   2.407  1.00 20.00    -0.127 Cl
ENDBRANCH   3   4
BRANCH   3   6
HETATM    6  O5  UNL     1     -36.071   5.490   4.144  1.00 20.00    -0.390 OA
HETATM    7  H15 UNL     1     -36.194   4.879   3.403  1.00 20.00     0.210 HD
ENDBRANCH   3   6
TORSDOF 2
ENDMDL
MODEL 3
REMARK VINA RESULT:      -3.3     17.299     17.807
REMARK  2 active torsions:
REMARK  status: ('A' for Active; 'I' for Inactive)
REMARK    1  A    between atoms: C3_3  and  C4_4 
REMARK    2  A    between atoms: C4_4  and  O5_5 
ROOT
HETATM    1  C1  UNL     1     -24.684  17.770  12.209  1.00 20.00     0.046 C 
HETATM    2  C2  UNL     1     -22.186  17.796  12.318  1.00 20.00     0.046 C 
HETATM    3  C4  UNL     1     -23.402  17.091  11.714  1.00 20.00     0.063 C 
ENDROOT
BRANCH   3   4
HETATM    4  C3  UNL     1     -23.386  17.083  10.178  1.00 20.00     0.151 C 
HETATM    5 CL6  UNL     1     -22.683  18.566   9.479  1.00 20.00    -0.127 Cl
ENDBRANCH   3   4
BRANCH   3   6
HETATM    6  O5  UNL     1     -23.411  15.746  12.196  1.00 20.00    -0.390 OA
HETATM    7  H15 UNL     1     -22.612  15.644  12.734  1.00 20.00     0.210 HD
ENDBRANCH   3   6
TORSDOF 2
ENDMDL
MODEL 4
REMARK VINA RESULT:      -3.3      8.544      8.863
REMARK  2 active torsions:
REMARK  status: ('A' for Active; 'I' for Inactive)
REMARK    1  A    between atoms: C3_3  and  C4_4 
REMARK    2  A    between atoms: C4_4  and  O5_5 
ROOT
HETATM    1  C1  UNL     1     -43.153   7.365   0.790  1.00 20.00     0.046 C 
HETATM    2  C2  UNL     1     -41.526   9.197   0.289  1.00 20.00     0.046 C 
HETATM    3  C4  UNL     1     -41.748   7.684   0.265  1.00 20.00     0.063 C 
ENDROOT
BRANCH   3   4
HETATM    4  C3  UNL     1     -41.574   7.076  -1.135  1.00 20.00     0.151 C 
HETATM    5 CL6  UNL     1     -40.930   5.413  -1.099  1.00 20.00    -0.127 Cl
ENDBRANCH   3   4
BRANCH   3   6
HETATM    6  O5  UNL     1     -40.806   7.090   1.160  1.00 20.00    -0.390 OA
HETATM    7  H15 UNL     1     -40.115   7.752   1.306  1.00 20.00     0.210 HD
ENDBRANCH   3   6
TORSDOF 2
ENDMDL
MODEL 5
REMARK VINA RESULT:      -3.3      1.616      2.300
REMARK  2 active torsions:
REMARK  status: ('A' for Active; 'I' for Inactive)
REMARK    1  A    between atoms: C3_3  and  C4_4 
REMARK    2  A    between atoms: C4_4  and  O5_5 
ROOT
HETATM    1  C1  UNL     1     -34.145   3.921   4.089  1.00 20.00     0.046 C 
HETATM    2  C2  UNL     1     -33.935   6.365   3.600  1.00 20.00     0.046 C 
HETATM    3  C4  UNL     1     -34.686   5.316   4.423  1.00 20.00     0.063 C 
ENDROOT
BRANCH   3   4
HETATM    4  C3  UNL     1     -34.582   5.557   5.937  1.00 20.00     0.151 C 
HETATM    5 CL6  UNL     1     -33.874   7.144   6.343  1.00 20.00    -0.127 Cl
ENDBRANCH   3   4
BRANCH   3   6
HETATM    6  O5  UNL     1     -36.059   5.353   4.030  1.00 20.00    -0.390 OA
HETATM    7  H15 UNL     1     -36.185   6.191   3.559  1.00 20.00     0.210 HD
ENDBRANCH   3   6
TORSDOF 2
ENDMDL
MODEL 6
REMARK VINA RESULT:      -3.3     16.764     17.358
REMARK  2 active torsions:
REMARK  status: ('A' for Active; 'I' for Inactive)
REMARK    1  A    between atoms: C3_3  and  C4_4 
REMARK    2  A    between atoms: C4_4  and  O5_5 
ROOT
HETATM    1  C1  UNL     1     -24.515  15.810  11.719  1.00 20.00     0.046 C 
HETATM    2  C2  UNL     1     -22.705  17.474  12.177  1.00 20.00     0.046 C 
HETATM    3  C4  UNL     1     -23.704  16.971  11.133  1.00 20.00     0.063 C 
ENDROOT
BRANCH   3   4
HETATM    4  C3  UNL     1     -24.660  18.069  10.644  1.00 20.00     0.151 C 
HETATM    5 CL6  UNL     1     -25.612  18.805  11.962  1.00 20.00    -0.127 Cl
ENDBRANCH   3   4
BRANCH   3   6
HETATM    6  O5  UNL     1     -22.958  16.463  10.025  1.00 20.00    -0.390 OA
HETATM    7  H15 UNL     1     -23.535  15.825   9.579  1.00 20.00     0.210 HD
ENDBRANCH   3   6
TORSDOF 2
ENDMDL
MODEL 7
REMARK VINA RESULT:      -3.2     12.067     12.852
REMARK  2 active torsions:
REMARK  status: ('A' for Active; 'I' for Inactive)
REMARK    1  A    between atoms: C3_3  and  C4_4 
REMARK    2  A    between atoms: C4_4  and  O5_5 
ROOT
HETATM    1  C1  UNL     1     -34.029  15.113  -5.924  1.00 20.00     0.046 C 
HETATM    2  C2  UNL     1     -34.920  13.900  -3.927  1.00 20.00     0.046 C 
HETATM    3  C4  UNL     1     -33.705  14.626  -4.507  1.00 20.00     0.063 C 
ENDROOT
BRANCH   3   4
HETATM    4  C3  UNL     1     -33.252  15.815  -3.647  1.00 20.00     0.151 C 
HETATM    5 CL6  UNL     1     -34.304  16.094  -2.233  1.00 20.00    -0.127 Cl
ENDBRANCH   3   4
BRANCH   3   6
HETATM    6  O5  UNL     1     -32.639  13.680  -4.608  1.00 20.00    -0.390 OA
HETATM    7  H15 UNL     1     -33.045  12.837  -4.858  1.00 20.00     0.210 HD
ENDBRANCH   3   6
TORSDOF 2
ENDMDL
MODEL 8
REMARK VINA RESULT:      -3.2      8.844      9.101
REMARK  2 active torsions:
REMARK  status: ('A' for Active; 'I' for Inactive)
REMARK    1  A    between atoms: C3_3  and  C4_4 
REMARK    2  A    between atoms: C4_4  and  O5_5 
ROOT
HETATM    1  C1  UNL     1     -43.046   6.894  -1.246  1.00 20.00     0.046 C 
HETATM    2  C2  UNL     1     -40.999   5.517  -0.834  1.00 20.00     0.046 C 
HETATM    3  C4  UNL     1     -41.573   6.935  -0.823  1.00 20.00     0.063 C 
ENDROOT
BRANCH   3   4
HETATM    4  C3  UNL     1     -41.452   7.619   0.547  1.00 20.00     0.151 C 
HETATM    5 CL6  UNL     1     -41.407   9.399   0.438  1.00 20.00    -0.127 Cl
ENDBRANCH   3   4
BRANCH   3   6
HETATM    6  O5  UNL     1     -40.864   7.700  -1.800  1.00 20.00    -0.390 OA
HETATM    7  H15 UNL     1     -39.991   7.882  -1.421  1.00 20.00     0.210 HD
ENDBRANCH   3   6
TORSDOF 2
ENDMDL
MODEL 9
REMARK VINA RESULT:      -3.2     17.605     18.024
REMARK  2 active torsions:
REMARK  status: ('A' for Active; 'I' for Inactive)
REMARK    1  A    between atoms: C3_3  and  C4_4 
REMARK    2  A    between atoms: C4_4  and  O5_5 
ROOT
HETATM    1  C1  UNL     1     -21.293  18.122   9.570  1.00 20.00     0.046 C 
HETATM    2  C2  UNL     1     -23.486  18.252   8.375  1.00 20.00     0.046 C 
HETATM    3  C4  UNL     1     -22.733  17.599   9.536  1.00 20.00     0.063 C 
ENDROOT
BRANCH   3   4
HETATM    4  C3  UNL     1     -23.401  17.848  10.897  1.00 20.00     0.151 C 
HETATM    5 CL6  UNL     1     -22.265  17.720  12.266  1.00 20.00    -0.127 Cl
ENDBRANCH   3   4
BRANCH   3   6
HETATM    6  O5  UNL     1     -22.678  16.193   9.285  1.00 20.00    -0.390 OA
HETATM    7  H15 UNL     1     -22.715  16.087   8.323  1.00 20.00     0.210 HD
ENDBRANCH   3   6
TORSDOF 2
ENDMDL
