MODEL 1
REMARK VINA RESULT:      -4.5      0.000      0.000
REMARK  1 active torsions:
REMARK  status: ('A' for Active; 'I' for Inactive)
REMARK    1  A    between atoms: C8_8  and  O10_10 
ROOT
HETATM    1  C1  UNL     1     -33.591  16.270  -2.678  1.00 20.00     0.005 C 
HETATM    2  C2  UNL     1     -36.056  16.390  -3.116  1.00 20.00     0.005 C 
HETATM    3  C3  UNL     1     -33.343  16.992  -4.010  1.00 20.00     0.008 C 
HETATM    4  C4  UNL     1     -35.777  17.092  -4.453  1.00 20.00     0.008 C 
HETATM    5  C5  UNL     1     -34.751  14.383  -3.852  1.00 20.00     0.042 C 
HETATM    6  C6  UNL     1     -34.891  15.451  -2.749  1.00 20.00    -0.012 C 
HETATM    7  C7  UNL     1     -34.435  16.605  -5.031  1.00 20.00     0.019 C 
HETATM    8  C8  UNL     1     -34.459  15.061  -5.213  1.00 20.00     0.058 C 
HETATM    9  C9  UNL     1     -35.456  14.603  -6.281  1.00 20.00     0.046 C 
ENDROOT
BRANCH   8  10
HETATM   10  O10 UNL     1     -33.164  14.628  -5.650  1.00 20.00    -0.390 OA
HETATM   11  H26 UNL     1     -33.317  13.867  -6.228  1.00 20.00     0.210 HD
ENDBRANCH   8  10
TORSDOF 1
ENDMDL
MODEL 2
REMARK VINA RESULT:      -4.5     11.732     12.962
REMARK  1 active torsions:
REMARK  status: ('A' for Active; 'I' for Inactive)
REMARK    1  A    between atoms: C8_8  and  O10_10 
ROOT
HETATM    1  C1  UNL     1     -42.204   4.760  -1.776  1.00 20.00     0.005 C 
HETATM    2  C2  UNL     1     -43.417   5.114   0.388  1.00 20.00     0.005 C 
HETATM    3  C3  UNL     1     -40.905   5.215  -1.096  1.00 20.00     0.008 C 
HETATM    4  C4  UNL     1     -42.107   5.585   1.037  1.00 20.00     0.008 C 
HETATM    5  C5  UNL     1     -43.295   6.965  -1.295  1.00 20.00     0.042 C 
HETATM    6  C6  UNL     1     -43.417   5.438  -1.117  1.00 20.00    -0.012 C 
HETATM    7  C7  UNL     1     -41.218   6.274  -0.016  1.00 20.00     0.019 C 
HETATM    8  C8  UNL     1     -41.977   7.469  -0.658  1.00 20.00     0.058 C 
HETATM    9  C9  UNL     1     -42.243   8.606   0.333  1.00 20.00     0.046 C 
ENDROOT
BRANCH   8  10
HETATM   10  O10 UNL     1     -41.167   8.021  -1.704  1.00 20.00    -0.390 OA
HETATM   11  H26 UNL     1     -41.426   7.560  -2.515  1.00 20.00     0.210 HD
ENDBRANCH   8  10
TORSDOF 1
ENDMDL
MODEL 3
REMARK VINA RESULT:      -4.4      1.284      2.422
REMARK  1 active torsions:
REMARK  status: ('A' for Active; 'I' for Inactive)
REMARK    1  A    between atoms: C8_8  and  O10_10 
ROOT
HETATM    1  C1  UNL     1     -34.786  14.088  -3.914  1.00 20.00     0.005 C 
HETATM    2  C2  UNL     1     -35.075  15.904  -2.211  1.00 20.00     0.005 C 
HETATM    3  C3  UNL     1     -33.353  14.580  -4.161  1.00 20.00     0.008 C 
HETATM    4  C4  UNL     1     -33.645  16.387  -2.494  1.00 20.00     0.008 C 
HETATM    5  C5  UNL     1     -35.727  16.310  -4.595  1.00 20.00     0.042 C 
HETATM    6  C6  UNL     1     -35.682  15.256  -3.469  1.00 20.00    -0.012 C 
HETATM    7  C7  UNL     1     -33.279  16.110  -3.964  1.00 20.00     0.019 C 
HETATM    8  C8  UNL     1     -34.296  16.810  -4.910  1.00 20.00     0.058 C 
HETATM    9  C9  UNL     1     -34.219  18.338  -4.841  1.00 20.00     0.046 C 
ENDROOT
BRANCH   8  10
HETATM   10  O10 UNL     1     -33.992  16.447  -6.263  1.00 20.00    -0.390 OA
HETATM   11  H26 UNL     1     -34.559  15.691  -6.472  1.00 20.00     0.210 HD
ENDBRANCH   8  10
TORSDOF 1
ENDMDL
MODEL 4
REMARK VINA RESULT:      -4.3      1.692      2.134
REMARK  1 active torsions:
REMARK  status: ('A' for Active; 'I' for Inactive)
REMARK    1  A    between atoms: C8_8  and  O10_10 
ROOT
HETATM    1  C1  UNL     1     -33.165  14.978  -4.230  1.00 20.00     0.005 C 
HETATM    2  C2  UNL     1     -34.739  16.921  -4.064  1.00 20.00     0.005 C 
HETATM    3  C3  UNL     1     -33.796  14.613  -5.582  1.00 20.00     0.008 C 
HETATM    4  C4  UNL     1     -35.365  16.521  -5.408  1.00 20.00     0.008 C 
HETATM    5  C5  UNL     1     -35.370  14.712  -3.067  1.00 20.00     0.042 C 
HETATM    6  C6  UNL     1     -34.198  15.679  -3.332  1.00 20.00    -0.012 C 
HETATM    7  C7  UNL     1     -35.293  14.992  -5.585  1.00 20.00     0.019 C 
HETATM    8  C8  UNL     1     -36.016  14.282  -4.406  1.00 20.00     0.058 C 
HETATM    9  C9  UNL     1     -37.526  14.535  -4.395  1.00 20.00     0.046 C 
ENDROOT
BRANCH   8  10
HETATM   10  O10 UNL     1     -35.840  12.866  -4.543  1.00 20.00    -0.390 OA
HETATM   11  H26 UNL     1     -36.499  12.575  -5.189  1.00 20.00     0.210 HD
ENDBRANCH   8  10
TORSDOF 1
ENDMDL
MODEL 5
REMARK VINA RESULT:      -4.2      1.766      2.764
REMARK  1 active torsions:
REMARK  status: ('A' for Active; 'I' for Inactive)
REMARK    1  A    between atoms: C8_8  and  O10_10 
ROOT
HETATM    1  C1  UNL     1     -33.666  16.568  -2.390  1.00 20.00     0.005 C 
HETATM    2  C2  UNL     1     -33.266  14.830  -4.149  1.00 20.00     0.005 C 
HETATM    3  C3  UNL     1     -35.039  15.938  -2.113  1.00 20.00     0.008 C 
HETATM    4  C4  UNL     1     -34.652  14.233  -3.865  1.00 20.00     0.008 C 
HETATM    5  C5  UNL     1     -34.295  17.026  -4.773  1.00 20.00     0.042 C 
HETATM    6  C6  UNL     1     -33.261  16.341  -3.856  1.00 20.00    -0.012 C 
HETATM    7  C7  UNL     1     -35.619  15.344  -3.414  1.00 20.00     0.019 C 
HETATM    8  C8  UNL     1     -35.707  16.451  -4.503  1.00 20.00     0.058 C 
HETATM    9  C9  UNL     1     -36.360  15.962  -5.798  1.00 20.00     0.046 C 
ENDROOT
BRANCH   8  10
HETATM   10  O10 UNL     1     -36.528  17.518  -4.009  1.00 20.00    -0.390 OA
HETATM   11  H26 UNL     1     -36.013  17.954  -3.316  1.00 20.00     0.210 HD
ENDBRANCH   8  10
TORSDOF 1
ENDMDL
MODEL 6
REMARK VINA RESULT:      -4.2     11.591     12.515
REMARK  1 active torsions:
REMARK  status: ('A' for Active; 'I' for Inactive)
REMARK    1  A    between atoms: C8_8  and  O10_10 
ROOT
HETATM    1  C1  UNL     1     -40.928   7.703   0.648  1.00 20.00     0.005 C 
HETATM    2  C2  UNL     1     -43.417   7.799   0.382  1.00 20.00     0.005 C 
HETATM    3  C3  UNL     1     -40.789   7.673  -0.881  1.00 20.00     0.008 C 
HETATM    4  C4  UNL     1     -43.250   7.747  -1.143  1.00 20.00     0.008 C 
HETATM    5  C5  UNL     1     -42.271   5.586   0.624  1.00 20.00     0.042 C 
HETATM    6  C6  UNL     1     -42.258   7.060   1.076  1.00 20.00    -0.012 C 
HETATM    7  C7  UNL     1     -41.993   6.934  -1.506  1.00 20.00     0.019 C 
HETATM    8  C8  UNL     1     -42.094   5.500  -0.912  1.00 20.00     0.058 C 
HETATM    9  C9  UNL     1     -43.210   4.669  -1.549  1.00 20.00     0.046 C 
ENDROOT
BRANCH   8  10
HETATM   10  O10 UNL     1     -40.867   4.806  -1.174  1.00 20.00    -0.390 OA
HETATM   11  H26 UNL     1     -41.002   3.898  -0.867  1.00 20.00     0.210 HD
ENDBRANCH   8  10
TORSDOF 1
ENDMDL
MODEL 7
REMARK VINA RESULT:      -4.1      1.264      2.058
REMARK  1 active torsions:
REMARK  status: ('A' for Active; 'I' for Inactive)
REMARK    1  A    between atoms: C8_8  and  O10_10 
ROOT
HETATM    1  C1  UNL     1     -35.107  13.874  -4.039  1.00 20.00     0.005 C 
HETATM    2  C2  UNL     1     -36.515  15.894  -4.507  1.00 20.00     0.005 C 
HETATM    3  C3  UNL     1     -33.864  14.776  -4.014  1.00 20.00     0.008 C 
HETATM    4  C4  UNL     1     -35.252  16.768  -4.498  1.00 20.00     0.008 C 
HETATM    5  C5  UNL     1     -35.608  14.534  -6.405  1.00 20.00     0.042 C 
HETATM    6  C6  UNL     1     -36.176  14.465  -4.972  1.00 20.00    -0.012 C 
HETATM    7  C7  UNL     1     -34.045  15.951  -4.999  1.00 20.00     0.019 C 
HETATM    8  C8  UNL     1     -34.326  15.402  -6.426  1.00 20.00     0.058 C 
HETATM    9  C9  UNL     1     -34.428  16.507  -7.481  1.00 20.00     0.046 C 
ENDROOT
BRANCH   8  10
HETATM   10  O10 UNL     1     -33.234  14.561  -6.820  1.00 20.00    -0.390 OA
HETATM   11  H26 UNL     1     -33.129  14.686  -7.773  1.00 20.00     0.210 HD
ENDBRANCH   8  10
TORSDOF 1
ENDMDL
MODEL 8
REMARK VINA RESULT:      -4.1      1.038      2.927
REMARK  1 active torsions:
REMARK  status: ('A' for Active; 'I' for Inactive)
REMARK    1  A    between atoms: C8_8  and  O10_10 
ROOT
HETATM    1  C1  UNL     1     -36.162  14.219  -5.788  1.00 20.00     0.005 C 
HETATM    2  C2  UNL     1     -36.380  16.426  -4.622  1.00 20.00     0.005 C 
HETATM    3  C3  UNL     1     -35.821  13.567  -4.440  1.00 20.00     0.008 C 
HETATM    4  C4  UNL     1     -36.016  15.751  -3.291  1.00 20.00     0.008 C 
HETATM    5  C5  UNL     1     -34.183  15.747  -5.614  1.00 20.00     0.042 C 
HETATM    6  C6  UNL     1     -35.713  15.690  -5.798  1.00 20.00    -0.012 C 
HETATM    7  C7  UNL     1     -35.060  14.570  -3.547  1.00 20.00     0.019 C 
HETATM    8  C8  UNL     1     -33.783  15.065  -4.283  1.00 20.00     0.058 C 
HETATM    9  C9  UNL     1     -32.923  15.995  -3.424  1.00 20.00     0.046 C 
ENDROOT
BRANCH   8  10
HETATM   10  O10 UNL     1     -32.966  13.930  -4.600  1.00 20.00    -0.390 OA
HETATM   11  H26 UNL     1     -32.103  14.285  -4.857  1.00 20.00     0.210 HD
ENDBRANCH   8  10
TORSDOF 1
ENDMDL
MODEL 9
REMARK VINA RESULT:      -4.1      1.349      3.076
REMARK  1 active torsions:
REMARK  status: ('A' for Active; 'I' for Inactive)
REMARK    1  A    between atoms: C8_8  and  O10_10 
ROOT
HETATM    1  C1  UNL     1     -35.209  15.276  -6.407  1.00 20.00     0.005 C 
HETATM    2  C2  UNL     1     -36.217  14.186  -4.388  1.00 20.00     0.005 C 
HETATM    3  C3  UNL     1     -33.819  14.844  -5.917  1.00 20.00     0.008 C 
HETATM    4  C4  UNL     1     -34.813  13.785  -3.912  1.00 20.00     0.008 C 
HETATM    5  C5  UNL     1     -35.591  16.610  -4.319  1.00 20.00     0.042 C 
HETATM    6  C6  UNL     1     -36.154  15.485  -5.212  1.00 20.00    -0.012 C 
HETATM    7  C7  UNL     1     -33.783  14.834  -4.374  1.00 20.00     0.019 C 
HETATM    8  C8  UNL     1     -34.170  16.238  -3.830  1.00 20.00     0.058 C 
HETATM    9  C9  UNL     1     -34.069  16.336  -2.306  1.00 20.00     0.046 C 
ENDROOT
BRANCH   8  10
HETATM   10  O10 UNL     1     -33.256  17.206  -4.363  1.00 20.00    -0.390 OA
HETATM   11  H26 UNL     1     -32.569  16.703  -4.822  1.00 20.00     0.210 HD
ENDBRANCH   8  10
TORSDOF 1
ENDMDL
