MODEL 1
REMARK VINA RESULT:      -3.2      0.000      0.000
REMARK  1 active torsions:
REMARK  status: ('A' for Active; 'I' for Inactive)
REMARK    1  A    between atoms: C1_1  and  C3_3 
ROOT
HETATM    1  C2  UNL     1     -34.931  13.759  -4.071  1.00 20.00     0.208 A 
HETATM    2  C3  UNL     1     -36.170  13.966  -4.903  1.00 20.00     0.206 A 
HETATM    3  O5  UNL     1     -35.791  12.668  -4.418  1.00 20.00    -0.374 OA
ENDROOT
BRANCH   2   4
HETATM    4  C1  UNL     1     -37.393  14.482  -4.290  1.00 20.00     0.265 C 
HETATM    5  O4  UNL     1     -38.487  13.942  -4.406  1.00 20.00    -0.304 OA
ENDBRANCH   2   4
TORSDOF 1
ENDMDL
MODEL 2
REMARK VINA RESULT:      -3.1     12.442     12.834
REMARK  1 active torsions:
REMARK  status: ('A' for Active; 'I' for Inactive)
REMARK    1  A    between atoms: C1_1  and  C3_3 
ROOT
HETATM    1  C2  UNL     1     -34.042   5.143   3.419  1.00 20.00     0.208 A 
HETATM    2  C3  UNL     1     -35.045   5.176   4.544  1.00 20.00     0.206 A 
HETATM    3  O5  UNL     1     -34.466   3.946   4.081  1.00 20.00    -0.374 OA
ENDROOT
BRANCH   2   4
HETATM    4  C1  UNL     1     -34.626   5.544   5.895  1.00 20.00     0.265 C 
HETATM    5  O4  UNL     1     -34.263   6.673   6.206  1.00 20.00    -0.304 OA
ENDBRANCH   2   4
TORSDOF 1
ENDMDL
MODEL 3
REMARK VINA RESULT:      -3.0      0.663      2.675
REMARK  1 active torsions:
REMARK  status: ('A' for Active; 'I' for Inactive)
REMARK    1  A    between atoms: C1_1  and  C3_3 
ROOT
HETATM    1  C2  UNL     1     -38.129  15.347  -4.821  1.00 20.00     0.208 A 
HETATM    2  C3  UNL     1     -37.115  14.506  -4.089  1.00 20.00     0.206 A 
HETATM    3  O5  UNL     1     -38.459  14.050  -4.311  1.00 20.00    -0.374 OA
ENDROOT
BRANCH   2   4
HETATM    4  C1  UNL     1     -36.112  13.745  -4.833  1.00 20.00     0.265 C 
HETATM    5  O4  UNL     1     -35.788  12.597  -4.550  1.00 20.00    -0.304 OA
ENDBRANCH   2   4
TORSDOF 1
ENDMDL
MODEL 4
REMARK VINA RESULT:      -2.9     12.144     12.593
REMARK  1 active torsions:
REMARK  status: ('A' for Active; 'I' for Inactive)
REMARK    1  A    between atoms: C1_1  and  C3_3 
ROOT
HETATM    1  C2  UNL     1     -34.771   5.329   5.966  1.00 20.00     0.208 A 
HETATM    2  C3  UNL     1     -34.968   5.416   4.474  1.00 20.00     0.206 A 
HETATM    3  O5  UNL     1     -34.193   6.388   5.194  1.00 20.00    -0.374 OA
ENDROOT
BRANCH   2   4
HETATM    4  C1  UNL     1     -34.168   4.585   3.575  1.00 20.00     0.265 C 
HETATM    5  O4  UNL     1     -33.501   5.038   2.652  1.00 20.00    -0.304 OA
ENDBRANCH   2   4
TORSDOF 1
ENDMDL
MODEL 5
REMARK VINA RESULT:      -2.8      1.595      2.212
REMARK  1 active torsions:
REMARK  status: ('A' for Active; 'I' for Inactive)
REMARK    1  A    between atoms: C1_1  and  C3_3 
ROOT
HETATM    1  C2  UNL     1     -33.789  15.182  -3.774  1.00 20.00     0.208 A 
HETATM    2  C3  UNL     1     -34.775  14.673  -4.794  1.00 20.00     0.206 A 
HETATM    3  O5  UNL     1     -33.487  14.064  -4.616  1.00 20.00    -0.374 OA
ENDROOT
BRANCH   2   4
HETATM    4  C1  UNL     1     -35.886  13.816  -4.383  1.00 20.00     0.265 C 
HETATM    5  O4  UNL     1     -35.887  12.598  -4.525  1.00 20.00    -0.304 OA
ENDBRANCH   2   4
TORSDOF 1
ENDMDL
MODEL 6
REMARK VINA RESULT:      -2.7      1.486      3.012
REMARK  1 active torsions:
REMARK  status: ('A' for Active; 'I' for Inactive)
REMARK    1  A    between atoms: C1_1  and  C3_3 
ROOT
HETATM    1  C2  UNL     1     -36.635  13.918  -4.658  1.00 20.00     0.208 A 
HETATM    2  C3  UNL     1     -35.328  13.952  -3.908  1.00 20.00     0.206 A 
HETATM    3  O5  UNL     1     -35.812  12.752  -4.532  1.00 20.00    -0.374 OA
ENDROOT
BRANCH   2   4
HETATM    4  C1  UNL     1     -34.127  14.493  -4.543  1.00 20.00     0.265 C 
HETATM    5  O4  UNL     1     -33.045  13.917  -4.544  1.00 20.00    -0.304 OA
ENDBRANCH   2   4
TORSDOF 1
ENDMDL
MODEL 7
REMARK VINA RESULT:      -2.7      1.734      2.274
REMARK  1 active torsions:
REMARK  status: ('A' for Active; 'I' for Inactive)
REMARK    1  A    between atoms: C1_1  and  C3_3 
ROOT
HETATM    1  C2  UNL     1     -34.585  15.710  -5.344  1.00 20.00     0.208 A 
HETATM    2  C3  UNL     1     -35.596  14.648  -5.692  1.00 20.00     0.206 A 
HETATM    3  O5  UNL     1     -34.189  14.453  -5.905  1.00 20.00    -0.374 OA
ENDROOT
BRANCH   2   4
HETATM    4  C1  UNL     1     -36.151  13.786  -4.649  1.00 20.00     0.265 C 
HETATM    5  O4  UNL     1     -35.843  12.608  -4.512  1.00 20.00    -0.304 OA
ENDBRANCH   2   4
TORSDOF 1
ENDMDL
MODEL 8
REMARK VINA RESULT:      -2.7     19.289     19.868
REMARK  1 active torsions:
REMARK  status: ('A' for Active; 'I' for Inactive)
REMARK    1  A    between atoms: C1_1  and  C3_3 
ROOT
HETATM    1  C2  UNL     1     -22.822  18.299   9.753  1.00 20.00     0.208 A 
HETATM    2  C3  UNL     1     -22.572  18.050   8.288  1.00 20.00     0.206 A 
HETATM    3  O5  UNL     1     -22.152  19.263   8.932  1.00 20.00    -0.374 OA
ENDROOT
BRANCH   2   4
HETATM    4  C1  UNL     1     -21.459  17.201   7.864  1.00 20.00     0.265 C 
HETATM    5  O4  UNL     1     -21.443  16.591   6.801  1.00 20.00    -0.304 OA
ENDBRANCH   2   4
TORSDOF 1
ENDMDL
MODEL 9
REMARK VINA RESULT:      -2.5      1.669      2.225
REMARK  1 active torsions:
REMARK  status: ('A' for Active; 'I' for Inactive)
REMARK    1  A    between atoms: C1_1  and  C3_3 
ROOT
HETATM    1  C2  UNL     1     -35.215  15.685  -3.136  1.00 20.00     0.208 A 
HETATM    2  C3  UNL     1     -35.332  14.912  -4.425  1.00 20.00     0.206 A 
HETATM    3  O5  UNL     1     -34.233  14.717  -3.521  1.00 20.00    -0.374 OA
ENDROOT
BRANCH   2   4
HETATM    4  C1  UNL     1     -36.224  13.757  -4.514  1.00 20.00     0.265 C 
HETATM    5  O4  UNL     1     -35.828  12.598  -4.530  1.00 20.00    -0.304 OA
ENDBRANCH   2   4
TORSDOF 1
ENDMDL
