MODEL 1
REMARK VINA RESULT:      -3.8      0.000      0.000
REMARK  4 active torsions:
REMARK  status: ('A' for Active; 'I' for Inactive)
REMARK    1  A    between atoms: C2_2  and  C5_5 
REMARK    2  A    between atoms: C4_4  and  C6_6 
REMARK    3  A    between atoms: C5_5  and  O8_8 
REMARK    4  A    between atoms: C6_6  and  O8_8 
ROOT
HETATM    1  O8  UNL     1     -32.941   6.292   3.049  1.00 20.00    -0.383 OA
ENDROOT
BRANCH   1   2
HETATM    2  C5  UNL     1     -33.814   6.701   4.093  1.00 20.00     0.218 C 
BRANCH   2   3
HETATM    3  C2  UNL     1     -34.378   5.496   4.775  1.00 20.00     0.026 C 
HETATM    4  C1  UNL     1     -34.880   5.502   6.015  1.00 20.00     0.034 C 
HETATM    5 CL9  UNL     1     -34.311   4.018   3.876  1.00 20.00    -0.088 Cl
ENDBRANCH   2   3
ENDBRANCH   1   2
BRANCH   1   6
HETATM    6  C6  UNL     1     -32.247   7.398   2.487  1.00 20.00     0.202 C 
BRANCH   6   7
HETATM    7  C4  UNL     1     -32.993   7.876   1.260  1.00 20.00     0.169 A 
HETATM    8  C3  UNL     1     -32.928   9.311   0.818  1.00 20.00     0.202 A 
HETATM    9  O7  UNL     1     -32.155   8.286   0.174  1.00 20.00    -0.379 OA
ENDBRANCH   6   7
ENDBRANCH   1   6
TORSDOF 4
ENDMDL
MODEL 2
REMARK VINA RESULT:      -3.7     10.693     11.539
REMARK  4 active torsions:
REMARK  status: ('A' for Active; 'I' for Inactive)
REMARK    1  A    between atoms: C2_2  and  C5_5 
REMARK    2  A    between atoms: C4_4  and  C6_6 
REMARK    3  A    between atoms: C5_5  and  O8_8 
REMARK    4  A    between atoms: C6_6  and  O8_8 
ROOT
HETATM    1  O8  UNL     1     -34.753  14.341  -5.153  1.00 20.00    -0.383 OA
ENDROOT
BRANCH   1   2
HETATM    2  C5  UNL     1     -34.640  14.191  -3.745  1.00 20.00     0.218 C 
BRANCH   2   3
HETATM    3  C2  UNL     1     -34.114  15.456  -3.147  1.00 20.00     0.026 C 
HETATM    4  C1  UNL     1     -33.002  16.075  -3.557  1.00 20.00     0.034 C 
HETATM    5 CL9  UNL     1     -35.017  16.094  -1.814  1.00 20.00    -0.088 Cl
ENDBRANCH   2   3
ENDBRANCH   1   2
BRANCH   1   6
HETATM    6  C6  UNL     1     -36.112  14.401  -5.564  1.00 20.00     0.202 C 
BRANCH   6   7
HETATM    7  C4  UNL     1     -36.999  14.386  -4.338  1.00 20.00     0.169 A 
HETATM    8  C3  UNL     1     -38.281  15.171  -4.293  1.00 20.00     0.202 A 
HETATM    9  O7  UNL     1     -38.269  13.754  -4.529  1.00 20.00    -0.379 OA
ENDBRANCH   6   7
ENDBRANCH   1   6
TORSDOF 4
ENDMDL
MODEL 3
REMARK VINA RESULT:      -3.7     10.719     11.485
REMARK  4 active torsions:
REMARK  status: ('A' for Active; 'I' for Inactive)
REMARK    1  A    between atoms: C2_2  and  C5_5 
REMARK    2  A    between atoms: C4_4  and  C6_6 
REMARK    3  A    between atoms: C5_5  and  O8_8 
REMARK    4  A    between atoms: C6_6  and  O8_8 
ROOT
HETATM    1  O8  UNL     1     -34.052  16.009  -4.525  1.00 20.00    -0.383 OA
ENDROOT
BRANCH   1   2
HETATM    2  C5  UNL     1     -33.117  15.854  -3.466  1.00 20.00     0.218 C 
BRANCH   2   3
HETATM    3  C2  UNL     1     -33.484  16.764  -2.337  1.00 20.00     0.026 C 
HETATM    4  C1  UNL     1     -32.706  17.755  -1.889  1.00 20.00     0.034 C 
HETATM    5 CL9  UNL     1     -35.002  16.440  -1.569  1.00 20.00    -0.088 Cl
ENDBRANCH   2   3
ENDBRANCH   1   2
BRANCH   1   6
HETATM    6  C6  UNL     1     -34.413  14.755  -5.089  1.00 20.00     0.202 C 
BRANCH   6   7
HETATM    7  C4  UNL     1     -35.377  14.054  -4.157  1.00 20.00     0.169 A 
HETATM    8  C3  UNL     1     -36.836  13.924  -4.498  1.00 20.00     0.202 A 
HETATM    9  O7  UNL     1     -35.919  12.831  -4.669  1.00 20.00    -0.379 OA
ENDBRANCH   6   7
ENDBRANCH   1   6
TORSDOF 4
ENDMDL
MODEL 4
REMARK VINA RESULT:      -3.7     16.047     16.457
REMARK  4 active torsions:
REMARK  status: ('A' for Active; 'I' for Inactive)
REMARK    1  A    between atoms: C2_2  and  C5_5 
REMARK    2  A    between atoms: C4_4  and  C6_6 
REMARK    3  A    between atoms: C5_5  and  O8_8 
REMARK    4  A    between atoms: C6_6  and  O8_8 
ROOT
HETATM    1  O8  UNL     1     -22.370  17.414  10.542  1.00 20.00    -0.383 OA
ENDROOT
BRANCH   1   2
HETATM    2  C5  UNL     1     -22.889  17.920  11.764  1.00 20.00     0.218 C 
BRANCH   2   3
HETATM    3  C2  UNL     1     -24.314  17.494  11.917  1.00 20.00     0.026 C 
HETATM    4  C1  UNL     1     -25.298  18.300  12.332  1.00 20.00     0.034 C 
HETATM    5 CL9  UNL     1     -24.648  15.832  11.566  1.00 20.00    -0.088 Cl
ENDBRANCH   2   3
ENDBRANCH   1   2
BRANCH   1   6
HETATM    6  C6  UNL     1     -22.422  18.390   9.509  1.00 20.00     0.202 C 
BRANCH   6   7
HETATM    7  C4  UNL     1     -23.345  17.901   8.414  1.00 20.00     0.169 A 
HETATM    8  C3  UNL     1     -24.294  18.837   7.719  1.00 20.00     0.202 A 
HETATM    9  O7  UNL     1     -23.057  18.427   7.114  1.00 20.00    -0.379 OA
ENDBRANCH   6   7
ENDBRANCH   1   6
TORSDOF 4
ENDMDL
MODEL 5
REMARK VINA RESULT:      -3.6     10.969     11.543
REMARK  4 active torsions:
REMARK  status: ('A' for Active; 'I' for Inactive)
REMARK    1  A    between atoms: C2_2  and  C5_5 
REMARK    2  A    between atoms: C4_4  and  C6_6 
REMARK    3  A    between atoms: C5_5  and  O8_8 
REMARK    4  A    between atoms: C6_6  and  O8_8 
ROOT
HETATM    1  O8  UNL     1     -34.012  16.000  -4.556  1.00 20.00    -0.383 OA
ENDROOT
BRANCH   1   2
HETATM    2  C5  UNL     1     -33.165  15.810  -3.431  1.00 20.00     0.218 C 
BRANCH   2   3
HETATM    3  C2  UNL     1     -33.583  16.729  -2.328  1.00 20.00     0.026 C 
HETATM    4  C1  UNL     1     -34.759  16.656  -1.696  1.00 20.00     0.034 C 
HETATM    5 CL9  UNL     1     -32.453  17.975  -1.914  1.00 20.00    -0.088 Cl
ENDBRANCH   2   3
ENDBRANCH   1   2
BRANCH   1   6
HETATM    6  C6  UNL     1     -34.412  14.760  -5.123  1.00 20.00     0.202 C 
BRANCH   6   7
HETATM    7  C4  UNL     1     -35.364  14.067  -4.172  1.00 20.00     0.169 A 
HETATM    8  C3  UNL     1     -36.824  13.917  -4.502  1.00 20.00     0.202 A 
HETATM    9  O7  UNL     1     -35.897  12.830  -4.658  1.00 20.00    -0.379 OA
ENDBRANCH   6   7
ENDBRANCH   1   6
TORSDOF 4
ENDMDL
MODEL 6
REMARK VINA RESULT:      -3.6      2.633      4.576
REMARK  4 active torsions:
REMARK  status: ('A' for Active; 'I' for Inactive)
REMARK    1  A    between atoms: C2_2  and  C5_5 
REMARK    2  A    between atoms: C4_4  and  C6_6 
REMARK    3  A    between atoms: C5_5  and  O8_8 
REMARK    4  A    between atoms: C6_6  and  O8_8 
ROOT
HETATM    1  O8  UNL     1     -34.115   5.479   2.625  1.00 20.00    -0.383 OA
ENDROOT
BRANCH   1   2
HETATM    2  C5  UNL     1     -32.733   5.660   2.345  1.00 20.00     0.218 C 
BRANCH   2   3
HETATM    3  C2  UNL     1     -32.378   7.104   2.491  1.00 20.00     0.026 C 
HETATM    4  C1  UNL     1     -31.874   7.644   3.606  1.00 20.00     0.034 C 
HETATM    5 CL9  UNL     1     -32.700   8.105   1.115  1.00 20.00    -0.088 Cl
ENDBRANCH   2   3
ENDBRANCH   1   2
BRANCH   1   6
HETATM    6  C6  UNL     1     -34.314   4.579   3.707  1.00 20.00     0.202 C 
BRANCH   6   7
HETATM    7  C4  UNL     1     -35.113   5.276   4.787  1.00 20.00     0.169 A 
HETATM    8  C3  UNL     1     -34.688   5.224   6.228  1.00 20.00     0.202 A 
HETATM    9  O7  UNL     1     -34.442   6.378   5.409  1.00 20.00    -0.379 OA
ENDBRANCH   6   7
ENDBRANCH   1   6
TORSDOF 4
ENDMDL
MODEL 7
REMARK VINA RESULT:      -3.5      2.050      2.210
REMARK  4 active torsions:
REMARK  status: ('A' for Active; 'I' for Inactive)
REMARK    1  A    between atoms: C2_2  and  C5_5 
REMARK    2  A    between atoms: C4_4  and  C6_6 
REMARK    3  A    between atoms: C5_5  and  O8_8 
REMARK    4  A    between atoms: C6_6  and  O8_8 
ROOT
HETATM    1  O8  UNL     1     -34.148   4.667   3.360  1.00 20.00    -0.383 OA
ENDROOT
BRANCH   1   2
HETATM    2  C5  UNL     1     -34.881   5.708   3.991  1.00 20.00     0.218 C 
BRANCH   2   3
HETATM    3  C2  UNL     1     -34.573   5.721   5.454  1.00 20.00     0.026 C 
HETATM    4  C1  UNL     1     -34.883   4.727   6.295  1.00 20.00     0.034 C 
HETATM    5 CL9  UNL     1     -33.809   7.154   6.054  1.00 20.00    -0.088 Cl
ENDBRANCH   2   3
ENDBRANCH   1   2
BRANCH   1   6
HETATM    6  C6  UNL     1     -33.101   5.184   2.549  1.00 20.00     0.202 C 
BRANCH   6   7
HETATM    7  C4  UNL     1     -33.093   6.694   2.657  1.00 20.00     0.169 A 
HETATM    8  C3  UNL     1     -31.838   7.444   3.009  1.00 20.00     0.202 A 
HETATM    9  O7  UNL     1     -32.314   7.358   1.656  1.00 20.00    -0.379 OA
ENDBRANCH   6   7
ENDBRANCH   1   6
TORSDOF 4
ENDMDL
MODEL 8
REMARK VINA RESULT:      -3.4     11.286     11.844
REMARK  4 active torsions:
REMARK  status: ('A' for Active; 'I' for Inactive)
REMARK    1  A    between atoms: C2_2  and  C5_5 
REMARK    2  A    between atoms: C4_4  and  C6_6 
REMARK    3  A    between atoms: C5_5  and  O8_8 
REMARK    4  A    between atoms: C6_6  and  O8_8 
ROOT
HETATM    1  O8  UNL     1     -35.407  16.055  -4.489  1.00 20.00    -0.383 OA
ENDROOT
BRANCH   1   2
HETATM    2  C5  UNL     1     -35.104  15.325  -3.308  1.00 20.00     0.218 C 
BRANCH   2   3
HETATM    3  C2  UNL     1     -34.544  16.252  -2.277  1.00 20.00     0.026 C 
HETATM    4  C1  UNL     1     -35.228  16.694  -1.215  1.00 20.00     0.034 C 
HETATM    5 CL9  UNL     1     -32.921  16.791  -2.546  1.00 20.00    -0.088 Cl
ENDBRANCH   2   3
ENDBRANCH   1   2
BRANCH   1   6
HETATM    6  C6  UNL     1     -36.594  15.576  -5.107  1.00 20.00     0.202 C 
BRANCH   6   7
HETATM    7  C4  UNL     1     -37.499  14.987  -4.046  1.00 20.00     0.169 A 
HETATM    8  C3  UNL     1     -38.991  14.943  -4.232  1.00 20.00     0.202 A 
HETATM    9  O7  UNL     1     -38.169  13.783  -4.436  1.00 20.00    -0.379 OA
ENDBRANCH   6   7
ENDBRANCH   1   6
TORSDOF 4
ENDMDL
MODEL 9
REMARK VINA RESULT:      -3.3     16.270     16.493
REMARK  4 active torsions:
REMARK  status: ('A' for Active; 'I' for Inactive)
REMARK    1  A    between atoms: C2_2  and  C5_5 
REMARK    2  A    between atoms: C4_4  and  C6_6 
REMARK    3  A    between atoms: C5_5  and  O8_8 
REMARK    4  A    between atoms: C6_6  and  O8_8 
ROOT
HETATM    1  O8  UNL     1     -24.492  17.884   9.272  1.00 20.00    -0.383 OA
ENDROOT
BRANCH   1   2
HETATM    2  C5  UNL     1     -25.163  18.814  10.112  1.00 20.00     0.218 C 
BRANCH   2   3
HETATM    3  C2  UNL     1     -25.141  18.320  11.523  1.00 20.00     0.026 C 
HETATM    4  C1  UNL     1     -26.234  18.154  12.277  1.00 20.00     0.034 C 
HETATM    5 CL9  UNL     1     -23.575  18.001  12.188  1.00 20.00    -0.088 Cl
ENDBRANCH   2   3
ENDBRANCH   1   2
BRANCH   1   6
HETATM    6  C6  UNL     1     -23.626  18.540   8.355  1.00 20.00     0.202 C 
BRANCH   6   7
HETATM    7  C4  UNL     1     -22.450  17.636   8.054  1.00 20.00     0.169 A 
HETATM    8  C3  UNL     1     -21.293  17.520   9.007  1.00 20.00     0.202 A 
HETATM    9  O7  UNL     1     -22.318  16.517   8.938  1.00 20.00    -0.379 OA
ENDBRANCH   6   7
ENDBRANCH   1   6
TORSDOF 4
ENDMDL
