MODEL 1
REMARK VINA RESULT:      -5.0      0.000      0.000
REMARK  3 active torsions:
REMARK  status: ('A' for Active; 'I' for Inactive)
REMARK    1  A    between atoms: C2_2  and  C8_8 
REMARK    2  A    between atoms: C4_4  and  C7_7 
REMARK    3  A    between atoms: C7_7  and  C8_8 
ROOT
HETATM    1  C7  UNL     1     -33.009   6.107   2.943  1.00 20.00     0.034 C 
ENDROOT
BRANCH   1   2
HETATM    2  C4  UNL     1     -32.482   7.300   2.194  1.00 20.00    -0.030 C 
HETATM    3  C3  UNL     1     -33.186   7.971   1.271  1.00 20.00    -0.035 C 
HETATM    4  C5  UNL     1     -32.664   9.157   0.528  1.00 20.00     0.035 C 
ENDBRANCH   1   2
BRANCH   1   5
HETATM    5  C8  UNL     1     -34.030   6.493   4.032  1.00 20.00     0.007 C 
HETATM    6  C6  UNL     1     -33.316   7.174   5.203  1.00 20.00     0.014 C 
BRANCH   5   7
HETATM    7  C2  UNL     1     -34.780   5.283   4.540  1.00 20.00    -0.032 C 
HETATM    8  C1  UNL     1     -34.860   4.942   5.831  1.00 20.00     0.007 C 
ENDBRANCH   5   7
ENDBRANCH   1   5
TORSDOF 3
ENDMDL
MODEL 2
REMARK VINA RESULT:      -5.0      1.140      2.096
REMARK  3 active torsions:
REMARK  status: ('A' for Active; 'I' for Inactive)
REMARK    1  A    between atoms: C2_2  and  C8_8 
REMARK    2  A    between atoms: C4_4  and  C7_7 
REMARK    3  A    between atoms: C7_7  and  C8_8 
ROOT
HETATM    1  C7  UNL     1     -33.668   4.511   3.657  1.00 20.00     0.034 C 
ENDROOT
BRANCH   1   2
HETATM    2  C4  UNL     1     -33.516   5.551   2.582  1.00 20.00    -0.030 C 
HETATM    3  C3  UNL     1     -32.694   6.606   2.674  1.00 20.00    -0.035 C 
HETATM    4  C5  UNL     1     -32.542   7.638   1.606  1.00 20.00     0.035 C 
ENDBRANCH   1   2
BRANCH   1   5
HETATM    5  C8  UNL     1     -34.864   4.789   4.589  1.00 20.00     0.007 C 
HETATM    6  C6  UNL     1     -35.855   5.732   3.902  1.00 20.00     0.014 C 
BRANCH   5   7
HETATM    7  C2  UNL     1     -34.417   5.399   5.897  1.00 20.00    -0.032 C 
HETATM    8  C1  UNL     1     -34.043   6.676   6.036  1.00 20.00     0.007 C 
ENDBRANCH   5   7
ENDBRANCH   1   5
TORSDOF 3
ENDMDL
MODEL 3
REMARK VINA RESULT:      -4.6      0.759      4.489
REMARK  3 active torsions:
REMARK  status: ('A' for Active; 'I' for Inactive)
REMARK    1  A    between atoms: C2_2  and  C8_8 
REMARK    2  A    between atoms: C4_4  and  C7_7 
REMARK    3  A    between atoms: C7_7  and  C8_8 
ROOT
HETATM    1  C7  UNL     1     -33.340   6.091   2.472  1.00 20.00     0.034 C 
ENDROOT
BRANCH   1   2
HETATM    2  C4  UNL     1     -33.776   6.108   3.910  1.00 20.00    -0.030 C 
HETATM    3  C3  UNL     1     -34.594   5.194   4.453  1.00 20.00    -0.035 C 
HETATM    4  C5  UNL     1     -35.026   5.209   5.882  1.00 20.00     0.035 C 
ENDBRANCH   1   2
BRANCH   1   5
HETATM    5  C8  UNL     1     -32.308   7.191   2.150  1.00 20.00     0.007 C 
HETATM    6  C6  UNL     1     -31.651   7.687   3.441  1.00 20.00     0.014 C 
BRANCH   5   7
HETATM    7  C2  UNL     1     -32.947   8.357   1.434  1.00 20.00    -0.032 C 
HETATM    8  C1  UNL     1     -32.890   8.544   0.111  1.00 20.00     0.007 C 
ENDBRANCH   5   7
ENDBRANCH   1   5
TORSDOF 3
ENDMDL
MODEL 4
REMARK VINA RESULT:      -3.9      1.121      4.075
REMARK  3 active torsions:
REMARK  status: ('A' for Active; 'I' for Inactive)
REMARK    1  A    between atoms: C2_2  and  C8_8 
REMARK    2  A    between atoms: C4_4  and  C7_7 
REMARK    3  A    between atoms: C7_7  and  C8_8 
ROOT
HETATM    1  C7  UNL     1     -32.782   7.383   3.958  1.00 20.00     0.034 C 
ENDROOT
BRANCH   1   2
HETATM    2  C4  UNL     1     -33.977   6.723   4.587  1.00 20.00    -0.030 C 
HETATM    3  C3  UNL     1     -33.936   6.055   5.749  1.00 20.00    -0.035 C 
HETATM    4  C5  UNL     1     -35.124   5.401   6.375  1.00 20.00     0.035 C 
ENDBRANCH   1   2
BRANCH   1   5
HETATM    5  C8  UNL     1     -32.421   6.778   2.586  1.00 20.00     0.007 C 
HETATM    6  C6  UNL     1     -32.497   7.857   1.502  1.00 20.00     0.014 C 
BRANCH   5   7
HETATM    7  C2  UNL     1     -33.345   5.639   2.223  1.00 20.00    -0.032 C 
HETATM    8  C1  UNL     1     -33.011   4.347   2.320  1.00 20.00     0.007 C 
ENDBRANCH   5   7
ENDBRANCH   1   5
TORSDOF 3
ENDMDL
MODEL 5
REMARK VINA RESULT:      -3.8     10.522     11.471
REMARK  3 active torsions:
REMARK  status: ('A' for Active; 'I' for Inactive)
REMARK    1  A    between atoms: C2_2  and  C8_8 
REMARK    2  A    between atoms: C4_4  and  C7_7 
REMARK    3  A    between atoms: C7_7  and  C8_8 
ROOT
HETATM    1  C7  UNL     1     -33.489  15.753  -3.482  1.00 20.00     0.034 C 
ENDROOT
BRANCH   1   2
HETATM    2  C4  UNL     1     -34.468  15.937  -2.357  1.00 20.00    -0.030 C 
HETATM    3  C3  UNL     1     -34.436  16.969  -1.501  1.00 20.00    -0.035 C 
HETATM    4  C5  UNL     1     -35.410  17.154  -0.384  1.00 20.00     0.035 C 
ENDBRANCH   1   2
BRANCH   1   5
HETATM    5  C8  UNL     1     -33.855  14.571  -4.402  1.00 20.00     0.007 C 
HETATM    6  C6  UNL     1     -34.051  15.065  -5.837  1.00 20.00     0.014 C 
BRANCH   5   7
HETATM    7  C2  UNL     1     -35.114  13.877  -3.936  1.00 20.00    -0.032 C 
HETATM    8  C1  UNL     1     -36.196  13.700  -4.702  1.00 20.00     0.007 C 
ENDBRANCH   5   7
ENDBRANCH   1   5
TORSDOF 3
ENDMDL
MODEL 6
REMARK VINA RESULT:      -3.8     10.638     11.447
REMARK  3 active torsions:
REMARK  status: ('A' for Active; 'I' for Inactive)
REMARK    1  A    between atoms: C2_2  and  C8_8 
REMARK    2  A    between atoms: C4_4  and  C7_7 
REMARK    3  A    between atoms: C7_7  and  C8_8 
ROOT
HETATM    1  C7  UNL     1     -34.838  15.552  -2.816  1.00 20.00     0.034 C 
ENDROOT
BRANCH   1   2
HETATM    2  C4  UNL     1     -33.598  16.376  -2.608  1.00 20.00    -0.030 C 
HETATM    3  C3  UNL     1     -33.509  17.382  -1.726  1.00 20.00    -0.035 C 
HETATM    4  C5  UNL     1     -32.276  18.200  -1.519  1.00 20.00     0.035 C 
ENDBRANCH   1   2
BRANCH   1   5
HETATM    5  C8  UNL     1     -34.598  14.336  -3.733  1.00 20.00     0.007 C 
HETATM    6  C6  UNL     1     -33.316  14.538  -4.546  1.00 20.00     0.014 C 
BRANCH   5   7
HETATM    7  C2  UNL     1     -35.758  14.116  -4.675  1.00 20.00    -0.032 C 
HETATM    8  C1  UNL     1     -37.036  14.341  -4.351  1.00 20.00     0.007 C 
ENDBRANCH   5   7
ENDBRANCH   1   5
TORSDOF 3
ENDMDL
MODEL 7
REMARK VINA RESULT:      -3.7     10.979     11.906
REMARK  3 active torsions:
REMARK  status: ('A' for Active; 'I' for Inactive)
REMARK    1  A    between atoms: C2_2  and  C8_8 
REMARK    2  A    between atoms: C4_4  and  C7_7 
REMARK    3  A    between atoms: C7_7  and  C8_8 
ROOT
HETATM    1  C7  UNL     1     -32.938  17.398  -2.253  1.00 20.00     0.034 C 
ENDROOT
BRANCH   1   2
HETATM    2  C4  UNL     1     -32.531  18.155  -1.020  1.00 20.00    -0.030 C 
HETATM    3  C3  UNL     1     -31.276  18.196  -0.549  1.00 20.00    -0.035 C 
HETATM    4  C5  UNL     1     -30.870  18.949   0.675  1.00 20.00     0.035 C 
ENDBRANCH   1   2
BRANCH   1   5
HETATM    5  C8  UNL     1     -34.426  16.995  -2.239  1.00 20.00     0.007 C 
HETATM    6  C6  UNL     1     -34.978  17.077  -0.814  1.00 20.00     0.014 C 
BRANCH   5   7
HETATM    7  C2  UNL     1     -34.625  15.595  -2.772  1.00 20.00    -0.032 C 
HETATM    8  C1  UNL     1     -33.860  15.041  -3.719  1.00 20.00     0.007 C 
ENDBRANCH   5   7
ENDBRANCH   1   5
TORSDOF 3
ENDMDL
MODEL 8
REMARK VINA RESULT:      -3.7     15.254     16.240
REMARK  3 active torsions:
REMARK  status: ('A' for Active; 'I' for Inactive)
REMARK    1  A    between atoms: C2_2  and  C8_8 
REMARK    2  A    between atoms: C4_4  and  C7_7 
REMARK    3  A    between atoms: C7_7  and  C8_8 
ROOT
HETATM    1  C7  UNL     1     -22.856  17.649  10.663  1.00 20.00     0.034 C 
ENDROOT
BRANCH   1   2
HETATM    2  C4  UNL     1     -23.645  17.784   9.391  1.00 20.00    -0.030 C 
HETATM    3  C3  UNL     1     -23.974  18.961   8.838  1.00 20.00    -0.035 C 
HETATM    4  C5  UNL     1     -24.756  19.095   7.573  1.00 20.00     0.035 C 
ENDBRANCH   1   2
BRANCH   1   5
HETATM    5  C8  UNL     1     -23.715  17.164  11.848  1.00 20.00     0.007 C 
HETATM    6  C6  UNL     1     -24.530  15.935  11.436  1.00 20.00     0.014 C 
BRANCH   5   7
HETATM    7  C2  UNL     1     -24.653  18.247  12.331  1.00 20.00    -0.032 C 
HETATM    8  C1  UNL     1     -25.987  18.152  12.289  1.00 20.00     0.007 C 
ENDBRANCH   5   7
ENDBRANCH   1   5
TORSDOF 3
ENDMDL
MODEL 9
REMARK VINA RESULT:      -3.7     11.139     12.126
REMARK  3 active torsions:
REMARK  status: ('A' for Active; 'I' for Inactive)
REMARK    1  A    between atoms: C2_2  and  C8_8 
REMARK    2  A    between atoms: C4_4  and  C7_7 
REMARK    3  A    between atoms: C7_7  and  C8_8 
ROOT
HETATM    1  C7  UNL     1     -32.914  17.860  -3.078  1.00 20.00     0.034 C 
ENDROOT
BRANCH   1   2
HETATM    2  C4  UNL     1     -32.262  18.643  -1.973  1.00 20.00    -0.030 C 
HETATM    3  C3  UNL     1     -31.684  18.082  -0.901  1.00 20.00    -0.035 C 
HETATM    4  C5  UNL     1     -31.034  18.859   0.196  1.00 20.00     0.035 C 
ENDBRANCH   1   2
BRANCH   1   5
HETATM    5  C8  UNL     1     -33.332  16.443  -2.637  1.00 20.00     0.007 C 
HETATM    6  C6  UNL     1     -33.097  15.449  -3.777  1.00 20.00     0.014 C 
BRANCH   5   7
HETATM    7  C2  UNL     1     -34.785  16.397  -2.225  1.00 20.00    -0.032 C 
HETATM    8  C1  UNL     1     -35.232  16.778  -1.023  1.00 20.00     0.007 C 
ENDBRANCH   5   7
ENDBRANCH   1   5
TORSDOF 3
ENDMDL
