MODEL 1
REMARK VINA RESULT:      -4.7      0.000      0.000
REMARK  0 active torsions:
REMARK  status: ('A' for Active; 'I' for Inactive)
ROOT
HETATM    1  C1  UNL     1     -36.750  14.648  -4.176  1.00 20.00     0.064 C 
HETATM    2  C2  UNL     1     -33.124  14.760  -4.245  1.00 20.00     0.005 C 
HETATM    3  C3  UNL     1     -34.052  15.004  -5.443  1.00 20.00     0.006 C 
HETATM    4  C4  UNL     1     -34.925  15.493  -2.671  1.00 20.00     0.024 C 
HETATM    5  C5  UNL     1     -33.888  17.014  -4.196  1.00 20.00     0.010 C 
HETATM    6  C6  UNL     1     -35.884  15.782  -3.843  1.00 20.00     0.097 C 
HETATM    7  C7  UNL     1     -33.546  15.857  -3.255  1.00 20.00    -0.013 C 
HETATM    8  C8  UNL     1     -34.918  16.193  -4.978  1.00 20.00     0.003 C 
HETATM    9  N9  UNL     1     -37.435  13.750  -4.441  1.00 20.00    -0.197 NA
ENDROOT
TORSDOF 0
ENDMDL
MODEL 2
REMARK VINA RESULT:      -4.6      1.078      2.059
REMARK  0 active torsions:
REMARK  status: ('A' for Active; 'I' for Inactive)
ROOT
HETATM    1  C1  UNL     1     -35.629  13.925  -4.432  1.00 20.00     0.064 C 
HETATM    2  C2  UNL     1     -34.363  17.325  -4.404  1.00 20.00     0.005 C 
HETATM    3  C3  UNL     1     -35.704  16.862  -3.817  1.00 20.00     0.006 C 
HETATM    4  C4  UNL     1     -33.405  15.036  -4.080  1.00 20.00     0.024 C 
HETATM    5  C5  UNL     1     -33.996  16.429  -2.230  1.00 20.00     0.010 C 
HETATM    6  C6  UNL     1     -34.720  14.532  -3.456  1.00 20.00     0.097 C 
HETATM    7  C7  UNL     1     -33.338  16.502  -3.608  1.00 20.00    -0.013 C 
HETATM    8  C8  UNL     1     -35.283  15.803  -2.778  1.00 20.00     0.003 C 
HETATM    9  N9  UNL     1     -36.349  13.444  -5.205  1.00 20.00    -0.197 NA
ENDROOT
TORSDOF 0
ENDMDL
MODEL 3
REMARK VINA RESULT:      -4.5     10.474     11.988
REMARK  0 active torsions:
REMARK  status: ('A' for Active; 'I' for Inactive)
ROOT
HETATM    1  C1  UNL     1     -42.019   9.183   0.236  1.00 20.00     0.064 C 
HETATM    2  C2  UNL     1     -41.153   5.879  -0.989  1.00 20.00     0.005 C 
HETATM    3  C3  UNL     1     -40.997   6.369   0.457  1.00 20.00     0.006 C 
HETATM    4  C4  UNL     1     -43.002   7.521  -1.370  1.00 20.00     0.024 C 
HETATM    5  C5  UNL     1     -43.242   5.678   0.133  1.00 20.00     0.010 C 
HETATM    6  C6  UNL     1     -42.905   8.025   0.083  1.00 20.00     0.097 C 
HETATM    7  C7  UNL     1     -42.662   6.023  -1.239  1.00 20.00    -0.013 C 
HETATM    8  C8  UNL     1     -42.435   6.767   0.848  1.00 20.00     0.003 C 
HETATM    9  N9  UNL     1     -41.317  10.099   0.358  1.00 20.00    -0.197 NA
ENDROOT
TORSDOF 0
ENDMDL
MODEL 4
REMARK VINA RESULT:      -4.5     10.644     12.072
REMARK  0 active torsions:
REMARK  status: ('A' for Active; 'I' for Inactive)
ROOT
HETATM    1  C1  UNL     1     -42.583   5.401   0.970  1.00 20.00     0.064 C 
HETATM    2  C2  UNL     1     -43.189   8.129  -1.344  1.00 20.00     0.005 C 
HETATM    3  C3  UNL     1     -43.411   8.174   0.174  1.00 20.00     0.006 C 
HETATM    4  C4  UNL     1     -41.451   6.352  -1.060  1.00 20.00     0.024 C 
HETATM    5  C5  UNL     1     -41.116   8.580  -0.265  1.00 20.00     0.010 C 
HETATM    6  C6  UNL     1     -41.616   6.382   0.472  1.00 20.00     0.097 C 
HETATM    7  C7  UNL     1     -41.688   7.820  -1.462  1.00 20.00    -0.013 C 
HETATM    8  C8  UNL     1     -42.013   7.852   0.741  1.00 20.00     0.003 C 
HETATM    9  N9  UNL     1     -43.350   4.624   1.365  1.00 20.00    -0.197 NA
ENDROOT
TORSDOF 0
ENDMDL
MODEL 5
REMARK VINA RESULT:      -4.4      0.877      2.215
REMARK  0 active torsions:
REMARK  status: ('A' for Active; 'I' for Inactive)
ROOT
HETATM    1  C1  UNL     1     -36.329  14.123  -4.392  1.00 20.00     0.064 C 
HETATM    2  C2  UNL     1     -35.181  17.460  -3.551  1.00 20.00     0.005 C 
HETATM    3  C3  UNL     1     -35.508  16.344  -2.548  1.00 20.00     0.006 C 
HETATM    4  C4  UNL     1     -34.659  15.759  -5.309  1.00 20.00     0.024 C 
HETATM    5  C5  UNL     1     -33.304  16.011  -3.357  1.00 20.00     0.010 C 
HETATM    6  C6  UNL     1     -34.946  14.604  -4.331  1.00 20.00     0.097 C 
HETATM    7  C7  UNL     1     -34.056  16.844  -4.396  1.00 20.00    -0.013 C 
HETATM    8  C8  UNL     1     -34.550  15.210  -2.965  1.00 20.00     0.003 C 
HETATM    9  N9  UNL     1     -37.424  13.742  -4.440  1.00 20.00    -0.197 NA
ENDROOT
TORSDOF 0
ENDMDL
MODEL 6
REMARK VINA RESULT:      -4.3     17.682     18.955
REMARK  0 active torsions:
REMARK  status: ('A' for Active; 'I' for Inactive)
ROOT
HETATM    1  C1  UNL     1     -23.391  18.228   8.813  1.00 20.00     0.064 C 
HETATM    2  C2  UNL     1     -24.269  18.420  12.329  1.00 20.00     0.005 C 
HETATM    3  C3  UNL     1     -25.193  17.949  11.197  1.00 20.00     0.006 C 
HETATM    4  C4  UNL     1     -22.261  17.738  11.001  1.00 20.00     0.024 C 
HETATM    5  C5  UNL     1     -23.815  16.133  11.849  1.00 20.00     0.010 C 
HETATM    6  C6  UNL     1     -23.148  17.223   9.851  1.00 20.00     0.097 C 
HETATM    7  C7  UNL     1     -23.101  17.424  12.254  1.00 20.00    -0.013 C 
HETATM    8  C8  UNL     1     -24.424  16.758  10.590  1.00 20.00     0.003 C 
HETATM    9  N9  UNL     1     -23.585  19.024   7.991  1.00 20.00    -0.197 NA
ENDROOT
TORSDOF 0
ENDMDL
MODEL 7
REMARK VINA RESULT:      -4.3     12.093     13.104
REMARK  0 active torsions:
REMARK  status: ('A' for Active; 'I' for Inactive)
ROOT
HETATM    1  C1  UNL     1     -32.491   6.969   3.279  1.00 20.00     0.064 C 
HETATM    2  C2  UNL     1     -34.019   4.924   5.858  1.00 20.00     0.005 C 
HETATM    3  C3  UNL     1     -34.167   6.445   5.714  1.00 20.00     0.006 C 
HETATM    4  C4  UNL     1     -33.585   4.711   3.403  1.00 20.00     0.024 C 
HETATM    5  C5  UNL     1     -35.711   5.396   4.251  1.00 20.00     0.010 C 
HETATM    6  C6  UNL     1     -33.754   6.229   3.203  1.00 20.00     0.097 C 
HETATM    7  C7  UNL     1     -34.587   4.397   4.531  1.00 20.00    -0.013 C 
HETATM    8  C8  UNL     1     -34.772   6.605   4.304  1.00 20.00     0.003 C 
HETATM    9  N9  UNL     1     -31.491   7.554   3.340  1.00 20.00    -0.197 NA
ENDROOT
TORSDOF 0
ENDMDL
MODEL 8
REMARK VINA RESULT:      -4.3     10.238     12.107
REMARK  0 active torsions:
REMARK  status: ('A' for Active; 'I' for Inactive)
ROOT
HETATM    1  C1  UNL     1     -41.686   9.016  -0.158  1.00 20.00     0.064 C 
HETATM    2  C2  UNL     1     -42.265   5.570   0.819  1.00 20.00     0.005 C 
HETATM    3  C3  UNL     1     -43.282   6.715   0.922  1.00 20.00     0.006 C 
HETATM    4  C4  UNL     1     -41.098   6.745  -1.056  1.00 20.00     0.024 C 
HETATM    5  C5  UNL     1     -43.312   5.878  -1.296  1.00 20.00     0.010 C 
HETATM    6  C6  UNL     1     -42.113   7.904  -1.012  1.00 20.00     0.097 C 
HETATM    7  C7  UNL     1     -41.956   5.520  -0.685  1.00 20.00    -0.013 C 
HETATM    8  C8  UNL     1     -43.406   7.204  -0.535  1.00 20.00     0.003 C 
HETATM    9  N9  UNL     1     -41.348   9.896   0.518  1.00 20.00    -0.197 NA
ENDROOT
TORSDOF 0
ENDMDL
MODEL 9
REMARK VINA RESULT:      -4.3     10.957     12.077
REMARK  0 active torsions:
REMARK  status: ('A' for Active; 'I' for Inactive)
ROOT
HETATM    1  C1  UNL     1     -42.282   5.224  -1.351  1.00 20.00     0.064 C 
HETATM    2  C2  UNL     1     -43.414   8.317   0.171  1.00 20.00     0.005 C 
HETATM    3  C3  UNL     1     -43.299   6.959   0.877  1.00 20.00     0.006 C 
HETATM    4  C4  UNL     1     -41.633   7.648  -1.454  1.00 20.00     0.024 C 
HETATM    5  C5  UNL     1     -41.162   7.985   0.865  1.00 20.00     0.010 C 
HETATM    6  C6  UNL     1     -41.459   6.283  -0.760  1.00 20.00     0.097 C 
HETATM    7  C7  UNL     1     -41.972   8.590  -0.283  1.00 20.00    -0.013 C 
HETATM    8  C8  UNL     1     -41.808   6.604   0.712  1.00 20.00     0.003 C 
HETATM    9  N9  UNL     1     -42.933   4.385  -1.818  1.00 20.00    -0.197 NA
ENDROOT
TORSDOF 0
ENDMDL
