MODEL 1
REMARK VINA RESULT:      -4.4      0.000      0.000
REMARK  1 active torsions:
REMARK  status: ('A' for Active; 'I' for Inactive)
REMARK    1  A    between atoms: C1_1  and  C4_4 
REMARK       I    between atoms: C1_1  and  N5_5 
ROOT
HETATM    1  C1  UNL     1     -33.943   6.438   4.679  1.00 20.00     0.326 C 
HETATM    2  C2  UNL     1     -33.572   6.072   2.195  1.00 20.00     0.152 C 
HETATM    3  C3  UNL     1     -31.917   7.282   3.559  1.00 20.00     0.152 C 
HETATM    4  N5  UNL     1     -33.193   6.579   3.511  1.00 20.00    -0.353 N 
HETATM    5  O6  UNL     1     -33.930   7.252   5.607  1.00 20.00    -0.263 OA
ENDROOT
BRANCH   1   6
HETATM    6  C4  UNL     1     -34.813   5.217   4.793  1.00 20.00     0.472 C 
HETATM    7  F7  UNL     1     -36.000   5.364   4.151  1.00 20.00    -0.162 F 
HETATM    8  F8  UNL     1     -34.214   4.107   4.293  1.00 20.00    -0.162 F 
HETATM    9  F9  UNL     1     -35.113   4.936   6.089  1.00 20.00    -0.162 F 
ENDBRANCH   1   6
TORSDOF 1
ENDMDL
MODEL 2
REMARK VINA RESULT:      -4.0     16.049     16.797
REMARK  1 active torsions:
REMARK  status: ('A' for Active; 'I' for Inactive)
REMARK    1  A    between atoms: C1_1  and  C4_4 
REMARK       I    between atoms: C1_1  and  N5_5 
ROOT
HETATM    1  C1  UNL     1     -23.473  18.176   8.201  1.00 20.00     0.326 C 
HETATM    2  C2  UNL     1     -25.344  19.263   9.527  1.00 20.00     0.152 C 
HETATM    3  C3  UNL     1     -25.521  18.973   7.087  1.00 20.00     0.152 C 
HETATM    4  N5  UNL     1     -24.726  18.782   8.294  1.00 20.00    -0.353 N 
HETATM    5  O6  UNL     1     -22.745  18.251   7.208  1.00 20.00    -0.263 OA
ENDROOT
BRANCH   1   6
HETATM    6  C4  UNL     1     -23.001  17.389   9.393  1.00 20.00     0.472 C 
HETATM    7  F7  UNL     1     -22.646  18.186  10.432  1.00 20.00    -0.162 F 
HETATM    8  F8  UNL     1     -23.942  16.523   9.847  1.00 20.00    -0.162 F 
HETATM    9  F9  UNL     1     -21.907  16.640   9.096  1.00 20.00    -0.162 F 
ENDBRANCH   1   6
TORSDOF 1
ENDMDL
MODEL 3
REMARK VINA RESULT:      -4.0      1.687      2.170
REMARK  1 active torsions:
REMARK  status: ('A' for Active; 'I' for Inactive)
REMARK    1  A    between atoms: C1_1  and  C4_4 
REMARK       I    between atoms: C1_1  and  N5_5 
ROOT
HETATM    1  C1  UNL     1     -33.702   5.617   3.339  1.00 20.00     0.326 C 
HETATM    2  C2  UNL     1     -32.580   7.585   4.483  1.00 20.00     0.152 C 
HETATM    3  C3  UNL     1     -32.543   7.354   2.031  1.00 20.00     0.152 C 
HETATM    4  N5  UNL     1     -32.972   6.805   3.312  1.00 20.00    -0.353 N 
HETATM    5  O6  UNL     1     -33.589   4.721   2.499  1.00 20.00    -0.263 OA
ENDROOT
BRANCH   1   6
HETATM    6  C4  UNL     1     -34.679   5.438   4.469  1.00 20.00     0.472 C 
HETATM    7  F7  UNL     1     -34.487   6.335   5.468  1.00 20.00    -0.162 F 
HETATM    8  F8  UNL     1     -35.968   5.553   4.061  1.00 20.00    -0.162 F 
HETATM    9  F9  UNL     1     -34.568   4.207   5.036  1.00 20.00    -0.162 F 
ENDBRANCH   1   6
TORSDOF 1
ENDMDL
MODEL 4
REMARK VINA RESULT:      -3.9     11.896     12.649
REMARK  1 active torsions:
REMARK  status: ('A' for Active; 'I' for Inactive)
REMARK    1  A    between atoms: C1_1  and  C4_4 
REMARK       I    between atoms: C1_1  and  N5_5 
ROOT
HETATM    1  C1  UNL     1     -35.883  13.996  -4.387  1.00 20.00     0.326 C 
HETATM    2  C2  UNL     1     -36.680  16.367  -4.816  1.00 20.00     0.152 C 
HETATM    3  C3  UNL     1     -38.272  14.579  -4.239  1.00 20.00     0.152 C 
HETATM    4  N5  UNL     1     -36.886  14.960  -4.483  1.00 20.00    -0.353 N 
HETATM    5  O6  UNL     1     -36.054  12.798  -4.632  1.00 20.00    -0.263 OA
ENDROOT
BRANCH   1   6
HETATM    6  C4  UNL     1     -34.519  14.465  -3.960  1.00 20.00     0.472 C 
HETATM    7  F7  UNL     1     -33.960  15.318  -4.855  1.00 20.00    -0.162 F 
HETATM    8  F8  UNL     1     -34.542  15.093  -2.757  1.00 20.00    -0.162 F 
HETATM    9  F9  UNL     1     -33.651  13.427  -3.830  1.00 20.00    -0.162 F 
ENDBRANCH   1   6
TORSDOF 1
ENDMDL
MODEL 5
REMARK VINA RESULT:      -3.9     11.902     12.645
REMARK  1 active torsions:
REMARK  status: ('A' for Active; 'I' for Inactive)
REMARK    1  A    between atoms: C1_1  and  C4_4 
REMARK       I    between atoms: C1_1  and  N5_5 
ROOT
HETATM    1  C1  UNL     1     -35.871  13.993  -4.384  1.00 20.00     0.326 C 
HETATM    2  C2  UNL     1     -36.668  16.364  -4.811  1.00 20.00     0.152 C 
HETATM    3  C3  UNL     1     -38.260  14.575  -4.238  1.00 20.00     0.152 C 
HETATM    4  N5  UNL     1     -36.875  14.957  -4.480  1.00 20.00    -0.353 N 
HETATM    5  O6  UNL     1     -36.042  12.796  -4.631  1.00 20.00    -0.263 OA
ENDROOT
BRANCH   1   6
HETATM    6  C4  UNL     1     -34.508  14.461  -3.954  1.00 20.00     0.472 C 
HETATM    7  F7  UNL     1     -34.533  15.103  -2.758  1.00 20.00    -0.162 F 
HETATM    8  F8  UNL     1     -33.619  13.442  -3.850  1.00 20.00    -0.162 F 
HETATM    9  F9  UNL     1     -33.977  15.340  -4.845  1.00 20.00    -0.162 F 
ENDBRANCH   1   6
TORSDOF 1
ENDMDL
MODEL 6
REMARK VINA RESULT:      -3.9      1.786      2.323
REMARK  1 active torsions:
REMARK  status: ('A' for Active; 'I' for Inactive)
REMARK    1  A    between atoms: C1_1  and  C4_4 
REMARK       I    between atoms: C1_1  and  N5_5 
ROOT
HETATM    1  C1  UNL     1     -34.131   4.689   3.972  1.00 20.00     0.326 C 
HETATM    2  C2  UNL     1     -32.910   6.685   2.990  1.00 20.00     0.152 C 
HETATM    3  C3  UNL     1     -33.147   4.590   1.716  1.00 20.00     0.152 C 
HETATM    4  N5  UNL     1     -33.423   5.318   2.948  1.00 20.00    -0.353 N 
HETATM    5  O6  UNL     1     -34.103   3.473   4.182  1.00 20.00    -0.263 OA
ENDROOT
BRANCH   1   6
HETATM    6  C4  UNL     1     -34.973   5.562   4.862  1.00 20.00     0.472 C 
HETATM    7  F7  UNL     1     -34.316   6.681   5.261  1.00 20.00    -0.162 F 
HETATM    8  F8  UNL     1     -36.123   5.958   4.261  1.00 20.00    -0.162 F 
HETATM    9  F9  UNL     1     -35.341   4.912   5.998  1.00 20.00    -0.162 F 
ENDBRANCH   1   6
TORSDOF 1
ENDMDL
MODEL 7
REMARK VINA RESULT:      -3.8     16.957     17.475
REMARK  1 active torsions:
REMARK  status: ('A' for Active; 'I' for Inactive)
REMARK    1  A    between atoms: C1_1  and  C4_4 
REMARK       I    between atoms: C1_1  and  N5_5 
ROOT
HETATM    1  C1  UNL     1     -23.923  18.270  10.175  1.00 20.00     0.326 C 
HETATM    2  C2  UNL     1     -22.442  17.763  12.171  1.00 20.00     0.152 C 
HETATM    3  C3  UNL     1     -24.892  17.578  12.331  1.00 20.00     0.152 C 
HETATM    4  N5  UNL     1     -23.734  17.888  11.503  1.00 20.00    -0.353 N 
HETATM    5  O6  UNL     1     -24.922  18.870   9.767  1.00 20.00    -0.263 OA
ENDROOT
BRANCH   1   6
HETATM    6  C4  UNL     1     -22.833  17.923   9.198  1.00 20.00     0.472 C 
HETATM    7  F7  UNL     1     -21.743  18.720   9.332  1.00 20.00    -0.162 F 
HETATM    8  F8  UNL     1     -22.416  16.638   9.324  1.00 20.00    -0.162 F 
HETATM    9  F9  UNL     1     -23.251  18.062   7.912  1.00 20.00    -0.162 F 
ENDBRANCH   1   6
TORSDOF 1
ENDMDL
MODEL 8
REMARK VINA RESULT:      -3.8     16.275     16.866
REMARK  1 active torsions:
REMARK  status: ('A' for Active; 'I' for Inactive)
REMARK    1  A    between atoms: C1_1  and  C4_4 
REMARK       I    between atoms: C1_1  and  N5_5 
ROOT
HETATM    1  C1  UNL     1     -22.885  17.415  11.122  1.00 20.00     0.326 C 
HETATM    2  C2  UNL     1     -23.720  18.425   8.949  1.00 20.00     0.152 C 
HETATM    3  C3  UNL     1     -21.313  18.316   9.454  1.00 20.00     0.152 C 
HETATM    4  N5  UNL     1     -22.674  18.028   9.887  1.00 20.00    -0.353 N 
HETATM    5  O6  UNL     1     -22.140  17.554  12.095  1.00 20.00    -0.263 OA
ENDROOT
BRANCH   1   6
HETATM    6  C4  UNL     1     -24.100  16.538  11.254  1.00 20.00     0.472 C 
HETATM    7  F7  UNL     1     -25.223  17.246  11.537  1.00 20.00    -0.162 F 
HETATM    8  F8  UNL     1     -24.345  15.820  10.129  1.00 20.00    -0.162 F 
HETATM    9  F9  UNL     1     -23.958  15.633  12.258  1.00 20.00    -0.162 F 
ENDBRANCH   1   6
TORSDOF 1
ENDMDL
MODEL 9
REMARK VINA RESULT:      -3.7     12.324     13.058
REMARK  1 active torsions:
REMARK  status: ('A' for Active; 'I' for Inactive)
REMARK    1  A    between atoms: C1_1  and  C4_4 
REMARK       I    between atoms: C1_1  and  N5_5 
ROOT
HETATM    1  C1  UNL     1     -35.407  14.609  -5.195  1.00 20.00     0.326 C 
HETATM    2  C2  UNL     1     -34.433  16.952  -5.132  1.00 20.00     0.152 C 
HETATM    3  C3  UNL     1     -36.683  16.537  -6.044  1.00 20.00     0.152 C 
HETATM    4  N5  UNL     1     -35.480  15.980  -5.437  1.00 20.00    -0.353 N 
HETATM    5  O6  UNL     1     -35.983  13.758  -5.878  1.00 20.00    -0.263 OA
ENDROOT
BRANCH   1   6
HETATM    6  C4  UNL     1     -34.570  14.162  -4.028  1.00 20.00     0.472 C 
HETATM    7  F7  UNL     1     -33.239  14.232  -4.287  1.00 20.00    -0.162 F 
HETATM    8  F8  UNL     1     -34.806  14.894  -2.911  1.00 20.00    -0.162 F 
HETATM    9  F9  UNL     1     -34.824  12.868  -3.696  1.00 20.00    -0.162 F 
ENDBRANCH   1   6
TORSDOF 1
ENDMDL
