MODEL 1
REMARK VINA RESULT:      -3.7      0.000      0.000
REMARK  2 active torsions:
REMARK  status: ('A' for Active; 'I' for Inactive)
REMARK    1  A    between atoms: C3_3  and  C4_4 
REMARK    2  A    between atoms: C4_4  and  S6_6 
ROOT
HETATM    1  C1  UNL     1     -22.089  17.509   8.102  1.00 20.00     0.133 C 
HETATM    2  N5  UNL     1     -21.652  16.825   7.272  1.00 20.00    -0.184 NA
HETATM    3  S6  UNL     1     -22.720  18.510   9.307  1.00 20.00    -0.046 SA
ENDROOT
BRANCH   3   4
HETATM    4  C4  UNL     1     -24.121  17.471   9.811  1.00 20.00     0.135 C 
BRANCH   4   5
HETATM    5  C3  UNL     1     -23.880  16.861  11.160  1.00 20.00    -0.011 C 
HETATM    6  C2  UNL     1     -24.567  15.805  11.618  1.00 20.00     0.027 C 
HETATM    7 BR7  UNL     1     -22.604  17.724  12.229  1.00 20.00    -0.056 Br
ENDBRANCH   4   5
ENDBRANCH   3   4
TORSDOF 2
ENDMDL
MODEL 2
REMARK VINA RESULT:      -3.5     16.022     16.296
REMARK  2 active torsions:
REMARK  status: ('A' for Active; 'I' for Inactive)
REMARK    1  A    between atoms: C3_3  and  C4_4 
REMARK    2  A    between atoms: C4_4  and  S6_6 
ROOT
HETATM    1  C1  UNL     1     -32.596   7.951   1.494  1.00 20.00     0.133 C 
HETATM    2  N5  UNL     1     -32.836   8.441   0.470  1.00 20.00    -0.184 NA
HETATM    3  S6  UNL     1     -32.242   7.244   2.987  1.00 20.00    -0.046 SA
ENDROOT
BRANCH   3   4
HETATM    4  C4  UNL     1     -33.434   5.877   2.924  1.00 20.00     0.135 C 
BRANCH   4   5
HETATM    5  C3  UNL     1     -34.224   5.794   4.196  1.00 20.00    -0.011 C 
HETATM    6  C2  UNL     1     -35.309   5.018   4.334  1.00 20.00     0.027 C 
HETATM    7 BR7  UNL     1     -33.660   6.924   5.583  1.00 20.00    -0.056 Br
ENDBRANCH   4   5
ENDBRANCH   3   4
TORSDOF 2
ENDMDL
MODEL 3
REMARK VINA RESULT:      -3.4      2.178      2.327
REMARK  2 active torsions:
REMARK  status: ('A' for Active; 'I' for Inactive)
REMARK    1  A    between atoms: C3_3  and  C4_4 
REMARK    2  A    between atoms: C4_4  and  S6_6 
ROOT
HETATM    1  C1  UNL     1     -24.239  18.939   7.621  1.00 20.00     0.133 C 
HETATM    2  N5  UNL     1     -24.020  19.031   6.484  1.00 20.00    -0.184 NA
HETATM    3  S6  UNL     1     -24.564  18.810   9.274  1.00 20.00    -0.046 SA
ENDROOT
BRANCH   3   4
HETATM    4  C4  UNL     1     -23.489  17.396   9.647  1.00 20.00     0.135 C 
BRANCH   4   5
HETATM    5  C3  UNL     1     -23.443  17.132  11.123  1.00 20.00    -0.011 C 
HETATM    6  C2  UNL     1     -22.552  17.710  11.942  1.00 20.00     0.027 C 
HETATM    7 BR7  UNL     1     -24.660  15.857  11.762  1.00 20.00    -0.056 Br
ENDBRANCH   4   5
ENDBRANCH   3   4
TORSDOF 2
ENDMDL
MODEL 4
REMARK VINA RESULT:      -3.4     18.380     18.736
REMARK  2 active torsions:
REMARK  status: ('A' for Active; 'I' for Inactive)
REMARK    1  A    between atoms: C3_3  and  C4_4 
REMARK    2  A    between atoms: C4_4  and  S6_6 
ROOT
HETATM    1  C1  UNL     1     -36.273  13.812  -4.502  1.00 20.00     0.133 C 
HETATM    2  N5  UNL     1     -35.865  12.727  -4.557  1.00 20.00    -0.184 NA
HETATM    3  S6  UNL     1     -36.876  15.389  -4.418  1.00 20.00    -0.046 SA
ENDROOT
BRANCH   3   4
HETATM    4  C4  UNL     1     -35.319  16.284  -4.682  1.00 20.00     0.135 C 
BRANCH   4   5
HETATM    5  C3  UNL     1     -34.367  16.051  -3.546  1.00 20.00    -0.011 C 
HETATM    6  C2  UNL     1     -33.135  15.550  -3.715  1.00 20.00     0.027 C 
HETATM    7 BR7  UNL     1     -35.036  16.419  -1.833  1.00 20.00    -0.056 Br
ENDBRANCH   4   5
ENDBRANCH   3   4
TORSDOF 2
ENDMDL
MODEL 5
REMARK VINA RESULT:      -3.4     18.118     18.482
REMARK  2 active torsions:
REMARK  status: ('A' for Active; 'I' for Inactive)
REMARK    1  A    between atoms: C3_3  and  C4_4 
REMARK    2  A    between atoms: C4_4  and  S6_6 
ROOT
HETATM    1  C1  UNL     1     -37.060  14.792  -4.143  1.00 20.00     0.133 C 
HETATM    2  N5  UNL     1     -37.524  13.767  -4.430  1.00 20.00    -0.184 NA
HETATM    3  S6  UNL     1     -36.392  16.288  -3.731  1.00 20.00    -0.046 SA
ENDROOT
BRANCH   3   4
HETATM    4  C4  UNL     1     -35.171  15.709  -2.520  1.00 20.00     0.135 C 
BRANCH   4   5
HETATM    5  C3  UNL     1     -33.774  15.900  -3.032  1.00 20.00    -0.011 C 
HETATM    6  C2  UNL     1     -32.972  16.891  -2.618  1.00 20.00     0.027 C 
HETATM    7 BR7  UNL     1     -33.228  14.710  -4.374  1.00 20.00    -0.056 Br
ENDBRANCH   4   5
ENDBRANCH   3   4
TORSDOF 2
ENDMDL
MODEL 6
REMARK VINA RESULT:      -3.4     18.416     18.777
REMARK  2 active torsions:
REMARK  status: ('A' for Active; 'I' for Inactive)
REMARK    1  A    between atoms: C3_3  and  C4_4 
REMARK    2  A    between atoms: C4_4  and  S6_6 
ROOT
HETATM    1  C1  UNL     1     -37.100  14.340  -4.665  1.00 20.00     0.133 C 
HETATM    2  N5  UNL     1     -38.150  14.031  -4.277  1.00 20.00    -0.184 NA
HETATM    3  S6  UNL     1     -35.576  14.793  -5.237  1.00 20.00    -0.046 SA
ENDROOT
BRANCH   3   4
HETATM    4  C4  UNL     1     -34.610  14.416  -3.747  1.00 20.00     0.135 C 
BRANCH   4   5
HETATM    5  C3  UNL     1     -34.124  15.674  -3.090  1.00 20.00    -0.011 C 
HETATM    6  C2  UNL     1     -32.916  16.204  -3.329  1.00 20.00     0.027 C 
HETATM    7 BR7  UNL     1     -35.282  16.433  -1.825  1.00 20.00    -0.056 Br
ENDBRANCH   4   5
ENDBRANCH   3   4
TORSDOF 2
ENDMDL
MODEL 7
REMARK VINA RESULT:      -3.3     15.584     15.928
REMARK  2 active torsions:
REMARK  status: ('A' for Active; 'I' for Inactive)
REMARK    1  A    between atoms: C3_3  and  C4_4 
REMARK    2  A    between atoms: C4_4  and  S6_6 
ROOT
HETATM    1  C1  UNL     1     -31.642  18.264  -0.792  1.00 20.00     0.133 C 
HETATM    2  N5  UNL     1     -30.553  18.411  -0.418  1.00 20.00    -0.184 NA
HETATM    3  S6  UNL     1     -33.230  18.055  -1.332  1.00 20.00    -0.046 SA
ENDROOT
BRANCH   3   4
HETATM    4  C4  UNL     1     -32.884  17.020  -2.782  1.00 20.00     0.135 C 
BRANCH   4   5
HETATM    5  C3  UNL     1     -33.944  15.973  -2.959  1.00 20.00    -0.011 C 
HETATM    6  C2  UNL     1     -35.040  15.904  -2.189  1.00 20.00     0.027 C 
HETATM    7 BR7  UNL     1     -33.608  14.687  -4.282  1.00 20.00    -0.056 Br
ENDBRANCH   4   5
ENDBRANCH   3   4
TORSDOF 2
ENDMDL
MODEL 8
REMARK VINA RESULT:      -3.3     17.563     17.873
REMARK  2 active torsions:
REMARK  status: ('A' for Active; 'I' for Inactive)
REMARK    1  A    between atoms: C3_3  and  C4_4 
REMARK    2  A    between atoms: C4_4  and  S6_6 
ROOT
HETATM    1  C1  UNL     1     -35.552  13.941  -4.657  1.00 20.00     0.133 C 
HETATM    2  N5  UNL     1     -35.943  12.855  -4.526  1.00 20.00    -0.184 NA
HETATM    3  S6  UNL     1     -34.990  15.522  -4.853  1.00 20.00    -0.046 SA
ENDROOT
BRANCH   3   4
HETATM    4  C4  UNL     1     -33.657  15.485  -3.622  1.00 20.00     0.135 C 
BRANCH   4   5
HETATM    5  C3  UNL     1     -33.988  16.357  -2.446  1.00 20.00    -0.011 C 
HETATM    6  C2  UNL     1     -35.118  16.229  -1.737  1.00 20.00     0.027 C 
HETATM    7 BR7  UNL     1     -32.756  17.720  -2.069  1.00 20.00    -0.056 Br
ENDBRANCH   4   5
ENDBRANCH   3   4
TORSDOF 2
ENDMDL
MODEL 9
REMARK VINA RESULT:      -3.3     18.496     18.817
REMARK  2 active torsions:
REMARK  status: ('A' for Active; 'I' for Inactive)
REMARK    1  A    between atoms: C3_3  and  C4_4 
REMARK    2  A    between atoms: C4_4  and  S6_6 
ROOT
HETATM    1  C1  UNL     1     -36.441  13.814  -4.481  1.00 20.00     0.133 C 
HETATM    2  N5  UNL     1     -35.869  12.816  -4.639  1.00 20.00    -0.184 NA
HETATM    3  S6  UNL     1     -37.281  15.262  -4.251  1.00 20.00    -0.046 SA
ENDROOT
BRANCH   3   4
HETATM    4  C4  UNL     1     -35.867  16.400  -4.292  1.00 20.00     0.135 C 
BRANCH   4   5
HETATM    5  C3  UNL     1     -34.884  16.074  -3.206  1.00 20.00    -0.011 C 
HETATM    6  C2  UNL     1     -35.168  16.201  -1.902  1.00 20.00     0.027 C 
HETATM    7 BR7  UNL     1     -33.175  15.557  -3.780  1.00 20.00    -0.056 Br
ENDBRANCH   4   5
ENDBRANCH   3   4
TORSDOF 2
ENDMDL
