MODEL 1
REMARK VINA RESULT:      -3.9      0.000      0.000
REMARK  3 active torsions:
REMARK  status: ('A' for Active; 'I' for Inactive)
REMARK    1  A    between atoms: C1_1  and  C7_7 
REMARK    2  A    between atoms: C1_1  and  C9_9 
REMARK    3  A    between atoms: C7_7  and  C8_8 
ROOT
HETATM    1  C1  UNL     1     -33.726  15.064  -4.787  1.00 20.00     0.134 C 
HETATM    2  O10 UNL     1     -33.364  13.921  -4.498  1.00 20.00    -0.297 OA
ENDROOT
BRANCH   1   3
HETATM    3  C7  UNL     1     -33.348  16.250  -3.903  1.00 20.00     0.083 C 
BRANCH   3   4
HETATM    4  C8  UNL     1     -33.878  16.135  -2.464  1.00 20.00    -0.016 C 
HETATM    5  C2  UNL     1     -35.391  15.909  -2.480  1.00 20.00     0.010 C 
HETATM    6  C3  UNL     1     -33.550  17.388  -1.648  1.00 20.00     0.010 C 
ENDBRANCH   3   4
ENDBRANCH   1   3
BRANCH   1   7
HETATM    7  C9  UNL     1     -34.583  15.340  -6.040  1.00 20.00     0.009 C 
HETATM    8  C4  UNL     1     -35.015  16.818  -6.051  1.00 20.00     0.022 C 
HETATM    9  C5  UNL     1     -33.780  15.061  -7.317  1.00 20.00     0.022 C 
HETATM   10  C6  UNL     1     -35.835  14.457  -5.993  1.00 20.00     0.022 C 
ENDBRANCH   1   7
TORSDOF 3
ENDMDL
MODEL 2
REMARK VINA RESULT:      -3.9      0.021      1.373
REMARK  3 active torsions:
REMARK  status: ('A' for Active; 'I' for Inactive)
REMARK    1  A    between atoms: C1_1  and  C7_7 
REMARK    2  A    between atoms: C1_1  and  C9_9 
REMARK    3  A    between atoms: C7_7  and  C8_8 
ROOT
HETATM    1  C1  UNL     1     -33.725  15.069  -4.785  1.00 20.00     0.134 C 
HETATM    2  O10 UNL     1     -33.362  13.923  -4.507  1.00 20.00    -0.297 OA
ENDROOT
BRANCH   1   3
HETATM    3  C7  UNL     1     -33.341  16.248  -3.895  1.00 20.00     0.083 C 
BRANCH   3   4
HETATM    4  C8  UNL     1     -33.878  16.131  -2.459  1.00 20.00    -0.016 C 
HETATM    5  C2  UNL     1     -35.390  15.902  -2.481  1.00 20.00     0.010 C 
HETATM    6  C3  UNL     1     -33.556  17.385  -1.641  1.00 20.00     0.010 C 
ENDBRANCH   3   4
ENDBRANCH   1   3
BRANCH   1   7
HETATM    7  C9  UNL     1     -34.590  15.354  -6.032  1.00 20.00     0.009 C 
HETATM    8  C4  UNL     1     -33.774  15.052  -7.302  1.00 20.00     0.022 C 
HETATM    9  C5  UNL     1     -35.841  14.466  -6.038  1.00 20.00     0.022 C 
HETATM   10  C6  UNL     1     -34.985  16.835  -6.037  1.00 20.00     0.022 C 
ENDBRANCH   1   7
TORSDOF 3
ENDMDL
MODEL 3
REMARK VINA RESULT:      -3.9      0.031      1.375
REMARK  3 active torsions:
REMARK  status: ('A' for Active; 'I' for Inactive)
REMARK    1  A    between atoms: C1_1  and  C7_7 
REMARK    2  A    between atoms: C1_1  and  C9_9 
REMARK    3  A    between atoms: C7_7  and  C8_8 
ROOT
HETATM    1  C1  UNL     1     -33.737  15.076  -4.775  1.00 20.00     0.134 C 
HETATM    2  O10 UNL     1     -33.387  13.929  -4.487  1.00 20.00    -0.297 OA
ENDROOT
BRANCH   1   3
HETATM    3  C7  UNL     1     -33.339  16.258  -3.894  1.00 20.00     0.083 C 
BRANCH   3   4
HETATM    4  C8  UNL     1     -33.861  16.149  -2.452  1.00 20.00    -0.016 C 
HETATM    5  C2  UNL     1     -35.374  15.926  -2.457  1.00 20.00     0.010 C 
HETATM    6  C3  UNL     1     -33.525  17.406  -1.643  1.00 20.00     0.010 C 
ENDBRANCH   3   4
ENDBRANCH   1   3
BRANCH   1   7
HETATM    7  C9  UNL     1     -34.599  15.361  -6.023  1.00 20.00     0.009 C 
HETATM    8  C4  UNL     1     -35.844  14.457  -6.004  1.00 20.00     0.022 C 
HETATM    9  C5  UNL     1     -35.062  16.824  -6.039  1.00 20.00     0.022 C 
HETATM   10  C6  UNL     1     -33.777  15.048  -7.279  1.00 20.00     0.022 C 
ENDBRANCH   1   7
TORSDOF 3
ENDMDL
MODEL 4
REMARK VINA RESULT:      -3.8     17.577     18.672
REMARK  3 active torsions:
REMARK  status: ('A' for Active; 'I' for Inactive)
REMARK    1  A    between atoms: C1_1  and  C7_7 
REMARK    2  A    between atoms: C1_1  and  C9_9 
REMARK    3  A    between atoms: C7_7  and  C8_8 
ROOT
HETATM    1  C1  UNL     1     -24.456  18.069  10.068  1.00 20.00     0.134 C 
HETATM    2  O10 UNL     1     -25.083  18.984   9.527  1.00 20.00    -0.297 OA
ENDROOT
BRANCH   1   3
HETATM    3  C7  UNL     1     -23.467  17.222   9.272  1.00 20.00     0.083 C 
BRANCH   3   4
HETATM    4  C8  UNL     1     -22.336  18.043   8.631  1.00 20.00    -0.016 C 
HETATM    5  C2  UNL     1     -21.665  17.233   7.521  1.00 20.00     0.010 C 
HETATM    6  C3  UNL     1     -21.293  18.459   9.672  1.00 20.00     0.010 C 
ENDBRANCH   3   4
ENDBRANCH   1   3
BRANCH   1   7
HETATM    7  C9  UNL     1     -24.655  17.737  11.562  1.00 20.00     0.009 C 
HETATM    8  C4  UNL     1     -25.836  18.554  12.116  1.00 20.00     0.022 C 
HETATM    9  C5  UNL     1     -24.968  16.246  11.748  1.00 20.00     0.022 C 
HETATM   10  C6  UNL     1     -23.384  18.116  12.331  1.00 20.00     0.022 C 
ENDBRANCH   1   7
TORSDOF 3
ENDMDL
MODEL 5
REMARK VINA RESULT:      -3.7      1.350      2.142
REMARK  3 active torsions:
REMARK  status: ('A' for Active; 'I' for Inactive)
REMARK    1  A    between atoms: C1_1  and  C7_7 
REMARK    2  A    between atoms: C1_1  and  C9_9 
REMARK    3  A    between atoms: C7_7  and  C8_8 
ROOT
HETATM    1  C1  UNL     1     -35.528  14.873  -5.476  1.00 20.00     0.134 C 
HETATM    2  O10 UNL     1     -35.757  13.661  -5.442  1.00 20.00    -0.297 OA
ENDROOT
BRANCH   1   3
HETATM    3  C7  UNL     1     -35.686  15.733  -4.225  1.00 20.00     0.083 C 
BRANCH   3   4
HETATM    4  C8  UNL     1     -34.690  15.380  -3.109  1.00 20.00    -0.016 C 
HETATM    5  C2  UNL     1     -35.021  16.168  -1.841  1.00 20.00     0.010 C 
HETATM    6  C3  UNL     1     -33.248  15.670  -3.537  1.00 20.00     0.010 C 
ENDBRANCH   3   4
ENDBRANCH   1   3
BRANCH   1   7
HETATM    7  C9  UNL     1     -35.086  15.567  -6.782  1.00 20.00     0.009 C 
HETATM    8  C4  UNL     1     -33.709  15.029  -7.208  1.00 20.00     0.022 C 
HETATM    9  C5  UNL     1     -36.087  15.287  -7.910  1.00 20.00     0.022 C 
HETATM   10  C6  UNL     1     -34.973  17.076  -6.530  1.00 20.00     0.022 C 
ENDBRANCH   1   7
TORSDOF 3
ENDMDL
MODEL 6
REMARK VINA RESULT:      -3.7      1.797      2.496
REMARK  3 active torsions:
REMARK  status: ('A' for Active; 'I' for Inactive)
REMARK    1  A    between atoms: C1_1  and  C7_7 
REMARK    2  A    between atoms: C1_1  and  C9_9 
REMARK    3  A    between atoms: C7_7  and  C8_8 
ROOT
HETATM    1  C1  UNL     1     -34.187  15.970  -2.738  1.00 20.00     0.134 C 
HETATM    2  O10 UNL     1     -35.043  15.875  -1.855  1.00 20.00    -0.297 OA
ENDROOT
BRANCH   1   3
HETATM    3  C7  UNL     1     -32.955  16.849  -2.541  1.00 20.00     0.083 C 
BRANCH   3   4
HETATM    4  C8  UNL     1     -33.123  17.897  -1.429  1.00 20.00    -0.016 C 
HETATM    5  C2  UNL     1     -33.847  19.129  -1.975  1.00 20.00     0.010 C 
HETATM    6  C3  UNL     1     -31.769  18.309  -0.844  1.00 20.00     0.010 C 
ENDBRANCH   3   4
ENDBRANCH   1   3
BRANCH   1   7
HETATM    7  C9  UNL     1     -34.333  15.217  -4.078  1.00 20.00     0.009 C 
HETATM    8  C4  UNL     1     -34.628  16.226  -5.203  1.00 20.00     0.022 C 
HETATM    9  C5  UNL     1     -33.037  14.472  -4.424  1.00 20.00     0.022 C 
HETATM   10  C6  UNL     1     -35.504  14.233  -3.973  1.00 20.00     0.022 C 
ENDBRANCH   1   7
TORSDOF 3
ENDMDL
MODEL 7
REMARK VINA RESULT:      -3.7      2.110      3.218
REMARK  3 active torsions:
REMARK  status: ('A' for Active; 'I' for Inactive)
REMARK    1  A    between atoms: C1_1  and  C7_7 
REMARK    2  A    between atoms: C1_1  and  C9_9 
REMARK    3  A    between atoms: C7_7  and  C8_8 
ROOT
HETATM    1  C1  UNL     1     -36.296  14.496  -4.085  1.00 20.00     0.134 C 
HETATM    2  O10 UNL     1     -36.373  13.347  -4.530  1.00 20.00    -0.297 OA
ENDROOT
BRANCH   1   3
HETATM    3  C7  UNL     1     -35.154  14.899  -3.157  1.00 20.00     0.083 C 
BRANCH   3   4
HETATM    4  C8  UNL     1     -33.964  15.538  -3.892  1.00 20.00    -0.016 C 
HETATM    5  C2  UNL     1     -33.025  14.449  -4.415  1.00 20.00     0.010 C 
HETATM    6  C3  UNL     1     -33.192  16.492  -2.976  1.00 20.00     0.010 C 
ENDBRANCH   3   4
ENDBRANCH   1   3
BRANCH   1   7
HETATM    7  C9  UNL     1     -37.353  15.563  -4.438  1.00 20.00     0.009 C 
HETATM    8  C4  UNL     1     -38.761  14.959  -4.289  1.00 20.00     0.022 C 
HETATM    9  C5  UNL     1     -37.242  16.769  -3.495  1.00 20.00     0.022 C 
HETATM   10  C6  UNL     1     -37.153  16.003  -5.893  1.00 20.00     0.022 C 
ENDBRANCH   1   7
TORSDOF 3
ENDMDL
MODEL 8
REMARK VINA RESULT:      -3.7      1.244      2.441
REMARK  3 active torsions:
REMARK  status: ('A' for Active; 'I' for Inactive)
REMARK    1  A    between atoms: C1_1  and  C7_7 
REMARK    2  A    between atoms: C1_1  and  C9_9 
REMARK    3  A    between atoms: C7_7  and  C8_8 
ROOT
HETATM    1  C1  UNL     1     -34.309  14.871  -3.990  1.00 20.00     0.134 C 
HETATM    2  O10 UNL     1     -33.395  14.146  -4.393  1.00 20.00    -0.297 OA
ENDROOT
BRANCH   1   3
HETATM    3  C7  UNL     1     -34.114  15.770  -2.772  1.00 20.00     0.083 C 
BRANCH   3   4
HETATM    4  C8  UNL     1     -33.075  16.882  -2.991  1.00 20.00    -0.016 C 
HETATM    5  C2  UNL     1     -32.852  17.655  -1.691  1.00 20.00     0.010 C 
HETATM    6  C3  UNL     1     -33.516  17.844  -4.098  1.00 20.00     0.010 C 
ENDBRANCH   3   4
ENDBRANCH   1   3
BRANCH   1   7
HETATM    7  C9  UNL     1     -35.684  14.889  -4.690  1.00 20.00     0.009 C 
HETATM    8  C4  UNL     1     -36.321  13.490  -4.606  1.00 20.00     0.022 C 
HETATM    9  C5  UNL     1     -36.626  15.891  -4.010  1.00 20.00     0.022 C 
HETATM   10  C6  UNL     1     -35.488  15.257  -6.166  1.00 20.00     0.022 C 
ENDBRANCH   1   7
TORSDOF 3
ENDMDL
MODEL 9
REMARK VINA RESULT:      -3.6      2.746      3.832
REMARK  3 active torsions:
REMARK  status: ('A' for Active; 'I' for Inactive)
REMARK    1  A    between atoms: C1_1  and  C7_7 
REMARK    2  A    between atoms: C1_1  and  C9_9 
REMARK    3  A    between atoms: C7_7  and  C8_8 
ROOT
HETATM    1  C1  UNL     1     -37.173  14.846  -4.564  1.00 20.00     0.134 C 
HETATM    2  O10 UNL     1     -37.394  13.637  -4.457  1.00 20.00    -0.297 OA
ENDROOT
BRANCH   1   3
HETATM    3  C7  UNL     1     -35.748  15.369  -4.717  1.00 20.00     0.083 C 
BRANCH   3   4
HETATM    4  C8  UNL     1     -34.772  14.800  -3.674  1.00 20.00    -0.016 C 
HETATM    5  C2  UNL     1     -34.653  15.760  -2.489  1.00 20.00     0.010 C 
HETATM    6  C3  UNL     1     -33.388  14.555  -4.282  1.00 20.00     0.010 C 
ENDBRANCH   3   4
ENDBRANCH   1   3
BRANCH   1   7
HETATM    7  C9  UNL     1     -38.323  15.875  -4.533  1.00 20.00     0.009 C 
HETATM    8  C4  UNL     1     -39.632  15.170  -4.134  1.00 20.00     0.022 C 
HETATM    9  C5  UNL     1     -38.035  16.979  -3.507  1.00 20.00     0.022 C 
HETATM   10  C6  UNL     1     -38.491  16.478  -5.933  1.00 20.00     0.022 C 
ENDBRANCH   1   7
TORSDOF 3
ENDMDL
