MODEL 1
REMARK VINA RESULT:      -5.4      0.000      0.000
REMARK  3 active torsions:
REMARK  status: ('A' for Active; 'I' for Inactive)
REMARK    1  A    between atoms: C5_5  and  C7_7 
REMARK    2  A    between atoms: C6_6  and  C8_8 
REMARK    3  A    between atoms: C7_7  and  C8_8 
ROOT
HETATM    1  C1  UNL     1     -32.297   7.202   2.768  1.00 20.00     0.012 C 
HETATM    2  C3  UNL     1     -32.829   6.140   2.595  1.00 20.00    -0.117 C 
HETATM    3  C5  UNL     1     -33.481   4.841   2.377  1.00 20.00     0.093 C 
ENDROOT
BRANCH   3   4
HETATM    4  C7  UNL     1     -33.951   4.200   3.685  1.00 20.00     0.013 C 
BRANCH   4   5
HETATM    5  C8  UNL     1     -35.157   4.923   4.300  1.00 20.00     0.013 C 
BRANCH   5   6
HETATM    6  C6  UNL     1     -34.966   5.235   5.787  1.00 20.00     0.093 C 
HETATM    7  C4  UNL     1     -34.152   6.439   6.003  1.00 20.00    -0.117 C 
HETATM    8  C2  UNL     1     -33.485   7.420   6.185  1.00 20.00     0.012 C 
ENDBRANCH   5   6
ENDBRANCH   4   5
ENDBRANCH   3   4
TORSDOF 3
ENDMDL
MODEL 2
REMARK VINA RESULT:      -5.4      0.076      3.281
REMARK  3 active torsions:
REMARK  status: ('A' for Active; 'I' for Inactive)
REMARK    1  A    between atoms: C5_5  and  C7_7 
REMARK    2  A    between atoms: C6_6  and  C8_8 
REMARK    3  A    between atoms: C7_7  and  C8_8 
ROOT
HETATM    1  C1  UNL     1     -33.467   7.392   6.163  1.00 20.00     0.012 C 
HETATM    2  C3  UNL     1     -34.157   6.428   5.972  1.00 20.00    -0.117 C 
HETATM    3  C5  UNL     1     -35.002   5.247   5.745  1.00 20.00     0.093 C 
ENDROOT
BRANCH   3   4
HETATM    4  C7  UNL     1     -35.139   4.909   4.258  1.00 20.00     0.013 C 
BRANCH   4   5
HETATM    5  C8  UNL     1     -33.912   4.176   3.700  1.00 20.00     0.013 C 
BRANCH   5   6
HETATM    6  C6  UNL     1     -33.416   4.770   2.379  1.00 20.00     0.093 C 
HETATM    7  C4  UNL     1     -32.866   6.122   2.548  1.00 20.00    -0.117 C 
HETATM    8  C2  UNL     1     -32.417   7.227   2.681  1.00 20.00     0.012 C 
ENDBRANCH   5   6
ENDBRANCH   4   5
ENDBRANCH   3   4
TORSDOF 3
ENDMDL
MODEL 3
REMARK VINA RESULT:      -5.2      1.358      2.483
REMARK  3 active torsions:
REMARK  status: ('A' for Active; 'I' for Inactive)
REMARK    1  A    between atoms: C5_5  and  C7_7 
REMARK    2  A    between atoms: C6_6  and  C8_8 
REMARK    3  A    between atoms: C7_7  and  C8_8 
ROOT
HETATM    1  C1  UNL     1     -32.984   8.808   0.310  1.00 20.00     0.012 C 
HETATM    2  C3  UNL     1     -32.616   8.148   1.243  1.00 20.00    -0.117 C 
HETATM    3  C5  UNL     1     -32.158   7.341   2.383  1.00 20.00     0.093 C 
ENDROOT
BRANCH   3   4
HETATM    4  C7  UNL     1     -33.314   6.631   3.092  1.00 20.00     0.013 C 
BRANCH   4   5
HETATM    5  C8  UNL     1     -33.378   5.132   2.768  1.00 20.00     0.013 C 
BRANCH   5   6
HETATM    6  C6  UNL     1     -34.387   4.380   3.640  1.00 20.00     0.093 C 
HETATM    7  C4  UNL     1     -34.582   5.022   4.948  1.00 20.00    -0.117 C 
HETATM    8  C2  UNL     1     -34.742   5.543   6.017  1.00 20.00     0.012 C 
ENDBRANCH   5   6
ENDBRANCH   4   5
ENDBRANCH   3   4
TORSDOF 3
ENDMDL
MODEL 4
REMARK VINA RESULT:      -5.2      1.333      3.998
REMARK  3 active torsions:
REMARK  status: ('A' for Active; 'I' for Inactive)
REMARK    1  A    between atoms: C5_5  and  C7_7 
REMARK    2  A    between atoms: C6_6  and  C8_8 
REMARK    3  A    between atoms: C7_7  and  C8_8 
ROOT
HETATM    1  C1  UNL     1     -34.791   5.623   5.973  1.00 20.00     0.012 C 
HETATM    2  C3  UNL     1     -34.580   5.027   4.953  1.00 20.00    -0.117 C 
HETATM    3  C5  UNL     1     -34.323   4.292   3.706  1.00 20.00     0.093 C 
ENDROOT
BRANCH   3   4
HETATM    4  C7  UNL     1     -33.410   5.068   2.753  1.00 20.00     0.013 C 
BRANCH   4   5
HETATM    5  C8  UNL     1     -33.347   6.566   3.078  1.00 20.00     0.013 C 
BRANCH   5   6
HETATM    6  C6  UNL     1     -32.180   7.274   2.386  1.00 20.00     0.093 C 
HETATM    7  C4  UNL     1     -32.626   8.139   1.286  1.00 20.00    -0.117 C 
HETATM    8  C2  UNL     1     -32.986   8.846   0.384  1.00 20.00     0.012 C 
ENDBRANCH   5   6
ENDBRANCH   4   5
ENDBRANCH   3   4
TORSDOF 3
ENDMDL
MODEL 5
REMARK VINA RESULT:      -4.5      1.466      4.395
REMARK  3 active torsions:
REMARK  status: ('A' for Active; 'I' for Inactive)
REMARK    1  A    between atoms: C5_5  and  C7_7 
REMARK    2  A    between atoms: C6_6  and  C8_8 
REMARK    3  A    between atoms: C7_7  and  C8_8 
ROOT
HETATM    1  C1  UNL     1     -35.129   4.732   5.255  1.00 20.00     0.012 C 
HETATM    2  C3  UNL     1     -34.526   5.733   5.528  1.00 20.00    -0.117 C 
HETATM    3  C5  UNL     1     -33.791   6.960   5.868  1.00 20.00     0.093 C 
ENDROOT
BRANCH   3   4
HETATM    4  C7  UNL     1     -32.868   7.416   4.734  1.00 20.00     0.013 C 
BRANCH   4   5
HETATM    5  C8  UNL     1     -33.294   6.868   3.365  1.00 20.00     0.013 C 
BRANCH   5   6
HETATM    6  C6  UNL     1     -32.234   7.088   2.283  1.00 20.00     0.093 C 
HETATM    7  C4  UNL     1     -32.632   8.119   1.314  1.00 20.00    -0.117 C 
HETATM    8  C2  UNL     1     -32.954   8.958   0.519  1.00 20.00     0.012 C 
ENDBRANCH   5   6
ENDBRANCH   4   5
ENDBRANCH   3   4
TORSDOF 3
ENDMDL
MODEL 6
REMARK VINA RESULT:      -4.5      1.423      2.648
REMARK  3 active torsions:
REMARK  status: ('A' for Active; 'I' for Inactive)
REMARK    1  A    between atoms: C5_5  and  C7_7 
REMARK    2  A    between atoms: C6_6  and  C8_8 
REMARK    3  A    between atoms: C7_7  and  C8_8 
ROOT
HETATM    1  C1  UNL     1     -32.886   8.854   0.499  1.00 20.00     0.012 C 
HETATM    2  C3  UNL     1     -32.538   8.068   1.338  1.00 20.00    -0.117 C 
HETATM    3  C5  UNL     1     -32.108   7.105   2.361  1.00 20.00     0.093 C 
ENDROOT
BRANCH   3   4
HETATM    4  C7  UNL     1     -33.214   6.806   3.377  1.00 20.00     0.013 C 
BRANCH   4   5
HETATM    5  C8  UNL     1     -32.955   7.455   4.744  1.00 20.00     0.013 C 
BRANCH   5   6
HETATM    6  C6  UNL     1     -33.828   6.864   5.854  1.00 20.00     0.093 C 
HETATM    7  C4  UNL     1     -34.631   5.726   5.386  1.00 20.00    -0.117 C 
HETATM    8  C2  UNL     1     -35.290   4.797   5.007  1.00 20.00     0.012 C 
ENDBRANCH   5   6
ENDBRANCH   4   5
ENDBRANCH   3   4
TORSDOF 3
ENDMDL
MODEL 7
REMARK VINA RESULT:      -4.0      0.883      2.070
REMARK  3 active torsions:
REMARK  status: ('A' for Active; 'I' for Inactive)
REMARK    1  A    between atoms: C5_5  and  C7_7 
REMARK    2  A    between atoms: C6_6  and  C8_8 
REMARK    3  A    between atoms: C7_7  and  C8_8 
ROOT
HETATM    1  C1  UNL     1     -33.062   4.930   1.857  1.00 20.00     0.012 C 
HETATM    2  C3  UNL     1     -33.677   4.564   2.821  1.00 20.00    -0.117 C 
HETATM    3  C5  UNL     1     -34.430   4.111   3.999  1.00 20.00     0.093 C 
ENDROOT
BRANCH   3   4
HETATM    4  C7  UNL     1     -35.149   5.263   4.707  1.00 20.00     0.013 C 
BRANCH   4   5
HETATM    5  C8  UNL     1     -34.529   5.603   6.068  1.00 20.00     0.013 C 
BRANCH   5   6
HETATM    6  C6  UNL     1     -34.004   7.039   6.138  1.00 20.00     0.093 C 
HETATM    7  C4  UNL     1     -33.089   7.352   5.032  1.00 20.00    -0.117 C 
HETATM    8  C2  UNL     1     -32.339   7.611   4.131  1.00 20.00     0.012 C 
ENDBRANCH   5   6
ENDBRANCH   4   5
ENDBRANCH   3   4
TORSDOF 3
ENDMDL
MODEL 8
REMARK VINA RESULT:      -4.0      0.892      3.150
REMARK  3 active torsions:
REMARK  status: ('A' for Active; 'I' for Inactive)
REMARK    1  A    between atoms: C5_5  and  C7_7 
REMARK    2  A    between atoms: C6_6  and  C8_8 
REMARK    3  A    between atoms: C7_7  and  C8_8 
ROOT
HETATM    1  C1  UNL     1     -32.289   7.573   4.026  1.00 20.00     0.012 C 
HETATM    2  C3  UNL     1     -33.025   7.370   4.952  1.00 20.00    -0.117 C 
HETATM    3  C5  UNL     1     -33.924   7.127   6.090  1.00 20.00     0.093 C 
ENDROOT
BRANCH   3   4
HETATM    4  C7  UNL     1     -34.485   5.703   6.092  1.00 20.00     0.013 C 
BRANCH   4   5
HETATM    5  C8  UNL     1     -35.152   5.326   4.763  1.00 20.00     0.013 C 
BRANCH   5   6
HETATM    6  C6  UNL     1     -34.472   4.140   4.073  1.00 20.00     0.093 C 
HETATM    7  C4  UNL     1     -33.704   4.550   2.889  1.00 20.00    -0.117 C 
HETATM    8  C2  UNL     1     -33.077   4.881   1.920  1.00 20.00     0.012 C 
ENDBRANCH   5   6
ENDBRANCH   4   5
ENDBRANCH   3   4
TORSDOF 3
ENDMDL
MODEL 9
REMARK VINA RESULT:      -3.9      0.849      2.620
REMARK  3 active torsions:
REMARK  status: ('A' for Active; 'I' for Inactive)
REMARK    1  A    between atoms: C5_5  and  C7_7 
REMARK    2  A    between atoms: C6_6  and  C8_8 
REMARK    3  A    between atoms: C7_7  and  C8_8 
ROOT
HETATM    1  C1  UNL     1     -33.497   4.622   2.461  1.00 20.00     0.012 C 
HETATM    2  C3  UNL     1     -32.981   5.706   2.486  1.00 20.00    -0.117 C 
HETATM    3  C5  UNL     1     -32.347   7.032   2.511  1.00 20.00     0.093 C 
ENDROOT
BRANCH   3   4
HETATM    4  C7  UNL     1     -32.185   7.571   3.934  1.00 20.00     0.013 C 
BRANCH   4   5
HETATM    5  C8  UNL     1     -33.523   7.718   4.669  1.00 20.00     0.013 C 
BRANCH   5   6
HETATM    6  C6  UNL     1     -33.561   6.948   5.992  1.00 20.00     0.093 C 
HETATM    7  C4  UNL     1     -34.399   5.743   5.911  1.00 20.00    -0.117 C 
HETATM    8  C2  UNL     1     -35.084   4.759   5.851  1.00 20.00     0.012 C 
ENDBRANCH   5   6
ENDBRANCH   4   5
ENDBRANCH   3   4
TORSDOF 3
ENDMDL
