MODEL 1
REMARK VINA RESULT:      -3.9      0.000      0.000
REMARK  0 active torsions:
REMARK  status: ('A' for Active; 'I' for Inactive)
ROOT
HETATM    1  C1  UNL     1     -33.477   6.293   3.675  1.00 20.00     0.282 C 
HETATM    2  C2  UNL     1     -34.284   5.016   3.568  1.00 20.00     0.278 C 
HETATM    3  C3  UNL     1     -34.340   6.488   5.936  1.00 20.00     0.205 C 
HETATM    4  C4  UNL     1     -34.632   5.010   5.870  1.00 20.00     0.195 C 
HETATM    5  O5  UNL     1     -32.842   6.731   2.719  1.00 20.00    -0.263 OA
HETATM    6  O6  UNL     1     -33.434   6.889   4.892  1.00 20.00    -0.318 OA
HETATM    7  O7  UNL     1     -35.213   4.761   4.598  1.00 20.00    -0.379 OA
ENDROOT
TORSDOF 0
ENDMDL
MODEL 2
REMARK VINA RESULT:      -3.7     11.966     13.096
REMARK  0 active torsions:
REMARK  status: ('A' for Active; 'I' for Inactive)
ROOT
HETATM    1  C1  UNL     1     -36.383  13.674  -4.514  1.00 20.00     0.282 C 
HETATM    2  C2  UNL     1     -35.668  14.999  -4.670  1.00 20.00     0.278 C 
HETATM    3  C3  UNL     1     -38.425  14.962  -4.258  1.00 20.00     0.205 C 
HETATM    4  C4  UNL     1     -37.701  16.100  -4.936  1.00 20.00     0.195 C 
HETATM    5  O5  UNL     1     -35.768  12.611  -4.505  1.00 20.00    -0.263 OA
HETATM    6  O6  UNL     1     -37.737  13.714  -4.455  1.00 20.00    -0.318 OA
HETATM    7  O7  UNL     1     -36.404  16.162  -4.363  1.00 20.00    -0.379 OA
ENDROOT
TORSDOF 0
ENDMDL
MODEL 3
REMARK VINA RESULT:      -3.6      1.206      1.939
REMARK  0 active torsions:
REMARK  status: ('A' for Active; 'I' for Inactive)
ROOT
HETATM    1  C1  UNL     1     -33.168   6.428   3.269  1.00 20.00     0.282 C 
HETATM    2  C2  UNL     1     -33.664   6.992   4.584  1.00 20.00     0.278 C 
HETATM    3  C3  UNL     1     -34.326   4.380   3.866  1.00 20.00     0.205 C 
HETATM    4  C4  UNL     1     -35.146   5.213   4.821  1.00 20.00     0.195 C 
HETATM    5  O5  UNL     1     -32.428   7.076   2.533  1.00 20.00    -0.263 OA
HETATM    6  O6  UNL     1     -33.636   5.207   2.912  1.00 20.00    -0.318 OA
HETATM    7  O7  UNL     1     -34.243   6.080   5.491  1.00 20.00    -0.379 OA
ENDROOT
TORSDOF 0
ENDMDL
MODEL 4
REMARK VINA RESULT:      -3.6     11.765     12.390
REMARK  0 active torsions:
REMARK  status: ('A' for Active; 'I' for Inactive)
ROOT
HETATM    1  C1  UNL     1     -35.297  13.722  -4.224  1.00 20.00     0.282 C 
HETATM    2  C2  UNL     1     -35.933  14.965  -3.639  1.00 20.00     0.278 C 
HETATM    3  C3  UNL     1     -33.193  14.932  -4.154  1.00 20.00     0.205 C 
HETATM    4  C4  UNL     1     -33.836  15.836  -3.130  1.00 20.00     0.195 C 
HETATM    5  O5  UNL     1     -35.970  12.743  -4.534  1.00 20.00    -0.263 OA
HETATM    6  O6  UNL     1     -33.945  13.716  -4.322  1.00 20.00    -0.318 OA
HETATM    7  O7  UNL     1     -35.141  16.131  -3.603  1.00 20.00    -0.379 OA
ENDROOT
TORSDOF 0
ENDMDL
MODEL 5
REMARK VINA RESULT:      -3.5     16.463     16.690
REMARK  0 active torsions:
REMARK  status: ('A' for Active; 'I' for Inactive)
ROOT
HETATM    1  C1  UNL     1     -22.342  17.369   7.847  1.00 20.00     0.282 C 
HETATM    2  C2  UNL     1     -22.678  16.952   9.262  1.00 20.00     0.278 C 
HETATM    3  C3  UNL     1     -24.304  18.795   7.946  1.00 20.00     0.205 C 
HETATM    4  C4  UNL     1     -24.200  18.703   9.448  1.00 20.00     0.195 C 
HETATM    5  O5  UNL     1     -21.399  16.870   7.238  1.00 20.00    -0.263 OA
HETATM    6  O6  UNL     1     -23.085  18.368   7.311  1.00 20.00    -0.318 OA
HETATM    7  O7  UNL     1     -23.939  17.343   9.760  1.00 20.00    -0.379 OA
ENDROOT
TORSDOF 0
ENDMDL
MODEL 6
REMARK VINA RESULT:      -3.5     12.197     12.919
REMARK  0 active torsions:
REMARK  status: ('A' for Active; 'I' for Inactive)
ROOT
HETATM    1  C1  UNL     1     -36.575  14.176  -4.536  1.00 20.00     0.282 C 
HETATM    2  C2  UNL     1     -35.861  14.226  -5.871  1.00 20.00     0.278 C 
HETATM    3  C3  UNL     1     -34.506  14.982  -3.554  1.00 20.00     0.205 C 
HETATM    4  C4  UNL     1     -34.131  15.468  -4.933  1.00 20.00     0.195 C 
HETATM    5  O5  UNL     1     -37.724  13.753  -4.439  1.00 20.00    -0.263 OA
HETATM    6  O6  UNL     1     -35.912  14.686  -3.469  1.00 20.00    -0.318 OA
HETATM    7  O7  UNL     1     -34.466  14.430  -5.841  1.00 20.00    -0.379 OA
ENDROOT
TORSDOF 0
ENDMDL
MODEL 7
REMARK VINA RESULT:      -3.5     15.956     16.908
REMARK  0 active torsions:
REMARK  status: ('A' for Active; 'I' for Inactive)
ROOT
HETATM    1  C1  UNL     1     -22.828  16.911   9.589  1.00 20.00     0.282 C 
HETATM    2  C2  UNL     1     -22.136  17.897  10.506  1.00 20.00     0.278 C 
HETATM    3  C3  UNL     1     -24.328  16.450  11.441  1.00 20.00     0.205 C 
HETATM    4  C4  UNL     1     -23.904  17.779  12.015  1.00 20.00     0.195 C 
HETATM    5  O5  UNL     1     -22.409  16.687   8.456  1.00 20.00    -0.263 OA
HETATM    6  O6  UNL     1     -23.967  16.341  10.052  1.00 20.00    -0.318 OA
HETATM    7  O7  UNL     1     -22.494  17.860  11.869  1.00 20.00    -0.379 OA
ENDROOT
TORSDOF 0
ENDMDL
MODEL 8
REMARK VINA RESULT:      -3.4     12.360     13.569
REMARK  0 active torsions:
REMARK  status: ('A' for Active; 'I' for Inactive)
ROOT
HETATM    1  C1  UNL     1     -36.122  13.602  -4.939  1.00 20.00     0.282 C 
HETATM    2  C2  UNL     1     -37.312  14.409  -4.466  1.00 20.00     0.278 C 
HETATM    3  C3  UNL     1     -35.928  15.206  -6.751  1.00 20.00     0.205 C 
HETATM    4  C4  UNL     1     -36.739  16.151  -5.899  1.00 20.00     0.195 C 
HETATM    5  O5  UNL     1     -35.784  12.567  -4.372  1.00 20.00    -0.263 OA
HETATM    6  O6  UNL     1     -35.407  14.115  -5.971  1.00 20.00    -0.318 OA
HETATM    7  O7  UNL     1     -37.805  15.394  -5.346  1.00 20.00    -0.379 OA
ENDROOT
TORSDOF 0
ENDMDL
MODEL 9
REMARK VINA RESULT:      -3.4     12.429     13.322
REMARK  0 active torsions:
REMARK  status: ('A' for Active; 'I' for Inactive)
ROOT
HETATM    1  C1  UNL     1     -36.547  14.118  -4.777  1.00 20.00     0.282 C 
HETATM    2  C2  UNL     1     -35.681  14.874  -3.792  1.00 20.00     0.278 C 
HETATM    3  C3  UNL     1     -34.949  14.778  -6.481  1.00 20.00     0.205 C 
HETATM    4  C4  UNL     1     -33.966  15.010  -5.359  1.00 20.00     0.195 C 
HETATM    5  O5  UNL     1     -37.602  13.592  -4.431  1.00 20.00    -0.263 OA
HETATM    6  O6  UNL     1     -36.069  13.990  -6.039  1.00 20.00    -0.318 OA
HETATM    7  O7  UNL     1     -34.667  15.693  -4.332  1.00 20.00    -0.379 OA
ENDROOT
TORSDOF 0
ENDMDL
