MODEL 1
REMARK VINA RESULT:      -4.0      0.000      0.000
REMARK  2 active torsions:
REMARK  status: ('A' for Active; 'I' for Inactive)
REMARK    1  A    between atoms: C3_3  and  C5_5 
REMARK    2  A    between atoms: C5_5  and  N6_6 
ROOT
HETATM    1  C1  UNL     1     -32.597   7.709   1.864  1.00 20.00     0.157 C 
HETATM    2  N6  UNL     1     -32.421   7.063   2.829  1.00 20.00    -0.271 NA
HETATM    3  S7  UNL     1     -32.816   8.602   0.563  1.00 20.00    -0.055 SA
ENDROOT
BRANCH   2   4
HETATM    4  C5  UNL     1     -33.345   5.941   2.999  1.00 20.00     0.183 C 
BRANCH   4   5
HETATM    5  C3  UNL     1     -34.091   6.077   4.297  1.00 20.00    -0.073 C 
HETATM    6  C2  UNL     1     -33.674   6.909   5.264  1.00 20.00     0.015 C 
HETATM    7  C4  UNL     1     -35.308   5.215   4.473  1.00 20.00     0.044 C 
ENDBRANCH   4   5
ENDBRANCH   2   4
TORSDOF 2
ENDMDL
MODEL 2
REMARK VINA RESULT:      -4.0      0.278      1.350
REMARK  2 active torsions:
REMARK  status: ('A' for Active; 'I' for Inactive)
REMARK    1  A    between atoms: C3_3  and  C5_5 
REMARK    2  A    between atoms: C5_5  and  N6_6 
ROOT
HETATM    1  C1  UNL     1     -32.626   7.558   2.029  1.00 20.00     0.157 C 
HETATM    2  N6  UNL     1     -32.563   6.898   2.998  1.00 20.00    -0.271 NA
HETATM    3  S7  UNL     1     -32.691   8.469   0.723  1.00 20.00    -0.055 SA
ENDROOT
BRANCH   2   4
HETATM    4  C5  UNL     1     -33.576   5.846   3.096  1.00 20.00     0.183 C 
BRANCH   4   5
HETATM    5  C3  UNL     1     -34.207   5.862   4.461  1.00 20.00    -0.073 C 
HETATM    6  C2  UNL     1     -35.177   4.996   4.798  1.00 20.00     0.015 C 
HETATM    7  C4  UNL     1     -33.723   6.911   5.420  1.00 20.00     0.044 C 
ENDBRANCH   4   5
ENDBRANCH   2   4
TORSDOF 2
ENDMDL
MODEL 3
REMARK VINA RESULT:      -3.6      1.253      1.881
REMARK  2 active torsions:
REMARK  status: ('A' for Active; 'I' for Inactive)
REMARK    1  A    between atoms: C3_3  and  C5_5 
REMARK    2  A    between atoms: C5_5  and  N6_6 
ROOT
HETATM    1  C1  UNL     1     -32.953   6.548   2.505  1.00 20.00     0.157 C 
HETATM    2  N6  UNL     1     -33.341   5.654   3.162  1.00 20.00    -0.271 NA
HETATM    3  S7  UNL     1     -32.404   7.745   1.609  1.00 20.00    -0.055 SA
ENDROOT
BRANCH   2   4
HETATM    4  C5  UNL     1     -34.607   5.901   3.854  1.00 20.00     0.183 C 
BRANCH   4   5
HETATM    5  C3  UNL     1     -34.398   5.866   5.342  1.00 20.00    -0.073 C 
HETATM    6  C2  UNL     1     -34.786   4.815   6.083  1.00 20.00     0.015 C 
HETATM    7  C4  UNL     1     -33.764   7.075   5.967  1.00 20.00     0.044 C 
ENDBRANCH   4   5
ENDBRANCH   2   4
TORSDOF 2
ENDMDL
MODEL 4
REMARK VINA RESULT:      -3.3     11.268     11.804
REMARK  2 active torsions:
REMARK  status: ('A' for Active; 'I' for Inactive)
REMARK    1  A    between atoms: C3_3  and  C5_5 
REMARK    2  A    between atoms: C5_5  and  N6_6 
ROOT
HETATM    1  C1  UNL     1     -34.129  14.920  -6.222  1.00 20.00     0.157 C 
HETATM    2  N6  UNL     1     -34.153  14.432  -5.154  1.00 20.00    -0.271 NA
HETATM    3  S7  UNL     1     -34.117  15.566  -7.678  1.00 20.00    -0.055 SA
ENDROOT
BRANCH   2   4
HETATM    4  C5  UNL     1     -33.142  14.934  -4.222  1.00 20.00     0.183 C 
BRANCH   4   5
HETATM    5  C3  UNL     1     -33.791  15.781  -3.163  1.00 20.00    -0.073 C 
HETATM    6  C2  UNL     1     -35.020  15.507  -2.698  1.00 20.00     0.015 C 
HETATM    7  C4  UNL     1     -33.011  16.967  -2.671  1.00 20.00     0.044 C 
ENDBRANCH   4   5
ENDBRANCH   2   4
TORSDOF 2
ENDMDL
MODEL 5
REMARK VINA RESULT:      -3.2      2.790      3.847
REMARK  2 active torsions:
REMARK  status: ('A' for Active; 'I' for Inactive)
REMARK    1  A    between atoms: C3_3  and  C5_5 
REMARK    2  A    between atoms: C5_5  and  N6_6 
ROOT
HETATM    1  C1  UNL     1     -34.504   5.434   4.248  1.00 20.00     0.157 C 
HETATM    2  N6  UNL     1     -34.341   5.488   3.086  1.00 20.00    -0.271 NA
HETATM    3  S7  UNL     1     -34.753   5.360   5.820  1.00 20.00    -0.055 SA
ENDROOT
BRANCH   2   4
HETATM    4  C5  UNL     1     -32.943   5.585   2.663  1.00 20.00     0.183 C 
BRANCH   4   5
HETATM    5  C3  UNL     1     -32.529   7.027   2.572  1.00 20.00    -0.073 C 
HETATM    6  C2  UNL     1     -32.710   7.741   1.450  1.00 20.00     0.015 C 
HETATM    7  C4  UNL     1     -31.873   7.622   3.784  1.00 20.00     0.044 C 
ENDBRANCH   4   5
ENDBRANCH   2   4
TORSDOF 2
ENDMDL
MODEL 6
REMARK VINA RESULT:      -3.2     15.682     16.377
REMARK  2 active torsions:
REMARK  status: ('A' for Active; 'I' for Inactive)
REMARK    1  A    between atoms: C3_3  and  C5_5 
REMARK    2  A    between atoms: C5_5  and  N6_6 
ROOT
HETATM    1  C1  UNL     1     -23.878  18.841   8.684  1.00 20.00     0.157 C 
HETATM    2  N6  UNL     1     -22.963  18.709   9.409  1.00 20.00    -0.271 NA
HETATM    3  S7  UNL     1     -25.113  19.048   7.700  1.00 20.00    -0.055 SA
ENDROOT
BRANCH   2   4
HETATM    4  C5  UNL     1     -22.714  17.333   9.844  1.00 20.00     0.183 C 
BRANCH   4   5
HETATM    5  C3  UNL     1     -23.307  17.107  11.207  1.00 20.00    -0.073 C 
HETATM    6  C2  UNL     1     -22.814  17.715  12.298  1.00 20.00     0.015 C 
HETATM    7  C4  UNL     1     -24.455  16.144  11.297  1.00 20.00     0.044 C 
ENDBRANCH   4   5
ENDBRANCH   2   4
TORSDOF 2
ENDMDL
MODEL 7
REMARK VINA RESULT:      -3.2     15.461     16.142
REMARK  2 active torsions:
REMARK  status: ('A' for Active; 'I' for Inactive)
REMARK    1  A    between atoms: C3_3  and  C5_5 
REMARK    2  A    between atoms: C5_5  and  N6_6 
ROOT
HETATM    1  C1  UNL     1     -24.996  19.045   6.896  1.00 20.00     0.157 C 
HETATM    2  N6  UNL     1     -23.909  18.905   7.317  1.00 20.00    -0.271 NA
HETATM    3  S7  UNL     1     -26.461  19.231   6.299  1.00 20.00    -0.055 SA
ENDROOT
BRANCH   2   4
HETATM    4  C5  UNL     1     -23.771  19.128   8.758  1.00 20.00     0.183 C 
BRANCH   4   5
HETATM    5  C3  UNL     1     -22.854  18.096   9.355  1.00 20.00    -0.073 C 
HETATM    6  C2  UNL     1     -21.520  18.241   9.327  1.00 20.00     0.015 C 
HETATM    7  C4  UNL     1     -23.500  16.882   9.956  1.00 20.00     0.044 C 
ENDBRANCH   4   5
ENDBRANCH   2   4
TORSDOF 2
ENDMDL
MODEL 8
REMARK VINA RESULT:      -3.1      9.101      9.678
REMARK  2 active torsions:
REMARK  status: ('A' for Active; 'I' for Inactive)
REMARK    1  A    between atoms: C3_3  and  C5_5 
REMARK    2  A    between atoms: C5_5  and  N6_6 
ROOT
HETATM    1  C1  UNL     1     -41.991   5.212  -1.370  1.00 20.00     0.157 C 
HETATM    2  N6  UNL     1     -41.093   5.870  -0.996  1.00 20.00    -0.271 NA
HETATM    3  S7  UNL     1     -43.196   4.317  -1.903  1.00 20.00    -0.055 SA
ENDROOT
BRANCH   2   4
HETATM    4  C5  UNL     1     -41.240   6.401   0.361  1.00 20.00     0.183 C 
BRANCH   4   5
HETATM    5  C3  UNL     1     -41.983   7.708   0.326  1.00 20.00    -0.073 C 
HETATM    6  C2  UNL     1     -41.392   8.842  -0.082  1.00 20.00     0.015 C 
HETATM    7  C4  UNL     1     -43.407   7.691   0.800  1.00 20.00     0.044 C 
ENDBRANCH   4   5
ENDBRANCH   2   4
TORSDOF 2
ENDMDL
MODEL 9
REMARK VINA RESULT:      -3.0     11.192     11.593
REMARK  2 active torsions:
REMARK  status: ('A' for Active; 'I' for Inactive)
REMARK    1  A    between atoms: C3_3  and  C5_5 
REMARK    2  A    between atoms: C5_5  and  N6_6 
ROOT
HETATM    1  C1  UNL     1     -38.080  14.516  -4.269  1.00 20.00     0.157 C 
HETATM    2  N6  UNL     1     -37.063  13.929  -4.234  1.00 20.00    -0.271 NA
HETATM    3  S7  UNL     1     -39.471  15.292  -4.304  1.00 20.00    -0.055 SA
ENDROOT
BRANCH   2   4
HETATM    4  C5  UNL     1     -35.944  14.589  -4.908  1.00 20.00     0.183 C 
BRANCH   4   5
HETATM    5  C3  UNL     1     -34.838  14.862  -3.927  1.00 20.00    -0.073 C 
HETATM    6  C2  UNL     1     -35.077  15.447  -2.742  1.00 20.00     0.015 C 
HETATM    7  C4  UNL     1     -33.449  14.478  -4.347  1.00 20.00     0.044 C 
ENDBRANCH   4   5
ENDBRANCH   2   4
TORSDOF 2
ENDMDL
