MODEL 1
REMARK VINA RESULT:      -4.5      0.000      0.000
REMARK  7 active torsions:
REMARK  status: ('A' for Active; 'I' for Inactive)
REMARK    1  A    between atoms: C1_1  and  C4_4 
REMARK    2  A    between atoms: C1_1  and  O10_10 
REMARK    3  A    between atoms: C4_4  and  C5_5 
REMARK    4  A    between atoms: C5_5  and  C6_6 
REMARK    5  A    between atoms: C6_6  and  C7_7 
REMARK    6  A    between atoms: C7_7  and  C8_8 
REMARK    7  A    between atoms: C8_8  and  O11_11 
ROOT
HETATM    1  C5  UNL     1     -34.488  14.987  -3.433  1.00 20.00     0.010 C 
ENDROOT
BRANCH   1   2
HETATM    2  C4  UNL     1     -35.758  14.997  -4.284  1.00 20.00     0.111 C 
BRANCH   2   3
HETATM    3  C1  UNL     1     -36.376  13.626  -4.448  1.00 20.00     0.258 C 
HETATM    4  O9  UNL     1     -35.754  12.573  -4.484  1.00 20.00    -0.265 OA
BRANCH   3   5
HETATM    5  O10 UNL     1     -37.734  13.756  -4.518  1.00 20.00    -0.326 OA
HETATM    6  C2  UNL     1     -38.246  15.056  -4.208  1.00 20.00     0.213 C 
ENDBRANCH   3   5
ENDBRANCH   2   3
ENDBRANCH   1   2
BRANCH   1   7
HETATM    7  C6  UNL     1     -34.404  16.194  -2.492  1.00 20.00     0.002 C 
BRANCH   7   8
HETATM    8  C7  UNL     1     -33.016  16.829  -2.530  1.00 20.00     0.026 C 
BRANCH   8   9
HETATM    9  C8  UNL     1     -33.083  18.337  -2.337  1.00 20.00     0.167 C 
BRANCH   9  10
HETATM   10  O11 UNL     1     -31.799  18.809  -1.951  1.00 20.00    -0.396 OA
HETATM   11  C3  UNL     1     -31.435  18.336  -0.661  1.00 20.00     0.201 C 
ENDBRANCH   9  10
ENDBRANCH   8   9
ENDBRANCH   7   8
ENDBRANCH   1   7
TORSDOF 7
ENDMDL
MODEL 2
REMARK VINA RESULT:      -4.5     11.198     12.412
REMARK  7 active torsions:
REMARK  status: ('A' for Active; 'I' for Inactive)
REMARK    1  A    between atoms: C1_1  and  C4_4 
REMARK    2  A    between atoms: C1_1  and  O10_10 
REMARK    3  A    between atoms: C4_4  and  C5_5 
REMARK    4  A    between atoms: C5_5  and  C6_6 
REMARK    5  A    between atoms: C6_6  and  C7_7 
REMARK    6  A    between atoms: C7_7  and  C8_8 
REMARK    7  A    between atoms: C8_8  and  O11_11 
ROOT
HETATM    1  C5  UNL     1     -33.218   4.888   2.560  1.00 20.00     0.010 C 
ENDROOT
BRANCH   1   2
HETATM    2  C4  UNL     1     -33.573   6.375   2.511  1.00 20.00     0.111 C 
BRANCH   2   3
HETATM    3  C1  UNL     1     -32.362   7.273   2.390  1.00 20.00     0.258 C 
HETATM    4  O9  UNL     1     -31.599   7.554   3.305  1.00 20.00    -0.265 OA
BRANCH   3   5
HETATM    5  O10 UNL     1     -32.245   7.690   1.095  1.00 20.00    -0.326 OA
HETATM    6  C2  UNL     1     -32.938   8.900   0.772  1.00 20.00     0.213 C 
ENDBRANCH   3   5
ENDBRANCH   2   3
ENDBRANCH   1   2
BRANCH   1   7
HETATM    7  C6  UNL     1     -34.047   4.122   3.596  1.00 20.00     0.002 C 
BRANCH   7   8
HETATM    8  C7  UNL     1     -34.979   5.059   4.361  1.00 20.00     0.026 C 
BRANCH   8   9
HETATM    9  C8  UNL     1     -34.753   4.970   5.864  1.00 20.00     0.167 C 
BRANCH   9  10
HETATM   10  O11 UNL     1     -34.765   6.283   6.409  1.00 20.00    -0.396 OA
HETATM   11  C3  UNL     1     -33.621   7.025   6.006  1.00 20.00     0.201 C 
ENDBRANCH   9  10
ENDBRANCH   8   9
ENDBRANCH   7   8
ENDBRANCH   1   7
TORSDOF 7
ENDMDL
MODEL 3
REMARK VINA RESULT:      -4.4      1.132      1.579
REMARK  7 active torsions:
REMARK  status: ('A' for Active; 'I' for Inactive)
REMARK    1  A    between atoms: C1_1  and  C4_4 
REMARK    2  A    between atoms: C1_1  and  O10_10 
REMARK    3  A    between atoms: C4_4  and  C5_5 
REMARK    4  A    between atoms: C5_5  and  C6_6 
REMARK    5  A    between atoms: C6_6  and  C7_7 
REMARK    6  A    between atoms: C7_7  and  C8_8 
REMARK    7  A    between atoms: C8_8  and  O11_11 
ROOT
HETATM    1  C5  UNL     1     -34.827  15.235  -3.086  1.00 20.00     0.010 C 
ENDROOT
BRANCH   1   2
HETATM    2  C4  UNL     1     -34.899  13.964  -3.933  1.00 20.00     0.111 C 
BRANCH   2   3
HETATM    3  C1  UNL     1     -36.210  13.817  -4.675  1.00 20.00     0.258 C 
HETATM    4  O9  UNL     1     -37.319  13.861  -4.161  1.00 20.00    -0.265 OA
BRANCH   3   5
HETATM    5  O10 UNL     1     -35.951  13.658  -6.007  1.00 20.00    -0.326 OA
HETATM    6  C2  UNL     1     -35.613  14.854  -6.717  1.00 20.00     0.213 C 
ENDBRANCH   3   5
ENDBRANCH   2   3
ENDBRANCH   1   2
BRANCH   1   7
HETATM    7  C6  UNL     1     -33.502  15.984  -3.267  1.00 20.00     0.002 C 
BRANCH   7   8
HETATM    8  C7  UNL     1     -33.328  17.064  -2.201  1.00 20.00     0.026 C 
BRANCH   8   9
HETATM    9  C8  UNL     1     -32.786  18.356  -2.795  1.00 20.00     0.167 C 
BRANCH   9  10
HETATM   10  O11 UNL     1     -31.720  18.825  -1.981  1.00 20.00    -0.396 OA
HETATM   11  C3  UNL     1     -31.838  18.354  -0.645  1.00 20.00     0.201 C 
ENDBRANCH   9  10
ENDBRANCH   8   9
ENDBRANCH   7   8
ENDBRANCH   1   7
TORSDOF 7
ENDMDL
MODEL 4
REMARK VINA RESULT:      -4.4      2.002      2.175
REMARK  7 active torsions:
REMARK  status: ('A' for Active; 'I' for Inactive)
REMARK    1  A    between atoms: C1_1  and  C4_4 
REMARK    2  A    between atoms: C1_1  and  O10_10 
REMARK    3  A    between atoms: C4_4  and  C5_5 
REMARK    4  A    between atoms: C5_5  and  C6_6 
REMARK    5  A    between atoms: C6_6  and  C7_7 
REMARK    6  A    between atoms: C7_7  and  C8_8 
REMARK    7  A    between atoms: C8_8  and  O11_11 
ROOT
HETATM    1  C5  UNL     1     -34.502  15.084  -3.541  1.00 20.00     0.010 C 
ENDROOT
BRANCH   1   2
HETATM    2  C4  UNL     1     -35.633  14.938  -4.560  1.00 20.00     0.111 C 
BRANCH   2   3
HETATM    3  C1  UNL     1     -36.316  13.590  -4.503  1.00 20.00     0.258 C 
HETATM    4  O9  UNL     1     -35.742  12.511  -4.433  1.00 20.00    -0.265 OA
BRANCH   3   5
HETATM    5  O10 UNL     1     -37.669  13.776  -4.512  1.00 20.00    -0.326 OA
HETATM    6  C2  UNL     1     -38.109  15.116  -4.270  1.00 20.00     0.213 C 
ENDBRANCH   3   5
ENDBRANCH   2   3
ENDBRANCH   1   2
BRANCH   1   7
HETATM    7  C6  UNL     1     -34.945  15.825  -2.275  1.00 20.00     0.002 C 
BRANCH   7   8
HETATM    8  C7  UNL     1     -33.998  16.977  -1.948  1.00 20.00     0.026 C 
BRANCH   8   9
HETATM    9  C8  UNL     1     -34.394  17.681  -0.658  1.00 20.00     0.167 C 
BRANCH   9  10
HETATM   10  O11 UNL     1     -35.410  16.925  -0.015  1.00 20.00    -0.396 OA
HETATM   11  C3  UNL     1     -36.094  17.697   0.963  1.00 20.00     0.201 C 
ENDBRANCH   9  10
ENDBRANCH   8   9
ENDBRANCH   7   8
ENDBRANCH   1   7
TORSDOF 7
ENDMDL
MODEL 5
REMARK VINA RESULT:      -4.2      2.048      2.433
REMARK  7 active torsions:
REMARK  status: ('A' for Active; 'I' for Inactive)
REMARK    1  A    between atoms: C1_1  and  C4_4 
REMARK    2  A    between atoms: C1_1  and  O10_10 
REMARK    3  A    between atoms: C4_4  and  C5_5 
REMARK    4  A    between atoms: C5_5  and  C6_6 
REMARK    5  A    between atoms: C6_6  and  C7_7 
REMARK    6  A    between atoms: C7_7  and  C8_8 
REMARK    7  A    between atoms: C8_8  and  O11_11 
ROOT
HETATM    1  C5  UNL     1     -34.535  15.936  -2.496  1.00 20.00     0.010 C 
ENDROOT
BRANCH   1   2
HETATM    2  C4  UNL     1     -33.519  15.488  -3.547  1.00 20.00     0.111 C 
BRANCH   2   3
HETATM    3  C1  UNL     1     -33.990  14.305  -4.364  1.00 20.00     0.258 C 
HETATM    4  O9  UNL     1     -34.653  13.370  -3.934  1.00 20.00    -0.265 OA
BRANCH   3   5
HETATM    5  O10 UNL     1     -33.581  14.467  -5.657  1.00 20.00    -0.326 OA
HETATM    6  C2  UNL     1     -34.375  15.357  -6.449  1.00 20.00     0.213 C 
ENDBRANCH   3   5
ENDBRANCH   2   3
ENDBRANCH   1   2
BRANCH   1   7
HETATM    7  C6  UNL     1     -34.047  17.143  -1.688  1.00 20.00     0.002 C 
BRANCH   7   8
HETATM    8  C7  UNL     1     -32.605  17.499  -2.041  1.00 20.00     0.026 C 
BRANCH   8   9
HETATM    9  C8  UNL     1     -32.084  18.647  -1.188  1.00 20.00     0.167 C 
BRANCH   9  10
HETATM   10  O11 UNL     1     -30.783  18.319  -0.720  1.00 20.00    -0.396 OA
HETATM   11  C3  UNL     1     -30.734  18.281   0.700  1.00 20.00     0.201 C 
ENDBRANCH   9  10
ENDBRANCH   8   9
ENDBRANCH   7   8
ENDBRANCH   1   7
TORSDOF 7
ENDMDL
MODEL 6
REMARK VINA RESULT:      -4.2      2.182      2.562
REMARK  7 active torsions:
REMARK  status: ('A' for Active; 'I' for Inactive)
REMARK    1  A    between atoms: C1_1  and  C4_4 
REMARK    2  A    between atoms: C1_1  and  O10_10 
REMARK    3  A    between atoms: C4_4  and  C5_5 
REMARK    4  A    between atoms: C5_5  and  C6_6 
REMARK    5  A    between atoms: C6_6  and  C7_7 
REMARK    6  A    between atoms: C7_7  and  C8_8 
REMARK    7  A    between atoms: C8_8  and  O11_11 
ROOT
HETATM    1  C5  UNL     1     -35.131  15.194  -2.925  1.00 20.00     0.010 C 
ENDROOT
BRANCH   1   2
HETATM    2  C4  UNL     1     -34.962  14.169  -4.046  1.00 20.00     0.111 C 
BRANCH   2   3
HETATM    3  C1  UNL     1     -36.254  13.858  -4.769  1.00 20.00     0.258 C 
HETATM    4  O9  UNL     1     -37.348  13.735  -4.236  1.00 20.00    -0.265 OA
BRANCH   3   5
HETATM    5  O10 UNL     1     -36.002  13.768  -6.109  1.00 20.00    -0.326 OA
HETATM    6  C2  UNL     1     -35.269  14.859  -6.675  1.00 20.00     0.213 C 
ENDBRANCH   3   5
ENDBRANCH   2   3
ENDBRANCH   1   2
BRANCH   1   7
HETATM    7  C6  UNL     1     -33.884  16.064  -2.733  1.00 20.00     0.002 C 
BRANCH   7   8
HETATM    8  C7  UNL     1     -34.116  17.135  -1.669  1.00 20.00     0.026 C 
BRANCH   8   9
HETATM    9  C8  UNL     1     -35.520  17.055  -1.088  1.00 20.00     0.167 C 
BRANCH   9  10
HETATM   10  O11 UNL     1     -35.428  16.946   0.325  1.00 20.00    -0.396 OA
HETATM   11  C3  UNL     1     -34.533  17.909   0.866  1.00 20.00     0.201 C 
ENDBRANCH   9  10
ENDBRANCH   8   9
ENDBRANCH   7   8
ENDBRANCH   1   7
TORSDOF 7
ENDMDL
MODEL 7
REMARK VINA RESULT:      -4.0     10.867     11.937
REMARK  7 active torsions:
REMARK  status: ('A' for Active; 'I' for Inactive)
REMARK    1  A    between atoms: C1_1  and  C4_4 
REMARK    2  A    between atoms: C1_1  and  O10_10 
REMARK    3  A    between atoms: C4_4  and  C5_5 
REMARK    4  A    between atoms: C5_5  and  C6_6 
REMARK    5  A    between atoms: C6_6  and  C7_7 
REMARK    6  A    between atoms: C7_7  and  C8_8 
REMARK    7  A    between atoms: C8_8  and  O11_11 
ROOT
HETATM    1  C5  UNL     1     -33.642   4.701   2.579  1.00 20.00     0.010 C 
ENDROOT
BRANCH   1   2
HETATM    2  C4  UNL     1     -34.120   4.235   3.954  1.00 20.00     0.111 C 
BRANCH   2   3
HETATM    3  C1  UNL     1     -35.139   5.164   4.576  1.00 20.00     0.258 C 
HETATM    4  O9  UNL     1     -36.146   5.580   4.019  1.00 20.00    -0.265 OA
BRANCH   3   5
HETATM    5  O10 UNL     1     -34.767   5.435   5.862  1.00 20.00    -0.326 OA
HETATM    6  C2  UNL     1     -34.003   6.631   6.045  1.00 20.00     0.213 C 
ENDBRANCH   3   5
ENDBRANCH   2   3
ENDBRANCH   1   2
BRANCH   1   7
HETATM    7  C6  UNL     1     -32.523   5.745   2.670  1.00 20.00     0.002 C 
BRANCH   7   8
HETATM    8  C7  UNL     1     -33.059   7.153   2.419  1.00 20.00     0.026 C 
BRANCH   8   9
HETATM    9  C8  UNL     1     -32.142   7.947   1.499  1.00 20.00     0.167 C 
BRANCH   9  10
HETATM   10  O11 UNL     1     -32.868   9.042   0.959  1.00 20.00    -0.396 OA
HETATM   11  C3  UNL     1     -33.420   8.726  -0.312  1.00 20.00     0.201 C 
ENDBRANCH   9  10
ENDBRANCH   8   9
ENDBRANCH   7   8
ENDBRANCH   1   7
TORSDOF 7
ENDMDL
MODEL 8
REMARK VINA RESULT:      -4.0      2.382      6.198
REMARK  7 active torsions:
REMARK  status: ('A' for Active; 'I' for Inactive)
REMARK    1  A    between atoms: C1_1  and  C4_4 
REMARK    2  A    between atoms: C1_1  and  O10_10 
REMARK    3  A    between atoms: C4_4  and  C5_5 
REMARK    4  A    between atoms: C5_5  and  C6_6 
REMARK    5  A    between atoms: C6_6  and  C7_7 
REMARK    6  A    between atoms: C7_7  and  C8_8 
REMARK    7  A    between atoms: C8_8  and  O11_11 
ROOT
HETATM    1  C5  UNL     1     -33.978  17.111  -1.595  1.00 20.00     0.010 C 
ENDROOT
BRANCH   1   2
HETATM    2  C4  UNL     1     -32.624  17.725  -1.951  1.00 20.00     0.111 C 
BRANCH   2   3
HETATM    3  C1  UNL     1     -31.846  18.193  -0.742  1.00 20.00     0.258 C 
HETATM    4  O9  UNL     1     -30.643  18.415  -0.720  1.00 20.00    -0.265 OA
BRANCH   3   5
HETATM    5  O10 UNL     1     -32.708  18.353   0.306  1.00 20.00    -0.326 OA
HETATM    6  C2  UNL     1     -32.101  18.414   1.601  1.00 20.00     0.213 C 
ENDBRANCH   3   5
ENDBRANCH   2   3
ENDBRANCH   1   2
BRANCH   1   7
HETATM    7  C6  UNL     1     -34.341  15.927  -2.499  1.00 20.00     0.002 C 
BRANCH   7   8
HETATM    8  C7  UNL     1     -33.376  15.815  -3.677  1.00 20.00     0.026 C 
BRANCH   8   9
HETATM    9  C8  UNL     1     -33.423  14.433  -4.312  1.00 20.00     0.167 C 
BRANCH   9  10
HETATM   10  O11 UNL     1     -33.560  14.577  -5.718  1.00 20.00    -0.396 OA
HETATM   11  C3  UNL     1     -34.882  14.957  -6.077  1.00 20.00     0.201 C 
ENDBRANCH   9  10
ENDBRANCH   8   9
ENDBRANCH   7   8
ENDBRANCH   1   7
TORSDOF 7
ENDMDL
MODEL 9
REMARK VINA RESULT:      -3.9      1.060      6.208
REMARK  7 active torsions:
REMARK  status: ('A' for Active; 'I' for Inactive)
REMARK    1  A    between atoms: C1_1  and  C4_4 
REMARK    2  A    between atoms: C1_1  and  O10_10 
REMARK    3  A    between atoms: C4_4  and  C5_5 
REMARK    4  A    between atoms: C5_5  and  C6_6 
REMARK    5  A    between atoms: C6_6  and  C7_7 
REMARK    6  A    between atoms: C7_7  and  C8_8 
REMARK    7  A    between atoms: C8_8  and  O11_11 
ROOT
HETATM    1  C5  UNL     1     -34.316  15.666  -2.902  1.00 20.00     0.010 C 
ENDROOT
BRANCH   1   2
HETATM    2  C4  UNL     1     -33.140  16.644  -2.880  1.00 20.00     0.111 C 
BRANCH   2   3
HETATM    3  C1  UNL     1     -33.151  17.561  -1.677  1.00 20.00     0.258 C 
HETATM    4  O9  UNL     1     -34.027  17.594  -0.823  1.00 20.00    -0.265 OA
BRANCH   3   5
HETATM    5  O10 UNL     1     -32.015  18.319  -1.686  1.00 20.00    -0.326 OA
HETATM    6  C2  UNL     1     -31.329  18.418  -0.433  1.00 20.00     0.213 C 
ENDBRANCH   3   5
ENDBRANCH   2   3
ENDBRANCH   1   2
BRANCH   1   7
HETATM    7  C6  UNL     1     -34.156  14.582  -3.973  1.00 20.00     0.002 C 
BRANCH   7   8
HETATM    8  C7  UNL     1     -35.371  13.657  -4.009  1.00 20.00     0.026 C 
BRANCH   8   9
HETATM    9  C8  UNL     1     -36.476  14.215  -4.895  1.00 20.00     0.167 C 
BRANCH   9  10
HETATM   10  O11 UNL     1     -37.730  13.751  -4.413  1.00 20.00    -0.396 OA
HETATM   11  C3  UNL     1     -38.646  14.823  -4.228  1.00 20.00     0.201 C 
ENDBRANCH   9  10
ENDBRANCH   8   9
ENDBRANCH   7   8
ENDBRANCH   1   7
TORSDOF 7
ENDMDL
