MODEL 1
REMARK VINA RESULT:      -5.3      0.000      0.000
REMARK  2 active torsions:
REMARK  status: ('A' for Active; 'I' for Inactive)
REMARK    1  A    between atoms: C1_1  and  C7_7 
REMARK       I    between atoms: C1_1  and  N9_9 
REMARK    2  A    between atoms: C7_7  and  C8_8 
ROOT
HETATM    1  C1  UNL     1     -32.406   7.164   3.098  1.00 20.00     0.219 C 
HETATM    2  C2  UNL     1     -35.020   5.588   5.149  1.00 20.00     0.021 C 
HETATM    3  C3  UNL     1     -34.598   4.418   4.269  1.00 20.00     0.021 C 
HETATM    4  C4  UNL     1     -33.841   6.543   5.031  1.00 20.00     0.126 C 
HETATM    5  C5  UNL     1     -33.890   5.103   3.108  1.00 20.00     0.126 C 
HETATM    6  N9  UNL     1     -33.320   6.313   3.691  1.00 20.00    -0.352 N 
HETATM    7  O10 UNL     1     -31.573   7.825   3.722  1.00 20.00    -0.273 OA
ENDROOT
BRANCH   1   8
HETATM    8  C7  UNL     1     -32.474   7.247   1.594  1.00 20.00     0.103 C 
BRANCH   8   9
HETATM    9  C8  UNL     1     -32.786   8.667   1.154  1.00 20.00     0.005 C 
HETATM   10  C6  UNL     1     -33.351   8.738  -0.258  1.00 20.00     0.005 C 
ENDBRANCH   8   9
ENDBRANCH   1   8
TORSDOF 2
ENDMDL
MODEL 2
REMARK VINA RESULT:      -4.4      1.435      2.020
REMARK  2 active torsions:
REMARK  status: ('A' for Active; 'I' for Inactive)
REMARK    1  A    between atoms: C1_1  and  C7_7 
REMARK       I    between atoms: C1_1  and  N9_9 
REMARK    2  A    between atoms: C7_7  and  C8_8 
ROOT
HETATM    1  C1  UNL     1     -33.378   6.090   2.673  1.00 20.00     0.219 C 
HETATM    2  C2  UNL     1     -34.473   4.665   5.881  1.00 20.00     0.021 C 
HETATM    3  C3  UNL     1     -34.759   6.143   6.109  1.00 20.00     0.021 C 
HETATM    4  C4  UNL     1     -34.378   4.568   4.366  1.00 20.00     0.126 C 
HETATM    5  C5  UNL     1     -33.905   6.823   5.047  1.00 20.00     0.126 C 
HETATM    6  N9  UNL     1     -33.853   5.861   3.951  1.00 20.00    -0.352 N 
HETATM    7  O10 UNL     1     -33.793   5.508   1.669  1.00 20.00    -0.273 OA
ENDROOT
BRANCH   1   8
HETATM    8  C7  UNL     1     -32.290   7.127   2.559  1.00 20.00     0.103 C 
BRANCH   8   9
HETATM    9  C8  UNL     1     -32.212   7.660   1.139  1.00 20.00     0.005 C 
HETATM   10  C6  UNL     1     -32.939   8.986   0.965  1.00 20.00     0.005 C 
ENDBRANCH   8   9
ENDBRANCH   1   8
TORSDOF 2
ENDMDL
MODEL 3
REMARK VINA RESULT:      -4.2     10.823     12.747
REMARK  2 active torsions:
REMARK  status: ('A' for Active; 'I' for Inactive)
REMARK    1  A    between atoms: C1_1  and  C7_7 
REMARK       I    between atoms: C1_1  and  N9_9 
REMARK    2  A    between atoms: C7_7  and  C8_8 
ROOT
HETATM    1  C1  UNL     1     -35.799  14.187  -4.959  1.00 20.00     0.219 C 
HETATM    2  C2  UNL     1     -35.297  16.420  -7.837  1.00 20.00     0.021 C 
HETATM    3  C3  UNL     1     -34.043  15.558  -7.918  1.00 20.00     0.021 C 
HETATM    4  C4  UNL     1     -36.227  15.585  -6.971  1.00 20.00     0.126 C 
HETATM    5  C5  UNL     1     -33.951  14.960  -6.521  1.00 20.00     0.126 C 
HETATM    6  N9  UNL     1     -35.336  14.861  -6.074  1.00 20.00    -0.352 N 
HETATM    7  O10 UNL     1     -36.918  13.677  -4.876  1.00 20.00    -0.273 OA
ENDROOT
BRANCH   1   8
HETATM    8  C7  UNL     1     -34.832  14.096  -3.806  1.00 20.00     0.103 C 
BRANCH   8   9
HETATM    9  C8  UNL     1     -34.883  15.363  -2.970  1.00 20.00     0.005 C 
HETATM   10  C6  UNL     1     -33.556  16.109  -2.946  1.00 20.00     0.005 C 
ENDBRANCH   8   9
ENDBRANCH   1   8
TORSDOF 2
ENDMDL
MODEL 4
REMARK VINA RESULT:      -4.2     10.820     11.714
REMARK  2 active torsions:
REMARK  status: ('A' for Active; 'I' for Inactive)
REMARK    1  A    between atoms: C1_1  and  C7_7 
REMARK       I    between atoms: C1_1  and  N9_9 
REMARK    2  A    between atoms: C7_7  and  C8_8 
ROOT
HETATM    1  C1  UNL     1     -36.177  13.959  -4.262  1.00 20.00     0.219 C 
HETATM    2  C2  UNL     1     -33.142  15.922  -3.581  1.00 20.00     0.021 C 
HETATM    3  C3  UNL     1     -33.960  16.210  -2.329  1.00 20.00     0.021 C 
HETATM    4  C4  UNL     1     -33.795  14.662  -4.130  1.00 20.00     0.126 C 
HETATM    5  C5  UNL     1     -35.374  15.837  -2.752  1.00 20.00     0.126 C 
HETATM    6  N9  UNL     1     -35.192  14.776  -3.737  1.00 20.00    -0.352 N 
HETATM    7  O10 UNL     1     -35.982  12.804  -4.645  1.00 20.00    -0.273 OA
ENDROOT
BRANCH   1   8
HETATM    8  C7  UNL     1     -37.553  14.569  -4.345  1.00 20.00     0.103 C 
BRANCH   8   9
HETATM    9  C8  UNL     1     -37.595  15.642  -5.419  1.00 20.00     0.005 C 
HETATM   10  C6  UNL     1     -38.152  16.965  -4.912  1.00 20.00     0.005 C 
ENDBRANCH   8   9
ENDBRANCH   1   8
TORSDOF 2
ENDMDL
MODEL 5
REMARK VINA RESULT:      -4.1     10.515     11.432
REMARK  2 active torsions:
REMARK  status: ('A' for Active; 'I' for Inactive)
REMARK    1  A    between atoms: C1_1  and  C7_7 
REMARK       I    between atoms: C1_1  and  N9_9 
REMARK    2  A    between atoms: C7_7  and  C8_8 
ROOT
HETATM    1  C1  UNL     1     -34.748  14.200  -3.857  1.00 20.00     0.219 C 
HETATM    2  C2  UNL     1     -33.225  17.292  -2.575  1.00 20.00     0.021 C 
HETATM    3  C3  UNL     1     -34.317  17.056  -1.540  1.00 20.00     0.021 C 
HETATM    4  C4  UNL     1     -33.072  15.924  -3.223  1.00 20.00     0.126 C 
HETATM    5  C5  UNL     1     -35.264  16.101  -2.253  1.00 20.00     0.126 C 
HETATM    6  N9  UNL     1     -34.402  15.336  -3.148  1.00 20.00    -0.352 N 
HETATM    7  O10 UNL     1     -33.954  13.307  -4.160  1.00 20.00    -0.273 OA
ENDROOT
BRANCH   1   8
HETATM    8  C7  UNL     1     -36.199  14.097  -4.254  1.00 20.00     0.103 C 
BRANCH   8   9
HETATM    9  C8  UNL     1     -36.502  15.038  -5.407  1.00 20.00     0.005 C 
HETATM   10  C6  UNL     1     -35.683  14.730  -6.652  1.00 20.00     0.005 C 
ENDBRANCH   8   9
ENDBRANCH   1   8
TORSDOF 2
ENDMDL
MODEL 6
REMARK VINA RESULT:      -4.1     11.349     12.264
REMARK  2 active torsions:
REMARK  status: ('A' for Active; 'I' for Inactive)
REMARK    1  A    between atoms: C1_1  and  C7_7 
REMARK       I    between atoms: C1_1  and  N9_9 
REMARK    2  A    between atoms: C7_7  and  C8_8 
ROOT
HETATM    1  C1  UNL     1     -32.392  18.491  -1.532  1.00 20.00     0.219 C 
HETATM    2  C2  UNL     1     -34.076  15.588  -3.034  1.00 20.00     0.021 C 
HETATM    3  C3  UNL     1     -35.201  16.167  -2.187  1.00 20.00     0.021 C 
HETATM    4  C4  UNL     1     -33.110  16.756  -3.162  1.00 20.00     0.126 C 
HETATM    5  C5  UNL     1     -34.459  17.053  -1.195  1.00 20.00     0.126 C 
HETATM    6  N9  UNL     1     -33.275  17.501  -1.922  1.00 20.00    -0.352 N 
HETATM    7  O10 UNL     1     -31.757  19.197  -2.318  1.00 20.00    -0.273 OA
ENDROOT
BRANCH   1   8
HETATM    8  C7  UNL     1     -32.239  18.678  -0.044  1.00 20.00     0.103 C 
BRANCH   8   9
HETATM    9  C8  UNL     1     -30.852  18.251   0.405  1.00 20.00     0.005 C 
HETATM   10  C6  UNL     1     -30.284  19.143   1.499  1.00 20.00     0.005 C 
ENDBRANCH   8   9
ENDBRANCH   1   8
TORSDOF 2
ENDMDL
MODEL 7
REMARK VINA RESULT:      -4.1     10.918     12.027
REMARK  2 active torsions:
REMARK  status: ('A' for Active; 'I' for Inactive)
REMARK    1  A    between atoms: C1_1  and  C7_7 
REMARK       I    between atoms: C1_1  and  N9_9 
REMARK    2  A    between atoms: C7_7  and  C8_8 
ROOT
HETATM    1  C1  UNL     1     -35.837  13.936  -4.492  1.00 20.00     0.219 C 
HETATM    2  C2  UNL     1     -38.980  15.846  -4.478  1.00 20.00     0.021 C 
HETATM    3  C3  UNL     1     -38.247  16.504  -5.639  1.00 20.00     0.021 C 
HETATM    4  C4  UNL     1     -38.248  14.521  -4.322  1.00 20.00     0.126 C 
HETATM    5  C5  UNL     1     -36.797  16.107  -5.397  1.00 20.00     0.126 C 
HETATM    6  N9  UNL     1     -36.881  14.811  -4.731  1.00 20.00    -0.352 N 
HETATM    7  O10 UNL     1     -35.964  12.712  -4.430  1.00 20.00    -0.273 OA
ENDROOT
BRANCH   1   8
HETATM    8  C7  UNL     1     -34.483  14.573  -4.308  1.00 20.00     0.103 C 
BRANCH   8   9
HETATM    9  C8  UNL     1     -34.431  15.341  -2.998  1.00 20.00     0.005 C 
HETATM   10  C6  UNL     1     -33.294  16.352  -2.951  1.00 20.00     0.005 C 
ENDBRANCH   8   9
ENDBRANCH   1   8
TORSDOF 2
ENDMDL
MODEL 8
REMARK VINA RESULT:      -4.0     10.925     12.012
REMARK  2 active torsions:
REMARK  status: ('A' for Active; 'I' for Inactive)
REMARK    1  A    between atoms: C1_1  and  C7_7 
REMARK       I    between atoms: C1_1  and  N9_9 
REMARK    2  A    between atoms: C7_7  and  C8_8 
ROOT
HETATM    1  C1  UNL     1     -37.208  14.708  -4.219  1.00 20.00     0.219 C 
HETATM    2  C2  UNL     1     -33.688  15.443  -3.454  1.00 20.00     0.021 C 
HETATM    3  C3  UNL     1     -34.389  16.174  -2.317  1.00 20.00     0.021 C 
HETATM    4  C4  UNL     1     -34.750  14.466  -3.936  1.00 20.00     0.126 C 
HETATM    5  C5  UNL     1     -35.815  16.315  -2.830  1.00 20.00     0.126 C 
HETATM    6  N9  UNL     1     -36.011  15.150  -3.687  1.00 20.00    -0.352 N 
HETATM    7  O10 UNL     1     -37.458  13.527  -4.468  1.00 20.00    -0.273 OA
ENDROOT
BRANCH   1   8
HETATM    8  C7  UNL     1     -38.236  15.778  -4.487  1.00 20.00     0.103 C 
BRANCH   8   9
HETATM    9  C8  UNL     1     -39.639  15.210  -4.361  1.00 20.00     0.005 C 
HETATM   10  C6  UNL     1     -40.427  15.829  -3.215  1.00 20.00     0.005 C 
ENDBRANCH   8   9
ENDBRANCH   1   8
TORSDOF 2
ENDMDL
MODEL 9
REMARK VINA RESULT:      -3.9     11.068     12.670
REMARK  2 active torsions:
REMARK  status: ('A' for Active; 'I' for Inactive)
REMARK    1  A    between atoms: C1_1  and  C7_7 
REMARK       I    between atoms: C1_1  and  N9_9 
REMARK    2  A    between atoms: C7_7  and  C8_8 
ROOT
HETATM    1  C1  UNL     1     -33.777  14.977  -4.476  1.00 20.00     0.219 C 
HETATM    2  C2  UNL     1     -36.114  15.803  -7.192  1.00 20.00     0.021 C 
HETATM    3  C3  UNL     1     -35.240  17.050  -7.173  1.00 20.00     0.021 C 
HETATM    4  C4  UNL     1     -35.257  14.778  -6.463  1.00 20.00     0.126 C 
HETATM    5  C5  UNL     1     -34.586  16.988  -5.800  1.00 20.00     0.126 C 
HETATM    6  N9  UNL     1     -34.488  15.562  -5.507  1.00 20.00    -0.352 N 
HETATM    7  O10 UNL     1     -33.278  13.851  -4.533  1.00 20.00    -0.273 OA
ENDROOT
BRANCH   1   8
HETATM    8  C7  UNL     1     -33.628  15.814  -3.231  1.00 20.00     0.103 C 
BRANCH   8   9
HETATM    9  C8  UNL     1     -34.895  15.750  -2.394  1.00 20.00     0.005 C 
HETATM   10  C6  UNL     1     -34.953  16.834  -1.326  1.00 20.00     0.005 C 
ENDBRANCH   8   9
ENDBRANCH   1   8
TORSDOF 2
ENDMDL
