MODEL 1
REMARK VINA RESULT:      -4.0      0.000      0.000
REMARK  1 active torsions:
REMARK  status: ('A' for Active; 'I' for Inactive)
REMARK    1  A    between atoms: C1_1  and  C8_8 
ROOT
HETATM    1  C1  UNL     1     -35.421  15.346  -3.313  1.00 20.00     0.139 C 
HETATM    2  C2  UNL     1     -36.344  13.810  -4.570  1.00 20.00     0.209 C 
HETATM    3  C3  UNL     1     -37.159  15.100  -4.599  1.00 20.00     0.070 C 
HETATM    4  C4  UNL     1     -37.025  15.828  -5.939  1.00 20.00     0.042 C 
HETATM    5  C5  UNL     1     -38.627  14.859  -4.265  1.00 20.00     0.042 C 
HETATM    6  N9  UNL     1     -36.546  15.940  -3.552  1.00 20.00    -0.258 NA
HETATM    7  O10 UNL     1     -35.128  14.183  -3.934  1.00 20.00    -0.335 OA
ENDROOT
BRANCH   1   8
HETATM    8  C8  UNL     1     -34.378  15.834  -2.376  1.00 20.00     0.054 C 
HETATM    9  C6  UNL     1     -33.192  16.425  -3.144  1.00 20.00     0.018 C 
HETATM   10  C7  UNL     1     -34.946  16.866  -1.398  1.00 20.00     0.018 C 
ENDBRANCH   1   8
TORSDOF 1
ENDMDL
MODEL 2
REMARK VINA RESULT:      -3.9      2.263      2.879
REMARK  1 active torsions:
REMARK  status: ('A' for Active; 'I' for Inactive)
REMARK    1  A    between atoms: C1_1  and  C8_8 
ROOT
HETATM    1  C1  UNL     1     -34.245  15.928  -4.208  1.00 20.00     0.139 C 
HETATM    2  C2  UNL     1     -35.000  16.799  -6.068  1.00 20.00     0.209 C 
HETATM    3  C3  UNL     1     -34.644  15.328  -6.261  1.00 20.00     0.070 C 
HETATM    4  C4  UNL     1     -35.893  14.454  -6.402  1.00 20.00     0.042 C 
HETATM    5  C5  UNL     1     -33.705  15.115  -7.444  1.00 20.00     0.042 C 
HETATM    6  N9  UNL     1     -33.955  14.955  -5.011  1.00 20.00    -0.258 NA
HETATM    7  O10 UNL     1     -34.954  16.985  -4.660  1.00 20.00    -0.335 OA
ENDROOT
BRANCH   1   8
HETATM    8  C8  UNL     1     -33.850  16.004  -2.779  1.00 20.00     0.054 C 
HETATM    9  C6  UNL     1     -32.888  17.172  -2.543  1.00 20.00     0.018 C 
HETATM   10  C7  UNL     1     -35.076  16.132  -1.869  1.00 20.00     0.018 C 
ENDBRANCH   1   8
TORSDOF 1
ENDMDL
MODEL 3
REMARK VINA RESULT:      -3.9      1.599      2.034
REMARK  1 active torsions:
REMARK  status: ('A' for Active; 'I' for Inactive)
REMARK    1  A    between atoms: C1_1  and  C8_8 
ROOT
HETATM    1  C1  UNL     1     -34.616  15.541  -3.999  1.00 20.00     0.139 C 
HETATM    2  C2  UNL     1     -35.777  14.311  -5.390  1.00 20.00     0.209 C 
HETATM    3  C3  UNL     1     -35.170  15.515  -6.104  1.00 20.00     0.070 C 
HETATM    4  C4  UNL     1     -34.017  15.108  -7.026  1.00 20.00     0.042 C 
HETATM    5  C5  UNL     1     -36.216  16.313  -6.875  1.00 20.00     0.042 C 
HETATM    6  N9  UNL     1     -34.621  16.344  -5.014  1.00 20.00    -0.258 NA
HETATM    7  O10 UNL     1     -35.132  14.298  -4.123  1.00 20.00    -0.335 OA
ENDROOT
BRANCH   1   8
HETATM    8  C8  UNL     1     -34.085  15.865  -2.652  1.00 20.00     0.054 C 
HETATM    9  C6  UNL     1     -32.976  16.918  -2.745  1.00 20.00     0.018 C 
HETATM   10  C7  UNL     1     -35.197  16.345  -1.716  1.00 20.00     0.018 C 
ENDBRANCH   1   8
TORSDOF 1
ENDMDL
MODEL 4
REMARK VINA RESULT:      -3.8     11.602     12.230
REMARK  1 active torsions:
REMARK  status: ('A' for Active; 'I' for Inactive)
REMARK    1  A    between atoms: C1_1  and  C8_8 
ROOT
HETATM    1  C1  UNL     1     -33.182   6.154   3.142  1.00 20.00     0.139 C 
HETATM    2  C2  UNL     1     -34.102   4.227   3.627  1.00 20.00     0.209 C 
HETATM    3  C3  UNL     1     -34.763   5.357   4.408  1.00 20.00     0.070 C 
HETATM    4  C4  UNL     1     -36.168   5.666   3.884  1.00 20.00     0.042 C 
HETATM    5  C5  UNL     1     -34.801   5.075   5.906  1.00 20.00     0.042 C 
HETATM    6  N9  UNL     1     -33.904   6.529   4.149  1.00 20.00    -0.258 NA
HETATM    7  O10 UNL     1     -33.297   4.895   2.664  1.00 20.00    -0.335 OA
ENDROOT
BRANCH   1   8
HETATM    8  C8  UNL     1     -32.191   7.003   2.436  1.00 20.00     0.054 C 
HETATM    9  C6  UNL     1     -32.879   7.887   1.392  1.00 20.00     0.018 C 
HETATM   10  C7  UNL     1     -31.394   7.863   3.420  1.00 20.00     0.018 C 
ENDBRANCH   1   8
TORSDOF 1
ENDMDL
MODEL 5
REMARK VINA RESULT:      -3.8      2.277      4.612
REMARK  1 active torsions:
REMARK  status: ('A' for Active; 'I' for Inactive)
REMARK    1  A    between atoms: C1_1  and  C8_8 
ROOT
HETATM    1  C1  UNL     1     -34.099  16.022  -2.636  1.00 20.00     0.139 C 
HETATM    2  C2  UNL     1     -34.405  17.379  -0.945  1.00 20.00     0.209 C 
HETATM    3  C3  UNL     1     -33.295  17.889  -1.859  1.00 20.00     0.070 C 
HETATM    4  C4  UNL     1     -33.736  19.115  -2.662  1.00 20.00     0.042 C 
HETATM    5  C5  UNL     1     -32.010  18.184  -1.092  1.00 20.00     0.042 C 
HETATM    6  N9  UNL     1     -33.062  16.777  -2.801  1.00 20.00    -0.258 NA
HETATM    7  O10 UNL     1     -35.013  16.332  -1.690  1.00 20.00    -0.335 OA
ENDROOT
BRANCH   1   8
HETATM    8  C8  UNL     1     -34.394  14.790  -3.409  1.00 20.00     0.054 C 
HETATM    9  C6  UNL     1     -35.831  14.810  -3.936  1.00 20.00     0.018 C 
HETATM   10  C7  UNL     1     -33.405  14.609  -4.565  1.00 20.00     0.018 C 
ENDBRANCH   1   8
TORSDOF 1
ENDMDL
MODEL 6
REMARK VINA RESULT:      -3.8      2.267      4.333
REMARK  1 active torsions:
REMARK  status: ('A' for Active; 'I' for Inactive)
REMARK    1  A    between atoms: C1_1  and  C8_8 
ROOT
HETATM    1  C1  UNL     1     -34.249  15.556  -5.936  1.00 20.00     0.139 C 
HETATM    2  C2  UNL     1     -33.156  14.522  -4.345  1.00 20.00     0.209 C 
HETATM    3  C3  UNL     1     -33.928  15.715  -3.789  1.00 20.00     0.070 C 
HETATM    4  C4  UNL     1     -35.140  15.275  -2.965  1.00 20.00     0.042 C 
HETATM    5  C5  UNL     1     -33.037  16.647  -2.976  1.00 20.00     0.042 C 
HETATM    6  N9  UNL     1     -34.416  16.422  -4.989  1.00 20.00    -0.258 NA
HETATM    7  O10 UNL     1     -33.656  14.372  -5.668  1.00 20.00    -0.335 OA
ENDROOT
BRANCH   1   8
HETATM    8  C8  UNL     1     -34.653  15.746  -7.352  1.00 20.00     0.054 C 
HETATM    9  C6  UNL     1     -36.178  15.709  -7.490  1.00 20.00     0.018 C 
HETATM   10  C7  UNL     1     -34.100  17.057  -7.917  1.00 20.00     0.018 C 
ENDBRANCH   1   8
TORSDOF 1
ENDMDL
MODEL 7
REMARK VINA RESULT:      -3.8      1.654      2.012
REMARK  1 active torsions:
REMARK  status: ('A' for Active; 'I' for Inactive)
REMARK    1  A    between atoms: C1_1  and  C8_8 
ROOT
HETATM    1  C1  UNL     1     -34.160  16.000  -2.875  1.00 20.00     0.139 C 
HETATM    2  C2  UNL     1     -33.594  14.603  -4.462  1.00 20.00     0.209 C 
HETATM    3  C3  UNL     1     -35.099  14.852  -4.468  1.00 20.00     0.070 C 
HETATM    4  C4  UNL     1     -35.529  15.713  -5.659  1.00 20.00     0.042 C 
HETATM    5  C5  UNL     1     -35.896  13.553  -4.431  1.00 20.00     0.042 C 
HETATM    6  N9  UNL     1     -35.345  15.617  -3.231  1.00 20.00    -0.258 NA
HETATM    7  O10 UNL     1     -33.082  15.593  -3.580  1.00 20.00    -0.335 OA
ENDROOT
BRANCH   1   8
HETATM    8  C8  UNL     1     -33.855  16.874  -1.715  1.00 20.00     0.054 C 
HETATM    9  C6  UNL     1     -33.264  18.208  -2.181  1.00 20.00     0.018 C 
HETATM   10  C7  UNL     1     -35.101  17.114  -0.857  1.00 20.00     0.018 C 
ENDBRANCH   1   8
TORSDOF 1
ENDMDL
MODEL 8
REMARK VINA RESULT:      -3.6      1.305      1.585
REMARK  1 active torsions:
REMARK  status: ('A' for Active; 'I' for Inactive)
REMARK    1  A    between atoms: C1_1  and  C8_8 
ROOT
HETATM    1  C1  UNL     1     -36.205  15.243  -3.702  1.00 20.00     0.139 C 
HETATM    2  C2  UNL     1     -38.234  14.636  -4.255  1.00 20.00     0.209 C 
HETATM    3  C3  UNL     1     -38.031  16.130  -4.486  1.00 20.00     0.070 C 
HETATM    4  C4  UNL     1     -37.944  16.469  -5.976  1.00 20.00     0.042 C 
HETATM    5  C5  UNL     1     -39.109  16.969  -3.808  1.00 20.00     0.042 C 
HETATM    6  N9  UNL     1     -36.721  16.418  -3.869  1.00 20.00    -0.258 NA
HETATM    7  O10 UNL     1     -36.924  14.141  -4.011  1.00 20.00    -0.335 OA
ENDROOT
BRANCH   1   8
HETATM    8  C8  UNL     1     -34.844  14.972  -3.174  1.00 20.00     0.054 C 
HETATM    9  C6  UNL     1     -33.875  14.644  -4.313  1.00 20.00     0.018 C 
HETATM   10  C7  UNL     1     -34.321  16.155  -2.354  1.00 20.00     0.018 C 
ENDBRANCH   1   8
TORSDOF 1
ENDMDL
MODEL 9
REMARK VINA RESULT:      -3.6      1.798      4.037
REMARK  1 active torsions:
REMARK  status: ('A' for Active; 'I' for Inactive)
REMARK    1  A    between atoms: C1_1  and  C8_8 
ROOT
HETATM    1  C1  UNL     1     -34.870  15.613  -3.861  1.00 20.00     0.139 C 
HETATM    2  C2  UNL     1     -35.278  17.667  -3.223  1.00 20.00     0.209 C 
HETATM    3  C3  UNL     1     -34.527  16.900  -2.140  1.00 20.00     0.070 C 
HETATM    4  C4  UNL     1     -33.074  17.366  -2.016  1.00 20.00     0.042 C 
HETATM    5  C5  UNL     1     -35.231  16.976  -0.789  1.00 20.00     0.042 C 
HETATM    6  N9  UNL     1     -34.526  15.504  -2.618  1.00 20.00    -0.258 NA
HETATM    7  O10 UNL     1     -35.198  16.824  -4.364  1.00 20.00    -0.335 OA
ENDROOT
BRANCH   1   8
HETATM    8  C8  UNL     1     -34.951  14.491  -4.829  1.00 20.00     0.054 C 
HETATM    9  C6  UNL     1     -36.259  13.715  -4.652  1.00 20.00     0.018 C 
HETATM   10  C7  UNL     1     -34.818  14.989  -6.271  1.00 20.00     0.018 C 
ENDBRANCH   1   8
TORSDOF 1
ENDMDL
