MODEL 1
REMARK VINA RESULT:      -5.1      0.000      0.000
REMARK  2 active torsions:
REMARK  status: ('A' for Active; 'I' for Inactive)
REMARK    1  A    between atoms: C5_5  and  C9_9 
REMARK    2  A    between atoms: C9_9  and  O10_10 
ROOT
HETATM    1  C1  UNL     1     -22.659  17.890   8.191  1.00 20.00    -0.024 C 
HETATM    2  C2  UNL     1     -23.883  18.422   8.286  1.00 20.00    -0.087 C 
HETATM    3  C3  UNL     1     -22.261  17.187   9.446  1.00 20.00     0.035 C 
HETATM    4  C4  UNL     1     -24.499  18.152   9.623  1.00 20.00     0.041 C 
HETATM    5  C5  UNL     1     -23.599  17.040  10.182  1.00 20.00     0.026 C 
HETATM    6  C6  UNL     1     -24.593  19.225   7.257  1.00 20.00     0.043 C 
ENDROOT
BRANCH   5   7
HETATM    7  C9  UNL     1     -23.457  17.090  11.695  1.00 20.00     0.055 C 
HETATM    8  C7  UNL     1     -24.635  17.831  12.329  1.00 20.00     0.045 C 
HETATM    9  C8  UNL     1     -22.136  17.747  12.104  1.00 20.00     0.045 C 
BRANCH   7  10
HETATM   10  O10 UNL     1     -23.470  15.753  12.205  1.00 20.00    -0.390 OA
HETATM   11  H26 UNL     1     -22.826  15.732  12.927  1.00 20.00     0.210 HD
ENDBRANCH   7  10
ENDBRANCH   5   7
TORSDOF 2
ENDMDL
MODEL 2
REMARK VINA RESULT:      -4.9     15.716     18.101
REMARK  2 active torsions:
REMARK  status: ('A' for Active; 'I' for Inactive)
REMARK    1  A    between atoms: C5_5  and  C9_9 
REMARK    2  A    between atoms: C9_9  and  O10_10 
ROOT
HETATM    1  C1  UNL     1     -34.862  16.247  -1.877  1.00 20.00    -0.024 C 
HETATM    2  C2  UNL     1     -33.705  16.863  -2.145  1.00 20.00    -0.087 C 
HETATM    3  C3  UNL     1     -35.312  15.395  -3.017  1.00 20.00     0.035 C 
HETATM    4  C4  UNL     1     -33.196  16.514  -3.509  1.00 20.00     0.041 C 
HETATM    5  C5  UNL     1     -34.043  15.284  -3.871  1.00 20.00     0.026 C 
HETATM    6  C6  UNL     1     -32.975  17.817  -1.270  1.00 20.00     0.043 C 
ENDROOT
BRANCH   5   7
HETATM    7  C9  UNL     1     -34.331  15.175  -5.359  1.00 20.00     0.055 C 
HETATM    8  C7  UNL     1     -34.474  16.561  -5.991  1.00 20.00     0.045 C 
HETATM    9  C8  UNL     1     -35.590  14.342  -5.618  1.00 20.00     0.045 C 
BRANCH   7  10
HETATM   10  O10 UNL     1     -33.226  14.528  -5.998  1.00 20.00    -0.390 OA
HETATM   11  H26 UNL     1     -33.607  13.919  -6.647  1.00 20.00     0.210 HD
ENDBRANCH   7  10
ENDBRANCH   5   7
TORSDOF 2
ENDMDL
MODEL 3
REMARK VINA RESULT:      -4.7     15.902     17.517
REMARK  2 active torsions:
REMARK  status: ('A' for Active; 'I' for Inactive)
REMARK    1  A    between atoms: C5_5  and  C9_9 
REMARK    2  A    between atoms: C9_9  and  O10_10 
ROOT
HETATM    1  C1  UNL     1     -33.408  17.277  -1.869  1.00 20.00    -0.024 C 
HETATM    2  C2  UNL     1     -34.612  16.787  -1.555  1.00 20.00    -0.087 C 
HETATM    3  C3  UNL     1     -32.893  16.706  -3.148  1.00 20.00     0.035 C 
HETATM    4  C4  UNL     1     -35.095  15.810  -2.581  1.00 20.00     0.041 C 
HETATM    5  C5  UNL     1     -34.152  16.082  -3.763  1.00 20.00     0.026 C 
HETATM    6  C6  UNL     1     -35.414  17.091  -0.341  1.00 20.00     0.043 C 
ENDROOT
BRANCH   5   7
HETATM    7  C9  UNL     1     -33.861  14.842  -4.592  1.00 20.00     0.055 C 
HETATM    8  C7  UNL     1     -34.240  15.064  -6.058  1.00 20.00     0.045 C 
HETATM    9  C8  UNL     1     -34.594  13.619  -4.034  1.00 20.00     0.045 C 
BRANCH   7  10
HETATM   10  O10 UNL     1     -32.455  14.579  -4.552  1.00 20.00    -0.390 OA
HETATM   11  H26 UNL     1     -32.320  13.934  -3.842  1.00 20.00     0.210 HD
ENDBRANCH   7  10
ENDBRANCH   5   7
TORSDOF 2
ENDMDL
MODEL 4
REMARK VINA RESULT:      -4.7     15.336     17.673
REMARK  2 active torsions:
REMARK  status: ('A' for Active; 'I' for Inactive)
REMARK    1  A    between atoms: C5_5  and  C9_9 
REMARK    2  A    between atoms: C9_9  and  O10_10 
ROOT
HETATM    1  C1  UNL     1     -34.564  17.092  -1.575  1.00 20.00    -0.024 C 
HETATM    2  C2  UNL     1     -33.341  17.160  -2.113  1.00 20.00    -0.087 C 
HETATM    3  C3  UNL     1     -35.402  16.048  -2.237  1.00 20.00     0.035 C 
HETATM    4  C4  UNL     1     -33.168  16.166  -3.219  1.00 20.00     0.041 C 
HETATM    5  C5  UNL     1     -34.360  15.223  -3.004  1.00 20.00     0.026 C 
HETATM    6  C6  UNL     1     -32.252  18.101  -1.743  1.00 20.00     0.043 C 
ENDROOT
BRANCH   5   7
HETATM    7  C9  UNL     1     -34.899  14.637  -4.299  1.00 20.00     0.055 C 
HETATM    8  C7  UNL     1     -33.961  14.941  -5.468  1.00 20.00     0.045 C 
HETATM    9  C8  UNL     1     -36.307  15.159  -4.599  1.00 20.00     0.045 C 
BRANCH   7  10
HETATM   10  O10 UNL     1     -34.967  13.213  -4.168  1.00 20.00    -0.390 OA
HETATM   11  H26 UNL     1     -34.766  13.017  -3.241  1.00 20.00     0.210 HD
ENDBRANCH   7  10
ENDBRANCH   5   7
TORSDOF 2
ENDMDL
MODEL 5
REMARK VINA RESULT:      -4.5     16.490     18.860
REMARK  2 active torsions:
REMARK  status: ('A' for Active; 'I' for Inactive)
REMARK    1  A    between atoms: C5_5  and  C9_9 
REMARK    2  A    between atoms: C9_9  and  O10_10 
ROOT
HETATM    1  C1  UNL     1     -34.979  15.877  -2.307  1.00 20.00    -0.024 C 
HETATM    2  C2  UNL     1     -33.844  16.415  -2.767  1.00 20.00    -0.087 C 
HETATM    3  C3  UNL     1     -35.699  15.111  -3.367  1.00 20.00     0.035 C 
HETATM    4  C4  UNL     1     -33.625  16.087  -4.211  1.00 20.00     0.041 C 
HETATM    5  C5  UNL     1     -34.621  14.942  -4.444  1.00 20.00     0.026 C 
HETATM    6  C6  UNL     1     -32.891  17.272  -2.017  1.00 20.00     0.043 C 
ENDROOT
BRANCH   5   7
HETATM    7  C9  UNL     1     -35.185  14.918  -5.855  1.00 20.00     0.055 C 
HETATM    8  C7  UNL     1     -34.070  15.074  -6.891  1.00 20.00     0.045 C 
HETATM    9  C8  UNL     1     -36.243  16.009  -6.046  1.00 20.00     0.045 C 
BRANCH   7  10
HETATM   10  O10 UNL     1     -35.804  13.648  -6.085  1.00 20.00    -0.390 OA
HETATM   11  H26 UNL     1     -35.871  13.550  -7.046  1.00 20.00     0.210 HD
ENDBRANCH   7  10
ENDBRANCH   5   7
TORSDOF 2
ENDMDL
MODEL 6
REMARK VINA RESULT:      -4.5     14.875     17.142
REMARK  2 active torsions:
REMARK  status: ('A' for Active; 'I' for Inactive)
REMARK    1  A    between atoms: C5_5  and  C9_9 
REMARK    2  A    between atoms: C9_9  and  O10_10 
ROOT
HETATM    1  C1  UNL     1     -34.242  17.673  -0.807  1.00 20.00    -0.024 C 
HETATM    2  C2  UNL     1     -33.118  17.658  -1.533  1.00 20.00    -0.087 C 
HETATM    3  C3  UNL     1     -35.276  16.754  -1.369  1.00 20.00     0.035 C 
HETATM    4  C4  UNL     1     -33.224  16.721  -2.695  1.00 20.00     0.041 C 
HETATM    5  C5  UNL     1     -34.458  15.883  -2.331  1.00 20.00     0.026 C 
HETATM    6  C6  UNL     1     -31.894  18.469  -1.303  1.00 20.00     0.043 C 
ENDROOT
BRANCH   5   7
HETATM    7  C9  UNL     1     -35.251  15.428  -3.545  1.00 20.00     0.055 C 
HETATM    8  C7  UNL     1     -34.790  14.046  -4.012  1.00 20.00     0.045 C 
HETATM    9  C8  UNL     1     -35.137  16.439  -4.690  1.00 20.00     0.045 C 
BRANCH   7  10
HETATM   10  O10 UNL     1     -36.630  15.316  -3.182  1.00 20.00    -0.390 OA
HETATM   11  H26 UNL     1     -37.018  14.667  -3.787  1.00 20.00     0.210 HD
ENDBRANCH   7  10
ENDBRANCH   5   7
TORSDOF 2
ENDMDL
MODEL 7
REMARK VINA RESULT:      -4.5     15.302     17.606
REMARK  2 active torsions:
REMARK  status: ('A' for Active; 'I' for Inactive)
REMARK    1  A    between atoms: C5_5  and  C9_9 
REMARK    2  A    between atoms: C9_9  and  O10_10 
ROOT
HETATM    1  C1  UNL     1     -34.407  17.082  -1.352  1.00 20.00    -0.024 C 
HETATM    2  C2  UNL     1     -33.237  17.299  -1.962  1.00 20.00    -0.087 C 
HETATM    3  C3  UNL     1     -35.258  16.118  -2.111  1.00 20.00     0.035 C 
HETATM    4  C4  UNL     1     -33.119  16.508  -3.227  1.00 20.00     0.041 C 
HETATM    5  C5  UNL     1     -34.254  15.483  -3.081  1.00 20.00     0.026 C 
HETATM    6  C6  UNL     1     -32.157  18.222  -1.525  1.00 20.00     0.043 C 
ENDROOT
BRANCH   5   7
HETATM    7  C9  UNL     1     -34.876  15.087  -4.410  1.00 20.00     0.055 C 
HETATM    8  C7  UNL     1     -35.727  13.825  -4.260  1.00 20.00     0.045 C 
HETATM    9  C8  UNL     1     -33.803  14.878  -5.483  1.00 20.00     0.045 C 
BRANCH   7  10
HETATM   10  O10 UNL     1     -35.745  16.138  -4.845  1.00 20.00    -0.390 OA
HETATM   11  H26 UNL     1     -35.406  16.433  -5.702  1.00 20.00     0.210 HD
ENDBRANCH   7  10
ENDBRANCH   5   7
TORSDOF 2
ENDMDL
MODEL 8
REMARK VINA RESULT:      -4.4     15.395     17.204
REMARK  2 active torsions:
REMARK  status: ('A' for Active; 'I' for Inactive)
REMARK    1  A    between atoms: C5_5  and  C9_9 
REMARK    2  A    between atoms: C9_9  and  O10_10 
ROOT
HETATM    1  C1  UNL     1     -33.818  14.691  -4.315  1.00 20.00    -0.024 C 
HETATM    2  C2  UNL     1     -35.100  14.609  -3.939  1.00 20.00    -0.087 C 
HETATM    3  C3  UNL     1     -33.088  15.755  -3.565  1.00 20.00     0.035 C 
HETATM    4  C4  UNL     1     -35.426  15.606  -2.871  1.00 20.00     0.041 C 
HETATM    5  C5  UNL     1     -34.034  16.043  -2.392  1.00 20.00     0.026 C 
HETATM    6  C6  UNL     1     -36.138  13.701  -4.490  1.00 20.00     0.043 C 
ENDROOT
BRANCH   5   7
HETATM    7  C9  UNL     1     -33.988  17.491  -1.930  1.00 20.00     0.055 C 
HETATM    8  C7  UNL     1     -32.544  17.987  -1.833  1.00 20.00     0.045 C 
HETATM    9  C8  UNL     1     -34.700  17.664  -0.586  1.00 20.00     0.045 C 
BRANCH   7  10
HETATM   10  O10 UNL     1     -34.654  18.307  -2.899  1.00 20.00    -0.390 OA
HETATM   11  H26 UNL     1     -35.600  18.126  -2.801  1.00 20.00     0.210 HD
ENDBRANCH   7  10
ENDBRANCH   5   7
TORSDOF 2
ENDMDL
MODEL 9
REMARK VINA RESULT:      -4.2     15.731     17.997
REMARK  2 active torsions:
REMARK  status: ('A' for Active; 'I' for Inactive)
REMARK    1  A    between atoms: C5_5  and  C9_9 
REMARK    2  A    between atoms: C9_9  and  O10_10 
ROOT
HETATM    1  C1  UNL     1     -33.178  16.718  -2.528  1.00 20.00    -0.024 C 
HETATM    2  C2  UNL     1     -34.234  16.959  -1.743  1.00 20.00    -0.087 C 
HETATM    3  C3  UNL     1     -33.544  15.879  -3.708  1.00 20.00     0.035 C 
HETATM    4  C4  UNL     1     -35.477  16.320  -2.279  1.00 20.00     0.041 C 
HETATM    5  C5  UNL     1     -35.075  15.976  -3.721  1.00 20.00     0.026 C 
HETATM    6  C6  UNL     1     -34.245  17.719  -0.467  1.00 20.00     0.043 C 
ENDROOT
BRANCH   5   7
HETATM    7  C9  UNL     1     -35.748  14.718  -4.245  1.00 20.00     0.055 C 
HETATM    8  C7  UNL     1     -34.901  13.480  -3.946  1.00 20.00     0.045 C 
HETATM    9  C8  UNL     1     -36.023  14.823  -5.747  1.00 20.00     0.045 C 
BRANCH   7  10
HETATM   10  O10 UNL     1     -37.000  14.549  -3.571  1.00 20.00    -0.390 OA
HETATM   11  H26 UNL     1     -36.908  14.993  -2.715  1.00 20.00     0.210 HD
ENDBRANCH   7  10
ENDBRANCH   5   7
TORSDOF 2
ENDMDL
