MODEL 1
REMARK VINA RESULT:      -5.2      0.000      0.000
REMARK  0 active torsions:
REMARK  status: ('A' for Active; 'I' for Inactive)
ROOT
HETATM    1  C1  UNL     1     -32.936   6.761   2.954  1.00 20.00    -0.089 C 
HETATM    2  C2  UNL     1     -32.430   7.360   1.862  1.00 20.00     0.014 C 
HETATM    3  C3  UNL     1     -32.882   5.260   3.086  1.00 20.00     0.033 C 
HETATM    4  C4  UNL     1     -33.521   7.602   4.068  1.00 20.00     0.033 C 
HETATM    5  C5  UNL     1     -34.233   4.549   3.062  1.00 20.00     0.004 C 
HETATM    6  C6  UNL     1     -33.233   7.123   5.496  1.00 20.00     0.004 C 
HETATM    7  C7  UNL     1     -35.223   4.894   4.176  1.00 20.00     0.000 C 
HETATM    8  C8  UNL     1     -34.366   6.317   6.141  1.00 20.00     0.000 C 
HETATM    9  C9  UNL     1     -34.626   4.917   5.583  1.00 20.00     0.000 C 
ENDROOT
TORSDOF 0
ENDMDL
MODEL 2
REMARK VINA RESULT:      -4.3      0.943      2.655
REMARK  0 active torsions:
REMARK  status: ('A' for Active; 'I' for Inactive)
ROOT
HETATM    1  C1  UNL     1     -33.517   4.990   2.791  1.00 20.00    -0.089 C 
HETATM    2  C2  UNL     1     -33.073   4.311   1.720  1.00 20.00     0.014 C 
HETATM    3  C3  UNL     1     -33.623   6.493   2.743  1.00 20.00     0.033 C 
HETATM    4  C4  UNL     1     -33.951   4.236   4.030  1.00 20.00     0.033 C 
HETATM    5  C5  UNL     1     -32.672   7.249   3.670  1.00 20.00     0.004 C 
HETATM    6  C6  UNL     1     -35.184   4.788   4.757  1.00 20.00     0.004 C 
HETATM    7  C7  UNL     1     -32.821   7.004   5.172  1.00 20.00     0.000 C 
HETATM    8  C8  UNL     1     -34.871   5.669   5.970  1.00 20.00     0.000 C 
HETATM    9  C9  UNL     1     -34.259   7.043   5.691  1.00 20.00     0.000 C 
ENDROOT
TORSDOF 0
ENDMDL
MODEL 3
REMARK VINA RESULT:      -4.3     15.961     16.881
REMARK  0 active torsions:
REMARK  status: ('A' for Active; 'I' for Inactive)
ROOT
HETATM    1  C1  UNL     1     -25.367  18.446  11.042  1.00 20.00    -0.089 C 
HETATM    2  C2  UNL     1     -26.308  18.904  11.885  1.00 20.00     0.014 C 
HETATM    3  C3  UNL     1     -24.705  17.116  11.298  1.00 20.00     0.033 C 
HETATM    4  C4  UNL     1     -25.007  19.250   9.811  1.00 20.00     0.033 C 
HETATM    5  C5  UNL     1     -23.217  17.178  11.640  1.00 20.00     0.004 C 
HETATM    6  C6  UNL     1     -24.736  18.444   8.534  1.00 20.00     0.004 C 
HETATM    7  C7  UNL     1     -22.281  17.758  10.578  1.00 20.00     0.000 C 
HETATM    8  C8  UNL     1     -23.253  18.197   8.236  1.00 20.00     0.000 C 
HETATM    9  C9  UNL     1     -22.511  17.231   9.161  1.00 20.00     0.000 C 
ENDROOT
TORSDOF 0
ENDMDL
MODEL 4
REMARK VINA RESULT:      -4.2      0.751      3.185
REMARK  0 active torsions:
REMARK  status: ('A' for Active; 'I' for Inactive)
ROOT
HETATM    1  C1  UNL     1     -34.549   5.751   5.345  1.00 20.00    -0.089 C 
HETATM    2  C2  UNL     1     -35.086   5.509   6.554  1.00 20.00     0.014 C 
HETATM    3  C3  UNL     1     -35.137   5.108   4.114  1.00 20.00     0.033 C 
HETATM    4  C4  UNL     1     -33.382   6.707   5.221  1.00 20.00     0.033 C 
HETATM    5  C5  UNL     1     -34.238   4.092   3.412  1.00 20.00     0.004 C 
HETATM    6  C6  UNL     1     -33.393   7.627   3.994  1.00 20.00     0.004 C 
HETATM    7  C7  UNL     1     -32.909   4.604   2.855  1.00 20.00     0.000 C 
HETATM    8  C8  UNL     1     -32.523   7.148   2.827  1.00 20.00     0.000 C 
HETATM    9  C9  UNL     1     -33.002   5.911   2.066  1.00 20.00     0.000 C 
ENDROOT
TORSDOF 0
ENDMDL
MODEL 5
REMARK VINA RESULT:      -4.1      0.530      2.494
REMARK  0 active torsions:
REMARK  status: ('A' for Active; 'I' for Inactive)
ROOT
HETATM    1  C1  UNL     1     -32.896   6.812   2.976  1.00 20.00    -0.089 C 
HETATM    2  C2  UNL     1     -32.074   7.513   2.175  1.00 20.00     0.014 C 
HETATM    3  C3  UNL     1     -33.847   7.531   3.898  1.00 20.00     0.033 C 
HETATM    4  C4  UNL     1     -32.891   5.299   2.915  1.00 20.00     0.033 C 
HETATM    5  C5  UNL     1     -33.569   7.363   5.390  1.00 20.00     0.004 C 
HETATM    6  C6  UNL     1     -34.259   4.616   3.038  1.00 20.00     0.004 C 
HETATM    7  C7  UNL     1     -33.644   5.944   5.958  1.00 20.00     0.000 C 
HETATM    8  C8  UNL     1     -34.591   4.095   4.440  1.00 20.00     0.000 C 
HETATM    9  C9  UNL     1     -34.869   5.140   5.521  1.00 20.00     0.000 C 
ENDROOT
TORSDOF 0
ENDMDL
MODEL 6
REMARK VINA RESULT:      -3.9     11.900     12.944
REMARK  0 active torsions:
REMARK  status: ('A' for Active; 'I' for Inactive)
ROOT
HETATM    1  C1  UNL     1     -33.590  16.268  -3.033  1.00 20.00    -0.089 C 
HETATM    2  C2  UNL     1     -33.052  15.333  -3.835  1.00 20.00     0.014 C 
HETATM    3  C3  UNL     1     -32.987  17.648  -2.971  1.00 20.00     0.033 C 
HETATM    4  C4  UNL     1     -34.829  15.941  -2.227  1.00 20.00     0.033 C 
HETATM    5  C5  UNL     1     -32.351  18.028  -1.635  1.00 20.00     0.004 C 
HETATM    6  C6  UNL     1     -35.871  17.060  -2.109  1.00 20.00     0.004 C 
HETATM    7  C7  UNL     1     -33.268  18.065  -0.411  1.00 20.00     0.000 C 
HETATM    8  C8  UNL     1     -35.803  17.866  -0.807  1.00 20.00     0.000 C 
HETATM    9  C9  UNL     1     -34.598  18.789  -0.625  1.00 20.00     0.000 C 
ENDROOT
TORSDOF 0
ENDMDL
MODEL 7
REMARK VINA RESULT:      -3.9     11.427     12.730
REMARK  0 active torsions:
REMARK  status: ('A' for Active; 'I' for Inactive)
ROOT
HETATM    1  C1  UNL     1     -36.206  16.965  -2.745  1.00 20.00    -0.089 C 
HETATM    2  C2  UNL     1     -36.667  18.154  -2.319  1.00 20.00     0.014 C 
HETATM    3  C3  UNL     1     -35.151  16.235  -1.953  1.00 20.00     0.033 C 
HETATM    4  C4  UNL     1     -36.782  16.343  -3.999  1.00 20.00     0.033 C 
HETATM    5  C5  UNL     1     -33.793  16.096  -2.639  1.00 20.00     0.004 C 
HETATM    6  C6  UNL     1     -36.982  14.823  -3.967  1.00 20.00     0.004 C 
HETATM    7  C7  UNL     1     -33.752  15.312  -3.952  1.00 20.00     0.000 C 
HETATM    8  C8  UNL     1     -35.866  14.016  -4.639  1.00 20.00     0.000 C 
HETATM    9  C9  UNL     1     -34.510  13.984  -3.932  1.00 20.00     0.000 C 
ENDROOT
TORSDOF 0
ENDMDL
MODEL 8
REMARK VINA RESULT:      -3.9     15.799     17.244
REMARK  0 active torsions:
REMARK  status: ('A' for Active; 'I' for Inactive)
ROOT
HETATM    1  C1  UNL     1     -24.187  18.368   9.187  1.00 20.00    -0.089 C 
HETATM    2  C2  UNL     1     -24.971  18.789   8.179  1.00 20.00     0.014 C 
HETATM    3  C3  UNL     1     -24.711  17.368  10.186  1.00 20.00     0.033 C 
HETATM    4  C4  UNL     1     -22.763  18.870   9.288  1.00 20.00     0.033 C 
HETATM    5  C5  UNL     1     -24.881  17.890  11.611  1.00 20.00     0.004 C 
HETATM    6  C6  UNL     1     -21.716  17.841   9.732  1.00 20.00     0.004 C 
HETATM    7  C7  UNL     1     -23.621  18.374  12.332  1.00 20.00     0.000 C 
HETATM    8  C8  UNL     1     -21.349  17.901  11.219  1.00 20.00     0.000 C 
HETATM    9  C9  UNL     1     -22.415  17.441  12.215  1.00 20.00     0.000 C 
ENDROOT
TORSDOF 0
ENDMDL
MODEL 9
REMARK VINA RESULT:      -3.8     11.713     13.115
REMARK  0 active torsions:
REMARK  status: ('A' for Active; 'I' for Inactive)
ROOT
HETATM    1  C1  UNL     1     -34.902  17.393  -0.434  1.00 20.00    -0.089 C 
HETATM    2  C2  UNL     1     -35.530  17.156   0.731  1.00 20.00     0.014 C 
HETATM    3  C3  UNL     1     -35.514  16.927  -1.731  1.00 20.00     0.033 C 
HETATM    4  C4  UNL     1     -33.601  18.167  -0.441  1.00 20.00     0.033 C 
HETATM    5  C5  UNL     1     -34.740  15.835  -2.467  1.00 20.00     0.004 C 
HETATM    6  C6  UNL     1     -33.412  19.156  -1.598  1.00 20.00     0.004 C 
HETATM    7  C7  UNL     1     -33.323  16.175  -2.931  1.00 20.00     0.000 C 
HETATM    8  C8  UNL     1     -32.564  18.628  -2.759  1.00 20.00     0.000 C 
HETATM    9  C9  UNL     1     -33.181  17.530  -3.626  1.00 20.00     0.000 C 
ENDROOT
TORSDOF 0
ENDMDL
