MODEL 1
REMARK VINA RESULT:      -4.5      0.000      0.000
REMARK  3 active torsions:
REMARK  status: ('A' for Active; 'I' for Inactive)
REMARK    1  A    between atoms: C4_4  and  C10_10 
REMARK    2  A    between atoms: C5_5  and  C11_11 
REMARK    3  A    between atoms: C6_6  and  C12_12 
ROOT
HETATM    1  C7  UNL     1     -35.154  16.586  -1.638  1.00 20.00     0.009 C 
HETATM    2  C8  UNL     1     -34.051  17.456  -1.045  1.00 20.00     0.010 C 
HETATM    3  C9  UNL     1     -33.276  16.002  -3.282  1.00 20.00     0.017 C 
HETATM    4  C10 UNL     1     -34.585  15.538  -2.607  1.00 20.00     0.008 C 
HETATM    5  C11 UNL     1     -33.341  18.286  -2.131  1.00 20.00     0.015 C 
HETATM    6  C12 UNL     1     -33.167  17.524  -3.473  1.00 20.00     0.015 C 
ENDROOT
BRANCH   4   7
HETATM    7  C4  UNL     1     -35.627  15.119  -3.603  1.00 20.00    -0.032 C 
HETATM    8  C1  UNL     1     -35.619  13.948  -4.247  1.00 20.00     0.007 C 
ENDBRANCH   4   7
BRANCH   6   9
HETATM    9  C6  UNL     1     -34.137  18.003  -4.517  1.00 20.00    -0.031 C 
HETATM   10  C3  UNL     1     -34.893  19.100  -4.390  1.00 20.00     0.007 C 
ENDBRANCH   6   9
BRANCH   5  11
HETATM   11  C5  UNL     1     -32.014  18.765  -1.612  1.00 20.00    -0.031 C 
HETATM   12  C2  UNL     1     -31.420  18.282  -0.517  1.00 20.00     0.007 C 
ENDBRANCH   5  11
TORSDOF 3
ENDMDL
MODEL 2
REMARK VINA RESULT:      -4.4      1.082      1.197
REMARK  3 active torsions:
REMARK  status: ('A' for Active; 'I' for Inactive)
REMARK    1  A    between atoms: C4_4  and  C10_10 
REMARK    2  A    between atoms: C5_5  and  C11_11 
REMARK    3  A    between atoms: C6_6  and  C12_12 
ROOT
HETATM    1  C7  UNL     1     -35.479  15.880  -2.676  1.00 20.00     0.009 C 
HETATM    2  C8  UNL     1     -34.867  16.566  -1.459  1.00 20.00     0.010 C 
HETATM    3  C9  UNL     1     -33.028  15.889  -3.427  1.00 20.00     0.017 C 
HETATM    4  C10 UNL     1     -34.403  15.197  -3.536  1.00 20.00     0.008 C 
HETATM    5  C11 UNL     1     -33.923  17.711  -1.869  1.00 20.00     0.015 C 
HETATM    6  C12 UNL     1     -33.099  17.400  -3.148  1.00 20.00     0.015 C 
ENDROOT
BRANCH   4   7
HETATM    7  C4  UNL     1     -34.869  15.066  -4.957  1.00 20.00    -0.032 C 
HETATM    8  C1  UNL     1     -34.048  14.942  -6.005  1.00 20.00     0.007 C 
ENDBRANCH   4   7
BRANCH   6   9
HETATM    9  C6  UNL     1     -33.626  18.141  -4.347  1.00 20.00    -0.031 C 
HETATM   10  C3  UNL     1     -34.536  19.119  -4.281  1.00 20.00     0.007 C 
ENDBRANCH   6   9
BRANCH   5  11
HETATM   11  C5  UNL     1     -33.018  18.055  -0.720  1.00 20.00    -0.031 C 
HETATM   12  C2  UNL     1     -31.723  18.358  -0.853  1.00 20.00     0.007 C 
ENDBRANCH   5  11
TORSDOF 3
ENDMDL
MODEL 3
REMARK VINA RESULT:      -4.3      1.971      3.678
REMARK  3 active torsions:
REMARK  status: ('A' for Active; 'I' for Inactive)
REMARK    1  A    between atoms: C4_4  and  C10_10 
REMARK    2  A    between atoms: C5_5  and  C11_11 
REMARK    3  A    between atoms: C6_6  and  C12_12 
ROOT
HETATM    1  C7  UNL     1     -33.576  14.920  -4.814  1.00 20.00     0.009 C 
HETATM    2  C8  UNL     1     -33.516  15.516  -3.413  1.00 20.00     0.010 C 
HETATM    3  C9  UNL     1     -35.557  16.537  -4.995  1.00 20.00     0.017 C 
HETATM    4  C10 UNL     1     -34.450  15.771  -5.751  1.00 20.00     0.008 C 
HETATM    5  C11 UNL     1     -34.901  15.523  -2.740  1.00 20.00     0.015 C 
HETATM    6  C12 UNL     1     -36.061  15.833  -3.725  1.00 20.00     0.015 C 
ENDROOT
BRANCH   4   7
HETATM    7  C4  UNL     1     -34.994  14.933  -6.871  1.00 20.00    -0.032 C 
HETATM    8  C1  UNL     1     -35.935  15.347  -7.726  1.00 20.00     0.007 C 
ENDBRANCH   4   7
BRANCH   6   9
HETATM    9  C6  UNL     1     -36.844  14.597  -4.072  1.00 20.00    -0.031 C 
HETATM   10  C3  UNL     1     -38.158  14.590  -4.323  1.00 20.00     0.007 C 
ENDBRANCH   6   9
BRANCH   5  11
HETATM   11  C5  UNL     1     -34.900  16.493  -1.592  1.00 20.00    -0.031 C 
HETATM   12  C2  UNL     1     -34.034  17.503  -1.467  1.00 20.00     0.007 C 
ENDBRANCH   5  11
TORSDOF 3
ENDMDL
MODEL 4
REMARK VINA RESULT:      -4.3      1.370      4.534
REMARK  3 active torsions:
REMARK  status: ('A' for Active; 'I' for Inactive)
REMARK    1  A    between atoms: C4_4  and  C10_10 
REMARK    2  A    between atoms: C5_5  and  C11_11 
REMARK    3  A    between atoms: C6_6  and  C12_12 
ROOT
HETATM    1  C7  UNL     1     -33.350  15.390  -3.692  1.00 20.00     0.009 C 
HETATM    2  C8  UNL     1     -34.457  14.409  -4.063  1.00 20.00     0.010 C 
HETATM    3  C9  UNL     1     -35.255  16.418  -2.319  1.00 20.00     0.017 C 
HETATM    4  C10 UNL     1     -33.730  16.226  -2.459  1.00 20.00     0.008 C 
HETATM    5  C11 UNL     1     -35.745  15.142  -4.481  1.00 20.00     0.015 C 
HETATM    6  C12 UNL     1     -36.018  16.427  -3.653  1.00 20.00     0.015 C 
ENDROOT
BRANCH   4   7
HETATM    7  C4  UNL     1     -32.985  17.530  -2.456  1.00 20.00    -0.032 C 
HETATM    8  C1  UNL     1     -32.342  18.022  -1.392  1.00 20.00     0.007 C 
ENDBRANCH   4   7
BRANCH   6   9
HETATM    9  C6  UNL     1     -35.710  17.673  -4.437  1.00 20.00    -0.031 C 
HETATM   10  C3  UNL     1     -35.488  17.692  -5.756  1.00 20.00     0.007 C 
ENDBRANCH   6   9
BRANCH   5  11
HETATM   11  C5  UNL     1     -36.911  14.197  -4.402  1.00 20.00    -0.031 C 
HETATM   12  C2  UNL     1     -38.182  14.587  -4.267  1.00 20.00     0.007 C 
ENDBRANCH   5  11
TORSDOF 3
ENDMDL
MODEL 5
REMARK VINA RESULT:      -4.3      1.429      4.237
REMARK  3 active torsions:
REMARK  status: ('A' for Active; 'I' for Inactive)
REMARK    1  A    between atoms: C4_4  and  C10_10 
REMARK    2  A    between atoms: C5_5  and  C11_11 
REMARK    3  A    between atoms: C6_6  and  C12_12 
ROOT
HETATM    1  C7  UNL     1     -32.935  17.149  -2.831  1.00 20.00     0.009 C 
HETATM    2  C8  UNL     1     -33.135  15.768  -3.445  1.00 20.00     0.010 C 
HETATM    3  C9  UNL     1     -35.028  16.446  -1.528  1.00 20.00     0.017 C 
HETATM    4  C10 UNL     1     -33.751  17.314  -1.539  1.00 20.00     0.008 C 
HETATM    5  C11 UNL     1     -34.595  15.551  -3.886  1.00 20.00     0.015 C 
HETATM    6  C12 UNL     1     -35.630  16.188  -2.919  1.00 20.00     0.015 C 
ENDROOT
BRANCH   4   7
HETATM    7  C4  UNL     1     -34.041  18.764  -1.279  1.00 20.00    -0.032 C 
HETATM    8  C1  UNL     1     -34.951  19.200  -0.401  1.00 20.00     0.007 C 
ENDBRANCH   4   7
BRANCH   6   9
HETATM    9  C6  UNL     1     -36.224  17.448  -3.487  1.00 20.00    -0.031 C 
HETATM   10  C3  UNL     1     -36.084  17.833  -4.761  1.00 20.00     0.007 C 
ENDBRANCH   6   9
BRANCH   5  11
HETATM   11  C5  UNL     1     -34.856  14.081  -4.056  1.00 20.00    -0.031 C 
HETATM   12  C2  UNL     1     -36.031  13.570  -4.436  1.00 20.00     0.007 C 
ENDBRANCH   5  11
TORSDOF 3
ENDMDL
MODEL 6
REMARK VINA RESULT:      -4.2      0.894      4.409
REMARK  3 active torsions:
REMARK  status: ('A' for Active; 'I' for Inactive)
REMARK    1  A    between atoms: C4_4  and  C10_10 
REMARK    2  A    between atoms: C5_5  and  C11_11 
REMARK    3  A    between atoms: C6_6  and  C12_12 
ROOT
HETATM    1  C7  UNL     1     -34.405  18.190  -4.023  1.00 20.00     0.009 C 
HETATM    2  C8  UNL     1     -35.313  17.082  -4.544  1.00 20.00     0.010 C 
HETATM    3  C9  UNL     1     -33.398  16.223  -2.725  1.00 20.00     0.017 C 
HETATM    4  C10 UNL     1     -33.152  17.617  -3.340  1.00 20.00     0.008 C 
HETATM    5  C11 UNL     1     -35.867  16.218  -3.395  1.00 20.00     0.015 C 
HETATM    6  C12 UNL     1     -34.841  15.984  -2.253  1.00 20.00     0.015 C 
ENDROOT
BRANCH   4   7
HETATM    7  C4  UNL     1     -32.601  18.595  -2.344  1.00 20.00    -0.032 C 
HETATM    8  C1  UNL     1     -31.879  18.247  -1.274  1.00 20.00     0.007 C 
ENDBRANCH   4   7
BRANCH   6   9
HETATM    9  C6  UNL     1     -35.153  16.818  -1.041  1.00 20.00    -0.031 C 
HETATM   10  C3  UNL     1     -36.233  17.600  -0.929  1.00 20.00     0.007 C 
ENDBRANCH   6   9
BRANCH   5  11
HETATM   11  C5  UNL     1     -36.365  14.910  -3.943  1.00 20.00    -0.031 C 
HETATM   12  C2  UNL     1     -35.587  13.847  -4.167  1.00 20.00     0.007 C 
ENDBRANCH   5  11
TORSDOF 3
ENDMDL
MODEL 7
REMARK VINA RESULT:      -4.2      1.283      2.222
REMARK  3 active torsions:
REMARK  status: ('A' for Active; 'I' for Inactive)
REMARK    1  A    between atoms: C4_4  and  C10_10 
REMARK    2  A    between atoms: C5_5  and  C11_11 
REMARK    3  A    between atoms: C6_6  and  C12_12 
ROOT
HETATM    1  C7  UNL     1     -35.580  18.047  -3.501  1.00 20.00     0.009 C 
HETATM    2  C8  UNL     1     -34.501  18.604  -2.579  1.00 20.00     0.010 C 
HETATM    3  C9  UNL     1     -34.984  15.888  -2.254  1.00 20.00     0.017 C 
HETATM    4  C10 UNL     1     -36.069  16.669  -3.026  1.00 20.00     0.008 C 
HETATM    5  C11 UNL     1     -33.236  17.725  -2.593  1.00 20.00     0.015 C 
HETATM    6  C12 UNL     1     -33.544  16.206  -2.688  1.00 20.00     0.015 C 
ENDROOT
BRANCH   4   7
HETATM    7  C4  UNL     1     -36.631  15.884  -4.176  1.00 20.00    -0.032 C 
HETATM    8  C1  UNL     1     -36.884  14.572  -4.134  1.00 20.00     0.007 C 
ENDBRANCH   4   7
BRANCH   6   9
HETATM    9  C6  UNL     1     -33.268  15.665  -4.064  1.00 20.00    -0.031 C 
HETATM   10  C3  UNL     1     -33.146  14.363  -4.345  1.00 20.00     0.007 C 
ENDBRANCH   6   9
BRANCH   5  11
HETATM   11  C5  UNL     1     -32.400  18.026  -1.381  1.00 20.00    -0.031 C 
HETATM   12  C2  UNL     1     -32.903  18.346  -0.185  1.00 20.00     0.007 C 
ENDBRANCH   5  11
TORSDOF 3
ENDMDL
MODEL 8
REMARK VINA RESULT:      -4.2      1.782      4.454
REMARK  3 active torsions:
REMARK  status: ('A' for Active; 'I' for Inactive)
REMARK    1  A    between atoms: C4_4  and  C10_10 
REMARK    2  A    between atoms: C5_5  and  C11_11 
REMARK    3  A    between atoms: C6_6  and  C12_12 
ROOT
HETATM    1  C7  UNL     1     -33.278  15.586  -3.505  1.00 20.00     0.009 C 
HETATM    2  C8  UNL     1     -33.632  14.869  -4.803  1.00 20.00     0.010 C 
HETATM    3  C9  UNL     1     -35.830  15.790  -3.376  1.00 20.00     0.017 C 
HETATM    4  C10 UNL     1     -34.504  15.728  -2.588  1.00 20.00     0.008 C 
HETATM    5  C11 UNL     1     -34.641  15.678  -5.639  1.00 20.00     0.015 C 
HETATM    6  C12 UNL     1     -35.706  16.410  -4.778  1.00 20.00     0.015 C 
ENDROOT
BRANCH   4   7
HETATM    7  C4  UNL     1     -34.335  16.893  -1.658  1.00 20.00    -0.032 C 
HETATM    8  C1  UNL     1     -33.238  17.656  -1.605  1.00 20.00     0.007 C 
ENDBRANCH   4   7
BRANCH   6   9
HETATM    9  C6  UNL     1     -35.433  17.886  -4.688  1.00 20.00    -0.031 C 
HETATM   10  C3  UNL     1     -34.525  18.526  -5.432  1.00 20.00     0.007 C 
ENDBRANCH   6   9
BRANCH   5  11
HETATM   11  C5  UNL     1     -35.296  14.777  -6.648  1.00 20.00    -0.031 C 
HETATM   12  C2  UNL     1     -35.863  15.208  -7.779  1.00 20.00     0.007 C 
ENDBRANCH   5  11
TORSDOF 3
ENDMDL
MODEL 9
REMARK VINA RESULT:      -4.1      1.968      4.467
REMARK  3 active torsions:
REMARK  status: ('A' for Active; 'I' for Inactive)
REMARK    1  A    between atoms: C4_4  and  C10_10 
REMARK    2  A    between atoms: C5_5  and  C11_11 
REMARK    3  A    between atoms: C6_6  and  C12_12 
ROOT
HETATM    1  C7  UNL     1     -35.800  17.361  -3.631  1.00 20.00     0.009 C 
HETATM    2  C8  UNL     1     -35.465  17.414  -5.117  1.00 20.00     0.010 C 
HETATM    3  C9  UNL     1     -33.566  16.106  -3.568  1.00 20.00     0.017 C 
HETATM    4  C10 UNL     1     -34.570  16.983  -2.790  1.00 20.00     0.008 C 
HETATM    5  C11 UNL     1     -35.048  16.032  -5.653  1.00 20.00     0.015 C 
HETATM    6  C12 UNL     1     -34.206  15.209  -4.640  1.00 20.00     0.015 C 
ENDROOT
BRANCH   4   7
HETATM    7  C4  UNL     1     -34.991  16.357  -1.492  1.00 20.00    -0.032 C 
HETATM    8  C1  UNL     1     -35.342  17.052  -0.404  1.00 20.00     0.007 C 
ENDBRANCH   4   7
BRANCH   6   9
HETATM    9  C6  UNL     1     -35.013  14.110  -4.006  1.00 20.00    -0.031 C 
HETATM   10  C3  UNL     1     -36.170  13.651  -4.497  1.00 20.00     0.007 C 
ENDBRANCH   6   9
BRANCH   5  11
HETATM   11  C5  UNL     1     -34.311  16.196  -6.952  1.00 20.00    -0.031 C 
HETATM   12  C2  UNL     1     -33.823  15.179  -7.669  1.00 20.00     0.007 C 
ENDBRANCH   5  11
TORSDOF 3
ENDMDL
