MODEL 1
REMARK VINA RESULT:      -4.5      0.000      0.000
REMARK  1 active torsions:
REMARK  status: ('A' for Active; 'I' for Inactive)
REMARK    1  A    between atoms: C1_1  and  C3_3 
ROOT
HETATM    1  C2  UNL     1     -34.775   4.698   4.856  1.00 20.00     0.018 A 
HETATM    2  C3  UNL     1     -34.621   5.596   3.653  1.00 20.00     0.076 A 
HETATM    3  C4  UNL     1     -34.680   6.187   5.042  1.00 20.00    -0.005 A 
HETATM    4  C5  UNL     1     -33.484   6.780   5.704  1.00 20.00     0.011 C 
ENDROOT
BRANCH   2   5
HETATM    5  C1  UNL     1     -33.366   5.575   2.895  1.00 20.00     0.223 C 
HETATM    6  O6  UNL     1     -32.817   4.522   2.584  1.00 20.00    -0.279 OA
HETATM    7 CL7  UNL     1     -32.801   7.176   2.521  1.00 20.00    -0.043 Cl
ENDBRANCH   2   5
TORSDOF 1
ENDMDL
MODEL 2
REMARK VINA RESULT:      -4.4      1.436      1.436
REMARK  1 active torsions:
REMARK  status: ('A' for Active; 'I' for Inactive)
REMARK    1  A    between atoms: C1_1  and  C3_3 
ROOT
HETATM    1  C2  UNL     1     -34.759   4.662   4.930  1.00 20.00     0.018 A 
HETATM    2  C3  UNL     1     -34.724   5.720   3.855  1.00 20.00     0.076 A 
HETATM    3  C4  UNL     1     -34.756   6.115   5.312  1.00 20.00    -0.005 A 
HETATM    4  C5  UNL     1     -33.573   6.702   6.002  1.00 20.00     0.011 C 
ENDROOT
BRANCH   2   5
HETATM    5  C1  UNL     1     -33.507   5.892   3.053  1.00 20.00     0.223 C 
HETATM    6  O6  UNL     1     -32.984   6.992   2.903  1.00 20.00    -0.279 OA
HETATM    7 CL7  UNL     1     -32.946   4.389   2.385  1.00 20.00    -0.043 Cl
ENDBRANCH   2   5
TORSDOF 1
ENDMDL
MODEL 3
REMARK VINA RESULT:      -4.3      1.346      1.412
REMARK  1 active torsions:
REMARK  status: ('A' for Active; 'I' for Inactive)
REMARK    1  A    between atoms: C1_1  and  C3_3 
ROOT
HETATM    1  C2  UNL     1     -34.962   5.349   6.083  1.00 20.00     0.018 A 
HETATM    2  C3  UNL     1     -35.095   5.417   4.582  1.00 20.00     0.076 A 
HETATM    3  C4  UNL     1     -34.563   6.602   5.354  1.00 20.00    -0.005 A 
HETATM    4  C5  UNL     1     -33.131   7.008   5.297  1.00 20.00     0.011 C 
ENDROOT
BRANCH   2   5
HETATM    5  C1  UNL     1     -34.208   4.604   3.742  1.00 20.00     0.223 C 
HETATM    6  O6  UNL     1     -33.995   3.421   3.987  1.00 20.00    -0.279 OA
HETATM    7 CL7  UNL     1     -33.541   5.515   2.421  1.00 20.00    -0.043 Cl
ENDBRANCH   2   5
TORSDOF 1
ENDMDL
MODEL 4
REMARK VINA RESULT:      -4.1      2.133      3.104
REMARK  1 active torsions:
REMARK  status: ('A' for Active; 'I' for Inactive)
REMARK    1  A    between atoms: C1_1  and  C3_3 
ROOT
HETATM    1  C2  UNL     1     -32.719   6.842   3.365  1.00 20.00     0.018 A 
HETATM    2  C3  UNL     1     -34.179   6.499   3.528  1.00 20.00     0.076 A 
HETATM    3  C4  UNL     1     -33.359   5.842   2.443  1.00 20.00    -0.005 A 
HETATM    4  C5  UNL     1     -32.961   4.408   2.506  1.00 20.00     0.011 C 
ENDROOT
BRANCH   2   5
HETATM    5  C1  UNL     1     -34.613   5.742   4.708  1.00 20.00     0.223 C 
HETATM    6  O6  UNL     1     -35.278   4.715   4.606  1.00 20.00    -0.279 OA
HETATM    7 CL7  UNL     1     -34.073   6.473   6.189  1.00 20.00    -0.043 Cl
ENDBRANCH   2   5
TORSDOF 1
ENDMDL
MODEL 5
REMARK VINA RESULT:      -4.0     11.880     12.340
REMARK  1 active torsions:
REMARK  status: ('A' for Active; 'I' for Inactive)
REMARK    1  A    between atoms: C1_1  and  C3_3 
ROOT
HETATM    1  C2  UNL     1     -33.842  14.758  -4.206  1.00 20.00     0.018 A 
HETATM    2  C3  UNL     1     -35.072  13.943  -3.889  1.00 20.00     0.076 A 
HETATM    3  C4  UNL     1     -34.743  15.173  -3.077  1.00 20.00    -0.005 A 
HETATM    4  C5  UNL     1     -35.538  16.429  -3.180  1.00 20.00     0.011 C 
ENDROOT
BRANCH   2   5
HETATM    5  C1  UNL     1     -36.196  13.940  -4.831  1.00 20.00     0.223 C 
HETATM    6  O6  UNL     1     -37.324  13.594  -4.489  1.00 20.00    -0.279 OA
HETATM    7 CL7  UNL     1     -35.723  14.471  -6.417  1.00 20.00    -0.043 Cl
ENDBRANCH   2   5
TORSDOF 1
ENDMDL
MODEL 6
REMARK VINA RESULT:      -4.0      1.751      1.928
REMARK  1 active torsions:
REMARK  status: ('A' for Active; 'I' for Inactive)
REMARK    1  A    between atoms: C1_1  and  C3_3 
ROOT
HETATM    1  C2  UNL     1     -34.179   4.380   3.722  1.00 20.00     0.018 A 
HETATM    2  C3  UNL     1     -34.425   5.868   3.686  1.00 20.00     0.076 A 
HETATM    3  C4  UNL     1     -35.111   5.008   4.720  1.00 20.00    -0.005 A 
HETATM    4  C5  UNL     1     -34.739   5.052   6.162  1.00 20.00     0.011 C 
ENDROOT
BRANCH   2   5
HETATM    5  C1  UNL     1     -33.345   6.786   4.064  1.00 20.00     0.223 C 
HETATM    6  O6  UNL     1     -33.270   7.263   5.192  1.00 20.00    -0.279 OA
HETATM    7 CL7  UNL     1     -32.248   7.082   2.749  1.00 20.00    -0.043 Cl
ENDBRANCH   2   5
TORSDOF 1
ENDMDL
MODEL 7
REMARK VINA RESULT:      -3.9      2.236      2.920
REMARK  1 active torsions:
REMARK  status: ('A' for Active; 'I' for Inactive)
REMARK    1  A    between atoms: C1_1  and  C3_3 
ROOT
HETATM    1  C2  UNL     1     -33.787   4.655   2.254  1.00 20.00     0.018 A 
HETATM    2  C3  UNL     1     -33.713   4.804   3.753  1.00 20.00     0.076 A 
HETATM    3  C4  UNL     1     -32.752   5.558   2.864  1.00 20.00    -0.005 A 
HETATM    4  C5  UNL     1     -32.840   7.032   2.670  1.00 20.00     0.011 C 
ENDROOT
BRANCH   2   5
HETATM    5  C1  UNL     1     -34.791   5.503   4.462  1.00 20.00     0.223 C 
HETATM    6  O6  UNL     1     -35.936   5.537   4.021  1.00 20.00    -0.279 OA
HETATM    7 CL7  UNL     1     -34.237   6.235   5.937  1.00 20.00    -0.043 Cl
ENDBRANCH   2   5
TORSDOF 1
ENDMDL
MODEL 8
REMARK VINA RESULT:      -3.9     11.765     12.491
REMARK  1 active torsions:
REMARK  status: ('A' for Active; 'I' for Inactive)
REMARK    1  A    between atoms: C1_1  and  C3_3 
ROOT
HETATM    1  C2  UNL     1     -33.407  14.242  -4.234  1.00 20.00     0.018 A 
HETATM    2  C3  UNL     1     -34.831  14.664  -3.971  1.00 20.00     0.076 A 
HETATM    3  C4  UNL     1     -34.031  15.326  -5.067  1.00 20.00    -0.005 A 
HETATM    4  C5  UNL     1     -34.313  15.087  -6.511  1.00 20.00     0.011 C 
ENDROOT
BRANCH   2   5
HETATM    5  C1  UNL     1     -35.926  13.741  -4.288  1.00 20.00     0.223 C 
HETATM    6  O6  UNL     1     -35.733  12.538  -4.438  1.00 20.00    -0.279 OA
HETATM    7 CL7  UNL     1     -37.455  14.558  -4.413  1.00 20.00    -0.043 Cl
ENDBRANCH   2   5
TORSDOF 1
ENDMDL
MODEL 9
REMARK VINA RESULT:      -3.8     16.215     16.881
REMARK  1 active torsions:
REMARK  status: ('A' for Active; 'I' for Inactive)
REMARK    1  A    between atoms: C1_1  and  C3_3 
ROOT
HETATM    1  C2  UNL     1     -24.224  16.080  11.378  1.00 20.00     0.018 A 
HETATM    2  C3  UNL     1     -24.290  17.285  10.473  1.00 20.00     0.076 A 
HETATM    3  C4  UNL     1     -23.892  17.442  11.922  1.00 20.00    -0.005 A 
HETATM    4  C5  UNL     1     -22.496  17.761  12.331  1.00 20.00     0.011 C 
ENDROOT
BRANCH   2   5
HETATM    5  C1  UNL     1     -23.302  17.435   9.399  1.00 20.00     0.223 C 
HETATM    6  O6  UNL     1     -22.690  16.471   8.947  1.00 20.00    -0.279 OA
HETATM    7 CL7  UNL     1     -23.135  19.087   8.889  1.00 20.00    -0.043 Cl
ENDBRANCH   2   5
TORSDOF 1
ENDMDL
