MODEL 1
REMARK VINA RESULT:      -3.4      0.000      0.000
REMARK  1 active torsions:
REMARK  status: ('A' for Active; 'I' for Inactive)
REMARK    1  A    between atoms: C1_1  and  O7_7 
ROOT
HETATM    1  C1  UNL     1     -35.018  13.781  -3.960  1.00 20.00     0.294 A 
HETATM    2  C2  UNL     1     -36.172  14.064  -4.899  1.00 20.00     0.106 A 
HETATM    3  C3  UNL     1     -37.484  14.493  -4.324  1.00 20.00     0.051 C 
HETATM    4  C4  UNL     1     -35.927  14.398  -6.336  1.00 20.00     0.051 C 
HETATM    5  O6  UNL     1     -35.797  12.726  -4.546  1.00 20.00    -0.343 OA
ENDROOT
BRANCH   1   6
HETATM    6  O7  UNL     1     -33.689  13.943  -4.479  1.00 20.00    -0.363 OA
HETATM    7  C5  UNL     1     -33.094  15.131  -3.987  1.00 20.00     0.204 C 
ENDBRANCH   1   6
TORSDOF 1
ENDMDL
MODEL 2
REMARK VINA RESULT:      -3.4      9.646     10.483
REMARK  1 active torsions:
REMARK  status: ('A' for Active; 'I' for Inactive)
REMARK    1  A    between atoms: C1_1  and  O7_7 
ROOT
HETATM    1  C1  UNL     1     -32.815   7.814   2.463  1.00 20.00     0.294 A 
HETATM    2  C2  UNL     1     -33.156   6.520   3.172  1.00 20.00     0.106 A 
HETATM    3  C3  UNL     1     -33.967   6.575   4.427  1.00 20.00     0.051 C 
HETATM    4  C4  UNL     1     -33.141   5.217   2.438  1.00 20.00     0.051 C 
HETATM    5  O6  UNL     1     -31.863   7.128   3.292  1.00 20.00    -0.343 OA
ENDROOT
BRANCH   1   6
HETATM    6  O7  UNL     1     -32.577   7.749   1.049  1.00 20.00    -0.363 OA
HETATM    7  C5  UNL     1     -32.910   8.975   0.422  1.00 20.00     0.204 C 
ENDBRANCH   1   6
TORSDOF 1
ENDMDL
MODEL 3
REMARK VINA RESULT:      -3.3      1.350      3.238
REMARK  1 active torsions:
REMARK  status: ('A' for Active; 'I' for Inactive)
REMARK    1  A    between atoms: C1_1  and  O7_7 
ROOT
HETATM    1  C1  UNL     1     -36.315  13.831  -4.793  1.00 20.00     0.294 A 
HETATM    2  C2  UNL     1     -35.029  14.501  -4.360  1.00 20.00     0.106 A 
HETATM    3  C3  UNL     1     -34.042  14.917  -5.405  1.00 20.00     0.051 C 
HETATM    4  C4  UNL     1     -34.927  15.182  -3.032  1.00 20.00     0.051 C 
HETATM    5  O6  UNL     1     -35.208  13.081  -4.267  1.00 20.00    -0.343 OA
ENDROOT
BRANCH   1   6
HETATM    6  O7  UNL     1     -37.452  13.962  -3.926  1.00 20.00    -0.363 OA
HETATM    7  C5  UNL     1     -38.403  14.862  -4.469  1.00 20.00     0.204 C 
ENDBRANCH   1   6
TORSDOF 1
ENDMDL
MODEL 4
REMARK VINA RESULT:      -3.3     11.128     11.965
REMARK  1 active torsions:
REMARK  status: ('A' for Active; 'I' for Inactive)
REMARK    1  A    between atoms: C1_1  and  O7_7 
ROOT
HETATM    1  C1  UNL     1     -33.561   6.080   3.551  1.00 20.00     0.294 A 
HETATM    2  C2  UNL     1     -34.162   6.075   4.941  1.00 20.00     0.106 A 
HETATM    3  C3  UNL     1     -34.850   4.839   5.427  1.00 20.00     0.051 C 
HETATM    4  C4  UNL     1     -33.687   7.034   5.985  1.00 20.00     0.051 C 
HETATM    5  O6  UNL     1     -34.821   6.707   3.836  1.00 20.00    -0.343 OA
ENDROOT
BRANCH   1   6
HETATM    6  O7  UNL     1     -32.458   6.968   3.311  1.00 20.00    -0.363 OA
HETATM    7  C5  UNL     1     -32.472   7.445   1.977  1.00 20.00     0.204 C 
ENDBRANCH   1   6
TORSDOF 1
ENDMDL
MODEL 5
REMARK VINA RESULT:      -3.3     19.146     19.892
REMARK  1 active torsions:
REMARK  status: ('A' for Active; 'I' for Inactive)
REMARK    1  A    between atoms: C1_1  and  O7_7 
ROOT
HETATM    1  C1  UNL     1     -23.163  17.775  10.610  1.00 20.00     0.294 A 
HETATM    2  C2  UNL     1     -24.167  17.300  11.638  1.00 20.00     0.106 A 
HETATM    3  C3  UNL     1     -25.025  18.310  12.332  1.00 20.00     0.051 C 
HETATM    4  C4  UNL     1     -24.662  15.889  11.632  1.00 20.00     0.051 C 
HETATM    5  O6  UNL     1     -22.771  17.419  11.946  1.00 20.00    -0.343 OA
ENDROOT
BRANCH   1   6
HETATM    6  O7  UNL     1     -22.785  16.851   9.579  1.00 20.00    -0.363 OA
HETATM    7  C5  UNL     1     -22.040  17.500   8.563  1.00 20.00     0.204 C 
ENDBRANCH   1   6
TORSDOF 1
ENDMDL
MODEL 6
REMARK VINA RESULT:      -3.3      1.682      2.472
REMARK  1 active torsions:
REMARK  status: ('A' for Active; 'I' for Inactive)
REMARK    1  A    between atoms: C1_1  and  O7_7 
ROOT
HETATM    1  C1  UNL     1     -34.101  14.774  -5.041  1.00 20.00     0.294 A 
HETATM    2  C2  UNL     1     -35.079  14.776  -3.886  1.00 20.00     0.106 A 
HETATM    3  C3  UNL     1     -34.758  15.579  -2.665  1.00 20.00     0.051 C 
HETATM    4  C4  UNL     1     -36.517  14.424  -4.098  1.00 20.00     0.051 C 
HETATM    5  O6  UNL     1     -34.179  13.682  -4.111  1.00 20.00    -0.343 OA
ENDROOT
BRANCH   1   6
HETATM    6  O7  UNL     1     -34.627  14.521  -6.352  1.00 20.00    -0.363 OA
HETATM    7  C5  UNL     1     -33.908  15.245  -7.336  1.00 20.00     0.204 C 
ENDBRANCH   1   6
TORSDOF 1
ENDMDL
MODEL 7
REMARK VINA RESULT:      -3.2     17.545     19.395
REMARK  1 active torsions:
REMARK  status: ('A' for Active; 'I' for Inactive)
REMARK    1  A    between atoms: C1_1  and  O7_7 
ROOT
HETATM    1  C1  UNL     1     -23.436  18.227   9.852  1.00 20.00     0.294 A 
HETATM    2  C2  UNL     1     -23.367  17.258  11.013  1.00 20.00     0.106 A 
HETATM    3  C3  UNL     1     -22.559  17.627  12.216  1.00 20.00     0.051 C 
HETATM    4  C4  UNL     1     -24.423  16.216  11.206  1.00 20.00     0.051 C 
HETATM    5  O6  UNL     1     -22.584  17.071   9.826  1.00 20.00    -0.343 OA
ENDROOT
BRANCH   1   6
HETATM    6  O7  UNL     1     -24.598  18.169   9.011  1.00 20.00    -0.363 OA
HETATM    7  C5  UNL     1     -24.399  18.907   7.818  1.00 20.00     0.204 C 
ENDBRANCH   1   6
TORSDOF 1
ENDMDL
MODEL 8
REMARK VINA RESULT:      -3.2      1.724      3.228
REMARK  1 active torsions:
REMARK  status: ('A' for Active; 'I' for Inactive)
REMARK    1  A    between atoms: C1_1  and  O7_7 
ROOT
HETATM    1  C1  UNL     1     -33.872  14.856  -5.476  1.00 20.00     0.294 A 
HETATM    2  C2  UNL     1     -34.002  15.138  -3.995  1.00 20.00     0.106 A 
HETATM    3  C3  UNL     1     -33.084  16.136  -3.364  1.00 20.00     0.051 C 
HETATM    4  C4  UNL     1     -35.275  14.843  -3.267  1.00 20.00     0.051 C 
HETATM    5  O6  UNL     1     -33.334  13.967  -4.484  1.00 20.00    -0.343 OA
ENDROOT
BRANCH   1   6
HETATM    6  O7  UNL     1     -35.042  14.392  -6.166  1.00 20.00    -0.363 OA
HETATM    7  C5  UNL     1     -35.269  15.147  -7.344  1.00 20.00     0.204 C 
ENDBRANCH   1   6
TORSDOF 1
ENDMDL
MODEL 9
REMARK VINA RESULT:      -3.2     19.252     20.062
REMARK  1 active torsions:
REMARK  status: ('A' for Active; 'I' for Inactive)
REMARK    1  A    between atoms: C1_1  and  O7_7 
ROOT
HETATM    1  C1  UNL     1     -24.556  18.130  10.775  1.00 20.00     0.294 A 
HETATM    2  C2  UNL     1     -23.084  17.800  10.900  1.00 20.00     0.106 A 
HETATM    3  C3  UNL     1     -22.182  18.057   9.734  1.00 20.00     0.051 C 
HETATM    4  C4  UNL     1     -22.432  17.697  12.242  1.00 20.00     0.051 C 
HETATM    5  O6  UNL     1     -24.067  16.785  10.658  1.00 20.00    -0.343 OA
ENDROOT
BRANCH   1   6
HETATM    6  O7  UNL     1     -25.269  18.436  11.982  1.00 20.00    -0.363 OA
HETATM    7  C5  UNL     1     -26.431  19.199  11.706  1.00 20.00     0.204 C 
ENDBRANCH   1   6
TORSDOF 1
ENDMDL
