MODEL 1
REMARK VINA RESULT:      -4.5      0.000      0.000
REMARK  3 active torsions:
REMARK  status: ('A' for Active; 'I' for Inactive)
REMARK    1  A    between atoms: C1_1  and  C3_3 
REMARK    2  A    between atoms: C1_1  and  C4_4 
REMARK    3  A    between atoms: C4_4  and  C5_5 
ROOT
HETATM    1  C1  UNL     1     -34.061   4.982   3.686  1.00 20.00     0.127 C 
HETATM    2  O6  UNL     1     -34.330   3.789   3.811  1.00 20.00    -0.298 OA
ENDROOT
BRANCH   1   3
HETATM    3  C3  UNL     1     -34.568   6.033   4.660  1.00 20.00     0.074 C 
HETATM    4  C2  UNL     1     -34.746   5.492   6.067  1.00 20.00     0.013 C 
ENDBRANCH   1   3
BRANCH   1   5
HETATM    5  C4  UNL     1     -33.222   5.512   2.531  1.00 20.00     0.093 C 
BRANCH   5   6
HETATM    6  C5  UNL     1     -32.586   6.868   2.799  1.00 20.00     0.122 C 
HETATM    7 CL7  UNL     1     -32.598   7.888   1.340  1.00 20.00    -0.130 Cl
ENDBRANCH   5   6
ENDBRANCH   1   5
TORSDOF 3
ENDMDL
MODEL 2
REMARK VINA RESULT:      -4.4      1.568      1.875
REMARK  3 active torsions:
REMARK  status: ('A' for Active; 'I' for Inactive)
REMARK    1  A    between atoms: C1_1  and  C3_3 
REMARK    2  A    between atoms: C1_1  and  C4_4 
REMARK    3  A    between atoms: C4_4  and  C5_5 
ROOT
HETATM    1  C1  UNL     1     -34.998   5.109   4.486  1.00 20.00     0.127 C 
HETATM    2  O6  UNL     1     -35.999   5.565   3.937  1.00 20.00    -0.298 OA
ENDROOT
BRANCH   1   3
HETATM    3  C3  UNL     1     -34.651   5.431   5.931  1.00 20.00     0.074 C 
HETATM    4  C2  UNL     1     -33.986   6.787   6.087  1.00 20.00     0.013 C 
ENDBRANCH   1   3
BRANCH   1   5
HETATM    5  C4  UNL     1     -34.006   4.211   3.759  1.00 20.00     0.093 C 
BRANCH   5   6
HETATM    6  C5  UNL     1     -33.406   4.838   2.509  1.00 20.00     0.122 C 
HETATM    7 CL7  UNL     1     -32.854   6.502   2.821  1.00 20.00    -0.130 Cl
ENDBRANCH   5   6
ENDBRANCH   1   5
TORSDOF 3
ENDMDL
MODEL 3
REMARK VINA RESULT:      -4.4      1.972      3.184
REMARK  3 active torsions:
REMARK  status: ('A' for Active; 'I' for Inactive)
REMARK    1  A    between atoms: C1_1  and  C3_3 
REMARK    2  A    between atoms: C1_1  and  C4_4 
REMARK    3  A    between atoms: C4_4  and  C5_5 
ROOT
HETATM    1  C1  UNL     1     -34.183   4.546   3.634  1.00 20.00     0.127 C 
HETATM    2  O6  UNL     1     -34.083   3.360   3.945  1.00 20.00    -0.298 OA
ENDROOT
BRANCH   1   3
HETATM    3  C3  UNL     1     -33.378   5.154   2.497  1.00 20.00     0.074 C 
HETATM    4  C2  UNL     1     -32.881   6.554   2.814  1.00 20.00     0.013 C 
ENDBRANCH   1   3
BRANCH   1   5
HETATM    5  C4  UNL     1     -35.097   5.509   4.377  1.00 20.00     0.093 C 
BRANCH   5   6
HETATM    6  C5  UNL     1     -34.794   5.626   5.864  1.00 20.00     0.122 C 
HETATM    7 CL7  UNL     1     -33.745   7.024   6.202  1.00 20.00    -0.130 Cl
ENDBRANCH   5   6
ENDBRANCH   1   5
TORSDOF 3
ENDMDL
MODEL 4
REMARK VINA RESULT:      -4.3      0.951      1.061
REMARK  3 active torsions:
REMARK  status: ('A' for Active; 'I' for Inactive)
REMARK    1  A    between atoms: C1_1  and  C3_3 
REMARK    2  A    between atoms: C1_1  and  C4_4 
REMARK    3  A    between atoms: C4_4  and  C5_5 
ROOT
HETATM    1  C1  UNL     1     -33.903   5.345   3.490  1.00 20.00     0.127 C 
HETATM    2  O6  UNL     1     -33.439   4.608   2.622  1.00 20.00    -0.298 OA
ENDROOT
BRANCH   1   3
HETATM    3  C3  UNL     1     -34.999   4.888   4.438  1.00 20.00     0.074 C 
HETATM    4  C2  UNL     1     -34.765   5.342   5.868  1.00 20.00     0.013 C 
ENDBRANCH   1   3
BRANCH   1   5
HETATM    5  C4  UNL     1     -33.442   6.786   3.668  1.00 20.00     0.093 C 
BRANCH   5   6
HETATM    6  C5  UNL     1     -32.207   7.145   2.855  1.00 20.00     0.122 C 
HETATM    7 CL7  UNL     1     -32.649   7.962   1.336  1.00 20.00    -0.130 Cl
ENDBRANCH   5   6
ENDBRANCH   1   5
TORSDOF 3
ENDMDL
MODEL 5
REMARK VINA RESULT:      -4.2      2.281      3.476
REMARK  3 active torsions:
REMARK  status: ('A' for Active; 'I' for Inactive)
REMARK    1  A    between atoms: C1_1  and  C3_3 
REMARK    2  A    between atoms: C1_1  and  C4_4 
REMARK    3  A    between atoms: C4_4  and  C5_5 
ROOT
HETATM    1  C1  UNL     1     -33.617   5.493   3.121  1.00 20.00     0.127 C 
HETATM    2  O6  UNL     1     -33.196   4.555   2.447  1.00 20.00    -0.298 OA
ENDROOT
BRANCH   1   3
HETATM    3  C3  UNL     1     -32.871   6.813   3.227  1.00 20.00     0.074 C 
HETATM    4  C2  UNL     1     -32.517   7.398   1.872  1.00 20.00     0.013 C 
ENDBRANCH   1   3
BRANCH   1   5
HETATM    5  C4  UNL     1     -34.906   5.404   3.927  1.00 20.00     0.093 C 
BRANCH   5   6
HETATM    6  C5  UNL     1     -34.691   5.112   5.405  1.00 20.00     0.122 C 
HETATM    7 CL7  UNL     1     -34.299   6.597   6.307  1.00 20.00    -0.130 Cl
ENDBRANCH   5   6
ENDBRANCH   1   5
TORSDOF 3
ENDMDL
MODEL 6
REMARK VINA RESULT:      -4.1      1.598      1.635
REMARK  3 active torsions:
REMARK  status: ('A' for Active; 'I' for Inactive)
REMARK    1  A    between atoms: C1_1  and  C3_3 
REMARK    2  A    between atoms: C1_1  and  C4_4 
REMARK    3  A    between atoms: C4_4  and  C5_5 
ROOT
HETATM    1  C1  UNL     1     -33.698   6.406   4.118  1.00 20.00     0.127 C 
HETATM    2  O6  UNL     1     -33.218   7.203   4.923  1.00 20.00    -0.298 OA
ENDROOT
BRANCH   1   3
HETATM    3  C3  UNL     1     -34.848   5.482   4.482  1.00 20.00     0.074 C 
HETATM    4  C2  UNL     1     -34.859   5.109   5.954  1.00 20.00     0.013 C 
ENDBRANCH   1   3
BRANCH   1   5
HETATM    5  C4  UNL     1     -33.161   6.256   2.701  1.00 20.00     0.093 C 
BRANCH   5   6
HETATM    6  C5  UNL     1     -32.176   7.342   2.296  1.00 20.00     0.122 C 
HETATM    7 CL7  UNL     1     -32.852   8.385   1.020  1.00 20.00    -0.130 Cl
ENDBRANCH   5   6
ENDBRANCH   1   5
TORSDOF 3
ENDMDL
MODEL 7
REMARK VINA RESULT:      -3.7      3.022      4.217
REMARK  3 active torsions:
REMARK  status: ('A' for Active; 'I' for Inactive)
REMARK    1  A    between atoms: C1_1  and  C3_3 
REMARK    2  A    between atoms: C1_1  and  C4_4 
REMARK    3  A    between atoms: C4_4  and  C5_5 
ROOT
HETATM    1  C1  UNL     1     -32.478   7.105   2.923  1.00 20.00     0.127 C 
HETATM    2  O6  UNL     1     -31.636   7.614   3.662  1.00 20.00    -0.298 OA
ENDROOT
BRANCH   1   3
HETATM    3  C3  UNL     1     -32.469   7.319   1.419  1.00 20.00     0.074 C 
HETATM    4  C2  UNL     1     -32.868   8.730   1.024  1.00 20.00     0.013 C 
ENDBRANCH   1   3
BRANCH   1   5
HETATM    5  C4  UNL     1     -33.616   6.245   3.455  1.00 20.00     0.093 C 
BRANCH   5   6
HETATM    6  C5  UNL     1     -34.013   6.564   4.889  1.00 20.00     0.122 C 
HETATM    7 CL7  UNL     1     -34.873   5.197   5.641  1.00 20.00    -0.130 Cl
ENDBRANCH   5   6
ENDBRANCH   1   5
TORSDOF 3
ENDMDL
MODEL 8
REMARK VINA RESULT:      -3.7      1.771      2.038
REMARK  3 active torsions:
REMARK  status: ('A' for Active; 'I' for Inactive)
REMARK    1  A    between atoms: C1_1  and  C3_3 
REMARK    2  A    between atoms: C1_1  and  C4_4 
REMARK    3  A    between atoms: C4_4  and  C5_5 
ROOT
HETATM    1  C1  UNL     1     -33.337   6.712   4.148  1.00 20.00     0.127 C 
HETATM    2  O6  UNL     1     -33.536   7.074   5.306  1.00 20.00    -0.298 OA
ENDROOT
BRANCH   1   3
HETATM    3  C3  UNL     1     -34.104   5.561   3.517  1.00 20.00     0.074 C 
HETATM    4  C2  UNL     1     -34.922   4.777   4.527  1.00 20.00     0.013 C 
ENDBRANCH   1   3
BRANCH   1   5
HETATM    5  C4  UNL     1     -32.286   7.363   3.259  1.00 20.00     0.093 C 
BRANCH   5   6
HETATM    6  C5  UNL     1     -32.560   7.218   1.770  1.00 20.00     0.122 C 
HETATM    7 CL7  UNL     1     -32.842   8.801   1.006  1.00 20.00    -0.130 Cl
ENDBRANCH   5   6
ENDBRANCH   1   5
TORSDOF 3
ENDMDL
MODEL 9
REMARK VINA RESULT:      -3.7      2.980      3.795
REMARK  3 active torsions:
REMARK  status: ('A' for Active; 'I' for Inactive)
REMARK    1  A    between atoms: C1_1  and  C3_3 
REMARK    2  A    between atoms: C1_1  and  C4_4 
REMARK    3  A    between atoms: C4_4  and  C5_5 
ROOT
HETATM    1  C1  UNL     1     -32.785   6.892   3.429  1.00 20.00     0.127 C 
HETATM    2  O6  UNL     1     -31.774   7.544   3.682  1.00 20.00    -0.298 OA
ENDROOT
BRANCH   1   3
HETATM    3  C3  UNL     1     -32.864   5.949   2.240  1.00 20.00     0.074 C 
HETATM    4  C2  UNL     1     -33.422   4.585   2.608  1.00 20.00     0.013 C 
ENDBRANCH   1   3
BRANCH   1   5
HETATM    5  C4  UNL     1     -34.053   6.996   4.266  1.00 20.00     0.093 C 
BRANCH   5   6
HETATM    6  C5  UNL     1     -33.852   6.656   5.736  1.00 20.00     0.122 C 
HETATM    7 CL7  UNL     1     -34.713   5.161   6.177  1.00 20.00    -0.130 Cl
ENDBRANCH   5   6
ENDBRANCH   1   5
TORSDOF 3
ENDMDL
