MODEL 1
REMARK VINA RESULT:      -4.2      0.000      0.000
REMARK  2 active torsions:
REMARK  status: ('A' for Active; 'I' for Inactive)
REMARK    1  A    between atoms: C1_1  and  C3_3 
REMARK    2  A    between atoms: C2_2  and  C5_5 
ROOT
HETATM    1  C1  UNL     1     -33.350   6.077   2.419  1.00 20.00     0.003 C 
HETATM    2  C2  UNL     1     -32.602   7.186   2.462  1.00 20.00     0.041 C 
ENDROOT
BRANCH   1   3
HETATM    3  C3  UNL     1     -33.749   5.357   3.607  1.00 20.00    -0.004 C 
HETATM    4  C4  UNL     1     -34.434   5.923   4.612  1.00 20.00    -0.031 C 
HETATM    5  C6  UNL     1     -34.852   5.191   5.845  1.00 20.00     0.036 C 
ENDBRANCH   1   3
BRANCH   2   6
HETATM    6  C5  UNL     1     -32.242   7.857   1.198  1.00 20.00     0.258 C 
HETATM    7  O7  UNL     1     -32.908   8.779   0.742  1.00 20.00    -0.302 OA
ENDBRANCH   2   6
TORSDOF 2
ENDMDL
MODEL 2
REMARK VINA RESULT:      -4.2      2.454      4.452
REMARK  2 active torsions:
REMARK  status: ('A' for Active; 'I' for Inactive)
REMARK    1  A    between atoms: C1_1  and  C3_3 
REMARK    2  A    between atoms: C2_2  and  C5_5 
ROOT
HETATM    1  C1  UNL     1     -33.163   6.108   2.941  1.00 20.00     0.003 C 
HETATM    2  C2  UNL     1     -34.099   6.238   3.889  1.00 20.00     0.041 C 
ENDROOT
BRANCH   1   3
HETATM    3  C3  UNL     1     -32.568   7.242   2.271  1.00 20.00    -0.004 C 
HETATM    4  C4  UNL     1     -33.193   7.934   1.307  1.00 20.00    -0.031 C 
HETATM    5  C6  UNL     1     -32.589   9.108   0.606  1.00 20.00     0.036 C 
ENDBRANCH   1   3
BRANCH   2   6
HETATM    6  C5  UNL     1     -34.651   5.025   4.522  1.00 20.00     0.258 C 
HETATM    7  O7  UNL     1     -34.413   3.903   4.089  1.00 20.00    -0.302 OA
ENDBRANCH   2   6
TORSDOF 2
ENDMDL
MODEL 3
REMARK VINA RESULT:      -4.1     10.773     11.317
REMARK  2 active torsions:
REMARK  status: ('A' for Active; 'I' for Inactive)
REMARK    1  A    between atoms: C1_1  and  C3_3 
REMARK    2  A    between atoms: C2_2  and  C5_5 
ROOT
HETATM    1  C1  UNL     1     -34.070  14.810  -3.996  1.00 20.00     0.003 C 
HETATM    2  C2  UNL     1     -35.396  14.774  -3.815  1.00 20.00     0.041 C 
ENDROOT
BRANCH   1   3
HETATM    3  C3  UNL     1     -33.227  15.816  -3.390  1.00 20.00    -0.004 C 
HETATM    4  C4  UNL     1     -33.648  16.636  -2.416  1.00 20.00    -0.031 C 
HETATM    5  C6  UNL     1     -32.787  17.679  -1.781  1.00 20.00     0.036 C 
ENDBRANCH   1   3
BRANCH   2   6
HETATM    6  C5  UNL     1     -36.179  13.710  -4.473  1.00 20.00     0.258 C 
HETATM    7  O7  UNL     1     -35.791  12.548  -4.509  1.00 20.00    -0.302 OA
ENDBRANCH   2   6
TORSDOF 2
ENDMDL
MODEL 4
REMARK VINA RESULT:      -3.7     10.986     11.779
REMARK  2 active torsions:
REMARK  status: ('A' for Active; 'I' for Inactive)
REMARK    1  A    between atoms: C1_1  and  C3_3 
REMARK    2  A    between atoms: C2_2  and  C5_5 
ROOT
HETATM    1  C1  UNL     1     -33.879  17.228  -1.534  1.00 20.00     0.003 C 
HETATM    2  C2  UNL     1     -32.635  17.566  -1.897  1.00 20.00     0.041 C 
ENDROOT
BRANCH   1   3
HETATM    3  C3  UNL     1     -34.642  16.210  -2.219  1.00 20.00    -0.004 C 
HETATM    4  C4  UNL     1     -34.123  15.418  -3.169  1.00 20.00    -0.031 C 
HETATM    5  C6  UNL     1     -34.901  14.362  -3.885  1.00 20.00     0.036 C 
ENDBRANCH   1   3
BRANCH   2   6
HETATM    6  C5  UNL     1     -31.929  18.617  -1.140  1.00 20.00     0.258 C 
HETATM    7  O7  UNL     1     -30.774  18.475  -0.757  1.00 20.00    -0.302 OA
ENDBRANCH   2   6
TORSDOF 2
ENDMDL
MODEL 5
REMARK VINA RESULT:      -3.5     10.628     11.534
REMARK  2 active torsions:
REMARK  status: ('A' for Active; 'I' for Inactive)
REMARK    1  A    between atoms: C1_1  and  C3_3 
REMARK    2  A    between atoms: C2_2  and  C5_5 
ROOT
HETATM    1  C1  UNL     1     -33.784  15.954  -3.022  1.00 20.00     0.003 C 
HETATM    2  C2  UNL     1     -34.860  15.164  -3.119  1.00 20.00     0.041 C 
ENDROOT
BRANCH   1   3
HETATM    3  C3  UNL     1     -33.659  16.983  -2.013  1.00 20.00    -0.004 C 
HETATM    4  C4  UNL     1     -32.547  17.715  -1.846  1.00 20.00    -0.031 C 
HETATM    5  C6  UNL     1     -32.406  18.780  -0.808  1.00 20.00     0.036 C 
ENDBRANCH   1   3
BRANCH   2   6
HETATM    6  C5  UNL     1     -34.902  14.139  -4.179  1.00 20.00     0.258 C 
HETATM    7  O7  UNL     1     -34.587  12.974  -3.967  1.00 20.00    -0.302 OA
ENDBRANCH   2   6
TORSDOF 2
ENDMDL
MODEL 6
REMARK VINA RESULT:      -3.5      9.094      9.442
REMARK  2 active torsions:
REMARK  status: ('A' for Active; 'I' for Inactive)
REMARK    1  A    between atoms: C1_1  and  C3_3 
REMARK    2  A    between atoms: C2_2  and  C5_5 
ROOT
HETATM    1  C1  UNL     1     -41.188   6.692  -0.052  1.00 20.00     0.003 C 
HETATM    2  C2  UNL     1     -41.587   7.913  -0.429  1.00 20.00     0.041 C 
ENDROOT
BRANCH   1   3
HETATM    3  C3  UNL     1     -41.196   5.557  -0.947  1.00 20.00    -0.004 C 
HETATM    4  C4  UNL     1     -42.320   5.039  -1.465  1.00 20.00    -0.031 C 
HETATM    5  C6  UNL     1     -42.341   3.866  -2.390  1.00 20.00     0.036 C 
ENDBRANCH   1   3
BRANCH   2   6
HETATM    6  C5  UNL     1     -41.544   9.015   0.551  1.00 20.00     0.258 C 
HETATM    7  O7  UNL     1     -41.522  10.190   0.204  1.00 20.00    -0.302 OA
ENDBRANCH   2   6
TORSDOF 2
ENDMDL
MODEL 7
REMARK VINA RESULT:      -3.5     11.055     11.279
REMARK  2 active torsions:
REMARK  status: ('A' for Active; 'I' for Inactive)
REMARK    1  A    between atoms: C1_1  and  C3_3 
REMARK    2  A    between atoms: C2_2  and  C5_5 
ROOT
HETATM    1  C1  UNL     1     -33.355  16.311  -2.874  1.00 20.00     0.003 C 
HETATM    2  C2  UNL     1     -33.940  15.258  -3.459  1.00 20.00     0.041 C 
ENDROOT
BRANCH   1   3
HETATM    3  C3  UNL     1     -33.968  17.041  -1.787  1.00 20.00    -0.004 C 
HETATM    4  C4  UNL     1     -35.139  16.689  -1.236  1.00 20.00    -0.031 C 
HETATM    5  C6  UNL     1     -35.783  17.434  -0.113  1.00 20.00     0.036 C 
ENDBRANCH   1   3
BRANCH   2   6
HETATM    6  C5  UNL     1     -33.240  14.572  -4.562  1.00 20.00     0.258 C 
HETATM    7  O7  UNL     1     -33.745  14.449  -5.672  1.00 20.00    -0.302 OA
ENDBRANCH   2   6
TORSDOF 2
ENDMDL
MODEL 8
REMARK VINA RESULT:      -3.5     16.028     16.314
REMARK  2 active torsions:
REMARK  status: ('A' for Active; 'I' for Inactive)
REMARK    1  A    between atoms: C1_1  and  C3_3 
REMARK    2  A    between atoms: C2_2  and  C5_5 
ROOT
HETATM    1  C1  UNL     1     -23.542  16.920   9.908  1.00 20.00     0.003 C 
HETATM    2  C2  UNL     1     -22.978  17.831   9.105  1.00 20.00     0.041 C 
ENDROOT
BRANCH   1   3
HETATM    3  C3  UNL     1     -24.483  17.273  10.948  1.00 20.00    -0.004 C 
HETATM    4  C4  UNL     1     -25.171  18.425  10.955  1.00 20.00    -0.031 C 
HETATM    5  C6  UNL     1     -26.145  18.801  12.023  1.00 20.00     0.036 C 
ENDBRANCH   1   3
BRANCH   2   6
HETATM    6  C5  UNL     1     -22.028  17.380   8.069  1.00 20.00     0.258 C 
HETATM    7  O7  UNL     1     -22.059  17.821   6.926  1.00 20.00    -0.302 OA
ENDBRANCH   2   6
TORSDOF 2
ENDMDL
MODEL 9
REMARK VINA RESULT:      -3.5     11.035     11.721
REMARK  2 active torsions:
REMARK  status: ('A' for Active; 'I' for Inactive)
REMARK    1  A    between atoms: C1_1  and  C3_3 
REMARK    2  A    between atoms: C2_2  and  C5_5 
ROOT
HETATM    1  C1  UNL     1     -35.595  14.896  -3.530  1.00 20.00     0.003 C 
HETATM    2  C2  UNL     1     -36.694  15.637  -3.718  1.00 20.00     0.041 C 
ENDROOT
BRANCH   1   3
HETATM    3  C3  UNL     1     -34.366  15.442  -2.998  1.00 20.00    -0.004 C 
HETATM    4  C4  UNL     1     -34.240  16.719  -2.607  1.00 20.00    -0.031 C 
HETATM    5  C6  UNL     1     -32.977  17.296  -2.056  1.00 20.00     0.036 C 
ENDBRANCH   1   3
BRANCH   2   6
HETATM    6  C5  UNL     1     -37.904  14.995  -4.265  1.00 20.00     0.258 C 
HETATM    7  O7  UNL     1     -37.983  13.782  -4.414  1.00 20.00    -0.302 OA
ENDBRANCH   2   6
TORSDOF 2
ENDMDL
