MODEL 1
REMARK VINA RESULT:      -4.9      0.000      0.000
REMARK  2 active torsions:
REMARK  status: ('A' for Active; 'I' for Inactive)
REMARK    1  A    between atoms: C9_9  and  C11_11 
REMARK    2  A    between atoms: C10_10  and  C11_11 
ROOT
HETATM    1  C6  UNL     1     -34.074  15.246  -7.229  1.00 20.00     0.207 A 
HETATM    2  C11 UNL     1     -34.244  15.451  -5.743  1.00 20.00     0.089 A 
HETATM    3  O12 UNL     1     -35.014  14.479  -6.461  1.00 20.00    -0.374 OA
ENDROOT
BRANCH   2   4
HETATM    4  C9  UNL     1     -35.032  16.623  -5.206  1.00 20.00     0.023 C 
HETATM    5  C2  UNL     1     -36.200  16.082  -4.360  1.00 20.00     0.012 C 
HETATM    6  C7  UNL     1     -35.660  15.194  -3.220  1.00 20.00    -0.013 C 
HETATM    7  C1  UNL     1     -34.716  16.023  -2.334  1.00 20.00     0.009 C 
HETATM    8  C3  UNL     1     -34.879  14.011  -3.829  1.00 20.00     0.012 C 
HETATM    9  C8  UNL     1     -33.540  16.560  -3.167  1.00 20.00    -0.013 C 
HETATM   10  C4  UNL     1     -34.089  17.447  -4.306  1.00 20.00     0.012 C 
HETATM   11  C5  UNL     1     -32.764  15.371  -3.775  1.00 20.00     0.012 C 
HETATM   12  C10 UNL     1     -33.701  14.537  -4.672  1.00 20.00     0.023 C 
ENDBRANCH   2   4
TORSDOF 2
ENDMDL
MODEL 2
REMARK VINA RESULT:      -4.7      1.180      2.437
REMARK  2 active torsions:
REMARK  status: ('A' for Active; 'I' for Inactive)
REMARK    1  A    between atoms: C9_9  and  C11_11 
REMARK    2  A    between atoms: C10_10  and  C11_11 
ROOT
HETATM    1  C6  UNL     1     -36.335  13.552  -4.715  1.00 20.00     0.207 A 
HETATM    2  C11 UNL     1     -35.431  14.724  -4.419  1.00 20.00     0.089 A 
HETATM    3  O12 UNL     1     -35.119  13.401  -3.965  1.00 20.00    -0.374 OA
ENDROOT
BRANCH   2   4
HETATM    4  C9  UNL     1     -35.771  15.712  -3.329  1.00 20.00     0.023 C 
HETATM    5  C2  UNL     1     -34.593  15.777  -2.339  1.00 20.00     0.012 C 
HETATM    6  C7  UNL     1     -33.301  16.176  -3.080  1.00 20.00    -0.013 C 
HETATM    7  C1  UNL     1     -33.499  17.550  -3.743  1.00 20.00     0.009 C 
HETATM    8  C3  UNL     1     -32.998  15.126  -4.169  1.00 20.00     0.012 C 
HETATM    9  C8  UNL     1     -34.668  17.494  -4.741  1.00 20.00    -0.013 C 
HETATM   10  C4  UNL     1     -35.957  17.093  -3.991  1.00 20.00     0.012 C 
HETATM   11  C5  UNL     1     -34.359  16.440  -5.826  1.00 20.00     0.012 C 
HETATM   12  C10 UNL     1     -34.165  15.057  -5.173  1.00 20.00     0.023 C 
ENDBRANCH   2   4
TORSDOF 2
ENDMDL
MODEL 3
REMARK VINA RESULT:      -4.6      0.861      2.620
REMARK  2 active torsions:
REMARK  status: ('A' for Active; 'I' for Inactive)
REMARK    1  A    between atoms: C9_9  and  C11_11 
REMARK    2  A    between atoms: C10_10  and  C11_11 
ROOT
HETATM    1  C6  UNL     1     -37.797  15.825  -4.951  1.00 20.00     0.207 A 
HETATM    2  C11 UNL     1     -36.324  15.712  -4.643  1.00 20.00     0.089 A 
HETATM    3  O12 UNL     1     -36.937  14.932  -5.676  1.00 20.00    -0.374 OA
ENDROOT
BRANCH   2   4
HETATM    4  C9  UNL     1     -35.839  14.925  -3.448  1.00 20.00     0.023 C 
HETATM    5  C2  UNL     1     -34.784  13.909  -3.925  1.00 20.00     0.012 C 
HETATM    6  C7  UNL     1     -33.623  14.641  -4.628  1.00 20.00    -0.013 C 
HETATM    7  C1  UNL     1     -32.981  15.635  -3.646  1.00 20.00     0.009 C 
HETATM    8  C3  UNL     1     -34.177  15.414  -5.844  1.00 20.00     0.012 C 
HETATM    9  C8  UNL     1     -34.023  16.661  -3.171  1.00 20.00    -0.013 C 
HETATM   10  C4  UNL     1     -35.182  15.919  -2.469  1.00 20.00     0.012 C 
HETATM   11  C5  UNL     1     -34.574  17.428  -4.393  1.00 20.00     0.012 C 
HETATM   12  C10 UNL     1     -35.228  16.442  -5.381  1.00 20.00     0.023 C 
ENDBRANCH   2   4
TORSDOF 2
ENDMDL
MODEL 4
REMARK VINA RESULT:      -4.4      1.676      3.145
REMARK  2 active torsions:
REMARK  status: ('A' for Active; 'I' for Inactive)
REMARK    1  A    between atoms: C9_9  and  C11_11 
REMARK    2  A    between atoms: C10_10  and  C11_11 
ROOT
HETATM    1  C6  UNL     1     -32.922  18.756  -3.958  1.00 20.00     0.207 A 
HETATM    2  C11 UNL     1     -33.714  17.471  -3.977  1.00 20.00     0.089 A 
HETATM    3  O12 UNL     1     -34.200  18.643  -3.312  1.00 20.00    -0.374 OA
ENDROOT
BRANCH   2   4
HETATM    4  C9  UNL     1     -33.351  16.321  -3.068  1.00 20.00     0.023 C 
HETATM    5  C2  UNL     1     -34.596  15.930  -2.250  1.00 20.00     0.012 C 
HETATM    6  C7  UNL     1     -35.756  15.558  -3.197  1.00 20.00    -0.013 C 
HETATM    7  C1  UNL     1     -35.326  14.379  -4.086  1.00 20.00     0.009 C 
HETATM    8  C3  UNL     1     -36.089  16.772  -4.089  1.00 20.00     0.012 C 
HETATM    9  C8  UNL     1     -34.088  14.762  -4.915  1.00 20.00    -0.013 C 
HETATM   10  C4  UNL     1     -32.933  15.134  -3.959  1.00 20.00     0.012 C 
HETATM   11  C5  UNL     1     -34.429  15.979  -5.803  1.00 20.00     0.012 C 
HETATM   12  C10 UNL     1     -34.854  17.169  -4.921  1.00 20.00     0.023 C 
ENDBRANCH   2   4
TORSDOF 2
ENDMDL
MODEL 5
REMARK VINA RESULT:      -4.4      0.729      2.584
REMARK  2 active torsions:
REMARK  status: ('A' for Active; 'I' for Inactive)
REMARK    1  A    between atoms: C9_9  and  C11_11 
REMARK    2  A    between atoms: C10_10  and  C11_11 
ROOT
HETATM    1  C6  UNL     1     -35.171  15.146  -7.125  1.00 20.00     0.207 A 
HETATM    2  C11 UNL     1     -34.754  15.533  -5.726  1.00 20.00     0.089 A 
HETATM    3  O12 UNL     1     -33.947  15.853  -6.866  1.00 20.00    -0.374 OA
ENDROOT
BRANCH   2   4
HETATM    4  C9  UNL     1     -34.158  14.513  -4.784  1.00 20.00     0.023 C 
HETATM    5  C2  UNL     1     -32.894  15.117  -4.143  1.00 20.00     0.012 C 
HETATM    6  C7  UNL     1     -33.247  16.427  -3.409  1.00 20.00    -0.013 C 
HETATM    7  C1  UNL     1     -34.292  16.133  -2.320  1.00 20.00     0.009 C 
HETATM    8  C3  UNL     1     -33.837  17.430  -4.422  1.00 20.00     0.012 C 
HETATM    9  C8  UNL     1     -35.563  15.538  -2.950  1.00 20.00    -0.013 C 
HETATM   10  C4  UNL     1     -35.200  14.228  -3.684  1.00 20.00     0.012 C 
HETATM   11  C5  UNL     1     -36.146  16.546  -3.964  1.00 20.00     0.012 C 
HETATM   12  C10 UNL     1     -35.109  16.843  -5.065  1.00 20.00     0.023 C 
ENDBRANCH   2   4
TORSDOF 2
ENDMDL
MODEL 6
REMARK VINA RESULT:      -4.4      1.123      2.607
REMARK  2 active torsions:
REMARK  status: ('A' for Active; 'I' for Inactive)
REMARK    1  A    between atoms: C9_9  and  C11_11 
REMARK    2  A    between atoms: C10_10  and  C11_11 
ROOT
HETATM    1  C6  UNL     1     -36.408  13.630  -4.564  1.00 20.00     0.207 A 
HETATM    2  C11 UNL     1     -35.599  14.886  -4.352  1.00 20.00     0.089 A 
HETATM    3  O12 UNL     1     -36.770  14.877  -5.177  1.00 20.00    -0.374 OA
ENDROOT
BRANCH   2   4
HETATM    4  C9  UNL     1     -34.298  15.106  -5.087  1.00 20.00     0.023 C 
HETATM    5  C2  UNL     1     -34.353  16.479  -5.783  1.00 20.00     0.012 C 
HETATM    6  C7  UNL     1     -34.609  17.589  -4.744  1.00 20.00    -0.013 C 
HETATM    7  C1  UNL     1     -33.478  17.580  -3.702  1.00 20.00     0.009 C 
HETATM    8  C3  UNL     1     -35.954  17.319  -4.037  1.00 20.00     0.012 C 
HETATM    9  C8  UNL     1     -33.420  16.216  -2.993  1.00 20.00    -0.013 C 
HETATM   10  C4  UNL     1     -33.165  15.110  -4.041  1.00 20.00     0.012 C 
HETATM   11  C5  UNL     1     -34.770  15.952  -2.290  1.00 20.00     0.012 C 
HETATM   12  C10 UNL     1     -35.910  15.951  -3.328  1.00 20.00     0.023 C 
ENDBRANCH   2   4
TORSDOF 2
ENDMDL
MODEL 7
REMARK VINA RESULT:      -4.4      1.337      2.784
REMARK  2 active torsions:
REMARK  status: ('A' for Active; 'I' for Inactive)
REMARK    1  A    between atoms: C9_9  and  C11_11 
REMARK    2  A    between atoms: C10_10  and  C11_11 
ROOT
HETATM    1  C6  UNL     1     -37.707  16.243  -4.695  1.00 20.00     0.207 A 
HETATM    2  C11 UNL     1     -36.255  16.049  -4.330  1.00 20.00     0.089 A 
HETATM    3  O12 UNL     1     -37.113  16.908  -3.569  1.00 20.00    -0.374 OA
ENDROOT
BRANCH   2   4
HETATM    4  C9  UNL     1     -35.160  16.752  -5.098  1.00 20.00     0.023 C 
HETATM    5  C2  UNL     1     -34.296  17.548  -4.102  1.00 20.00     0.012 C 
HETATM    6  C7  UNL     1     -33.717  16.602  -3.030  1.00 20.00    -0.013 C 
HETATM    7  C1  UNL     1     -32.861  15.523  -3.714  1.00 20.00     0.009 C 
HETATM    8  C3  UNL     1     -34.878  15.926  -2.273  1.00 20.00     0.012 C 
HETATM    9  C8  UNL     1     -33.717  14.715  -4.704  1.00 20.00    -0.013 C 
HETATM   10  C4  UNL     1     -34.294  15.669  -5.773  1.00 20.00     0.012 C 
HETATM   11  C5  UNL     1     -34.879  14.043  -3.939  1.00 20.00     0.012 C 
HETATM   12  C10 UNL     1     -35.748  15.117  -3.256  1.00 20.00     0.023 C 
ENDBRANCH   2   4
TORSDOF 2
ENDMDL
MODEL 8
REMARK VINA RESULT:      -4.3      1.025      2.345
REMARK  2 active torsions:
REMARK  status: ('A' for Active; 'I' for Inactive)
REMARK    1  A    between atoms: C9_9  and  C11_11 
REMARK    2  A    between atoms: C10_10  and  C11_11 
ROOT
HETATM    1  C6  UNL     1     -35.184  15.052  -7.369  1.00 20.00     0.207 A 
HETATM    2  C11 UNL     1     -35.115  15.298  -5.881  1.00 20.00     0.089 A 
HETATM    3  O12 UNL     1     -34.005  14.755  -6.605  1.00 20.00    -0.374 OA
ENDROOT
BRANCH   2   4
HETATM    4  C9  UNL     1     -35.772  14.349  -4.906  1.00 20.00     0.023 C 
HETATM    5  C2  UNL     1     -34.747  13.978  -3.818  1.00 20.00     0.012 C 
HETATM    6  C7  UNL     1     -34.239  15.251  -3.112  1.00 20.00    -0.013 C 
HETATM    7  C1  UNL     1     -35.429  15.988  -2.475  1.00 20.00     0.009 C 
HETATM    8  C3  UNL     1     -33.569  16.172  -4.153  1.00 20.00     0.012 C 
HETATM    9  C8  UNL     1     -36.454  16.373  -3.555  1.00 20.00    -0.013 C 
HETATM   10  C4  UNL     1     -36.957  15.092  -4.257  1.00 20.00     0.012 C 
HETATM   11  C5  UNL     1     -35.776  17.292  -4.594  1.00 20.00     0.012 C 
HETATM   12  C10 UNL     1     -34.586  16.561  -5.244  1.00 20.00     0.023 C 
ENDBRANCH   2   4
TORSDOF 2
ENDMDL
MODEL 9
REMARK VINA RESULT:      -4.3      1.443      2.996
REMARK  2 active torsions:
REMARK  status: ('A' for Active; 'I' for Inactive)
REMARK    1  A    between atoms: C9_9  and  C11_11 
REMARK    2  A    between atoms: C10_10  and  C11_11 
ROOT
HETATM    1  C6  UNL     1     -34.380  19.050  -3.960  1.00 20.00     0.207 A 
HETATM    2  C11 UNL     1     -34.379  17.542  -4.025  1.00 20.00     0.089 A 
HETATM    3  O12 UNL     1     -33.284  18.316  -4.528  1.00 20.00    -0.374 OA
ENDROOT
BRANCH   2   4
HETATM    4  C9  UNL     1     -35.182  16.809  -5.074  1.00 20.00     0.023 C 
HETATM    5  C2  UNL     1     -34.274  15.761  -5.744  1.00 20.00     0.012 C 
HETATM    6  C7  UNL     1     -33.713  14.792  -4.684  1.00 20.00    -0.013 C 
HETATM    7  C1  UNL     1     -34.879  14.089  -3.970  1.00 20.00     0.009 C 
HETATM    8  C3  UNL     1     -32.894  15.593  -3.651  1.00 20.00     0.012 C 
HETATM    9  C8  UNL     1     -35.788  15.126  -3.289  1.00 20.00    -0.013 C 
HETATM   10  C4  UNL     1     -36.344  16.093  -4.357  1.00 20.00     0.012 C 
HETATM   11  C5  UNL     1     -34.961  15.926  -2.258  1.00 20.00     0.012 C 
HETATM   12  C10 UNL     1     -33.792  16.641  -2.965  1.00 20.00     0.023 C 
ENDBRANCH   2   4
TORSDOF 2
ENDMDL
