MODEL 1
REMARK VINA RESULT:      -4.3      0.000      0.000
REMARK  0 active torsions:
REMARK  status: ('A' for Active; 'I' for Inactive)
ROOT
HETATM    1  C1  UNL     1     -25.427  16.635  12.183  1.00 20.00     0.005 C 
HETATM    2  C2  UNL     1     -25.191  18.143  12.332  1.00 20.00     0.008 C 
HETATM    3  C3  UNL     1     -23.089  17.075  12.217  1.00 20.00     0.012 C 
HETATM    4  C4  UNL     1     -24.058  16.573  10.083  1.00 20.00     0.047 C 
HETATM    5  C5  UNL     1     -24.108  16.140  11.566  1.00 20.00    -0.011 C 
HETATM    6  C6  UNL     1     -23.793  18.341  11.708  1.00 20.00     0.025 C 
HETATM    7  C7  UNL     1     -23.807  18.095  10.176  1.00 20.00     0.117 C 
HETATM    8 CL8  UNL     1     -25.044  19.036   9.308  1.00 20.00    -0.101 Cl
HETATM    9 CL9  UNL     1     -22.211  18.512   9.463  1.00 20.00    -0.101 Cl
ENDROOT
TORSDOF 0
ENDMDL
MODEL 2
REMARK VINA RESULT:      -4.2     23.207     24.135
REMARK  0 active torsions:
REMARK  status: ('A' for Active; 'I' for Inactive)
ROOT
HETATM    1  C1  UNL     1     -41.740   8.797  -0.207  1.00 20.00     0.005 C 
HETATM    2  C2  UNL     1     -41.077   7.783   0.735  1.00 20.00     0.008 C 
HETATM    3  C3  UNL     1     -43.417   7.505   0.880  1.00 20.00     0.012 C 
HETATM    4  C4  UNL     1     -42.958   6.965  -1.410  1.00 20.00     0.047 C 
HETATM    5  C5  UNL     1     -43.123   8.175  -0.463  1.00 20.00    -0.011 C 
HETATM    6  C6  UNL     1     -42.135   6.662   0.841  1.00 20.00     0.025 C 
HETATM    7  C7  UNL     1     -42.302   5.901  -0.501  1.00 20.00     0.117 C 
HETATM    8 CL8  UNL     1     -40.773   5.289  -1.175  1.00 20.00    -0.101 Cl
HETATM    9 CL9  UNL     1     -43.401   4.496  -0.287  1.00 20.00    -0.101 Cl
ENDROOT
TORSDOF 0
ENDMDL
MODEL 3
REMARK VINA RESULT:      -4.2     23.384     24.308
REMARK  0 active torsions:
REMARK  status: ('A' for Active; 'I' for Inactive)
ROOT
HETATM    1  C1  UNL     1     -41.602   8.479   0.384  1.00 20.00     0.005 C 
HETATM    2  C2  UNL     1     -43.060   8.091   0.663  1.00 20.00     0.008 C 
HETATM    3  C3  UNL     1     -42.632   7.749  -1.633  1.00 20.00     0.012 C 
HETATM    4  C4  UNL     1     -41.127   6.212  -0.577  1.00 20.00     0.047 C 
HETATM    5  C5  UNL     1     -41.285   7.713  -0.911  1.00 20.00    -0.011 C 
HETATM    6  C6  UNL     1     -43.377   7.085  -0.466  1.00 20.00     0.025 C 
HETATM    7  C7  UNL     1     -42.580   5.764  -0.299  1.00 20.00     0.117 C 
HETATM    8 CL8  UNL     1     -42.759   5.015   1.306  1.00 20.00    -0.101 Cl
HETATM    9 CL9  UNL     1     -43.110   4.559  -1.522  1.00 20.00    -0.101 Cl
ENDROOT
TORSDOF 0
ENDMDL
MODEL 4
REMARK VINA RESULT:      -4.1     17.712     18.739
REMARK  0 active torsions:
REMARK  status: ('A' for Active; 'I' for Inactive)
ROOT
HETATM    1  C1  UNL     1     -35.122  15.888  -2.386  1.00 20.00     0.005 C 
HETATM    2  C2  UNL     1     -33.668  16.118  -2.816  1.00 20.00     0.008 C 
HETATM    3  C3  UNL     1     -34.418  14.103  -3.793  1.00 20.00     0.012 C 
HETATM    4  C4  UNL     1     -35.863  15.742  -4.777  1.00 20.00     0.047 C 
HETATM    5  C5  UNL     1     -35.656  14.939  -3.472  1.00 20.00    -0.011 C 
HETATM    6  C6  UNL     1     -33.568  15.334  -4.143  1.00 20.00     0.025 C 
HETATM    7  C7  UNL     1     -34.418  15.990  -5.264  1.00 20.00     0.117 C 
HETATM    8 CL8  UNL     1     -34.075  17.720  -5.505  1.00 20.00    -0.101 Cl
HETATM    9 CL9  UNL     1     -34.132  15.157  -6.831  1.00 20.00    -0.101 Cl
ENDROOT
TORSDOF 0
ENDMDL
MODEL 5
REMARK VINA RESULT:      -4.1     17.810     18.810
REMARK  0 active torsions:
REMARK  status: ('A' for Active; 'I' for Inactive)
ROOT
HETATM    1  C1  UNL     1     -34.544  15.980  -2.237  1.00 20.00     0.005 C 
HETATM    2  C2  UNL     1     -35.839  16.261  -3.010  1.00 20.00     0.008 C 
HETATM    3  C3  UNL     1     -34.021  16.999  -4.323  1.00 20.00     0.012 C 
HETATM    4  C4  UNL     1     -33.630  14.641  -4.150  1.00 20.00     0.047 C 
HETATM    5  C5  UNL     1     -33.480  15.953  -3.348  1.00 20.00    -0.011 C 
HETATM    6  C6  UNL     1     -35.370  16.283  -4.481  1.00 20.00     0.025 C 
HETATM    7  C7  UNL     1     -34.923  14.878  -4.963  1.00 20.00     0.117 C 
HETATM    8 CL8  UNL     1     -36.135  13.604  -4.688  1.00 20.00    -0.101 Cl
HETATM    9 CL9  UNL     1     -34.560  14.909  -6.723  1.00 20.00    -0.101 Cl
ENDROOT
TORSDOF 0
ENDMDL
MODEL 6
REMARK VINA RESULT:      -4.0      2.017      3.519
REMARK  0 active torsions:
REMARK  status: ('A' for Active; 'I' for Inactive)
ROOT
HETATM    1  C1  UNL     1     -21.329  17.072   8.866  1.00 20.00     0.005 C 
HETATM    2  C2  UNL     1     -21.321  18.494   9.440  1.00 20.00     0.008 C 
HETATM    3  C3  UNL     1     -23.330  18.195   8.236  1.00 20.00     0.012 C 
HETATM    4  C4  UNL     1     -23.514  16.573   9.990  1.00 20.00     0.047 C 
HETATM    5  C5  UNL     1     -22.825  16.806   8.627  1.00 20.00    -0.011 C 
HETATM    6  C6  UNL     1     -22.823  18.842   9.533  1.00 20.00     0.025 C 
HETATM    7  C7  UNL     1     -23.545  17.988  10.610  1.00 20.00     0.117 C 
HETATM    8 CL8  UNL     1     -22.766  18.041  12.209  1.00 20.00    -0.101 Cl
HETATM    9 CL9  UNL     1     -25.241  18.547  10.813  1.00 20.00    -0.101 Cl
ENDROOT
TORSDOF 0
ENDMDL
MODEL 7
REMARK VINA RESULT:      -3.9     17.587     18.707
REMARK  0 active torsions:
REMARK  status: ('A' for Active; 'I' for Inactive)
ROOT
HETATM    1  C1  UNL     1     -33.245  14.790  -4.191  1.00 20.00     0.005 C 
HETATM    2  C2  UNL     1     -34.619  14.169  -3.904  1.00 20.00     0.008 C 
HETATM    3  C3  UNL     1     -34.299  15.972  -2.414  1.00 20.00     0.012 C 
HETATM    4  C4  UNL     1     -34.281  17.044  -4.558  1.00 20.00     0.047 C 
HETATM    5  C5  UNL     1     -33.384  16.210  -3.616  1.00 20.00    -0.011 C 
HETATM    6  C6  UNL     1     -35.405  15.337  -3.269  1.00 20.00     0.025 C 
HETATM    7  C7  UNL     1     -35.690  16.463  -4.298  1.00 20.00     0.117 C 
HETATM    8 CL8  UNL     1     -36.471  15.892  -5.792  1.00 20.00    -0.101 Cl
HETATM    9 CL9  UNL     1     -36.758  17.713  -3.572  1.00 20.00    -0.101 Cl
ENDROOT
TORSDOF 0
ENDMDL
MODEL 8
REMARK VINA RESULT:      -3.9     18.043     18.778
REMARK  0 active torsions:
REMARK  status: ('A' for Active; 'I' for Inactive)
ROOT
HETATM    1  C1  UNL     1     -33.342  17.018  -3.665  1.00 20.00     0.005 C 
HETATM    2  C2  UNL     1     -33.118  15.503  -3.765  1.00 20.00     0.008 C 
HETATM    3  C3  UNL     1     -34.931  15.887  -2.302  1.00 20.00     0.012 C 
HETATM    4  C4  UNL     1     -35.731  16.767  -4.383  1.00 20.00     0.047 C 
HETATM    5  C5  UNL     1     -34.803  17.119  -3.198  1.00 20.00    -0.011 C 
HETATM    6  C6  UNL     1     -34.507  14.922  -3.418  1.00 20.00     0.025 C 
HETATM    7  C7  UNL     1     -35.554  15.238  -4.519  1.00 20.00     0.117 C 
HETATM    8 CL8  UNL     1     -35.042  14.762  -6.156  1.00 20.00    -0.101 Cl
HETATM    9 CL9  UNL     1     -37.101  14.393  -4.168  1.00 20.00    -0.101 Cl
ENDROOT
TORSDOF 0
ENDMDL
MODEL 9
REMARK VINA RESULT:      -3.9     17.474     18.624
REMARK  0 active torsions:
REMARK  status: ('A' for Active; 'I' for Inactive)
ROOT
HETATM    1  C1  UNL     1     -33.980  14.984  -5.828  1.00 20.00     0.005 C 
HETATM    2  C2  UNL     1     -35.430  15.423  -5.588  1.00 20.00     0.008 C 
HETATM    3  C3  UNL     1     -34.792  13.988  -3.825  1.00 20.00     0.012 C 
HETATM    4  C4  UNL     1     -33.292  15.841  -3.574  1.00 20.00     0.047 C 
HETATM    5  C5  UNL     1     -33.510  14.568  -4.424  1.00 20.00    -0.011 C 
HETATM    6  C6  UNL     1     -35.591  15.279  -4.059  1.00 20.00     0.025 C 
HETATM    7  C7  UNL     1     -34.734  16.320  -3.291  1.00 20.00     0.117 C 
HETATM    8 CL8  UNL     1     -35.001  17.999  -3.816  1.00 20.00    -0.101 Cl
HETATM    9 CL9  UNL     1     -35.086  16.240  -1.530  1.00 20.00    -0.101 Cl
ENDROOT
TORSDOF 0
ENDMDL
