MODEL 1
REMARK VINA RESULT:      -3.5      0.000      0.000
REMARK  1 active torsions:
REMARK  status: ('A' for Active; 'I' for Inactive)
REMARK    1  A    between atoms: C5_5  and  C6_6 
ROOT
HETATM    1  C1  UNL     1     -34.169  17.677  -6.881  1.00 20.00     0.086 C 
HETATM    2  C2  UNL     1     -34.850  16.375  -7.241  1.00 20.00     0.086 C 
HETATM    3  C5  UNL     1     -34.346  16.250  -4.561  1.00 20.00     0.078 C 
HETATM    4  C7  UNL     1     -33.036  16.071  -3.796  1.00 20.00     0.041 C 
HETATM    5  S9  UNL     1     -34.482  17.989  -5.125  1.00 20.00    -0.145 SA
HETATM    6  S10 UNL     1     -34.339  15.139  -6.021  1.00 20.00    -0.145 SA
ENDROOT
BRANCH   3   7
HETATM    7  C6  UNL     1     -35.551  15.917  -3.683  1.00 20.00     0.078 C 
HETATM    8  C8  UNL     1     -35.167  15.888  -2.203  1.00 20.00     0.041 C 
HETATM    9  S11 UNL     1     -36.207  14.276  -4.168  1.00 20.00    -0.145 SA
HETATM   10  C3  UNL     1     -37.946  14.763  -4.302  1.00 20.00     0.086 C 
HETATM   11  C4  UNL     1     -37.984  16.154  -4.895  1.00 20.00     0.086 C 
HETATM   12  S12 UNL     1     -36.849  17.187  -3.935  1.00 20.00    -0.145 SA
ENDBRANCH   3   7
TORSDOF 1
ENDMDL
MODEL 2
REMARK VINA RESULT:      -3.5      0.055      3.803
REMARK  1 active torsions:
REMARK  status: ('A' for Active; 'I' for Inactive)
REMARK    1  A    between atoms: C5_5  and  C6_6 
ROOT
HETATM    1  C1  UNL     1     -37.981  14.836  -4.295  1.00 20.00     0.086 C 
HETATM    2  C2  UNL     1     -37.986  16.228  -4.890  1.00 20.00     0.086 C 
HETATM    3  C5  UNL     1     -35.555  15.927  -3.685  1.00 20.00     0.078 C 
HETATM    4  C7  UNL     1     -35.167  15.888  -2.208  1.00 20.00     0.041 C 
HETATM    5  S9  UNL     1     -36.256  14.303  -4.168  1.00 20.00    -0.145 SA
HETATM    6  S10 UNL     1     -36.821  17.231  -3.935  1.00 20.00    -0.145 SA
ENDROOT
BRANCH   3   7
HETATM    7  C6  UNL     1     -34.344  16.227  -4.569  1.00 20.00     0.078 C 
HETATM    8  C8  UNL     1     -33.036  15.987  -3.816  1.00 20.00     0.041 C 
HETATM    9  S11 UNL     1     -34.418  17.977  -5.106  1.00 20.00    -0.145 SA
HETATM   10  C3  UNL     1     -34.130  17.680  -6.869  1.00 20.00     0.086 C 
HETATM   11  C4  UNL     1     -34.862  16.410  -7.241  1.00 20.00     0.086 C 
HETATM   12  S12 UNL     1     -34.390  15.138  -6.043  1.00 20.00    -0.145 SA
ENDBRANCH   3   7
TORSDOF 1
ENDMDL
MODEL 3
REMARK VINA RESULT:      -3.4      1.748      3.645
REMARK  1 active torsions:
REMARK  status: ('A' for Active; 'I' for Inactive)
REMARK    1  A    between atoms: C5_5  and  C6_6 
ROOT
HETATM    1  C1  UNL     1     -37.723  15.127  -4.477  1.00 20.00     0.086 C 
HETATM    2  C2  UNL     1     -36.679  14.034  -4.556  1.00 20.00     0.086 C 
HETATM    3  C5  UNL     1     -35.310  16.395  -4.622  1.00 20.00     0.078 C 
HETATM    4  C7  UNL     1     -35.185  17.449  -5.720  1.00 20.00     0.041 C 
HETATM    5  S9  UNL     1     -36.925  16.593  -3.776  1.00 20.00    -0.145 SA
HETATM    6  S10 UNL     1     -35.227  14.728  -5.384  1.00 20.00    -0.145 SA
ENDROOT
BRANCH   3   7
HETATM    7  C6  UNL     1     -34.191  16.532  -3.590  1.00 20.00     0.078 C 
HETATM    8  C8  UNL     1     -33.116  15.464  -3.793  1.00 20.00     0.041 C 
HETATM    9  S11 UNL     1     -34.904  16.358  -1.911  1.00 20.00    -0.145 SA
HETATM   10  C3  UNL     1     -34.129  17.825  -1.188  1.00 20.00     0.086 C 
HETATM   11  C4  UNL     1     -34.123  18.906  -2.247  1.00 20.00     0.086 C 
HETATM   12  S12 UNL     1     -33.422  18.188  -3.753  1.00 20.00    -0.145 SA
ENDBRANCH   3   7
TORSDOF 1
ENDMDL
MODEL 4
REMARK VINA RESULT:      -3.4      1.757      3.322
REMARK  1 active torsions:
REMARK  status: ('A' for Active; 'I' for Inactive)
REMARK    1  A    between atoms: C5_5  and  C6_6 
ROOT
HETATM    1  C1  UNL     1     -34.045  17.775  -1.183  1.00 20.00     0.086 C 
HETATM    2  C2  UNL     1     -34.023  18.861  -2.236  1.00 20.00     0.086 C 
HETATM    3  C5  UNL     1     -34.224  16.499  -3.589  1.00 20.00     0.078 C 
HETATM    4  C7  UNL     1     -33.201  15.389  -3.824  1.00 20.00     0.041 C 
HETATM    5  S9  UNL     1     -34.901  16.345  -1.892  1.00 20.00    -0.145 SA
HETATM    6  S10 UNL     1     -33.392  18.124  -3.764  1.00 20.00    -0.145 SA
ENDROOT
BRANCH   3   7
HETATM    7  C6  UNL     1     -35.375  16.414  -4.591  1.00 20.00     0.078 C 
HETATM    8  C8  UNL     1     -35.257  17.495  -5.665  1.00 20.00     0.041 C 
HETATM    9  S11 UNL     1     -36.961  16.624  -3.695  1.00 20.00    -0.145 SA
HETATM   10  C3  UNL     1     -37.810  15.194  -4.410  1.00 20.00     0.086 C 
HETATM   11  C4  UNL     1     -36.793  14.083  -4.548  1.00 20.00     0.086 C 
HETATM   12  S12 UNL     1     -35.350  14.768  -5.399  1.00 20.00    -0.145 SA
ENDBRANCH   3   7
TORSDOF 1
ENDMDL
MODEL 5
REMARK VINA RESULT:      -3.4      1.751      2.614
REMARK  1 active torsions:
REMARK  status: ('A' for Active; 'I' for Inactive)
REMARK    1  A    between atoms: C5_5  and  C6_6 
ROOT
HETATM    1  C1  UNL     1     -35.702  14.716  -6.561  1.00 20.00     0.086 C 
HETATM    2  C2  UNL     1     -36.574  14.514  -5.341  1.00 20.00     0.086 C 
HETATM    3  C5  UNL     1     -34.182  15.448  -4.415  1.00 20.00     0.078 C 
HETATM    4  C7  UNL     1     -32.815  14.774  -4.316  1.00 20.00     0.041 C 
HETATM    5  S9  UNL     1     -34.469  15.976  -6.148  1.00 20.00    -0.145 SA
HETATM    6  S10 UNL     1     -35.477  14.244  -3.927  1.00 20.00    -0.145 SA
ENDROOT
BRANCH   3   7
HETATM    7  C6  UNL     1     -34.264  16.672  -3.504  1.00 20.00     0.078 C 
HETATM    8  C8  UNL     1     -32.872  17.162  -3.106  1.00 20.00     0.041 C 
HETATM    9  S11 UNL     1     -35.201  16.227  -1.993  1.00 20.00    -0.145 SA
HETATM   10  C3  UNL     1     -36.328  17.644  -2.006  1.00 20.00     0.086 C 
HETATM   11  C4  UNL     1     -36.686  17.927  -3.448  1.00 20.00     0.086 C 
HETATM   12  S12 UNL     1     -35.140  18.021  -4.384  1.00 20.00    -0.145 SA
ENDBRANCH   3   7
TORSDOF 1
ENDMDL
MODEL 6
REMARK VINA RESULT:      -3.4      1.767      3.256
REMARK  1 active torsions:
REMARK  status: ('A' for Active; 'I' for Inactive)
REMARK    1  A    between atoms: C5_5  and  C6_6 
ROOT
HETATM    1  C1  UNL     1     -36.325  17.626  -1.941  1.00 20.00     0.086 C 
HETATM    2  C2  UNL     1     -36.756  17.844  -3.376  1.00 20.00     0.086 C 
HETATM    3  C5  UNL     1     -34.275  16.713  -3.494  1.00 20.00     0.078 C 
HETATM    4  C7  UNL     1     -32.896  17.285  -3.168  1.00 20.00     0.041 C 
HETATM    5  S9  UNL     1     -35.127  16.269  -1.932  1.00 20.00    -0.145 SA
HETATM    6  S10 UNL     1     -35.255  17.986  -4.378  1.00 20.00    -0.145 SA
ENDROOT
BRANCH   3   7
HETATM    7  C6  UNL     1     -34.164  15.465  -4.370  1.00 20.00     0.078 C 
HETATM    8  C8  UNL     1     -32.779  14.828  -4.256  1.00 20.00     0.041 C 
HETATM    9  S11 UNL     1     -34.470  15.934  -6.115  1.00 20.00    -0.145 SA
HETATM   10  C3  UNL     1     -35.673  14.634  -6.487  1.00 20.00     0.086 C 
HETATM   11  C4  UNL     1     -36.534  14.446  -5.258  1.00 20.00     0.086 C 
HETATM   12  S12 UNL     1     -35.426  14.244  -3.841  1.00 20.00    -0.145 SA
ENDBRANCH   3   7
TORSDOF 1
ENDMDL
MODEL 7
REMARK VINA RESULT:      -3.4      1.802      3.371
REMARK  1 active torsions:
REMARK  status: ('A' for Active; 'I' for Inactive)
REMARK    1  A    between atoms: C5_5  and  C6_6 
ROOT
HETATM    1  C1  UNL     1     -34.043  15.120  -6.771  1.00 20.00     0.086 C 
HETATM    2  C2  UNL     1     -34.583  16.527  -6.907  1.00 20.00     0.086 C 
HETATM    3  C5  UNL     1     -35.270  15.690  -4.401  1.00 20.00     0.078 C 
HETATM    4  C7  UNL     1     -36.309  14.672  -3.935  1.00 20.00     0.041 C 
HETATM    5  S9  UNL     1     -33.785  14.802  -5.008  1.00 20.00    -0.145 SA
HETATM    6  S10 UNL     1     -35.982  16.684  -5.769  1.00 20.00    -0.145 SA
ENDROOT
BRANCH   3   7
HETATM    7  C6  UNL     1     -34.859  16.624  -3.263  1.00 20.00     0.078 C 
HETATM    8  C8  UNL     1     -35.287  16.066  -1.906  1.00 20.00     0.041 C 
HETATM    9  S11 UNL     1     -35.648  18.258  -3.519  1.00 20.00    -0.145 SA
HETATM   10  C3  UNL     1     -34.160  19.262  -3.285  1.00 20.00     0.086 C 
HETATM   11  C4  UNL     1     -33.004  18.516  -3.914  1.00 20.00     0.086 C 
HETATM   12  S12 UNL     1     -33.037  16.823  -3.276  1.00 20.00    -0.145 SA
ENDBRANCH   3   7
TORSDOF 1
ENDMDL
MODEL 8
REMARK VINA RESULT:      -3.3      1.740      3.576
REMARK  1 active torsions:
REMARK  status: ('A' for Active; 'I' for Inactive)
REMARK    1  A    between atoms: C5_5  and  C6_6 
ROOT
HETATM    1  C1  UNL     1     -36.285  13.840  -4.904  1.00 20.00     0.086 C 
HETATM    2  C2  UNL     1     -35.092  13.710  -3.982  1.00 20.00     0.086 C 
HETATM    3  C5  UNL     1     -34.926  16.200  -5.089  1.00 20.00     0.078 C 
HETATM    4  C7  UNL     1     -34.567  16.644  -6.506  1.00 20.00     0.041 C 
HETATM    5  S9  UNL     1     -36.660  15.604  -5.065  1.00 20.00    -0.145 SA
HETATM    6  S10 UNL     1     -33.809  14.832  -4.592  1.00 20.00    -0.145 SA
ENDROOT
BRANCH   3   7
HETATM    7  C6  UNL     1     -34.784  17.351  -4.094  1.00 20.00     0.078 C 
HETATM    8  C8  UNL     1     -34.828  18.705  -4.803  1.00 20.00     0.041 C 
HETATM    9  S11 UNL     1     -33.186  17.184  -3.213  1.00 20.00    -0.145 SA
HETATM   10  C3  UNL     1     -33.835  17.391  -1.536  1.00 20.00     0.086 C 
HETATM   11  C4  UNL     1     -35.174  16.690  -1.476  1.00 20.00     0.086 C 
HETATM   12  S12 UNL     1     -36.156  17.272  -2.881  1.00 20.00    -0.145 SA
ENDBRANCH   3   7
TORSDOF 1
ENDMDL
MODEL 9
REMARK VINA RESULT:      -3.3      1.745      3.633
REMARK  1 active torsions:
REMARK  status: ('A' for Active; 'I' for Inactive)
REMARK    1  A    between atoms: C5_5  and  C6_6 
ROOT
HETATM    1  C1  UNL     1     -33.824  17.409  -1.535  1.00 20.00     0.086 C 
HETATM    2  C2  UNL     1     -35.152  16.688  -1.450  1.00 20.00     0.086 C 
HETATM    3  C5  UNL     1     -34.818  17.352  -4.076  1.00 20.00     0.078 C 
HETATM    4  C7  UNL     1     -34.894  18.703  -4.785  1.00 20.00     0.041 C 
HETATM    5  S9  UNL     1     -33.202  17.208  -3.223  1.00 20.00    -0.145 SA
HETATM    6  S10 UNL     1     -36.167  17.252  -2.837  1.00 20.00    -0.145 SA
ENDROOT
BRANCH   3   7
HETATM    7  C6  UNL     1     -34.960  16.197  -5.067  1.00 20.00     0.078 C 
HETATM    8  C8  UNL     1     -34.653  16.651  -6.494  1.00 20.00     0.041 C 
HETATM    9  S11 UNL     1     -36.675  15.556  -4.994  1.00 20.00    -0.145 SA
HETATM   10  C3  UNL     1     -36.251  13.803  -4.843  1.00 20.00     0.086 C 
HETATM   11  C4  UNL     1     -35.028  13.705  -3.958  1.00 20.00     0.086 C 
HETATM   12  S12 UNL     1     -33.793  14.860  -4.605  1.00 20.00    -0.145 SA
ENDBRANCH   3   7
TORSDOF 1
ENDMDL
