MODEL 1
REMARK VINA RESULT:      -5.0      0.000      0.000
REMARK  1 active torsions:
REMARK  status: ('A' for Active; 'I' for Inactive)
REMARK    1  A    between atoms: C2_2  and  C3_3 
ROOT
HETATM    1  C3  UNL     1     -34.918   5.188   4.659  1.00 20.00     0.423 C 
HETATM    2  F4  UNL     1     -35.237   4.830   5.931  1.00 20.00    -0.166 F 
HETATM    3  F5  UNL     1     -34.476   4.060   4.044  1.00 20.00    -0.166 F 
HETATM    4  F6  UNL     1     -36.080   5.530   4.045  1.00 20.00    -0.166 F 
ENDROOT
BRANCH   1   5
HETATM    5  C2  UNL     1     -33.921   6.298   4.625  1.00 20.00     0.085 C 
HETATM    6  C1  UNL     1     -33.655   7.092   5.669  1.00 20.00     0.036 C 
HETATM    7 BR7  UNL     1     -33.042   6.516   2.987  1.00 20.00    -0.047 Br
ENDBRANCH   1   5
TORSDOF 1
ENDMDL
MODEL 2
REMARK VINA RESULT:      -5.0      0.028      1.422
REMARK  1 active torsions:
REMARK  status: ('A' for Active; 'I' for Inactive)
REMARK    1  A    between atoms: C2_2  and  C3_3 
ROOT
HETATM    1  C3  UNL     1     -34.903   5.184   4.661  1.00 20.00     0.423 C 
HETATM    2  F4  UNL     1     -36.070   5.520   4.051  1.00 20.00    -0.166 F 
HETATM    3  F5  UNL     1     -35.229   4.795   5.921  1.00 20.00    -0.166 F 
HETATM    4  F6  UNL     1     -34.434   4.077   4.028  1.00 20.00    -0.166 F 
ENDROOT
BRANCH   1   5
HETATM    5  C2  UNL     1     -33.916   6.303   4.635  1.00 20.00     0.085 C 
HETATM    6  C1  UNL     1     -33.654   7.089   5.685  1.00 20.00     0.036 C 
HETATM    7 BR7  UNL     1     -33.043   6.543   2.997  1.00 20.00    -0.047 Br
ENDBRANCH   1   5
TORSDOF 1
ENDMDL
MODEL 3
REMARK VINA RESULT:      -4.6      1.328      1.519
REMARK  1 active torsions:
REMARK  status: ('A' for Active; 'I' for Inactive)
REMARK    1  A    between atoms: C2_2  and  C3_3 
ROOT
HETATM    1  C3  UNL     1     -34.898   5.095   4.498  1.00 20.00     0.423 C 
HETATM    2  F4  UNL     1     -35.123   4.745   5.791  1.00 20.00    -0.166 F 
HETATM    3  F5  UNL     1     -34.482   3.967   3.865  1.00 20.00    -0.166 F 
HETATM    4  F6  UNL     1     -36.105   5.412   3.961  1.00 20.00    -0.166 F 
ENDROOT
BRANCH   1   5
HETATM    5  C2  UNL     1     -33.923   6.219   4.384  1.00 20.00     0.085 C 
HETATM    6  C1  UNL     1     -33.290   6.544   3.250  1.00 20.00     0.036 C 
HETATM    7 BR7  UNL     1     -33.633   7.172   5.968  1.00 20.00    -0.047 Br
ENDBRANCH   1   5
TORSDOF 1
ENDMDL
MODEL 4
REMARK VINA RESULT:      -4.4      1.498      1.936
REMARK  1 active torsions:
REMARK  status: ('A' for Active; 'I' for Inactive)
REMARK    1  A    between atoms: C2_2  and  C3_3 
ROOT
HETATM    1  C3  UNL     1     -34.601   5.528   4.484  1.00 20.00     0.423 C 
HETATM    2  F4  UNL     1     -34.377   6.607   5.279  1.00 20.00    -0.166 F 
HETATM    3  F5  UNL     1     -34.488   4.435   5.284  1.00 20.00    -0.166 F 
HETATM    4  F6  UNL     1     -35.902   5.588   4.100  1.00 20.00    -0.166 F 
ENDROOT
BRANCH   1   5
HETATM    5  C2  UNL     1     -33.674   5.492   3.316  1.00 20.00     0.085 C 
HETATM    6  C1  UNL     1     -33.547   4.440   2.498  1.00 20.00     0.036 C 
HETATM    7 BR7  UNL     1     -32.674   7.052   3.057  1.00 20.00    -0.047 Br
ENDBRANCH   1   5
TORSDOF 1
ENDMDL
MODEL 5
REMARK VINA RESULT:      -4.3      2.711      3.180
REMARK  1 active torsions:
REMARK  status: ('A' for Active; 'I' for Inactive)
REMARK    1  A    between atoms: C2_2  and  C3_3 
ROOT
HETATM    1  C3  UNL     1     -32.900   6.720   3.206  1.00 20.00     0.423 C 
HETATM    2  F4  UNL     1     -31.700   7.278   3.519  1.00 20.00    -0.166 F 
HETATM    3  F5  UNL     1     -33.503   7.575   2.340  1.00 20.00    -0.166 F 
HETATM    4  F6  UNL     1     -32.635   5.587   2.505  1.00 20.00    -0.166 F 
ENDROOT
BRANCH   1   5
HETATM    5  C2  UNL     1     -33.722   6.446   4.421  1.00 20.00     0.085 C 
HETATM    6  C1  UNL     1     -33.616   7.135   5.563  1.00 20.00     0.036 C 
HETATM    7 BR7  UNL     1     -34.944   5.040   4.242  1.00 20.00    -0.047 Br
ENDBRANCH   1   5
TORSDOF 1
ENDMDL
MODEL 6
REMARK VINA RESULT:      -4.1      2.804      3.329
REMARK  1 active torsions:
REMARK  status: ('A' for Active; 'I' for Inactive)
REMARK    1  A    between atoms: C2_2  and  C3_3 
ROOT
HETATM    1  C3  UNL     1     -33.011   6.624   3.196  1.00 20.00     0.423 C 
HETATM    2  F4  UNL     1     -31.942   7.254   3.750  1.00 20.00    -0.166 F 
HETATM    3  F5  UNL     1     -33.562   7.506   2.321  1.00 20.00    -0.166 F 
HETATM    4  F6  UNL     1     -32.520   5.601   2.449  1.00 20.00    -0.166 F 
ENDROOT
BRANCH   1   5
HETATM    5  C2  UNL     1     -33.976   6.148   4.229  1.00 20.00     0.085 C 
HETATM    6  C1  UNL     1     -34.909   5.216   4.003  1.00 20.00     0.036 C 
HETATM    7 BR7  UNL     1     -33.794   6.957   5.907  1.00 20.00    -0.047 Br
ENDBRANCH   1   5
TORSDOF 1
ENDMDL
MODEL 7
REMARK VINA RESULT:      -4.0      1.725      2.495
REMARK  1 active torsions:
REMARK  status: ('A' for Active; 'I' for Inactive)
REMARK    1  A    between atoms: C2_2  and  C3_3 
ROOT
HETATM    1  C3  UNL     1     -34.143   6.512   5.782  1.00 20.00     0.423 C 
HETATM    2  F4  UNL     1     -34.376   7.851   5.752  1.00 20.00    -0.166 F 
HETATM    3  F5  UNL     1     -32.977   6.343   6.459  1.00 20.00    -0.166 F 
HETATM    4  F6  UNL     1     -35.117   5.962   6.553  1.00 20.00    -0.166 F 
ENDROOT
BRANCH   1   5
HETATM    5  C2  UNL     1     -34.113   5.919   4.413  1.00 20.00     0.085 C 
HETATM    6  C1  UNL     1     -34.854   4.869   4.040  1.00 20.00     0.036 C 
HETATM    7 BR7  UNL     1     -32.943   6.759   3.218  1.00 20.00    -0.047 Br
ENDBRANCH   1   5
TORSDOF 1
ENDMDL
MODEL 8
REMARK VINA RESULT:      -3.8      2.147      2.492
REMARK  1 active torsions:
REMARK  status: ('A' for Active; 'I' for Inactive)
REMARK    1  A    between atoms: C2_2  and  C3_3 
ROOT
HETATM    1  C3  UNL     1     -33.567   5.071   2.829  1.00 20.00     0.423 C 
HETATM    2  F4  UNL     1     -34.312   4.297   3.662  1.00 20.00    -0.166 F 
HETATM    3  F5  UNL     1     -32.497   4.317   2.464  1.00 20.00    -0.166 F 
HETATM    4  F6  UNL     1     -34.305   5.259   1.704  1.00 20.00    -0.166 F 
ENDROOT
BRANCH   1   5
HETATM    5  C2  UNL     1     -33.179   6.363   3.465  1.00 20.00     0.085 C 
HETATM    6  C1  UNL     1     -32.371   7.262   2.892  1.00 20.00     0.036 C 
HETATM    7 BR7  UNL     1     -33.915   6.658   5.161  1.00 20.00    -0.047 Br
ENDBRANCH   1   5
TORSDOF 1
ENDMDL
MODEL 9
REMARK VINA RESULT:      -3.8      3.050      3.565
REMARK  1 active torsions:
REMARK  status: ('A' for Active; 'I' for Inactive)
REMARK    1  A    between atoms: C2_2  and  C3_3 
ROOT
HETATM    1  C3  UNL     1     -32.936   6.828   3.371  1.00 20.00     0.423 C 
HETATM    2  F4  UNL     1     -33.579   7.769   2.631  1.00 20.00    -0.166 F 
HETATM    3  F5  UNL     1     -31.637   6.852   2.974  1.00 20.00    -0.166 F 
HETATM    4  F6  UNL     1     -32.952   7.264   4.658  1.00 20.00    -0.166 F 
ENDROOT
BRANCH   1   5
HETATM    5  C2  UNL     1     -33.563   5.481   3.231  1.00 20.00     0.085 C 
HETATM    6  C1  UNL     1     -33.207   4.589   2.299  1.00 20.00     0.036 C 
HETATM    7 BR7  UNL     1     -34.913   5.108   4.472  1.00 20.00    -0.047 Br
ENDBRANCH   1   5
TORSDOF 1
ENDMDL
