MODEL 1
REMARK VINA RESULT:      -4.5      0.000      0.000
REMARK  0 active torsions:
REMARK  status: ('A' for Active; 'I' for Inactive)
ROOT
HETATM    1  C1  UNL     1     -26.185  17.683  12.051  1.00 20.00     0.000 C 
HETATM    2  C2  UNL     1     -25.207  16.547  12.332  1.00 20.00     0.003 C 
HETATM    3  C3  UNL     1     -25.513  18.849  11.330  1.00 20.00     0.003 C 
HETATM    4  C4  UNL     1     -21.612  18.118   9.960  1.00 20.00     0.029 C 
HETATM    5  C5  UNL     1     -24.507  16.088  11.055  1.00 20.00     0.038 C 
HETATM    6  C6  UNL     1     -24.778  18.389  10.072  1.00 20.00     0.038 C 
HETATM    7  C7  UNL     1     -22.528  17.697  11.083  1.00 20.00     0.040 C 
HETATM    8  C8  UNL     1     -21.944  17.101   8.892  1.00 20.00     0.168 C 
HETATM    9  C9  UNL     1     -23.788  17.239  10.339  1.00 20.00     0.061 C 
HETATM   10  O10 UNL     1     -23.326  16.758   9.056  1.00 20.00    -0.380 OA
ENDROOT
TORSDOF 0
ENDMDL
MODEL 2
REMARK VINA RESULT:      -4.4     17.702     18.540
REMARK  0 active torsions:
REMARK  status: ('A' for Active; 'I' for Inactive)
ROOT
HETATM    1  C1  UNL     1     -34.829  16.186  -1.858  1.00 20.00     0.000 C 
HETATM    2  C2  UNL     1     -33.528  16.656  -2.501  1.00 20.00     0.003 C 
HETATM    3  C3  UNL     1     -35.942  16.008  -2.887  1.00 20.00     0.003 C 
HETATM    4  C4  UNL     1     -34.747  16.272  -6.904  1.00 20.00     0.029 C 
HETATM    5  C5  UNL     1     -33.101  15.726  -3.634  1.00 20.00     0.038 C 
HETATM    6  C6  UNL     1     -35.507  15.109  -4.043  1.00 20.00     0.038 C 
HETATM    7  C7  UNL     1     -34.362  16.831  -5.556  1.00 20.00     0.040 C 
HETATM    8  C8  UNL     1     -33.915  15.013  -6.966  1.00 20.00     0.168 C 
HETATM    9  C9  UNL     1     -34.192  15.569  -4.702  1.00 20.00     0.061 C 
HETATM   10  O10 UNL     1     -33.782  14.533  -5.622  1.00 20.00    -0.380 OA
ENDROOT
TORSDOF 0
ENDMDL
MODEL 3
REMARK VINA RESULT:      -4.2     16.352     17.282
REMARK  0 active torsions:
REMARK  status: ('A' for Active; 'I' for Inactive)
ROOT
HETATM    1  C1  UNL     1     -34.946  14.134  -3.960  1.00 20.00     0.000 C 
HETATM    2  C2  UNL     1     -35.756  15.215  -3.251  1.00 20.00     0.003 C 
HETATM    3  C3  UNL     1     -33.713  14.709  -4.654  1.00 20.00     0.003 C 
HETATM    4  C4  UNL     1     -32.847  18.720  -3.766  1.00 20.00     0.029 C 
HETATM    5  C5  UNL     1     -34.888  16.013  -2.282  1.00 20.00     0.038 C 
HETATM    6  C6  UNL     1     -32.861  15.541  -3.698  1.00 20.00     0.038 C 
HETATM    7  C7  UNL     1     -34.042  17.807  -3.885  1.00 20.00     0.040 C 
HETATM    8  C8  UNL     1     -32.466  18.544  -2.314  1.00 20.00     0.168 C 
HETATM    9  C9  UNL     1     -33.666  16.636  -2.970  1.00 20.00     0.061 C 
HETATM   10  O10 UNL     1     -32.809  17.201  -1.952  1.00 20.00    -0.380 OA
ENDROOT
TORSDOF 0
ENDMDL
MODEL 4
REMARK VINA RESULT:      -4.2     19.024     20.050
REMARK  0 active torsions:
REMARK  status: ('A' for Active; 'I' for Inactive)
ROOT
HETATM    1  C1  UNL     1     -33.561  14.783  -4.892  1.00 20.00     0.000 C 
HETATM    2  C2  UNL     1     -34.455  14.990  -6.111  1.00 20.00     0.003 C 
HETATM    3  C3  UNL     1     -34.245  15.224  -3.601  1.00 20.00     0.003 C 
HETATM    4  C4  UNL     1     -38.325  16.155  -3.946  1.00 20.00     0.029 C 
HETATM    5  C5  UNL     1     -35.807  14.304  -5.929  1.00 20.00     0.038 C 
HETATM    6  C6  UNL     1     -35.615  14.571  -3.434  1.00 20.00     0.038 C 
HETATM    7  C7  UNL     1     -37.066  16.199  -4.778  1.00 20.00     0.040 C 
HETATM    8  C8  UNL     1     -38.841  14.765  -4.239  1.00 20.00     0.168 C 
HETATM    9  C9  UNL     1     -36.531  14.768  -4.658  1.00 20.00     0.061 C 
HETATM   10  O10 UNL     1     -37.696  13.934  -4.468  1.00 20.00    -0.380 OA
ENDROOT
TORSDOF 0
ENDMDL
MODEL 5
REMARK VINA RESULT:      -4.2     17.133     18.110
REMARK  0 active torsions:
REMARK  status: ('A' for Active; 'I' for Inactive)
ROOT
HETATM    1  C1  UNL     1     -33.332  17.382  -1.934  1.00 20.00     0.000 C 
HETATM    2  C2  UNL     1     -32.895  17.035  -3.354  1.00 20.00     0.003 C 
HETATM    3  C3  UNL     1     -34.828  17.155  -1.727  1.00 20.00     0.003 C 
HETATM    4  C4  UNL     1     -36.800  15.157  -4.849  1.00 20.00     0.029 C 
HETATM    5  C5  UNL     1     -33.303  15.612  -3.728  1.00 20.00     0.038 C 
HETATM    6  C6  UNL     1     -35.249  15.745  -2.136  1.00 20.00     0.038 C 
HETATM    7  C7  UNL     1     -35.633  16.092  -4.646  1.00 20.00     0.040 C 
HETATM    8  C8  UNL     1     -36.146  13.805  -4.690  1.00 20.00     0.168 C 
HETATM    9  C9  UNL     1     -34.811  15.377  -3.568  1.00 20.00     0.061 C 
HETATM   10  O10 UNL     1     -35.073  13.968  -3.753  1.00 20.00    -0.380 OA
ENDROOT
TORSDOF 0
ENDMDL
MODEL 6
REMARK VINA RESULT:      -4.2      1.157      2.135
REMARK  0 active torsions:
REMARK  status: ('A' for Active; 'I' for Inactive)
ROOT
HETATM    1  C1  UNL     1     -25.955  16.922  12.332  1.00 20.00     0.000 C 
HETATM    2  C2  UNL     1     -25.877  18.199  11.501  1.00 20.00     0.003 C 
HETATM    3  C3  UNL     1     -25.019  15.839  11.803  1.00 20.00     0.003 C 
HETATM    4  C4  UNL     1     -22.326  17.077   8.828  1.00 20.00     0.029 C 
HETATM    5  C5  UNL     1     -24.441  18.704  11.392  1.00 20.00     0.038 C 
HETATM    6  C6  UNL     1     -23.587  16.351  11.655  1.00 20.00     0.038 C 
HETATM    7  C7  UNL     1     -23.714  17.403   9.323  1.00 20.00     0.040 C 
HETATM    8  C8  UNL     1     -21.472  17.991   9.675  1.00 20.00     0.168 C 
HETATM    9  C9  UNL     1     -23.491  17.643  10.820  1.00 20.00     0.061 C 
HETATM   10  O10 UNL     1     -22.137  18.135  10.936  1.00 20.00    -0.380 OA
ENDROOT
TORSDOF 0
ENDMDL
MODEL 7
REMARK VINA RESULT:      -4.1     17.222     18.101
REMARK  0 active torsions:
REMARK  status: ('A' for Active; 'I' for Inactive)
ROOT
HETATM    1  C1  UNL     1     -36.256  14.409  -5.326  1.00 20.00     0.000 C 
HETATM    2  C2  UNL     1     -35.484  13.674  -4.235  1.00 20.00     0.003 C 
HETATM    3  C3  UNL     1     -36.454  15.884  -4.990  1.00 20.00     0.003 C 
HETATM    4  C4  UNL     1     -34.305  17.283  -1.664  1.00 20.00     0.029 C 
HETATM    5  C5  UNL     1     -34.156  14.364  -3.935  1.00 20.00     0.038 C 
HETATM    6  C6  UNL     1     -35.132  16.570  -4.651  1.00 20.00     0.038 C 
HETATM    7  C7  UNL     1     -34.951  16.011  -2.158  1.00 20.00     0.040 C 
HETATM    8  C8  UNL     1     -32.914  17.167  -2.241  1.00 20.00     0.168 C 
HETATM    9  C9  UNL     1     -34.337  15.839  -3.552  1.00 20.00     0.061 C 
HETATM   10  O10 UNL     1     -33.031  16.453  -3.478  1.00 20.00    -0.380 OA
ENDROOT
TORSDOF 0
ENDMDL
MODEL 8
REMARK VINA RESULT:      -4.0     18.541     19.309
REMARK  0 active torsions:
REMARK  status: ('A' for Active; 'I' for Inactive)
ROOT
HETATM    1  C1  UNL     1     -38.103  15.833  -5.118  1.00 20.00     0.000 C 
HETATM    2  C2  UNL     1     -37.757  14.629  -4.248  1.00 20.00     0.003 C 
HETATM    3  C3  UNL     1     -36.968  16.854  -5.156  1.00 20.00     0.003 C 
HETATM    4  C4  UNL     1     -33.351  15.598  -3.433  1.00 20.00     0.029 C 
HETATM    5  C5  UNL     1     -36.441  13.990  -4.682  1.00 20.00     0.038 C 
HETATM    6  C6  UNL     1     -35.640  16.212  -5.553  1.00 20.00     0.038 C 
HETATM    7  C7  UNL     1     -34.835  15.377  -3.268  1.00 20.00     0.040 C 
HETATM    8  C8  UNL     1     -32.989  14.533  -4.441  1.00 20.00     0.168 C 
HETATM    9  C9  UNL     1     -35.278  14.991  -4.684  1.00 20.00     0.061 C 
HETATM   10  O10 UNL     1     -34.130  14.354  -5.289  1.00 20.00    -0.380 OA
ENDROOT
TORSDOF 0
ENDMDL
MODEL 9
REMARK VINA RESULT:      -4.0     23.601     24.508
REMARK  0 active torsions:
REMARK  status: ('A' for Active; 'I' for Inactive)
ROOT
HETATM    1  C1  UNL     1     -41.933   8.225   0.707  1.00 20.00     0.000 C 
HETATM    2  C2  UNL     1     -41.807   8.368  -0.807  1.00 20.00     0.003 C 
HETATM    3  C3  UNL     1     -42.677   6.951   1.099  1.00 20.00     0.003 C 
HETATM    4  C4  UNL     1     -43.417   4.255  -2.034  1.00 20.00     0.029 C 
HETATM    5  C5  UNL     1     -41.167   7.131  -1.430  1.00 20.00     0.038 C 
HETATM    6  C6  UNL     1     -42.064   5.713   0.447  1.00 20.00     0.038 C 
HETATM    7  C7  UNL     1     -43.271   5.741  -1.813  1.00 20.00     0.040 C 
HETATM    8  C8  UNL     1     -41.990   3.840  -2.305  1.00 20.00     0.168 C 
HETATM    9  C9  UNL     1     -41.927   5.843  -1.083  1.00 20.00     0.061 C 
HETATM   10  O10 UNL     1     -41.148   4.717  -1.546  1.00 20.00    -0.380 OA
ENDROOT
TORSDOF 0
ENDMDL
