MODEL 1
REMARK VINA RESULT:      -5.1      0.000      0.000
REMARK  0 active torsions:
REMARK  status: ('A' for Active; 'I' for Inactive)
ROOT
HETATM    1  C1  UNL     1     -24.492  18.897   9.219  1.00 20.00     0.053 A 
HETATM    2  C2  UNL     1     -24.557  18.348  10.433  1.00 20.00    -0.072 A 
HETATM    3  C3  UNL     1     -23.484  18.116   8.489  1.00 20.00     0.150 A 
HETATM    4  C4  UNL     1     -25.485  18.723  11.542  1.00 20.00     0.034 C 
HETATM    5  C5  UNL     1     -22.924  16.996   9.322  1.00 20.00     0.092 A 
HETATM    6  C6  UNL     1     -26.244  17.485  12.030  1.00 20.00     0.004 C 
HETATM    7  C7  UNL     1     -25.309  16.309  12.331  1.00 20.00     0.001 C 
HETATM    8  C8  UNL     1     -24.422  15.966  11.128  1.00 20.00     0.009 C 
HETATM    9  C9  UNL     1     -23.627  17.191  10.666  1.00 20.00     0.022 A 
HETATM   10  O10 UNL     1     -23.160  18.358   7.337  1.00 20.00    -0.293 OA
ENDROOT
TORSDOF 0
ENDMDL
MODEL 2
REMARK VINA RESULT:      -5.0     15.296     15.940
REMARK  0 active torsions:
REMARK  status: ('A' for Active; 'I' for Inactive)
ROOT
HETATM    1  C1  UNL     1     -32.713   7.705   3.483  1.00 20.00     0.053 A 
HETATM    2  C2  UNL     1     -33.089   6.721   4.301  1.00 20.00    -0.072 A 
HETATM    3  C3  UNL     1     -32.701   7.113   2.138  1.00 20.00     0.150 A 
HETATM    4  C4  UNL     1     -33.332   6.817   5.772  1.00 20.00     0.034 C 
HETATM    5  C5  UNL     1     -33.131   5.671   2.150  1.00 20.00     0.092 A 
HETATM    6  C6  UNL     1     -34.730   6.288   6.107  1.00 20.00     0.004 C 
HETATM    7  C7  UNL     1     -34.996   4.910   5.490  1.00 20.00     0.001 C 
HETATM    8  C8  UNL     1     -34.761   4.911   3.975  1.00 20.00     0.009 C 
HETATM    9  C9  UNL     1     -33.349   5.397   3.638  1.00 20.00     0.022 A 
HETATM   10  O10 UNL     1     -32.384   7.738   1.137  1.00 20.00    -0.293 OA
ENDROOT
TORSDOF 0
ENDMDL
MODEL 3
REMARK VINA RESULT:      -4.9     17.437     18.323
REMARK  0 active torsions:
REMARK  status: ('A' for Active; 'I' for Inactive)
ROOT
HETATM    1  C1  UNL     1     -34.294  14.941  -5.842  1.00 20.00     0.053 A 
HETATM    2  C2  UNL     1     -34.158  15.038  -4.519  1.00 20.00    -0.072 A 
HETATM    3  C3  UNL     1     -35.688  14.535  -6.064  1.00 20.00     0.150 A 
HETATM    4  C4  UNL     1     -32.949  15.492  -3.769  1.00 20.00     0.034 C 
HETATM    5  C5  UNL     1     -36.452  14.407  -4.775  1.00 20.00     0.092 A 
HETATM    6  C6  UNL     1     -33.321  16.632  -2.815  1.00 20.00     0.004 C 
HETATM    7  C7  UNL     1     -34.538  16.292  -1.947  1.00 20.00     0.001 C 
HETATM    8  C8  UNL     1     -35.744  15.874  -2.798  1.00 20.00     0.009 C 
HETATM    9  C9  UNL     1     -35.387  14.706  -3.720  1.00 20.00     0.022 A 
HETATM   10  O10 UNL     1     -36.156  14.339  -7.175  1.00 20.00    -0.293 OA
ENDROOT
TORSDOF 0
ENDMDL
MODEL 4
REMARK VINA RESULT:      -4.8     17.028     18.013
REMARK  0 active torsions:
REMARK  status: ('A' for Active; 'I' for Inactive)
ROOT
HETATM    1  C1  UNL     1     -34.302  14.143  -3.810  1.00 20.00     0.053 A 
HETATM    2  C2  UNL     1     -34.407  15.383  -3.331  1.00 20.00    -0.072 A 
HETATM    3  C3  UNL     1     -35.666  13.757  -4.198  1.00 20.00     0.150 A 
HETATM    4  C4  UNL     1     -33.294  16.266  -2.869  1.00 20.00     0.034 C 
HETATM    5  C5  UNL     1     -36.657  14.862  -3.957  1.00 20.00     0.092 A 
HETATM    6  C6  UNL     1     -33.353  17.611  -3.602  1.00 20.00     0.004 C 
HETATM    7  C7  UNL     1     -34.750  18.240  -3.552  1.00 20.00     0.001 C 
HETATM    8  C8  UNL     1     -35.824  17.282  -4.080  1.00 20.00     0.009 C 
HETATM    9  C9  UNL     1     -35.797  15.954  -3.320  1.00 20.00     0.022 A 
HETATM   10  O10 UNL     1     -35.941  12.664  -4.668  1.00 20.00    -0.293 OA
ENDROOT
TORSDOF 0
ENDMDL
MODEL 5
REMARK VINA RESULT:      -4.8     15.401     16.122
REMARK  0 active torsions:
REMARK  status: ('A' for Active; 'I' for Inactive)
ROOT
HETATM    1  C1  UNL     1     -33.234   5.533   2.483  1.00 20.00     0.053 A 
HETATM    2  C2  UNL     1     -34.022   5.678   3.549  1.00 20.00    -0.072 A 
HETATM    3  C3  UNL     1     -32.557   6.827   2.317  1.00 20.00     0.150 A 
HETATM    4  C4  UNL     1     -34.873   4.631   4.189  1.00 20.00     0.034 C 
HETATM    5  C5  UNL     1     -32.950   7.812   3.384  1.00 20.00     0.092 A 
HETATM    6  C6  UNL     1     -34.548   4.532   5.683  1.00 20.00     0.004 C 
HETATM    7  C7  UNL     1     -34.565   5.900   6.375  1.00 20.00     0.001 C 
HETATM    8  C8  UNL     1     -33.636   6.901   5.678  1.00 20.00     0.009 C 
HETATM    9  C9  UNL     1     -33.988   7.035   4.194  1.00 20.00     0.022 A 
HETATM   10  O10 UNL     1     -31.763   7.053   1.417  1.00 20.00    -0.293 OA
ENDROOT
TORSDOF 0
ENDMDL
MODEL 6
REMARK VINA RESULT:      -4.7     15.897     16.647
REMARK  0 active torsions:
REMARK  status: ('A' for Active; 'I' for Inactive)
ROOT
HETATM    1  C1  UNL     1     -34.100   4.135   3.377  1.00 20.00     0.053 A 
HETATM    2  C2  UNL     1     -34.421   5.188   4.130  1.00 20.00    -0.072 A 
HETATM    3  C3  UNL     1     -33.211   4.657   2.330  1.00 20.00     0.150 A 
HETATM    4  C4  UNL     1     -35.245   5.187   5.375  1.00 20.00     0.034 C 
HETATM    5  C5  UNL     1     -32.959   6.132   2.486  1.00 20.00     0.092 A 
HETATM    6  C6  UNL     1     -34.475   5.863   6.514  1.00 20.00     0.004 C 
HETATM    7  C7  UNL     1     -33.910   7.229   6.106  1.00 20.00     0.001 C 
HETATM    8  C8  UNL     1     -33.046   7.132   4.843  1.00 20.00     0.009 C 
HETATM    9  C9  UNL     1     -33.827   6.497   3.690  1.00 20.00     0.022 A 
HETATM   10  O10 UNL     1     -32.735   3.957   1.450  1.00 20.00    -0.293 OA
ENDROOT
TORSDOF 0
ENDMDL
MODEL 7
REMARK VINA RESULT:      -4.6     15.694     16.608
REMARK  0 active torsions:
REMARK  status: ('A' for Active; 'I' for Inactive)
ROOT
HETATM    1  C1  UNL     1     -33.008  15.837  -3.592  1.00 20.00     0.053 A 
HETATM    2  C2  UNL     1     -33.568  16.450  -2.547  1.00 20.00    -0.072 A 
HETATM    3  C3  UNL     1     -34.011  14.872  -4.063  1.00 20.00     0.150 A 
HETATM    4  C4  UNL     1     -32.994  17.574  -1.750  1.00 20.00     0.034 C 
HETATM    5  C5  UNL     1     -35.278  14.932  -3.256  1.00 20.00     0.092 A 
HETATM    6  C6  UNL     1     -33.987  18.741  -1.700  1.00 20.00     0.004 C 
HETATM    7  C7  UNL     1     -35.392  18.293  -1.280  1.00 20.00     0.001 C 
HETATM    8  C8  UNL     1     -35.919  17.165  -2.175  1.00 20.00     0.009 C 
HETATM    9  C9  UNL     1     -34.951  15.979  -2.191  1.00 20.00     0.022 A 
HETATM   10  O10 UNL     1     -33.821  14.123  -5.010  1.00 20.00    -0.293 OA
ENDROOT
TORSDOF 0
ENDMDL
MODEL 8
REMARK VINA RESULT:      -4.6     16.628     17.483
REMARK  0 active torsions:
REMARK  status: ('A' for Active; 'I' for Inactive)
ROOT
HETATM    1  C1  UNL     1     -36.244  14.782  -3.417  1.00 20.00     0.053 A 
HETATM    2  C2  UNL     1     -35.479  15.864  -3.263  1.00 20.00    -0.072 A 
HETATM    3  C3  UNL     1     -35.501  13.906  -4.333  1.00 20.00     0.150 A 
HETATM    4  C4  UNL     1     -35.742  17.032  -2.368  1.00 20.00     0.034 C 
HETATM    5  C5  UNL     1     -34.178  14.498  -4.735  1.00 20.00     0.092 A 
HETATM    6  C6  UNL     1     -34.537  17.271  -1.452  1.00 20.00     0.004 C 
HETATM    7  C7  UNL     1     -33.217  17.328  -2.229  1.00 20.00     0.001 C 
HETATM    8  C8  UNL     1     -33.009  16.075  -3.089  1.00 20.00     0.009 C 
HETATM    9  C9  UNL     1     -34.191  15.858  -4.037  1.00 20.00     0.022 A 
HETATM   10  O10 UNL     1     -35.922  12.822  -4.707  1.00 20.00    -0.293 OA
ENDROOT
TORSDOF 0
ENDMDL
MODEL 9
REMARK VINA RESULT:      -4.5     15.295     16.159
REMARK  0 active torsions:
REMARK  status: ('A' for Active; 'I' for Inactive)
ROOT
HETATM    1  C1  UNL     1     -35.171  15.207  -2.715  1.00 20.00     0.053 A 
HETATM    2  C2  UNL     1     -34.889  16.432  -2.270  1.00 20.00    -0.072 A 
HETATM    3  C3  UNL     1     -34.108  14.886  -3.677  1.00 20.00     0.150 A 
HETATM    4  C4  UNL     1     -35.620  17.198  -1.216  1.00 20.00     0.034 C 
HETATM    5  C5  UNL     1     -33.097  15.993  -3.795  1.00 20.00     0.092 A 
HETATM    6  C6  UNL     1     -34.642  17.657  -0.129  1.00 20.00     0.004 C 
HETATM    7  C7  UNL     1     -33.411  18.360  -0.711  1.00 20.00     0.001 C 
HETATM    8  C8  UNL     1     -32.700  17.490  -1.754  1.00 20.00     0.009 C 
HETATM    9  C9  UNL     1     -33.663  17.067  -2.866  1.00 20.00     0.022 A 
HETATM   10  O10 UNL     1     -34.062  13.832  -4.293  1.00 20.00    -0.293 OA
ENDROOT
TORSDOF 0
ENDMDL
