MODEL 1
REMARK VINA RESULT:      -4.6      0.000      0.000
REMARK  4 active torsions:
REMARK  status: ('A' for Active; 'I' for Inactive)
REMARK    1  A    between atoms: C1_1  and  C2_2 
REMARK    2  A    between atoms: C2_2  and  C3_3 
REMARK    3  A    between atoms: C3_3  and  C4_4 
REMARK    4  A    between atoms: C4_4  and  C5_5 
ROOT
HETATM    1  C2  UNL     1     -33.162   5.734   2.651  1.00 20.00     0.096 C 
ENDROOT
BRANCH   1   2
HETATM    2  C1  UNL     1     -32.429   7.066   2.658  1.00 20.00     0.218 C 
HETATM    3  O6  UNL     1     -31.782   7.467   3.620  1.00 20.00    -0.280 OA
HETATM    4 CL7  UNL     1     -32.593   7.897   1.136  1.00 20.00    -0.044 Cl
ENDBRANCH   1   2
BRANCH   1   5
HETATM    5  C3  UNL     1     -34.489   5.768   3.410  1.00 20.00     0.010 C 
BRANCH   5   6
HETATM    6  C4  UNL     1     -34.592   4.645   4.451  1.00 20.00     0.015 C 
BRANCH   6   7
HETATM    7  C5  UNL     1     -34.761   5.160   5.877  1.00 20.00     0.114 C 
HETATM    8 CL8  UNL     1     -34.012   6.757   6.101  1.00 20.00    -0.130 Cl
ENDBRANCH   6   7
ENDBRANCH   5   6
ENDBRANCH   1   5
TORSDOF 4
ENDMDL
MODEL 2
REMARK VINA RESULT:      -4.5      1.951      4.541
REMARK  4 active torsions:
REMARK  status: ('A' for Active; 'I' for Inactive)
REMARK    1  A    between atoms: C1_1  and  C2_2 
REMARK    2  A    between atoms: C2_2  and  C3_3 
REMARK    3  A    between atoms: C3_3  and  C4_4 
REMARK    4  A    between atoms: C4_4  and  C5_5 
ROOT
HETATM    1  C2  UNL     1     -34.165   6.192   3.734  1.00 20.00     0.096 C 
ENDROOT
BRANCH   1   2
HETATM    2  C1  UNL     1     -34.483   4.923   4.508  1.00 20.00     0.218 C 
HETATM    3  O6  UNL     1     -34.407   3.802   4.013  1.00 20.00    -0.280 OA
HETATM    4 CL7  UNL     1     -34.915   5.269   6.159  1.00 20.00    -0.044 Cl
ENDBRANCH   1   2
BRANCH   1   5
HETATM    5  C3  UNL     1     -33.001   6.031   2.755  1.00 20.00     0.010 C 
BRANCH   5   6
HETATM    6  C4  UNL     1     -32.331   7.370   2.423  1.00 20.00     0.015 C 
BRANCH   6   7
HETATM    7  C5  UNL     1     -32.492   7.777   0.961  1.00 20.00     0.114 C 
HETATM    8 CL8  UNL     1     -32.939   9.491   0.792  1.00 20.00    -0.130 Cl
ENDBRANCH   6   7
ENDBRANCH   5   6
ENDBRANCH   1   5
TORSDOF 4
ENDMDL
MODEL 3
REMARK VINA RESULT:      -4.4      1.329      1.329
REMARK  4 active torsions:
REMARK  status: ('A' for Active; 'I' for Inactive)
REMARK    1  A    between atoms: C1_1  and  C2_2 
REMARK    2  A    between atoms: C2_2  and  C3_3 
REMARK    3  A    between atoms: C3_3  and  C4_4 
REMARK    4  A    between atoms: C4_4  and  C5_5 
ROOT
HETATM    1  C2  UNL     1     -33.185   5.707   2.621  1.00 20.00     0.096 C 
ENDROOT
BRANCH   1   2
HETATM    2  C1  UNL     1     -32.527   7.058   2.388  1.00 20.00     0.218 C 
HETATM    3  O6  UNL     1     -32.597   7.660   1.321  1.00 20.00    -0.280 OA
HETATM    4 CL7  UNL     1     -31.722   7.635   3.821  1.00 20.00    -0.044 Cl
ENDBRANCH   1   2
BRANCH   1   5
HETATM    5  C3  UNL     1     -34.479   5.794   3.431  1.00 20.00     0.010 C 
BRANCH   5   6
HETATM    6  C4  UNL     1     -34.627   4.627   4.416  1.00 20.00     0.015 C 
BRANCH   6   7
HETATM    7  C5  UNL     1     -34.750   5.079   5.869  1.00 20.00     0.114 C 
HETATM    8 CL8  UNL     1     -34.116   6.723   6.111  1.00 20.00    -0.130 Cl
ENDBRANCH   6   7
ENDBRANCH   5   6
ENDBRANCH   1   5
TORSDOF 4
ENDMDL
MODEL 4
REMARK VINA RESULT:      -4.4      1.895      3.923
REMARK  4 active torsions:
REMARK  status: ('A' for Active; 'I' for Inactive)
REMARK    1  A    between atoms: C1_1  and  C2_2 
REMARK    2  A    between atoms: C2_2  and  C3_3 
REMARK    3  A    between atoms: C3_3  and  C4_4 
REMARK    4  A    between atoms: C4_4  and  C5_5 
ROOT
HETATM    1  C2  UNL     1     -34.929   5.584   4.166  1.00 20.00     0.096 C 
ENDROOT
BRANCH   1   2
HETATM    2  C1  UNL     1     -34.648   5.667   5.658  1.00 20.00     0.218 C 
HETATM    3  O6  UNL     1     -34.997   4.800   6.453  1.00 20.00    -0.280 OA
HETATM    4 CL7  UNL     1     -33.747   7.102   6.063  1.00 20.00    -0.044 Cl
ENDBRANCH   1   2
BRANCH   1   5
HETATM    5  C3  UNL     1     -33.995   4.626   3.425  1.00 20.00     0.010 C 
BRANCH   5   6
HETATM    6  C4  UNL     1     -33.175   5.337   2.341  1.00 20.00     0.015 C 
BRANCH   6   7
HETATM    7  C5  UNL     1     -32.666   6.708   2.774  1.00 20.00     0.114 C 
HETATM    8 CL8  UNL     1     -32.597   7.854   1.415  1.00 20.00    -0.130 Cl
ENDBRANCH   6   7
ENDBRANCH   5   6
ENDBRANCH   1   5
TORSDOF 4
ENDMDL
MODEL 5
REMARK VINA RESULT:      -4.2      2.294      4.406
REMARK  4 active torsions:
REMARK  status: ('A' for Active; 'I' for Inactive)
REMARK    1  A    between atoms: C1_1  and  C2_2 
REMARK    2  A    between atoms: C2_2  and  C3_3 
REMARK    3  A    between atoms: C3_3  and  C4_4 
REMARK    4  A    between atoms: C4_4  and  C5_5 
ROOT
HETATM    1  C2  UNL     1     -33.902   6.615   4.315  1.00 20.00     0.096 C 
ENDROOT
BRANCH   1   2
HETATM    2  C1  UNL     1     -34.502   5.400   5.004  1.00 20.00     0.218 C 
HETATM    3  O6  UNL     1     -35.062   5.458   6.094  1.00 20.00    -0.280 OA
HETATM    4 CL7  UNL     1     -34.328   3.962   4.035  1.00 20.00    -0.044 Cl
ENDBRANCH   1   2
BRANCH   1   5
HETATM    5  C3  UNL     1     -33.196   6.281   3.000  1.00 20.00     0.010 C 
BRANCH   5   6
HETATM    6  C4  UNL     1     -32.284   7.420   2.524  1.00 20.00     0.015 C 
BRANCH   6   7
HETATM    7  C5  UNL     1     -32.442   7.737   1.040  1.00 20.00     0.114 C 
HETATM    8 CL8  UNL     1     -32.964   9.416   0.770  1.00 20.00    -0.130 Cl
ENDBRANCH   6   7
ENDBRANCH   5   6
ENDBRANCH   1   5
TORSDOF 4
ENDMDL
MODEL 6
REMARK VINA RESULT:      -4.0      1.971      2.161
REMARK  4 active torsions:
REMARK  status: ('A' for Active; 'I' for Inactive)
REMARK    1  A    between atoms: C1_1  and  C2_2 
REMARK    2  A    between atoms: C2_2  and  C3_3 
REMARK    3  A    between atoms: C3_3  and  C4_4 
REMARK    4  A    between atoms: C4_4  and  C5_5 
ROOT
HETATM    1  C2  UNL     1     -32.544   7.206   3.908  1.00 20.00     0.096 C 
ENDROOT
BRANCH   1   2
HETATM    2  C1  UNL     1     -32.612   6.758   2.457  1.00 20.00     0.218 C 
HETATM    3  O6  UNL     1     -32.387   7.510   1.514  1.00 20.00    -0.280 OA
HETATM    4 CL7  UNL     1     -32.997   5.064   2.326  1.00 20.00    -0.044 Cl
ENDBRANCH   1   2
BRANCH   1   5
HETATM    5  C3  UNL     1     -33.908   7.232   4.600  1.00 20.00     0.010 C 
BRANCH   5   6
HETATM    6  C4  UNL     1     -33.873   6.560   5.979  1.00 20.00     0.015 C 
BRANCH   6   7
HETATM    7  C5  UNL     1     -34.707   5.284   6.047  1.00 20.00     0.114 C 
HETATM    8 CL8  UNL     1     -35.439   4.881   4.478  1.00 20.00    -0.130 Cl
ENDBRANCH   6   7
ENDBRANCH   5   6
ENDBRANCH   1   5
TORSDOF 4
ENDMDL
MODEL 7
REMARK VINA RESULT:      -3.8      1.656      1.949
REMARK  4 active torsions:
REMARK  status: ('A' for Active; 'I' for Inactive)
REMARK    1  A    between atoms: C1_1  and  C2_2 
REMARK    2  A    between atoms: C2_2  and  C3_3 
REMARK    3  A    between atoms: C3_3  and  C4_4 
REMARK    4  A    between atoms: C4_4  and  C5_5 
ROOT
HETATM    1  C2  UNL     1     -32.582   7.270   2.558  1.00 20.00     0.096 C 
ENDROOT
BRANCH   1   2
HETATM    2  C1  UNL     1     -32.408   8.004   1.238  1.00 20.00     0.218 C 
HETATM    3  O6  UNL     1     -31.697   7.586   0.330  1.00 20.00    -0.280 OA
HETATM    4 CL7  UNL     1     -33.369   9.456   1.180  1.00 20.00    -0.044 Cl
ENDBRANCH   1   2
BRANCH   1   5
HETATM    5  C3  UNL     1     -32.949   5.795   2.389  1.00 20.00     0.010 C 
BRANCH   5   6
HETATM    6  C4  UNL     1     -34.039   5.351   3.372  1.00 20.00     0.015 C 
BRANCH   6   7
HETATM    7  C5  UNL     1     -34.216   6.309   4.546  1.00 20.00     0.114 C 
HETATM    8 CL8  UNL     1     -34.665   5.456   6.041  1.00 20.00    -0.130 Cl
ENDBRANCH   6   7
ENDBRANCH   5   6
ENDBRANCH   1   5
TORSDOF 4
ENDMDL
MODEL 8
REMARK VINA RESULT:      -3.8     11.570     12.056
REMARK  4 active torsions:
REMARK  status: ('A' for Active; 'I' for Inactive)
REMARK    1  A    between atoms: C1_1  and  C2_2 
REMARK    2  A    between atoms: C2_2  and  C3_3 
REMARK    3  A    between atoms: C3_3  and  C4_4 
REMARK    4  A    between atoms: C4_4  and  C5_5 
ROOT
HETATM    1  C2  UNL     1     -34.411  14.489  -3.932  1.00 20.00     0.096 C 
ENDROOT
BRANCH   1   2
HETATM    2  C1  UNL     1     -35.732  13.806  -4.248  1.00 20.00     0.218 C 
HETATM    3  O6  UNL     1     -35.815  12.621  -4.555  1.00 20.00    -0.280 OA
HETATM    4 CL7  UNL     1     -37.077  14.900  -4.075  1.00 20.00    -0.044 Cl
ENDBRANCH   1   2
BRANCH   1   5
HETATM    5  C3  UNL     1     -34.526  15.565  -2.851  1.00 20.00     0.010 C 
BRANCH   5   6
HETATM    6  C4  UNL     1     -33.293  16.476  -2.805  1.00 20.00     0.015 C 
BRANCH   6   7
HETATM    7  C5  UNL     1     -33.427  17.619  -1.803  1.00 20.00     0.114 C 
HETATM    8 CL8  UNL     1     -31.853  18.107  -1.134  1.00 20.00    -0.130 Cl
ENDBRANCH   6   7
ENDBRANCH   5   6
ENDBRANCH   1   5
TORSDOF 4
ENDMDL
MODEL 9
REMARK VINA RESULT:      -3.7     11.455     11.998
REMARK  4 active torsions:
REMARK  status: ('A' for Active; 'I' for Inactive)
REMARK    1  A    between atoms: C1_1  and  C2_2 
REMARK    2  A    between atoms: C2_2  and  C3_3 
REMARK    3  A    between atoms: C3_3  and  C4_4 
REMARK    4  A    between atoms: C4_4  and  C5_5 
ROOT
HETATM    1  C2  UNL     1     -34.884  14.715  -4.994  1.00 20.00     0.096 C 
ENDROOT
BRANCH   1   2
HETATM    2  C1  UNL     1     -35.985  13.758  -4.567  1.00 20.00     0.218 C 
HETATM    3  O6  UNL     1     -35.820  12.545  -4.484  1.00 20.00    -0.280 OA
HETATM    4 CL7  UNL     1     -37.457  14.605  -4.179  1.00 20.00    -0.044 Cl
ENDBRANCH   1   2
BRANCH   1   5
HETATM    5  C3  UNL     1     -33.602  14.573  -4.171  1.00 20.00     0.010 C 
BRANCH   5   6
HETATM    6  C4  UNL     1     -33.155  15.906  -3.557  1.00 20.00     0.015 C 
BRANCH   6   7
HETATM    7  C5  UNL     1     -34.321  16.789  -3.122  1.00 20.00     0.114 C 
HETATM    8 CL8  UNL     1     -35.133  16.155  -1.672  1.00 20.00    -0.130 Cl
ENDBRANCH   6   7
ENDBRANCH   5   6
ENDBRANCH   1   5
TORSDOF 4
ENDMDL
