MODEL 1
REMARK VINA RESULT:      -4.9      0.000      0.000
REMARK  0 active torsions:
REMARK  status: ('A' for Active; 'I' for Inactive)
ROOT
HETATM    1  C1  UNL     1     -36.474  14.236  -4.680  1.00 20.00     0.223 A 
HETATM    2  C2  UNL     1     -34.825  15.310  -3.033  1.00 20.00     0.027 A 
HETATM    3  C3  UNL     1     -35.286  14.110  -3.806  1.00 20.00     0.089 A 
HETATM    4  C4  UNL     1     -34.200  14.994  -4.382  1.00 20.00    -0.006 A 
HETATM    5  C5  UNL     1     -34.772  15.606  -5.673  1.00 20.00     0.034 A 
HETATM    6  C6  UNL     1     -32.768  14.540  -4.368  1.00 20.00     0.018 C 
HETATM    7  C7  UNL     1     -34.073  15.097  -6.941  1.00 20.00     0.039 C 
HETATM    8  C8  UNL     1     -34.735  17.134  -5.637  1.00 20.00     0.039 C 
HETATM    9  N9  UNL     1     -36.156  15.120  -5.693  1.00 20.00    -0.351 N 
HETATM   10  O10 UNL     1     -37.523  13.646  -4.480  1.00 20.00    -0.273 OA
HETATM   11  H23 UNL     1     -36.816  15.377  -6.421  1.00 20.00     0.163 HD
ENDROOT
TORSDOF 0
ENDMDL
MODEL 2
REMARK VINA RESULT:      -4.8     18.143     19.346
REMARK  0 active torsions:
REMARK  status: ('A' for Active; 'I' for Inactive)
ROOT
HETATM    1  C1  UNL     1     -24.273  18.644   8.978  1.00 20.00     0.223 A 
HETATM    2  C2  UNL     1     -22.308  17.036   9.350  1.00 20.00     0.027 A 
HETATM    3  C3  UNL     1     -22.857  18.431   9.354  1.00 20.00     0.089 A 
HETATM    4  C4  UNL     1     -22.840  17.634  10.642  1.00 20.00    -0.006 A 
HETATM    5  C5  UNL     1     -24.311  17.433  11.051  1.00 20.00     0.034 A 
HETATM    6  C6  UNL     1     -21.827  17.940  11.708  1.00 20.00     0.018 C 
HETATM    7  C7  UNL     1     -24.687  18.190  12.332  1.00 20.00     0.039 C 
HETATM    8  C8  UNL     1     -24.656  15.951  11.202  1.00 20.00     0.039 C 
HETATM    9  N9  UNL     1     -25.056  18.028   9.937  1.00 20.00    -0.351 N 
HETATM   10  O10 UNL     1     -24.621  19.252   7.980  1.00 20.00    -0.273 OA
HETATM   11  H23 UNL     1     -26.071  18.030   9.896  1.00 20.00     0.163 HD
ENDROOT
TORSDOF 0
ENDMDL
MODEL 3
REMARK VINA RESULT:      -4.7      1.329      2.221
REMARK  0 active torsions:
REMARK  status: ('A' for Active; 'I' for Inactive)
ROOT
HETATM    1  C1  UNL     1     -37.361  14.431  -4.251  1.00 20.00     0.223 A 
HETATM    2  C2  UNL     1     -35.070  13.301  -4.005  1.00 20.00     0.027 A 
HETATM    3  C3  UNL     1     -36.146  13.870  -4.882  1.00 20.00     0.089 A 
HETATM    4  C4  UNL     1     -34.976  14.743  -4.478  1.00 20.00    -0.006 A 
HETATM    5  C5  UNL     1     -35.557  15.886  -3.627  1.00 20.00     0.034 A 
HETATM    6  C6  UNL     1     -33.889  15.055  -5.466  1.00 20.00     0.018 C 
HETATM    7  C7  UNL     1     -35.455  17.256  -4.311  1.00 20.00     0.039 C 
HETATM    8  C8  UNL     1     -34.907  15.945  -2.244  1.00 20.00     0.039 C 
HETATM    9  N9  UNL     1     -36.977  15.539  -3.519  1.00 20.00    -0.351 N 
HETATM   10  O10 UNL     1     -38.473  13.947  -4.382  1.00 20.00    -0.273 OA
HETATM   11  H23 UNL     1     -37.638  16.095  -2.985  1.00 20.00     0.163 HD
ENDROOT
TORSDOF 0
ENDMDL
MODEL 4
REMARK VINA RESULT:      -4.5      1.542      2.695
REMARK  0 active torsions:
REMARK  status: ('A' for Active; 'I' for Inactive)
ROOT
HETATM    1  C1  UNL     1     -35.640  13.937  -4.265  1.00 20.00     0.223 A 
HETATM    2  C2  UNL     1     -33.342  15.064  -4.077  1.00 20.00     0.027 A 
HETATM    3  C3  UNL     1     -34.548  14.712  -4.896  1.00 20.00     0.089 A 
HETATM    4  C4  UNL     1     -34.484  16.059  -4.207  1.00 20.00    -0.006 A 
HETATM    5  C5  UNL     1     -35.628  16.077  -3.177  1.00 20.00     0.034 A 
HETATM    6  C6  UNL     1     -34.204  17.302  -5.000  1.00 20.00     0.018 C 
HETATM    7  C7  UNL     1     -36.736  17.080  -3.526  1.00 20.00     0.039 C 
HETATM    8  C8  UNL     1     -35.109  16.347  -1.763  1.00 20.00     0.039 C 
HETATM    9  N9  UNL     1     -36.192  14.727  -3.274  1.00 20.00    -0.351 N 
HETATM   10  O10 UNL     1     -35.942  12.803  -4.598  1.00 20.00    -0.273 OA
HETATM   11  H23 UNL     1     -36.961  14.411  -2.690  1.00 20.00     0.163 HD
ENDROOT
TORSDOF 0
ENDMDL
MODEL 5
REMARK VINA RESULT:      -4.5      1.024      2.656
REMARK  0 active torsions:
REMARK  status: ('A' for Active; 'I' for Inactive)
ROOT
HETATM    1  C1  UNL     1     -36.490  14.231  -4.533  1.00 20.00     0.223 A 
HETATM    2  C2  UNL     1     -35.213  15.182  -6.545  1.00 20.00     0.027 A 
HETATM    3  C3  UNL     1     -36.265  15.338  -5.489  1.00 20.00     0.089 A 
HETATM    4  C4  UNL     1     -34.874  15.883  -5.240  1.00 20.00    -0.006 A 
HETATM    5  C5  UNL     1     -34.301  15.091  -4.051  1.00 20.00     0.034 A 
HETATM    6  C6  UNL     1     -34.615  17.360  -5.319  1.00 20.00     0.018 C 
HETATM    7  C7  UNL     1     -34.114  15.948  -2.792  1.00 20.00     0.039 C 
HETATM    8  C8  UNL     1     -32.983  14.406  -4.415  1.00 20.00     0.039 C 
HETATM    9  N9  UNL     1     -35.343  14.097  -3.773  1.00 20.00    -0.351 N 
HETATM   10  O10 UNL     1     -37.521  13.582  -4.483  1.00 20.00    -0.273 OA
HETATM   11  H23 UNL     1     -35.249  13.394  -3.046  1.00 20.00     0.163 HD
ENDROOT
TORSDOF 0
ENDMDL
MODEL 6
REMARK VINA RESULT:      -4.5      2.553      3.501
REMARK  0 active torsions:
REMARK  status: ('A' for Active; 'I' for Inactive)
ROOT
HETATM    1  C1  UNL     1     -33.553  15.039  -3.999  1.00 20.00     0.223 A 
HETATM    2  C2  UNL     1     -35.892  15.951  -3.469  1.00 20.00     0.027 A 
HETATM    3  C3  UNL     1     -34.725  15.087  -3.096  1.00 20.00     0.089 A 
HETATM    4  C4  UNL     1     -34.818  16.493  -2.541  1.00 20.00    -0.006 A 
HETATM    5  C5  UNL     1     -33.612  17.266  -3.105  1.00 20.00     0.034 A 
HETATM    6  C6  UNL     1     -35.217  16.716  -1.111  1.00 20.00     0.018 C 
HETATM    7  C7  UNL     1     -32.587  17.648  -2.030  1.00 20.00     0.039 C 
HETATM    8  C8  UNL     1     -34.052  18.514  -3.872  1.00 20.00     0.039 C 
HETATM    9  N9  UNL     1     -32.982  16.298  -4.008  1.00 20.00    -0.351 N 
HETATM   10  O10 UNL     1     -33.211  14.038  -4.607  1.00 20.00    -0.273 OA
HETATM   11  H23 UNL     1     -32.161  16.520  -4.563  1.00 20.00     0.163 HD
ENDROOT
TORSDOF 0
ENDMDL
MODEL 7
REMARK VINA RESULT:      -4.5      2.279      2.850
REMARK  0 active torsions:
REMARK  status: ('A' for Active; 'I' for Inactive)
ROOT
HETATM    1  C1  UNL     1     -35.188  16.269  -1.904  1.00 20.00     0.223 A 
HETATM    2  C2  UNL     1     -33.441  16.955  -3.653  1.00 20.00     0.027 A 
HETATM    3  C3  UNL     1     -33.838  16.102  -2.486  1.00 20.00     0.089 A 
HETATM    4  C4  UNL     1     -34.009  15.566  -3.893  1.00 20.00    -0.006 A 
HETATM    5  C5  UNL     1     -35.521  15.364  -4.102  1.00 20.00     0.034 A 
HETATM    6  C6  UNL     1     -33.059  14.536  -4.431  1.00 20.00     0.018 C 
HETATM    7  C7  UNL     1     -35.917  13.887  -4.231  1.00 20.00     0.039 C 
HETATM    8  C8  UNL     1     -36.032  16.147  -5.312  1.00 20.00     0.039 C 
HETATM    9  N9  UNL     1     -36.106  15.884  -2.862  1.00 20.00    -0.351 N 
HETATM   10  O10 UNL     1     -35.388  16.689  -0.776  1.00 20.00    -0.273 OA
HETATM   11  H23 UNL     1     -37.109  15.915  -2.701  1.00 20.00     0.163 HD
ENDROOT
TORSDOF 0
ENDMDL
MODEL 8
REMARK VINA RESULT:      -4.4      1.577      2.985
REMARK  0 active torsions:
REMARK  status: ('A' for Active; 'I' for Inactive)
ROOT
HETATM    1  C1  UNL     1     -35.668  13.892  -4.404  1.00 20.00     0.223 A 
HETATM    2  C2  UNL     1     -35.173  15.909  -5.911  1.00 20.00     0.027 A 
HETATM    3  C3  UNL     1     -36.147  15.108  -5.099  1.00 20.00     0.089 A 
HETATM    4  C4  UNL     1     -35.453  16.298  -4.468  1.00 20.00    -0.006 A 
HETATM    5  C5  UNL     1     -34.585  15.743  -3.325  1.00 20.00     0.034 A 
HETATM    6  C6  UNL     1     -36.202  17.582  -4.253  1.00 20.00     0.018 C 
HETATM    7  C7  UNL     1     -35.079  16.168  -1.935  1.00 20.00     0.039 C 
HETATM    8  C8  UNL     1     -33.115  16.129  -3.495  1.00 20.00     0.039 C 
HETATM    9  N9  UNL     1     -34.758  14.291  -3.442  1.00 20.00    -0.351 N 
HETATM   10  O10 UNL     1     -36.039  12.764  -4.685  1.00 20.00    -0.273 OA
HETATM   11  H23 UNL     1     -34.282  13.632  -2.834  1.00 20.00     0.163 HD
ENDROOT
TORSDOF 0
ENDMDL
MODEL 9
REMARK VINA RESULT:      -4.2      1.132      1.676
REMARK  0 active torsions:
REMARK  status: ('A' for Active; 'I' for Inactive)
ROOT
HETATM    1  C1  UNL     1     -36.671  14.345  -4.389  1.00 20.00     0.223 A 
HETATM    2  C2  UNL     1     -36.375  16.771  -3.607  1.00 20.00     0.027 A 
HETATM    3  C3  UNL     1     -36.412  15.306  -3.293  1.00 20.00     0.089 A 
HETATM    4  C4  UNL     1     -35.082  15.973  -3.574  1.00 20.00    -0.006 A 
HETATM    5  C5  UNL     1     -34.530  15.323  -4.856  1.00 20.00     0.034 A 
HETATM    6  C6  UNL     1     -34.135  16.276  -2.449  1.00 20.00     0.018 C 
HETATM    7  C7  UNL     1     -33.272  14.479  -4.607  1.00 20.00     0.039 C 
HETATM    8  C8  UNL     1     -34.251  16.365  -5.940  1.00 20.00     0.039 C 
HETATM    9  N9  UNL     1     -35.608  14.419  -5.268  1.00 20.00    -0.351 N 
HETATM   10  O10 UNL     1     -37.671  13.650  -4.453  1.00 20.00    -0.273 OA
HETATM   11  H23 UNL     1     -35.557  13.855  -6.111  1.00 20.00     0.163 HD
ENDROOT
TORSDOF 0
ENDMDL
