MODEL 1
REMARK VINA RESULT:      -4.2      0.000      0.000
REMARK  2 active torsions:
REMARK  status: ('A' for Active; 'I' for Inactive)
REMARK    1  A    between atoms: C1_1  and  C2_2 
REMARK    2  A    between atoms: C3_3  and  C4_4 
ROOT
HETATM    1  C1  UNL     1     -36.024  14.928  -3.561  1.00 20.00     0.051 C 
HETATM    2  C3  UNL     1     -34.700  15.148  -3.594  1.00 20.00    -0.014 C 
HETATM    3  C5  UNL     1     -33.915  16.036  -2.667  1.00 20.00     0.052 C 
ENDROOT
BRANCH   2   4
HETATM    4  C4  UNL     1     -33.862  14.462  -4.647  1.00 20.00     0.151 C 
HETATM    5  C6  UNL     1     -33.786  15.030  -6.044  1.00 20.00     0.096 C 
HETATM    6  O8  UNL     1     -33.238  13.437  -4.366  1.00 20.00    -0.293 OA
ENDBRANCH   2   4
BRANCH   1   7
HETATM    7  C2  UNL     1     -36.755  14.042  -4.497  1.00 20.00     0.259 C 
HETATM    8  O7  UNL     1     -37.953  13.818  -4.367  1.00 20.00    -0.302 OA
ENDBRANCH   1   7
TORSDOF 2
ENDMDL
MODEL 2
REMARK VINA RESULT:      -4.1     11.641     12.135
REMARK  2 active torsions:
REMARK  status: ('A' for Active; 'I' for Inactive)
REMARK    1  A    between atoms: C1_1  and  C2_2 
REMARK    2  A    between atoms: C3_3  and  C4_4 
ROOT
HETATM    1  C1  UNL     1     -32.979   7.085   3.860  1.00 20.00     0.051 C 
HETATM    2  C3  UNL     1     -33.830   6.469   4.696  1.00 20.00    -0.014 C 
HETATM    3  C5  UNL     1     -34.038   6.777   6.153  1.00 20.00     0.052 C 
ENDROOT
BRANCH   2   4
HETATM    4  C4  UNL     1     -34.693   5.344   4.174  1.00 20.00     0.151 C 
HETATM    5  C6  UNL     1     -34.083   3.993   3.883  1.00 20.00     0.096 C 
HETATM    6  O8  UNL     1     -35.897   5.526   3.988  1.00 20.00    -0.293 OA
ENDBRANCH   2   4
BRANCH   1   7
HETATM    7  C2  UNL     1     -32.809   6.746   2.428  1.00 20.00     0.259 C 
HETATM    8  O7  UNL     1     -32.411   7.573   1.615  1.00 20.00    -0.302 OA
ENDBRANCH   1   7
TORSDOF 2
ENDMDL
MODEL 3
REMARK VINA RESULT:      -4.0      1.502      1.585
REMARK  2 active torsions:
REMARK  status: ('A' for Active; 'I' for Inactive)
REMARK    1  A    between atoms: C1_1  and  C2_2 
REMARK    2  A    between atoms: C3_3  and  C4_4 
ROOT
HETATM    1  C1  UNL     1     -35.079  14.540  -3.548  1.00 20.00     0.051 C 
HETATM    2  C3  UNL     1     -34.156  15.347  -4.098  1.00 20.00    -0.014 C 
HETATM    3  C5  UNL     1     -33.120  16.154  -3.367  1.00 20.00     0.052 C 
ENDROOT
BRANCH   2   4
HETATM    4  C4  UNL     1     -34.108  15.497  -5.601  1.00 20.00     0.151 C 
HETATM    5  C6  UNL     1     -34.705  16.717  -6.260  1.00 20.00     0.096 C 
HETATM    6  O8  UNL     1     -33.579  14.624  -6.291  1.00 20.00    -0.293 OA
ENDBRANCH   2   4
BRANCH   1   7
HETATM    7  C2  UNL     1     -36.081  13.761  -4.312  1.00 20.00     0.259 C 
HETATM    8  O7  UNL     1     -35.908  12.577  -4.578  1.00 20.00    -0.302 OA
ENDBRANCH   1   7
TORSDOF 2
ENDMDL
MODEL 4
REMARK VINA RESULT:      -4.0      0.852      2.104
REMARK  2 active torsions:
REMARK  status: ('A' for Active; 'I' for Inactive)
REMARK    1  A    between atoms: C1_1  and  C2_2 
REMARK    2  A    between atoms: C3_3  and  C4_4 
ROOT
HETATM    1  C1  UNL     1     -35.975  14.693  -5.644  1.00 20.00     0.051 C 
HETATM    2  C3  UNL     1     -34.644  14.825  -5.768  1.00 20.00    -0.014 C 
HETATM    3  C5  UNL     1     -33.893  15.208  -7.014  1.00 20.00     0.052 C 
ENDROOT
BRANCH   2   4
HETATM    4  C4  UNL     1     -33.762  14.577  -4.568  1.00 20.00     0.151 C 
HETATM    5  C6  UNL     1     -33.415  15.712  -3.634  1.00 20.00     0.096 C 
HETATM    6  O8  UNL     1     -33.325  13.446  -4.347  1.00 20.00    -0.293 OA
ENDBRANCH   2   4
BRANCH   1   7
HETATM    7  C2  UNL     1     -36.671  14.313  -4.392  1.00 20.00     0.259 C 
HETATM    8  O7  UNL     1     -37.719  13.676  -4.408  1.00 20.00    -0.302 OA
ENDBRANCH   1   7
TORSDOF 2
ENDMDL
MODEL 5
REMARK VINA RESULT:      -3.8     11.306     11.649
REMARK  2 active torsions:
REMARK  status: ('A' for Active; 'I' for Inactive)
REMARK    1  A    between atoms: C1_1  and  C2_2 
REMARK    2  A    between atoms: C3_3  and  C4_4 
ROOT
HETATM    1  C1  UNL     1     -34.111   5.714   4.098  1.00 20.00     0.051 C 
HETATM    2  C3  UNL     1     -33.321   5.769   3.013  1.00 20.00    -0.014 C 
HETATM    3  C5  UNL     1     -33.136   4.689   1.983  1.00 20.00     0.052 C 
ENDROOT
BRANCH   2   4
HETATM    4  C4  UNL     1     -32.512   7.017   2.751  1.00 20.00     0.151 C 
HETATM    5  C6  UNL     1     -32.726   7.808   1.483  1.00 20.00     0.096 C 
HETATM    6  O8  UNL     1     -31.675   7.394   3.574  1.00 20.00    -0.293 OA
ENDBRANCH   2   4
BRANCH   1   7
HETATM    7  C2  UNL     1     -34.262   6.806   5.087  1.00 20.00     0.259 C 
HETATM    8  O7  UNL     1     -34.285   6.582   6.293  1.00 20.00    -0.302 OA
ENDBRANCH   1   7
TORSDOF 2
ENDMDL
MODEL 6
REMARK VINA RESULT:      -3.8      1.749      2.483
REMARK  2 active torsions:
REMARK  status: ('A' for Active; 'I' for Inactive)
REMARK    1  A    between atoms: C1_1  and  C2_2 
REMARK    2  A    between atoms: C3_3  and  C4_4 
ROOT
HETATM    1  C1  UNL     1     -35.531  14.079  -4.378  1.00 20.00     0.051 C 
HETATM    2  C3  UNL     1     -34.460  14.838  -4.092  1.00 20.00    -0.014 C 
HETATM    3  C5  UNL     1     -33.019  14.486  -4.340  1.00 20.00     0.052 C 
ENDROOT
BRANCH   2   4
HETATM    4  C4  UNL     1     -34.664  16.193  -3.455  1.00 20.00     0.151 C 
HETATM    5  C6  UNL     1     -34.730  16.321  -1.952  1.00 20.00     0.096 C 
HETATM    6  O8  UNL     1     -34.774  17.196  -4.162  1.00 20.00    -0.293 OA
ENDBRANCH   2   4
BRANCH   1   7
HETATM    7  C2  UNL     1     -36.936  14.470  -4.116  1.00 20.00     0.259 C 
HETATM    8  O7  UNL     1     -37.873  13.741  -4.423  1.00 20.00    -0.302 OA
ENDBRANCH   1   7
TORSDOF 2
ENDMDL
MODEL 7
REMARK VINA RESULT:      -3.8      1.657      3.104
REMARK  2 active torsions:
REMARK  status: ('A' for Active; 'I' for Inactive)
REMARK    1  A    between atoms: C1_1  and  C2_2 
REMARK    2  A    between atoms: C3_3  and  C4_4 
ROOT
HETATM    1  C1  UNL     1     -34.275  15.423  -5.215  1.00 20.00     0.051 C 
HETATM    2  C3  UNL     1     -34.975  14.990  -4.153  1.00 20.00    -0.014 C 
HETATM    3  C5  UNL     1     -34.776  15.401  -2.720  1.00 20.00     0.052 C 
ENDROOT
BRANCH   2   4
HETATM    4  C4  UNL     1     -36.087  13.989  -4.359  1.00 20.00     0.151 C 
HETATM    5  C6  UNL     1     -37.524  14.451  -4.407  1.00 20.00     0.096 C 
HETATM    6  O8  UNL     1     -35.822  12.792  -4.491  1.00 20.00    -0.293 OA
ENDBRANCH   2   4
BRANCH   1   7
HETATM    7  C2  UNL     1     -34.509  14.989  -6.613  1.00 20.00     0.259 C 
HETATM    8  O7  UNL     1     -33.604  14.973  -7.440  1.00 20.00    -0.302 OA
ENDBRANCH   1   7
TORSDOF 2
ENDMDL
MODEL 8
REMARK VINA RESULT:      -3.8     17.621     18.485
REMARK  2 active torsions:
REMARK  status: ('A' for Active; 'I' for Inactive)
REMARK    1  A    between atoms: C1_1  and  C2_2 
REMARK    2  A    between atoms: C3_3  and  C4_4 
ROOT
HETATM    1  C1  UNL     1     -23.181  18.245   8.328  1.00 20.00     0.051 C 
HETATM    2  C3  UNL     1     -24.011  18.271   9.383  1.00 20.00    -0.014 C 
HETATM    3  C5  UNL     1     -25.221  19.149   9.552  1.00 20.00     0.052 C 
ENDROOT
BRANCH   2   4
HETATM    4  C4  UNL     1     -23.754  17.345  10.549  1.00 20.00     0.151 C 
HETATM    5  C6  UNL     1     -22.892  17.800  11.702  1.00 20.00     0.096 C 
HETATM    6  O8  UNL     1     -24.250  16.216  10.561  1.00 20.00    -0.293 OA
ENDBRANCH   2   4
BRANCH   1   7
HETATM    7  C2  UNL     1     -21.999  17.359   8.207  1.00 20.00     0.259 C 
HETATM    8  O7  UNL     1     -21.719  16.803   7.150  1.00 20.00    -0.302 OA
ENDBRANCH   1   7
TORSDOF 2
ENDMDL
MODEL 9
REMARK VINA RESULT:      -3.8      9.728     11.434
REMARK  2 active torsions:
REMARK  status: ('A' for Active; 'I' for Inactive)
REMARK    1  A    between atoms: C1_1  and  C2_2 
REMARK    2  A    between atoms: C3_3  and  C4_4 
ROOT
HETATM    1  C1  UNL     1     -42.169   8.027   0.895  1.00 20.00     0.051 C 
HETATM    2  C3  UNL     1     -42.534   6.784   0.539  1.00 20.00    -0.014 C 
HETATM    3  C5  UNL     1     -43.219   5.766   1.409  1.00 20.00     0.052 C 
ENDROOT
BRANCH   2   4
HETATM    4  C4  UNL     1     -42.255   6.306  -0.866  1.00 20.00     0.151 C 
HETATM    5  C6  UNL     1     -41.045   5.447  -1.148  1.00 20.00     0.096 C 
HETATM    6  O8  UNL     1     -43.015   6.614  -1.786  1.00 20.00    -0.293 OA
ENDBRANCH   2   4
BRANCH   1   7
HETATM    7  C2  UNL     1     -41.495   8.996   0.000  1.00 20.00     0.259 C 
HETATM    8  O7  UNL     1     -41.381  10.179   0.304  1.00 20.00    -0.302 OA
ENDBRANCH   1   7
TORSDOF 2
ENDMDL
