MODEL 1
REMARK VINA RESULT:      -3.4      0.000      0.000
REMARK  2 active torsions:
REMARK  status: ('A' for Active; 'I' for Inactive)
REMARK    1  A    between atoms: C2_2  and  C3_3 
REMARK    2  A    between atoms: C2_2  and  S5_5 
ROOT
HETATM    1  C1  UNL     1     -32.999   6.212   2.692  1.00 20.00     0.133 C 
HETATM    2  N4  UNL     1     -32.509   7.229   2.422  1.00 20.00    -0.184 NA
HETATM    3  S5  UNL     1     -33.701   4.725   3.078  1.00 20.00    -0.050 SA
ENDROOT
BRANCH   3   4
HETATM    4  C2  UNL     1     -35.079   5.342   4.094  1.00 20.00     0.105 C 
BRANCH   4   5
HETATM    5  C3  UNL     1     -34.766   5.302   5.582  1.00 20.00     0.126 C 
HETATM    6 CL6  UNL     1     -33.933   6.777   6.133  1.00 20.00    -0.130 Cl
ENDBRANCH   4   5
ENDBRANCH   3   4
TORSDOF 2
ENDMDL
MODEL 2
REMARK VINA RESULT:      -3.1     16.799     16.982
REMARK  2 active torsions:
REMARK  status: ('A' for Active; 'I' for Inactive)
REMARK    1  A    between atoms: C2_2  and  C3_3 
REMARK    2  A    between atoms: C2_2  and  S5_5 
ROOT
HETATM    1  C1  UNL     1     -22.159  17.445   8.188  1.00 20.00     0.133 C 
HETATM    2  N4  UNL     1     -21.679  16.917   7.273  1.00 20.00    -0.184 NA
HETATM    3  S5  UNL     1     -22.852  18.228   9.516  1.00 20.00    -0.050 SA
ENDROOT
BRANCH   3   4
HETATM    4  C2  UNL     1     -23.792  16.822  10.186  1.00 20.00     0.105 C 
BRANCH   4   5
HETATM    5  C3  UNL     1     -23.583  16.643  11.682  1.00 20.00     0.126 C 
HETATM    6 CL6  UNL     1     -22.373  17.778  12.332  1.00 20.00    -0.130 Cl
ENDBRANCH   4   5
ENDBRANCH   3   4
TORSDOF 2
ENDMDL
MODEL 3
REMARK VINA RESULT:      -3.1      2.766      3.340
REMARK  2 active torsions:
REMARK  status: ('A' for Active; 'I' for Inactive)
REMARK    1  A    between atoms: C2_2  and  C3_3 
REMARK    2  A    between atoms: C2_2  and  S5_5 
ROOT
HETATM    1  C1  UNL     1     -34.324   6.042   5.271  1.00 20.00     0.133 C 
HETATM    2  N4  UNL     1     -34.046   6.776   6.126  1.00 20.00    -0.184 NA
HETATM    3  S5  UNL     1     -34.741   4.968   4.035  1.00 20.00    -0.050 SA
ENDROOT
BRANCH   3   4
HETATM    4  C2  UNL     1     -33.399   5.371   2.875  1.00 20.00     0.105 C 
BRANCH   4   5
HETATM    5  C3  UNL     1     -32.852   6.775   3.084  1.00 20.00     0.126 C 
HETATM    6 CL6  UNL     1     -32.501   7.596   1.543  1.00 20.00    -0.130 Cl
ENDBRANCH   4   5
ENDBRANCH   3   4
TORSDOF 2
ENDMDL
MODEL 4
REMARK VINA RESULT:      -3.0     12.282     12.420
REMARK  2 active torsions:
REMARK  status: ('A' for Active; 'I' for Inactive)
REMARK    1  A    between atoms: C2_2  and  C3_3 
REMARK    2  A    between atoms: C2_2  and  S5_5 
ROOT
HETATM    1  C1  UNL     1     -36.316  14.189  -4.941  1.00 20.00     0.133 C 
HETATM    2  N4  UNL     1     -37.257  13.680  -4.492  1.00 20.00    -0.184 NA
HETATM    3  S5  UNL     1     -34.953  14.934  -5.607  1.00 20.00    -0.050 SA
ENDROOT
BRANCH   3   4
HETATM    4  C2  UNL     1     -33.777  14.574  -4.265  1.00 20.00     0.105 C 
BRANCH   4   5
HETATM    5  C3  UNL     1     -33.568  15.765  -3.341  1.00 20.00     0.126 C 
HETATM    6 CL6  UNL     1     -34.857  15.901  -2.119  1.00 20.00    -0.130 Cl
ENDBRANCH   4   5
ENDBRANCH   3   4
TORSDOF 2
ENDMDL
MODEL 5
REMARK VINA RESULT:      -3.0      3.039      3.892
REMARK  2 active torsions:
REMARK  status: ('A' for Active; 'I' for Inactive)
REMARK    1  A    between atoms: C2_2  and  C3_3 
REMARK    2  A    between atoms: C2_2  and  S5_5 
ROOT
HETATM    1  C1  UNL     1     -34.385   4.887   3.845  1.00 20.00     0.133 C 
HETATM    2  N4  UNL     1     -35.131   4.712   4.717  1.00 20.00    -0.184 NA
HETATM    3  S5  UNL     1     -33.301   5.128   2.571  1.00 20.00    -0.050 SA
ENDROOT
BRANCH   3   4
HETATM    4  C2  UNL     1     -32.927   6.883   2.875  1.00 20.00     0.105 C 
BRANCH   4   5
HETATM    5  C3  UNL     1     -32.158   7.520   1.727  1.00 20.00     0.126 C 
HETATM    6 CL6  UNL     1     -33.069   8.845   0.961  1.00 20.00    -0.130 Cl
ENDBRANCH   4   5
ENDBRANCH   3   4
TORSDOF 2
ENDMDL
MODEL 6
REMARK VINA RESULT:      -3.0     12.076     12.264
REMARK  2 active torsions:
REMARK  status: ('A' for Active; 'I' for Inactive)
REMARK    1  A    between atoms: C2_2  and  C3_3 
REMARK    2  A    between atoms: C2_2  and  S5_5 
ROOT
HETATM    1  C1  UNL     1     -36.019  13.950  -4.314  1.00 20.00     0.133 C 
HETATM    2  N4  UNL     1     -35.972  12.834  -4.631  1.00 20.00    -0.184 NA
HETATM    3  S5  UNL     1     -36.100  15.576  -3.862  1.00 20.00    -0.050 SA
ENDROOT
BRANCH   3   4
HETATM    4  C2  UNL     1     -34.707  15.591  -2.692  1.00 20.00     0.105 C 
BRANCH   4   5
HETATM    5  C3  UNL     1     -33.400  16.007  -3.350  1.00 20.00     0.126 C 
HETATM    6 CL6  UNL     1     -32.654  14.674  -4.266  1.00 20.00    -0.130 Cl
ENDBRANCH   4   5
ENDBRANCH   3   4
TORSDOF 2
ENDMDL
MODEL 7
REMARK VINA RESULT:      -3.0      1.505      1.568
REMARK  2 active torsions:
REMARK  status: ('A' for Active; 'I' for Inactive)
REMARK    1  A    between atoms: C2_2  and  C3_3 
REMARK    2  A    between atoms: C2_2  and  S5_5 
ROOT
HETATM    1  C1  UNL     1     -32.692   7.384   1.816  1.00 20.00     0.133 C 
HETATM    2  N4  UNL     1     -32.564   8.382   1.237  1.00 20.00    -0.184 NA
HETATM    3  S5  UNL     1     -32.869   5.925   2.650  1.00 20.00    -0.050 SA
ENDROOT
BRANCH   3   4
HETATM    4  C2  UNL     1     -33.950   6.518   3.987  1.00 20.00     0.105 C 
BRANCH   4   5
HETATM    5  C3  UNL     1     -34.935   5.455   4.452  1.00 20.00     0.126 C 
HETATM    6 CL6  UNL     1     -34.794   5.126   6.196  1.00 20.00    -0.130 Cl
ENDBRANCH   4   5
ENDBRANCH   3   4
TORSDOF 2
ENDMDL
MODEL 8
REMARK VINA RESULT:      -2.9      1.454      1.511
REMARK  2 active torsions:
REMARK  status: ('A' for Active; 'I' for Inactive)
REMARK    1  A    between atoms: C2_2  and  C3_3 
REMARK    2  A    between atoms: C2_2  and  S5_5 
ROOT
HETATM    1  C1  UNL     1     -32.650   7.300   2.301  1.00 20.00     0.133 C 
HETATM    2  N4  UNL     1     -32.293   7.654   1.254  1.00 20.00    -0.184 NA
HETATM    3  S5  UNL     1     -33.163   6.798   3.830  1.00 20.00    -0.050 SA
ENDROOT
BRANCH   3   4
HETATM    4  C2  UNL     1     -33.982   5.250   3.336  1.00 20.00     0.105 C 
BRANCH   4   5
HETATM    5  C3  UNL     1     -34.817   4.650   4.458  1.00 20.00     0.126 C 
HETATM    6 CL6  UNL     1     -34.684   5.586   5.968  1.00 20.00    -0.130 Cl
ENDBRANCH   4   5
ENDBRANCH   3   4
TORSDOF 2
ENDMDL
MODEL 9
REMARK VINA RESULT:      -2.9     12.109     12.257
REMARK  2 active torsions:
REMARK  status: ('A' for Active; 'I' for Inactive)
REMARK    1  A    between atoms: C2_2  and  C3_3 
REMARK    2  A    between atoms: C2_2  and  S5_5 
ROOT
HETATM    1  C1  UNL     1     -36.590  14.068  -4.300  1.00 20.00     0.133 C 
HETATM    2  N4  UNL     1     -37.735  13.921  -4.423  1.00 20.00    -0.184 NA
HETATM    3  S5  UNL     1     -34.921  14.274  -4.133  1.00 20.00    -0.050 SA
ENDROOT
BRANCH   3   4
HETATM    4  C2  UNL     1     -34.943  15.530  -2.817  1.00 20.00     0.105 C 
BRANCH   4   5
HETATM    5  C3  UNL     1     -33.639  16.309  -2.735  1.00 20.00     0.126 C 
HETATM    6 CL6  UNL     1     -33.636  17.476  -1.390  1.00 20.00    -0.130 Cl
ENDBRANCH   4   5
ENDBRANCH   3   4
TORSDOF 2
ENDMDL
