MODEL 1
REMARK VINA RESULT:      -4.6      0.000      0.000
REMARK  0 active torsions:
REMARK  status: ('A' for Active; 'I' for Inactive)
ROOT
HETATM    1  C1  UNL     1     -34.894  13.997  -4.016  1.00 20.00     0.131 C 
HETATM    2  C2  UNL     1     -33.523  14.462  -4.468  1.00 20.00     0.079 C 
HETATM    3  C3  UNL     1     -32.931  15.576  -3.607  1.00 20.00     0.012 C 
HETATM    4  C4  UNL     1     -35.480  16.905  -5.104  1.00 20.00     0.001 C 
HETATM    5  C5  UNL     1     -36.462  15.924  -4.460  1.00 20.00     0.012 C 
HETATM    6  C6  UNL     1     -34.515  17.549  -4.109  1.00 20.00     0.005 C 
HETATM    7  C7  UNL     1     -35.075  15.838  -2.360  1.00 20.00     0.016 C 
HETATM    8  C8  UNL     1     -35.834  15.020  -3.396  1.00 20.00     0.056 C 
HETATM    9  C9  UNL     1     -33.942  16.592  -3.051  1.00 20.00    -0.013 C 
HETATM   10  O10 UNL     1     -35.271  12.844  -4.236  1.00 20.00    -0.298 OA
ENDROOT
TORSDOF 0
ENDMDL
MODEL 2
REMARK VINA RESULT:      -4.5      1.170      2.757
REMARK  0 active torsions:
REMARK  status: ('A' for Active; 'I' for Inactive)
ROOT
HETATM    1  C1  UNL     1     -35.965  13.802  -4.477  1.00 20.00     0.131 C 
HETATM    2  C2  UNL     1     -37.338  14.422  -4.289  1.00 20.00     0.079 C 
HETATM    3  C3  UNL     1     -37.490  15.798  -4.934  1.00 20.00     0.012 C 
HETATM    4  C4  UNL     1     -35.369  16.209  -2.519  1.00 20.00     0.001 C 
HETATM    5  C5  UNL     1     -34.373  15.220  -3.128  1.00 20.00     0.012 C 
HETATM    6  C6  UNL     1     -35.893  17.243  -3.515  1.00 20.00     0.005 C 
HETATM    7  C7  UNL     1     -35.053  15.894  -5.457  1.00 20.00     0.016 C 
HETATM    8  C8  UNL     1     -34.758  14.726  -4.525  1.00 20.00     0.056 C 
HETATM    9  C9  UNL     1     -36.236  16.685  -4.906  1.00 20.00    -0.013 C 
HETATM   10  O10 UNL     1     -35.825  12.578  -4.492  1.00 20.00    -0.298 OA
ENDROOT
TORSDOF 0
ENDMDL
MODEL 3
REMARK VINA RESULT:      -4.4     17.552     18.676
REMARK  0 active torsions:
REMARK  status: ('A' for Active; 'I' for Inactive)
ROOT
HETATM    1  C1  UNL     1     -22.663  18.251   9.948  1.00 20.00     0.131 C 
HETATM    2  C2  UNL     1     -22.212  18.170  11.394  1.00 20.00     0.079 C 
HETATM    3  C3  UNL     1     -22.745  16.950  12.142  1.00 20.00     0.012 C 
HETATM    4  C4  UNL     1     -25.342  18.791  11.534  1.00 20.00     0.001 C 
HETATM    5  C5  UNL     1     -25.146  18.695  10.020  1.00 20.00     0.012 C 
HETATM    6  C6  UNL     1     -25.275  17.441  12.248  1.00 20.00     0.005 C 
HETATM    7  C7  UNL     1     -24.240  16.355  10.236  1.00 20.00     0.016 C 
HETATM    8  C8  UNL     1     -24.044  17.721   9.593  1.00 20.00     0.056 C 
HETATM    9  C9  UNL     1     -24.163  16.502  11.753  1.00 20.00    -0.013 C 
HETATM   10  O10 UNL     1     -21.969  18.821   9.104  1.00 20.00    -0.298 OA
ENDROOT
TORSDOF 0
ENDMDL
MODEL 4
REMARK VINA RESULT:      -4.3      1.496      2.752
REMARK  0 active torsions:
REMARK  status: ('A' for Active; 'I' for Inactive)
ROOT
HETATM    1  C1  UNL     1     -36.347  16.081  -4.332  1.00 20.00     0.131 C 
HETATM    2  C2  UNL     1     -35.430  16.609  -5.420  1.00 20.00     0.079 C 
HETATM    3  C3  UNL     1     -34.331  15.633  -5.832  1.00 20.00     0.012 C 
HETATM    4  C4  UNL     1     -33.621  16.495  -2.790  1.00 20.00     0.001 C 
HETATM    5  C5  UNL     1     -34.935  15.932  -2.246  1.00 20.00     0.012 C 
HETATM    6  C6  UNL     1     -32.872  15.528  -3.708  1.00 20.00     0.005 C 
HETATM    7  C7  UNL     1     -34.912  14.088  -3.962  1.00 20.00     0.016 C 
HETATM    8  C8  UNL     1     -35.757  15.155  -3.279  1.00 20.00     0.056 C 
HETATM    9  C9  UNL     1     -33.760  14.762  -4.702  1.00 20.00    -0.013 C 
HETATM   10  O10 UNL     1     -37.514  16.469  -4.250  1.00 20.00    -0.298 OA
ENDROOT
TORSDOF 0
ENDMDL
MODEL 5
REMARK VINA RESULT:      -4.3     11.145     12.284
REMARK  0 active torsions:
REMARK  status: ('A' for Active; 'I' for Inactive)
ROOT
HETATM    1  C1  UNL     1     -42.803   5.704   0.927  1.00 20.00     0.131 C 
HETATM    2  C2  UNL     1     -42.518   5.028  -0.401  1.00 20.00     0.079 C 
HETATM    3  C3  UNL     1     -41.260   5.540  -1.099  1.00 20.00     0.012 C 
HETATM    4  C4  UNL     1     -43.345   8.021  -1.152  1.00 20.00     0.001 C 
HETATM    5  C5  UNL     1     -43.415   8.089   0.374  1.00 20.00     0.012 C 
HETATM    6  C6  UNL     1     -41.919   7.961  -1.699  1.00 20.00     0.005 C 
HETATM    7  C7  UNL     1     -41.006   7.380   0.566  1.00 20.00     0.016 C 
HETATM    8  C8  UNL     1     -42.422   7.168   1.087  1.00 20.00     0.056 C 
HETATM    9  C9  UNL     1     -40.966   7.038  -0.921  1.00 20.00    -0.013 C 
HETATM   10  O10 UNL     1     -43.417   5.110   1.816  1.00 20.00    -0.298 OA
ENDROOT
TORSDOF 0
ENDMDL
MODEL 6
REMARK VINA RESULT:      -4.3      1.746      2.355
REMARK  0 active torsions:
REMARK  status: ('A' for Active; 'I' for Inactive)
ROOT
HETATM    1  C1  UNL     1     -35.707  14.562  -6.246  1.00 20.00     0.131 C 
HETATM    2  C2  UNL     1     -34.419  15.350  -6.098  1.00 20.00     0.079 C 
HETATM    3  C3  UNL     1     -33.529  14.872  -4.952  1.00 20.00     0.012 C 
HETATM    4  C4  UNL     1     -36.163  16.121  -3.536  1.00 20.00     0.001 C 
HETATM    5  C5  UNL     1     -37.094  15.111  -4.211  1.00 20.00     0.012 C 
HETATM    6  C6  UNL     1     -34.939  15.483  -2.880  1.00 20.00     0.005 C 
HETATM    7  C7  UNL     1     -35.310  13.335  -4.124  1.00 20.00     0.016 C 
HETATM    8  C8  UNL     1     -36.365  14.013  -4.989  1.00 20.00     0.056 C 
HETATM    9  C9  UNL     1     -34.270  14.370  -3.703  1.00 20.00    -0.013 C 
HETATM   10  O10 UNL     1     -36.257  14.456  -7.345  1.00 20.00    -0.298 OA
ENDROOT
TORSDOF 0
ENDMDL
MODEL 7
REMARK VINA RESULT:      -4.3     17.488     18.662
REMARK  0 active torsions:
REMARK  status: ('A' for Active; 'I' for Inactive)
ROOT
HETATM    1  C1  UNL     1     -23.161  18.313  10.117  1.00 20.00     0.131 C 
HETATM    2  C2  UNL     1     -24.497  18.425   9.407  1.00 20.00     0.079 C 
HETATM    3  C3  UNL     1     -25.630  18.939  10.293  1.00 20.00     0.012 C 
HETATM    4  C4  UNL     1     -24.859  16.025  11.482  1.00 20.00     0.001 C 
HETATM    5  C5  UNL     1     -23.425  16.453  11.802  1.00 20.00     0.012 C 
HETATM    6  C6  UNL     1     -25.918  17.008  11.979  1.00 20.00     0.005 C 
HETATM    7  C7  UNL     1     -24.190  18.795  12.325  1.00 20.00     0.016 C 
HETATM    8  C8  UNL     1     -23.159  17.947  11.594  1.00 20.00     0.056 C 
HETATM    9  C9  UNL     1     -25.576  18.491  11.762  1.00 20.00    -0.013 C 
HETATM   10  O10 UNL     1     -22.105  18.420   9.491  1.00 20.00    -0.298 OA
ENDROOT
TORSDOF 0
ENDMDL
MODEL 8
REMARK VINA RESULT:      -4.2      1.532      2.603
REMARK  0 active torsions:
REMARK  status: ('A' for Active; 'I' for Inactive)
ROOT
HETATM    1  C1  UNL     1     -34.359  15.929  -5.800  1.00 20.00     0.131 C 
HETATM    2  C2  UNL     1     -34.486  17.335  -5.245  1.00 20.00     0.079 C 
HETATM    3  C3  UNL     1     -33.559  17.622  -4.066  1.00 20.00     0.012 C 
HETATM    4  C4  UNL     1     -35.688  15.435  -2.977  1.00 20.00     0.001 C 
HETATM    5  C5  UNL     1     -35.258  14.393  -4.011  1.00 20.00     0.012 C 
HETATM    6  C6  UNL     1     -34.520  16.081  -2.234  1.00 20.00     0.005 C 
HETATM    7  C7  UNL     1     -32.882  15.225  -3.932  1.00 20.00     0.016 C 
HETATM    8  C8  UNL     1     -34.033  14.799  -4.835  1.00 20.00     0.056 C 
HETATM    9  C9  UNL     1     -33.312  16.440  -3.115  1.00 20.00    -0.013 C 
HETATM   10  O10 UNL     1     -34.611  15.695  -6.984  1.00 20.00    -0.298 OA
ENDROOT
TORSDOF 0
ENDMDL
MODEL 9
REMARK VINA RESULT:      -4.2     10.896     12.033
REMARK  0 active torsions:
REMARK  status: ('A' for Active; 'I' for Inactive)
ROOT
HETATM    1  C1  UNL     1     -42.559   5.274  -1.171  1.00 20.00     0.131 C 
HETATM    2  C2  UNL     1     -41.051   5.393  -1.060  1.00 20.00     0.079 C 
HETATM    3  C3  UNL     1     -40.576   6.098   0.209  1.00 20.00     0.012 C 
HETATM    4  C4  UNL     1     -42.086   8.377  -1.531  1.00 20.00     0.001 C 
HETATM    5  C5  UNL     1     -43.417   7.624  -1.497  1.00 20.00     0.012 C 
HETATM    6  C6  UNL     1     -41.420   8.507  -0.161  1.00 20.00     0.005 C 
HETATM    7  C7  UNL     1     -42.913   6.736   0.805  1.00 20.00     0.016 C 
HETATM    8  C8  UNL     1     -43.415   6.390  -0.591  1.00 20.00     0.056 C 
HETATM    9  C9  UNL     1     -41.476   7.240   0.708  1.00 20.00    -0.013 C 
HETATM   10  O10 UNL     1     -43.072   4.347  -1.801  1.00 20.00    -0.298 OA
ENDROOT
TORSDOF 0
ENDMDL
