MODEL 1
REMARK VINA RESULT:      -4.3      0.000      0.000
REMARK  0 active torsions:
REMARK  status: ('A' for Active; 'I' for Inactive)
ROOT
HETATM    1  C1  UNL     1     -43.320   8.413   0.313  1.00 20.00     0.005 C 
HETATM    2  C2  UNL     1     -43.417   7.074   1.057  1.00 20.00     0.008 C 
HETATM    3  C3  UNL     1     -41.133   7.583   0.752  1.00 20.00     0.012 C 
HETATM    4  C4  UNL     1     -41.935   7.368  -1.496  1.00 20.00     0.047 C 
HETATM    5  C5  UNL     1     -41.914   8.357  -0.310  1.00 20.00    -0.011 C 
HETATM    6  C6  UNL     1     -42.086   6.379   0.703  1.00 20.00     0.025 C 
HETATM    7  C7  UNL     1     -42.020   5.992  -0.798  1.00 20.00     0.117 C 
HETATM    8 CL8  UNL     1     -40.540   5.028  -1.130  1.00 20.00    -0.101 Cl
HETATM    9 CL9  UNL     1     -43.417   5.039  -1.356  1.00 20.00    -0.101 Cl
ENDROOT
TORSDOF 0
ENDMDL
MODEL 2
REMARK VINA RESULT:      -4.1      0.712      2.414
REMARK  0 active torsions:
REMARK  status: ('A' for Active; 'I' for Inactive)
ROOT
HETATM    1  C1  UNL     1     -41.505   8.076   0.710  1.00 20.00     0.005 C 
HETATM    2  C2  UNL     1     -41.072   8.036  -0.762  1.00 20.00     0.008 C 
HETATM    3  C3  UNL     1     -43.417   7.789  -0.678  1.00 20.00     0.012 C 
HETATM    4  C4  UNL     1     -42.635   5.849   0.492  1.00 20.00     0.047 C 
HETATM    5  C5  UNL     1     -42.869   7.363   0.684  1.00 20.00    -0.011 C 
HETATM    6  C6  UNL     1     -42.204   7.235  -1.439  1.00 20.00     0.025 C 
HETATM    7  C7  UNL     1     -42.205   5.750  -0.990  1.00 20.00     0.117 C 
HETATM    8 CL8  UNL     1     -43.417   4.815  -1.933  1.00 20.00    -0.101 Cl
HETATM    9 CL9  UNL     1     -40.632   4.939  -1.182  1.00 20.00    -0.101 Cl
ENDROOT
TORSDOF 0
ENDMDL
MODEL 3
REMARK VINA RESULT:      -4.0     11.681     12.635
REMARK  0 active torsions:
REMARK  status: ('A' for Active; 'I' for Inactive)
ROOT
HETATM    1  C1  UNL     1     -34.700  15.976  -2.043  1.00 20.00     0.005 C 
HETATM    2  C2  UNL     1     -33.535  16.686  -2.745  1.00 20.00     0.008 C 
HETATM    3  C3  UNL     1     -35.407  16.749  -4.180  1.00 20.00     0.012 C 
HETATM    4  C4  UNL     1     -34.973  14.401  -3.974  1.00 20.00     0.047 C 
HETATM    5  C5  UNL     1     -35.616  15.582  -3.215  1.00 20.00    -0.011 C 
HETATM    6  C6  UNL     1     -33.887  16.542  -4.241  1.00 20.00     0.025 C 
HETATM    7  C7  UNL     1     -33.791  15.068  -4.715  1.00 20.00     0.117 C 
HETATM    8 CL8  UNL     1     -34.031  14.968  -6.494  1.00 20.00    -0.101 Cl
HETATM    9 CL9  UNL     1     -32.235  14.290  -4.338  1.00 20.00    -0.101 Cl
ENDROOT
TORSDOF 0
ENDMDL
MODEL 4
REMARK VINA RESULT:      -3.9     11.403     12.423
REMARK  0 active torsions:
REMARK  status: ('A' for Active; 'I' for Inactive)
ROOT
HETATM    1  C1  UNL     1     -33.427  17.234  -3.699  1.00 20.00     0.005 C 
HETATM    2  C2  UNL     1     -34.862  17.437  -4.205  1.00 20.00     0.008 C 
HETATM    3  C3  UNL     1     -34.908  15.820  -2.486  1.00 20.00     0.012 C 
HETATM    4  C4  UNL     1     -33.554  14.774  -4.164  1.00 20.00     0.047 C 
HETATM    5  C5  UNL     1     -33.487  15.841  -3.049  1.00 20.00    -0.011 C 
HETATM    6  C6  UNL     1     -35.549  16.100  -3.853  1.00 20.00     0.025 C 
HETATM    7  C7  UNL     1     -34.994  14.927  -4.703  1.00 20.00     0.117 C 
HETATM    8 CL8  UNL     1     -35.941  13.430  -4.394  1.00 20.00    -0.101 Cl
HETATM    9 CL9  UNL     1     -35.028  15.231  -6.457  1.00 20.00    -0.101 Cl
ENDROOT
TORSDOF 0
ENDMDL
MODEL 5
REMARK VINA RESULT:      -3.9     11.499     12.450
REMARK  0 active torsions:
REMARK  status: ('A' for Active; 'I' for Inactive)
ROOT
HETATM    1  C1  UNL     1     -33.567  16.365  -2.531  1.00 20.00     0.005 C 
HETATM    2  C2  UNL     1     -35.006  16.090  -2.074  1.00 20.00     0.008 C 
HETATM    3  C3  UNL     1     -34.441  14.499  -3.723  1.00 20.00     0.012 C 
HETATM    4  C4  UNL     1     -34.308  16.573  -4.916  1.00 20.00     0.047 C 
HETATM    5  C5  UNL     1     -33.516  15.700  -3.918  1.00 20.00    -0.011 C 
HETATM    6  C6  UNL     1     -35.628  15.371  -3.289  1.00 20.00     0.025 C 
HETATM    7  C7  UNL     1     -35.777  16.322  -4.506  1.00 20.00     0.117 C 
HETATM    8 CL8  UNL     1     -36.667  15.501  -5.834  1.00 20.00    -0.101 Cl
HETATM    9 CL9  UNL     1     -36.641  17.835  -4.136  1.00 20.00    -0.101 Cl
ENDROOT
TORSDOF 0
ENDMDL
MODEL 6
REMARK VINA RESULT:      -3.9     23.005     24.005
REMARK  0 active torsions:
REMARK  status: ('A' for Active; 'I' for Inactive)
ROOT
HETATM    1  C1  UNL     1     -23.255  16.548  12.171  1.00 20.00     0.005 C 
HETATM    2  C2  UNL     1     -23.276  18.081  12.231  1.00 20.00     0.008 C 
HETATM    3  C3  UNL     1     -25.375  17.347  11.443  1.00 20.00     0.012 C 
HETATM    4  C4  UNL     1     -23.871  16.582   9.741  1.00 20.00     0.047 C 
HETATM    5  C5  UNL     1     -24.371  16.230  11.160  1.00 20.00    -0.011 C 
HETATM    6  C6  UNL     1     -24.348  18.458  11.186  1.00 20.00     0.025 C 
HETATM    7  C7  UNL     1     -23.885  18.128   9.742  1.00 20.00     0.117 C 
HETATM    8 CL8  UNL     1     -25.079  18.745   8.548  1.00 20.00    -0.101 Cl
HETATM    9 CL9  UNL     1     -22.298  18.816   9.320  1.00 20.00    -0.101 Cl
ENDROOT
TORSDOF 0
ENDMDL
MODEL 7
REMARK VINA RESULT:      -3.9     12.041     13.063
REMARK  0 active torsions:
REMARK  status: ('A' for Active; 'I' for Inactive)
ROOT
HETATM    1  C1  UNL     1     -34.741  14.187  -3.874  1.00 20.00     0.005 C 
HETATM    2  C2  UNL     1     -33.398  14.790  -4.306  1.00 20.00     0.008 C 
HETATM    3  C3  UNL     1     -34.183  16.003  -2.441  1.00 20.00     0.012 C 
HETATM    4  C4  UNL     1     -35.871  16.414  -4.092  1.00 20.00     0.047 C 
HETATM    5  C5  UNL     1     -35.397  15.338  -3.090  1.00 20.00    -0.011 C 
HETATM    6  C6  UNL     1     -33.481  16.240  -3.785  1.00 20.00     0.025 C 
HETATM    7  C7  UNL     1     -34.548  17.066  -4.552  1.00 20.00     0.117 C 
HETATM    8 CL8  UNL     1     -34.487  18.789  -4.042  1.00 20.00    -0.101 Cl
HETATM    9 CL9  UNL     1     -34.355  17.022  -6.322  1.00 20.00    -0.101 Cl
ENDROOT
TORSDOF 0
ENDMDL
MODEL 8
REMARK VINA RESULT:      -3.8      2.105      2.955
REMARK  0 active torsions:
REMARK  status: ('A' for Active; 'I' for Inactive)
ROOT
HETATM    1  C1  UNL     1     -43.097   5.094  -0.137  1.00 20.00     0.005 C 
HETATM    2  C2  UNL     1     -42.255   5.632  -1.302  1.00 20.00     0.008 C 
HETATM    3  C3  UNL     1     -41.152   6.168   0.714  1.00 20.00     0.012 C 
HETATM    4  C4  UNL     1     -43.216   7.372   0.901  1.00 20.00     0.047 C 
HETATM    5  C5  UNL     1     -42.627   5.952   1.050  1.00 20.00    -0.011 C 
HETATM    6  C6  UNL     1     -41.463   6.788  -0.655  1.00 20.00     0.025 C 
HETATM    7  C7  UNL     1     -42.388   7.969  -0.260  1.00 20.00     0.117 C 
HETATM    8 CL8  UNL     1     -41.409   9.361   0.319  1.00 20.00    -0.101 Cl
HETATM    9 CL9  UNL     1     -43.417   8.553  -1.591  1.00 20.00    -0.101 Cl
ENDROOT
TORSDOF 0
ENDMDL
MODEL 9
REMARK VINA RESULT:      -3.8     11.576     12.687
REMARK  0 active torsions:
REMARK  status: ('A' for Active; 'I' for Inactive)
ROOT
HETATM    1  C1  UNL     1     -34.096  15.155  -5.764  1.00 20.00     0.005 C 
HETATM    2  C2  UNL     1     -33.332  14.506  -4.603  1.00 20.00     0.008 C 
HETATM    3  C3  UNL     1     -35.632  14.485  -4.075  1.00 20.00     0.012 C 
HETATM    4  C4  UNL     1     -35.139  16.826  -4.214  1.00 20.00     0.047 C 
HETATM    5  C5  UNL     1     -35.415  15.594  -5.104  1.00 20.00    -0.011 C 
HETATM    6  C6  UNL     1     -34.274  14.723  -3.399  1.00 20.00     0.025 C 
HETATM    7  C7  UNL     1     -34.376  16.222  -3.013  1.00 20.00     0.117 C 
HETATM    8 CL8  UNL     1     -35.333  16.413  -1.503  1.00 20.00    -0.101 Cl
HETATM    9 CL9  UNL     1     -32.800  17.008  -2.752  1.00 20.00    -0.101 Cl
ENDROOT
TORSDOF 0
ENDMDL
