MODEL 1
REMARK VINA RESULT:      -4.7      0.000      0.000
REMARK  0 active torsions:
REMARK  status: ('A' for Active; 'I' for Inactive)
ROOT
HETATM    1  C1  UNL     1     -33.807  18.069  -3.073  1.00 20.00     0.000 C 
HETATM    2  C2  UNL     1     -33.732  18.079  -4.598  1.00 20.00     0.000 C 
HETATM    3  C3  UNL     1     -33.506  16.730  -2.398  1.00 20.00     0.000 C 
HETATM    4  C4  UNL     1     -35.060  17.807  -5.314  1.00 20.00     0.001 C 
HETATM    5  C5  UNL     1     -34.254  15.501  -2.911  1.00 20.00     0.001 C 
HETATM    6  C6  UNL     1     -35.345  16.331  -5.605  1.00 20.00     0.012 C 
HETATM    7  C7  UNL     1     -35.755  15.720  -3.112  1.00 20.00     0.012 C 
HETATM    8  C8  UNL     1     -37.703  16.018  -4.684  1.00 20.00     0.038 C 
HETATM    9  C9  UNL     1     -38.460  14.800  -4.191  1.00 20.00     0.168 C 
HETATM   10  C10 UNL     1     -36.375  14.111  -4.969  1.00 20.00     0.177 C 
HETATM   11  C11 UNL     1     -36.235  15.592  -4.582  1.00 20.00    -0.017 C 
HETATM   12  O12 UNL     1     -37.635  13.657  -4.454  1.00 20.00    -0.390 OA
ENDROOT
TORSDOF 0
ENDMDL
MODEL 2
REMARK VINA RESULT:      -4.6      1.538      2.096
REMARK  0 active torsions:
REMARK  status: ('A' for Active; 'I' for Inactive)
ROOT
HETATM    1  C1  UNL     1     -34.174  17.817  -1.173  1.00 20.00     0.000 C 
HETATM    2  C2  UNL     1     -35.140  18.639  -2.021  1.00 20.00     0.000 C 
HETATM    3  C3  UNL     1     -32.927  17.299  -1.892  1.00 20.00     0.000 C 
HETATM    4  C4  UNL     1     -36.269  17.837  -2.681  1.00 20.00     0.001 C 
HETATM    5  C5  UNL     1     -33.133  16.562  -3.214  1.00 20.00     0.001 C 
HETATM    6  C6  UNL     1     -35.941  17.285  -4.070  1.00 20.00     0.012 C 
HETATM    7  C7  UNL     1     -34.253  15.519  -3.181  1.00 20.00     0.012 C 
HETATM    8  C8  UNL     1     -36.577  14.823  -3.866  1.00 20.00     0.038 C 
HETATM    9  C9  UNL     1     -36.130  13.581  -4.612  1.00 20.00     0.168 C 
HETATM   10  C10 UNL     1     -35.093  15.434  -5.570  1.00 20.00     0.177 C 
HETATM   11  C11 UNL     1     -35.446  15.823  -4.126  1.00 20.00    -0.017 C 
HETATM   12  O12 UNL     1     -35.284  14.017  -5.685  1.00 20.00    -0.390 OA
ENDROOT
TORSDOF 0
ENDMDL
MODEL 3
REMARK VINA RESULT:      -4.5      2.335      3.752
REMARK  0 active torsions:
REMARK  status: ('A' for Active; 'I' for Inactive)
ROOT
HETATM    1  C1  UNL     1     -32.897  18.137   0.136  1.00 20.00     0.000 C 
HETATM    2  C2  UNL     1     -34.414  18.302   0.101  1.00 20.00     0.000 C 
HETATM    3  C3  UNL     1     -32.127  18.783  -1.016  1.00 20.00     0.000 C 
HETATM    4  C4  UNL     1     -35.173  17.165  -0.594  1.00 20.00     0.001 C 
HETATM    5  C5  UNL     1     -32.599  18.475  -2.437  1.00 20.00     0.001 C 
HETATM    6  C6  UNL     1     -35.387  17.358  -2.098  1.00 20.00     0.012 C 
HETATM    7  C7  UNL     1     -32.883  16.993  -2.694  1.00 20.00     0.012 C 
HETATM    8  C8  UNL     1     -34.560  15.150  -3.073  1.00 20.00     0.038 C 
HETATM    9  C9  UNL     1     -34.029  14.766  -4.441  1.00 20.00     0.168 C 
HETATM   10  C10 UNL     1     -34.664  17.007  -4.495  1.00 20.00     0.177 C 
HETATM   11  C11 UNL     1     -34.363  16.669  -3.027  1.00 20.00    -0.017 C 
HETATM   12  O12 UNL     1     -34.182  15.912  -5.289  1.00 20.00    -0.390 OA
ENDROOT
TORSDOF 0
ENDMDL
MODEL 4
REMARK VINA RESULT:      -4.5      1.643      2.706
REMARK  0 active torsions:
REMARK  status: ('A' for Active; 'I' for Inactive)
ROOT
HETATM    1  C1  UNL     1     -34.698  18.276  -2.342  1.00 20.00     0.000 C 
HETATM    2  C2  UNL     1     -33.894  17.067  -1.870  1.00 20.00     0.000 C 
HETATM    3  C3  UNL     1     -36.207  18.063  -2.478  1.00 20.00     0.000 C 
HETATM    4  C4  UNL     1     -33.326  16.189  -2.992  1.00 20.00     0.001 C 
HETATM    5  C5  UNL     1     -36.676  16.848  -3.276  1.00 20.00     0.001 C 
HETATM    6  C6  UNL     1     -34.248  15.057  -3.454  1.00 20.00     0.012 C 
HETATM    7  C7  UNL     1     -35.946  16.653  -4.607  1.00 20.00     0.012 C 
HETATM    8  C8  UNL     1     -34.283  15.356  -5.988  1.00 20.00     0.038 C 
HETATM    9  C9  UNL     1     -35.281  14.953  -7.056  1.00 20.00     0.168 C 
HETATM   10  C10 UNL     1     -36.031  14.151  -5.001  1.00 20.00     0.177 C 
HETATM   11  C11 UNL     1     -35.114  15.346  -4.701  1.00 20.00    -0.017 C 
HETATM   12  O12 UNL     1     -36.288  14.160  -6.413  1.00 20.00    -0.390 OA
ENDROOT
TORSDOF 0
ENDMDL
MODEL 5
REMARK VINA RESULT:      -4.5      2.386      4.286
REMARK  0 active torsions:
REMARK  status: ('A' for Active; 'I' for Inactive)
ROOT
HETATM    1  C1  UNL     1     -36.580  15.670  -6.119  1.00 20.00     0.000 C 
HETATM    2  C2  UNL     1     -35.863  14.386  -5.708  1.00 20.00     0.000 C 
HETATM    3  C3  UNL     1     -35.680  16.857  -6.468  1.00 20.00     0.000 C 
HETATM    4  C4  UNL     1     -35.640  14.223  -4.200  1.00 20.00     0.001 C 
HETATM    5  C5  UNL     1     -34.590  17.230  -5.464  1.00 20.00     0.001 C 
HETATM    6  C6  UNL     1     -34.326  14.807  -3.675  1.00 20.00     0.012 C 
HETATM    7  C7  UNL     1     -35.067  17.276  -4.010  1.00 20.00     0.012 C 
HETATM    8  C8  UNL     1     -35.090  16.244  -1.710  1.00 20.00     0.038 C 
HETATM    9  C9  UNL     1     -34.479  17.447  -1.018  1.00 20.00     0.168 C 
HETATM   10  C10 UNL     1     -33.001  16.706  -2.660  1.00 20.00     0.177 C 
HETATM   11  C11 UNL     1     -34.400  16.230  -3.078  1.00 20.00    -0.017 C 
HETATM   12  O12 UNL     1     -33.176  17.641  -1.585  1.00 20.00    -0.390 OA
ENDROOT
TORSDOF 0
ENDMDL
MODEL 6
REMARK VINA RESULT:      -4.5      1.692      2.347
REMARK  0 active torsions:
REMARK  status: ('A' for Active; 'I' for Inactive)
ROOT
HETATM    1  C1  UNL     1     -34.387  18.590  -1.677  1.00 20.00     0.000 C 
HETATM    2  C2  UNL     1     -32.985  18.158  -2.101  1.00 20.00     0.000 C 
HETATM    3  C3  UNL     1     -35.202  17.549  -0.908  1.00 20.00     0.000 C 
HETATM    4  C4  UNL     1     -32.893  17.546  -3.505  1.00 20.00     0.001 C 
HETATM    5  C5  UNL     1     -35.306  16.150  -1.513  1.00 20.00     0.001 C 
HETATM    6  C6  UNL     1     -33.085  16.029  -3.560  1.00 20.00     0.012 C 
HETATM    7  C7  UNL     1     -35.624  16.138  -3.011  1.00 20.00     0.012 C 
HETATM    8  C8  UNL     1     -34.852  15.749  -5.379  1.00 20.00     0.038 C 
HETATM    9  C9  UNL     1     -35.863  14.656  -5.670  1.00 20.00     0.168 C 
HETATM   10  C10 UNL     1     -34.562  13.997  -3.853  1.00 20.00     0.177 C 
HETATM   11  C11 UNL     1     -34.508  15.532  -3.902  1.00 20.00    -0.017 C 
HETATM   12  O12 UNL     1     -35.595  13.582  -4.759  1.00 20.00    -0.390 OA
ENDROOT
TORSDOF 0
ENDMDL
MODEL 7
REMARK VINA RESULT:      -4.5      1.516      1.976
REMARK  0 active torsions:
REMARK  status: ('A' for Active; 'I' for Inactive)
ROOT
HETATM    1  C1  UNL     1     -33.090  16.315  -3.459  1.00 20.00     0.000 C 
HETATM    2  C2  UNL     1     -33.020  14.987  -4.209  1.00 20.00     0.000 C 
HETATM    3  C3  UNL     1     -34.043  16.358  -2.263  1.00 20.00     0.000 C 
HETATM    4  C4  UNL     1     -33.978  14.864  -5.400  1.00 20.00     0.001 C 
HETATM    5  C5  UNL     1     -35.473  15.870  -2.486  1.00 20.00     0.001 C 
HETATM    6  C6  UNL     1     -35.357  14.292  -5.062  1.00 20.00     0.012 C 
HETATM    7  C7  UNL     1     -36.126  16.407  -3.761  1.00 20.00     0.012 C 
HETATM    8  C8  UNL     1     -36.945  15.992  -6.109  1.00 20.00     0.038 C 
HETATM    9  C9  UNL     1     -38.385  16.369  -5.817  1.00 20.00     0.168 C 
HETATM   10  C10 UNL     1     -37.782  14.606  -4.418  1.00 20.00     0.177 C 
HETATM   11  C11 UNL     1     -36.481  15.322  -4.812  1.00 20.00    -0.017 C 
HETATM   12  O12 UNL     1     -38.869  15.447  -4.831  1.00 20.00    -0.390 OA
ENDROOT
TORSDOF 0
ENDMDL
MODEL 8
REMARK VINA RESULT:      -4.4      0.944      2.578
REMARK  0 active torsions:
REMARK  status: ('A' for Active; 'I' for Inactive)
ROOT
HETATM    1  C1  UNL     1     -33.243  18.343  -4.052  1.00 20.00     0.000 C 
HETATM    2  C2  UNL     1     -33.547  18.012  -2.593  1.00 20.00     0.000 C 
HETATM    3  C3  UNL     1     -34.451  18.679  -4.928  1.00 20.00     0.000 C 
HETATM    4  C4  UNL     1     -33.750  16.522  -2.295  1.00 20.00     0.001 C 
HETATM    5  C5  UNL     1     -35.628  17.705  -4.904  1.00 20.00     0.001 C 
HETATM    6  C6  UNL     1     -35.192  16.028  -2.428  1.00 20.00     0.012 C 
HETATM    7  C7  UNL     1     -35.226  16.233  -5.019  1.00 20.00     0.012 C 
HETATM    8  C8  UNL     1     -34.952  13.978  -3.927  1.00 20.00     0.038 C 
HETATM    9  C9  UNL     1     -35.917  13.263  -4.853  1.00 20.00     0.168 C 
HETATM   10  C10 UNL     1     -37.057  14.991  -3.784  1.00 20.00     0.177 C 
HETATM   11  C11 UNL     1     -35.569  15.372  -3.775  1.00 20.00    -0.017 C 
HETATM   12  O12 UNL     1     -37.202  13.874  -4.673  1.00 20.00    -0.390 OA
ENDROOT
TORSDOF 0
ENDMDL
MODEL 9
REMARK VINA RESULT:      -4.4      2.685      4.351
REMARK  0 active torsions:
REMARK  status: ('A' for Active; 'I' for Inactive)
ROOT
HETATM    1  C1  UNL     1     -32.189  18.270   0.816  1.00 20.00     0.000 C 
HETATM    2  C2  UNL     1     -33.641  18.697   1.018  1.00 20.00     0.000 C 
HETATM    3  C3  UNL     1     -31.485  18.855  -0.409  1.00 20.00     0.000 C 
HETATM    4  C4  UNL     1     -34.685  17.762   0.395  1.00 20.00     0.001 C 
HETATM    5  C5  UNL     1     -32.200  18.735  -1.754  1.00 20.00     0.001 C 
HETATM    6  C6  UNL     1     -35.069  18.095  -1.049  1.00 20.00     0.012 C 
HETATM    7  C7  UNL     1     -32.782  17.347  -2.032  1.00 20.00     0.012 C 
HETATM    8  C8  UNL     1     -34.802  15.853  -2.236  1.00 20.00     0.038 C 
HETATM    9  C9  UNL     1     -34.548  15.481  -3.684  1.00 20.00     0.168 C 
HETATM   10  C10 UNL     1     -34.767  17.796  -3.541  1.00 20.00     0.177 C 
HETATM   11  C11 UNL     1     -34.329  17.307  -2.152  1.00 20.00    -0.017 C 
HETATM   12  O12 UNL     1     -34.609  16.694  -4.447  1.00 20.00    -0.390 OA
ENDROOT
TORSDOF 0
ENDMDL
