MODEL 1
REMARK VINA RESULT:      -3.7      0.000      0.000
REMARK  3 active torsions:
REMARK  status: ('A' for Active; 'I' for Inactive)
REMARK    1  A    between atoms: C5_5  and  C7_7 
REMARK    2  A    between atoms: C5_5  and  C8_8 
REMARK    3  A    between atoms: C6_6  and  C8_8 
ROOT
HETATM    1  C3  UNL     1     -24.318  16.209  10.944  1.00 20.00     0.016 C 
HETATM    2  C4  UNL     1     -22.558  17.471  12.196  1.00 20.00     0.016 C 
HETATM    3  C8  UNL     1     -23.891  17.612  11.425  1.00 20.00    -0.035 C 
ENDROOT
BRANCH   3   4
HETATM    4  C5  UNL     1     -23.607  18.529  10.190  1.00 20.00     0.013 C 
BRANCH   4   5
HETATM    5  C7  UNL     1     -23.742  17.880   8.792  1.00 20.00    -0.022 C 
HETATM    6  C1  UNL     1     -24.514  18.781   7.822  1.00 20.00     0.009 C 
HETATM    7  C2  UNL     1     -22.356  17.597   8.204  1.00 20.00     0.009 C 
ENDBRANCH   4   5
ENDBRANCH   3   4
BRANCH   3   8
HETATM    8  C6  UNL     1     -24.975  18.237  12.331  1.00 20.00     0.123 C 
HETATM    9 CL9  UNL     1     -26.156  19.261  11.466  1.00 20.00    -0.130 Cl
ENDBRANCH   3   8
TORSDOF 3
ENDMDL
MODEL 2
REMARK VINA RESULT:      -3.7     16.138     18.082
REMARK  3 active torsions:
REMARK  status: ('A' for Active; 'I' for Inactive)
REMARK    1  A    between atoms: C5_5  and  C7_7 
REMARK    2  A    between atoms: C5_5  and  C8_8 
REMARK    3  A    between atoms: C6_6  and  C8_8 
ROOT
HETATM    1  C3  UNL     1     -34.517  15.122  -6.170  1.00 20.00     0.016 C 
HETATM    2  C4  UNL     1     -32.886  14.397  -4.418  1.00 20.00     0.016 C 
HETATM    3  C8  UNL     1     -34.334  14.882  -4.656  1.00 20.00    -0.035 C 
ENDROOT
BRANCH   3   4
HETATM    4  C5  UNL     1     -34.494  16.233  -3.886  1.00 20.00     0.013 C 
BRANCH   4   5
HETATM    5  C7  UNL     1     -33.982  16.272  -2.427  1.00 20.00    -0.022 C 
HETATM    6  C1  UNL     1     -32.943  17.379  -2.219  1.00 20.00     0.009 C 
HETATM    7  C2  UNL     1     -35.150  16.505  -1.462  1.00 20.00     0.009 C 
ENDBRANCH   4   5
ENDBRANCH   3   4
BRANCH   3   8
HETATM    8  C6  UNL     1     -35.346  13.835  -4.139  1.00 20.00     0.123 C 
HETATM    9 CL9  UNL     1     -37.057  14.324  -4.300  1.00 20.00    -0.130 Cl
ENDBRANCH   3   8
TORSDOF 3
ENDMDL
MODEL 3
REMARK VINA RESULT:      -3.6     16.270     18.221
REMARK  3 active torsions:
REMARK  status: ('A' for Active; 'I' for Inactive)
REMARK    1  A    between atoms: C5_5  and  C7_7 
REMARK    2  A    between atoms: C5_5  and  C8_8 
REMARK    3  A    between atoms: C6_6  and  C8_8 
ROOT
HETATM    1  C3  UNL     1     -32.953  14.424  -4.564  1.00 20.00     0.016 C 
HETATM    2  C4  UNL     1     -35.285  13.815  -3.896  1.00 20.00     0.016 C 
HETATM    3  C8  UNL     1     -34.427  14.877  -4.621  1.00 20.00    -0.035 C 
ENDROOT
BRANCH   3   4
HETATM    4  C5  UNL     1     -34.598  16.216  -3.831  1.00 20.00     0.013 C 
BRANCH   4   5
HETATM    5  C7  UNL     1     -34.018  16.262  -2.398  1.00 20.00    -0.022 C 
HETATM    6  C1  UNL     1     -32.911  17.314  -2.268  1.00 20.00     0.009 C 
HETATM    7  C2  UNL     1     -35.126  16.585  -1.389  1.00 20.00     0.009 C 
ENDBRANCH   4   5
ENDBRANCH   3   4
BRANCH   3   8
HETATM    8  C6  UNL     1     -34.896  15.042  -6.084  1.00 20.00     0.123 C 
HETATM    9 CL9  UNL     1     -33.578  14.990  -7.288  1.00 20.00    -0.130 Cl
ENDBRANCH   3   8
TORSDOF 3
ENDMDL
MODEL 4
REMARK VINA RESULT:      -3.5     15.914     17.943
REMARK  3 active torsions:
REMARK  status: ('A' for Active; 'I' for Inactive)
REMARK    1  A    between atoms: C5_5  and  C7_7 
REMARK    2  A    between atoms: C5_5  and  C8_8 
REMARK    3  A    between atoms: C6_6  and  C8_8 
ROOT
HETATM    1  C3  UNL     1     -36.550  14.314  -4.195  1.00 20.00     0.016 C 
HETATM    2  C4  UNL     1     -36.058  16.751  -4.468  1.00 20.00     0.016 C 
HETATM    3  C8  UNL     1     -35.431  15.376  -4.141  1.00 20.00    -0.035 C 
ENDROOT
BRANCH   3   4
HETATM    4  C5  UNL     1     -34.863  15.469  -2.687  1.00 20.00     0.013 C 
BRANCH   4   5
HETATM    5  C7  UNL     1     -34.642  16.888  -2.112  1.00 20.00    -0.022 C 
HETATM    6  C1  UNL     1     -35.178  17.011  -0.682  1.00 20.00     0.009 C 
HETATM    7  C2  UNL     1     -33.148  17.230  -2.109  1.00 20.00     0.009 C 
ENDBRANCH   4   5
ENDBRANCH   3   4
BRANCH   3   8
HETATM    8  C6  UNL     1     -34.306  15.042  -5.146  1.00 20.00     0.123 C 
HETATM    9 CL9  UNL     1     -32.802  14.442  -4.393  1.00 20.00    -0.130 Cl
ENDBRANCH   3   8
TORSDOF 3
ENDMDL
MODEL 5
REMARK VINA RESULT:      -3.5     16.357     18.406
REMARK  3 active torsions:
REMARK  status: ('A' for Active; 'I' for Inactive)
REMARK    1  A    between atoms: C5_5  and  C7_7 
REMARK    2  A    between atoms: C5_5  and  C8_8 
REMARK    3  A    between atoms: C6_6  and  C8_8 
ROOT
HETATM    1  C3  UNL     1     -35.765  16.436  -5.022  1.00 20.00     0.016 C 
HETATM    2  C4  UNL     1     -33.944  14.854  -5.687  1.00 20.00     0.016 C 
HETATM    3  C8  UNL     1     -35.076  15.103  -4.662  1.00 20.00    -0.035 C 
ENDROOT
BRANCH   3   4
HETATM    4  C5  UNL     1     -34.399  15.221  -3.258  1.00 20.00     0.013 C 
BRANCH   4   5
HETATM    5  C7  UNL     1     -34.409  16.618  -2.592  1.00 20.00    -0.022 C 
HETATM    6  C1  UNL     1     -35.167  16.605  -1.260  1.00 20.00     0.009 C 
HETATM    7  C2  UNL     1     -32.974  17.093  -2.338  1.00 20.00     0.009 C 
ENDBRANCH   4   5
ENDBRANCH   3   4
BRANCH   3   8
HETATM    8  C6  UNL     1     -36.089  13.936  -4.684  1.00 20.00     0.123 C 
HETATM    9 CL9  UNL     1     -37.767  14.413  -4.298  1.00 20.00    -0.130 Cl
ENDBRANCH   3   8
TORSDOF 3
ENDMDL
MODEL 6
REMARK VINA RESULT:      -3.4     15.491     16.706
REMARK  3 active torsions:
REMARK  status: ('A' for Active; 'I' for Inactive)
REMARK    1  A    between atoms: C5_5  and  C7_7 
REMARK    2  A    between atoms: C5_5  and  C8_8 
REMARK    3  A    between atoms: C6_6  and  C8_8 
ROOT
HETATM    1  C3  UNL     1     -31.645   7.394   3.480  1.00 20.00     0.016 C 
HETATM    2  C4  UNL     1     -32.741   5.471   2.314  1.00 20.00     0.016 C 
HETATM    3  C8  UNL     1     -32.926   6.944   2.747  1.00 20.00    -0.035 C 
ENDROOT
BRANCH   3   4
HETATM    4  C5  UNL     1     -34.138   6.979   3.734  1.00 20.00     0.013 C 
BRANCH   4   5
HETATM    5  C7  UNL     1     -34.135   5.942   4.883  1.00 20.00    -0.022 C 
HETATM    6  C1  UNL     1     -34.172   6.618   6.257  1.00 20.00     0.009 C 
HETATM    7  C2  UNL     1     -35.347   5.012   4.758  1.00 20.00     0.009 C 
ENDBRANCH   4   5
ENDBRANCH   3   4
BRANCH   3   8
HETATM    8  C6  UNL     1     -33.198   7.838   1.516  1.00 20.00     0.123 C 
HETATM    9 CL9  UNL     1     -31.811   7.998   0.403  1.00 20.00    -0.130 Cl
ENDBRANCH   3   8
TORSDOF 3
ENDMDL
MODEL 7
REMARK VINA RESULT:      -3.4     16.308     18.339
REMARK  3 active torsions:
REMARK  status: ('A' for Active; 'I' for Inactive)
REMARK    1  A    between atoms: C5_5  and  C7_7 
REMARK    2  A    between atoms: C5_5  and  C8_8 
REMARK    3  A    between atoms: C6_6  and  C8_8 
ROOT
HETATM    1  C3  UNL     1     -34.126  14.942  -5.615  1.00 20.00     0.016 C 
HETATM    2  C4  UNL     1     -35.994  13.716  -4.492  1.00 20.00     0.016 C 
HETATM    3  C8  UNL     1     -35.210  15.048  -4.522  1.00 20.00    -0.035 C 
ENDROOT
BRANCH   3   4
HETATM    4  C5  UNL     1     -34.533  15.209  -3.122  1.00 20.00     0.013 C 
BRANCH   4   5
HETATM    5  C7  UNL     1     -34.466  16.639  -2.537  1.00 20.00    -0.022 C 
HETATM    6  C1  UNL     1     -35.139  16.722  -1.163  1.00 20.00     0.009 C 
HETATM    7  C2  UNL     1     -33.006  17.086  -2.398  1.00 20.00     0.009 C 
ENDBRANCH   4   5
ENDBRANCH   3   4
BRANCH   3   8
HETATM    8  C6  UNL     1     -36.165  16.230  -4.806  1.00 20.00     0.123 C 
HETATM    9 CL9  UNL     1     -35.506  17.452  -5.930  1.00 20.00    -0.130 Cl
ENDBRANCH   3   8
TORSDOF 3
ENDMDL
MODEL 8
REMARK VINA RESULT:      -3.4     16.126     17.844
REMARK  3 active torsions:
REMARK  status: ('A' for Active; 'I' for Inactive)
REMARK    1  A    between atoms: C5_5  and  C7_7 
REMARK    2  A    between atoms: C5_5  and  C8_8 
REMARK    3  A    between atoms: C6_6  and  C8_8 
ROOT
HETATM    1  C3  UNL     1     -35.159  16.643  -1.202  1.00 20.00     0.016 C 
HETATM    2  C4  UNL     1     -33.027  17.026  -2.453  1.00 20.00     0.016 C 
HETATM    3  C8  UNL     1     -34.512  16.620  -2.603  1.00 20.00    -0.035 C 
ENDROOT
BRANCH   3   4
HETATM    4  C5  UNL     1     -34.530  15.163  -3.168  1.00 20.00     0.013 C 
BRANCH   4   5
HETATM    5  C7  UNL     1     -35.173  14.960  -4.560  1.00 20.00    -0.022 C 
HETATM    6  C1  UNL     1     -34.113  14.817  -5.658  1.00 20.00     0.009 C 
HETATM    7  C2  UNL     1     -36.053  13.705  -4.559  1.00 20.00     0.009 C 
ENDBRANCH   4   5
ENDBRANCH   3   4
BRANCH   3   8
HETATM    8  C6  UNL     1     -35.241  17.587  -3.562  1.00 20.00     0.123 C 
HETATM    9 CL9  UNL     1     -34.161  18.468  -4.680  1.00 20.00    -0.130 Cl
ENDBRANCH   3   8
TORSDOF 3
ENDMDL
MODEL 9
REMARK VINA RESULT:      -3.3     15.389     16.923
REMARK  3 active torsions:
REMARK  status: ('A' for Active; 'I' for Inactive)
REMARK    1  A    between atoms: C5_5  and  C7_7 
REMARK    2  A    between atoms: C5_5  and  C8_8 
REMARK    3  A    between atoms: C6_6  and  C8_8 
ROOT
HETATM    1  C3  UNL     1     -35.154  17.881  -3.257  1.00 20.00     0.016 C 
HETATM    2  C4  UNL     1     -35.015  17.281  -0.832  1.00 20.00     0.016 C 
HETATM    3  C8  UNL     1     -34.392  17.023  -2.224  1.00 20.00    -0.035 C 
ENDROOT
BRANCH   3   4
HETATM    4  C5  UNL     1     -34.601  15.507  -2.542  1.00 20.00     0.013 C 
BRANCH   4   5
HETATM    5  C7  UNL     1     -34.567  15.093  -4.032  1.00 20.00    -0.022 C 
HETATM    6  C1  UNL     1     -33.196  14.540  -4.436  1.00 20.00     0.009 C 
HETATM    7  C2  UNL     1     -35.630  14.024  -4.308  1.00 20.00     0.009 C 
ENDBRANCH   4   5
ENDBRANCH   3   4
BRANCH   3   8
HETATM    8  C6  UNL     1     -32.889  17.378  -2.216  1.00 20.00     0.123 C 
HETATM    9 CL9  UNL     1     -32.333  18.191  -0.726  1.00 20.00    -0.130 Cl
ENDBRANCH   3   8
TORSDOF 3
ENDMDL
