MODEL 1
REMARK VINA RESULT:      -3.6      0.000      0.000
REMARK  1 active torsions:
REMARK  status: ('A' for Active; 'I' for Inactive)
REMARK    1  A    between atoms: C4_4  and  O5_5 
ROOT
HETATM    1  C1  UNL     1     -33.944   6.788   5.996  1.00 20.00     0.014 C 
HETATM    2  C2  UNL     1     -34.467   5.982   5.277  1.00 20.00    -0.091 C 
HETATM    3  C4  UNL     1     -35.109   5.001   4.400  1.00 20.00     0.259 C 
ENDROOT
BRANCH   3   4
HETATM    4  O5  UNL     1     -34.130   4.245   3.699  1.00 20.00    -0.384 OA
HETATM    5  C3  UNL     1     -33.472   5.031   2.715  1.00 20.00     0.202 C 
ENDBRANCH   3   4
TORSDOF 1
ENDMDL
MODEL 2
REMARK VINA RESULT:      -3.5      1.184      2.765
REMARK  1 active torsions:
REMARK  status: ('A' for Active; 'I' for Inactive)
REMARK    1  A    between atoms: C4_4  and  O5_5 
ROOT
HETATM    1  C1  UNL     1     -33.308   5.040   2.625  1.00 20.00     0.014 C 
HETATM    2  C2  UNL     1     -34.153   5.108   3.475  1.00 20.00    -0.091 C 
HETATM    3  C4  UNL     1     -35.186   5.191   4.508  1.00 20.00     0.259 C 
ENDROOT
BRANCH   3   4
HETATM    4  O5  UNL     1     -34.596   5.344   5.792  1.00 20.00    -0.384 OA
HETATM    5  C3  UNL     1     -34.043   6.642   5.960  1.00 20.00     0.202 C 
ENDBRANCH   3   4
TORSDOF 1
ENDMDL
MODEL 3
REMARK VINA RESULT:      -3.3      1.440      2.629
REMARK  1 active torsions:
REMARK  status: ('A' for Active; 'I' for Inactive)
REMARK    1  A    between atoms: C4_4  and  O5_5 
ROOT
HETATM    1  C1  UNL     1     -32.667   6.919   2.684  1.00 20.00     0.014 C 
HETATM    2  C2  UNL     1     -33.355   6.018   3.079  1.00 20.00    -0.091 C 
HETATM    3  C4  UNL     1     -34.192   4.917   3.558  1.00 20.00     0.259 C 
ENDROOT
BRANCH   3   4
HETATM    4  O5  UNL     1     -35.202   5.404   4.431  1.00 20.00    -0.384 OA
HETATM    5  C3  UNL     1     -34.789   5.348   5.789  1.00 20.00     0.202 C 
ENDBRANCH   3   4
TORSDOF 1
ENDMDL
MODEL 4
REMARK VINA RESULT:      -3.2      1.322      1.509
REMARK  1 active torsions:
REMARK  status: ('A' for Active; 'I' for Inactive)
REMARK    1  A    between atoms: C4_4  and  O5_5 
ROOT
HETATM    1  C1  UNL     1     -34.748   5.413   5.929  1.00 20.00     0.014 C 
HETATM    2  C2  UNL     1     -34.573   5.221   4.756  1.00 20.00    -0.091 C 
HETATM    3  C4  UNL     1     -34.364   4.987   3.327  1.00 20.00     0.259 C 
ENDROOT
BRANCH   3   4
HETATM    4  O5  UNL     1     -33.036   5.334   2.955  1.00 20.00    -0.384 OA
HETATM    5  C3  UNL     1     -32.860   6.743   2.906  1.00 20.00     0.202 C 
ENDBRANCH   3   4
TORSDOF 1
ENDMDL
MODEL 5
REMARK VINA RESULT:      -3.1      3.222      4.107
REMARK  1 active torsions:
REMARK  status: ('A' for Active; 'I' for Inactive)
REMARK    1  A    between atoms: C4_4  and  O5_5 
ROOT
HETATM    1  C1  UNL     1     -33.388   4.920   2.619  1.00 20.00     0.014 C 
HETATM    2  C2  UNL     1     -32.973   6.043   2.526  1.00 20.00    -0.091 C 
HETATM    3  C4  UNL     1     -32.467   7.412   2.416  1.00 20.00     0.259 C 
ENDROOT
BRANCH   3   4
HETATM    4  O5  UNL     1     -32.274   7.763   1.053  1.00 20.00    -0.384 OA
HETATM    5  C3  UNL     1     -32.940   8.976   0.728  1.00 20.00     0.202 C 
ENDBRANCH   3   4
TORSDOF 1
ENDMDL
MODEL 6
REMARK VINA RESULT:      -3.0      2.854      3.955
REMARK  1 active torsions:
REMARK  status: ('A' for Active; 'I' for Inactive)
REMARK    1  A    between atoms: C4_4  and  O5_5 
ROOT
HETATM    1  C1  UNL     1     -32.892   8.610   0.519  1.00 20.00     0.014 C 
HETATM    2  C2  UNL     1     -32.587   7.953   1.476  1.00 20.00    -0.091 C 
HETATM    3  C4  UNL     1     -32.212   7.153   2.643  1.00 20.00     0.259 C 
ENDROOT
BRANCH   3   4
HETATM    4  O5  UNL     1     -33.339   6.448   3.146  1.00 20.00    -0.384 OA
HETATM    5  C3  UNL     1     -33.382   5.116   2.653  1.00 20.00     0.202 C 
ENDBRANCH   3   4
TORSDOF 1
ENDMDL
MODEL 7
REMARK VINA RESULT:      -2.9     12.236     12.278
REMARK  1 active torsions:
REMARK  status: ('A' for Active; 'I' for Inactive)
REMARK    1  A    between atoms: C4_4  and  O5_5 
ROOT
HETATM    1  C1  UNL     1     -34.836  16.105  -2.130  1.00 20.00     0.014 C 
HETATM    2  C2  UNL     1     -34.523  15.355  -3.013  1.00 20.00    -0.091 C 
HETATM    3  C4  UNL     1     -34.138  14.443  -4.091  1.00 20.00     0.259 C 
ENDROOT
BRANCH   3   4
HETATM    4  O5  UNL     1     -35.012  13.322  -4.130  1.00 20.00    -0.384 OA
HETATM    5  C3  UNL     1     -36.286  13.672  -4.654  1.00 20.00     0.202 C 
ENDBRANCH   3   4
TORSDOF 1
ENDMDL
MODEL 8
REMARK VINA RESULT:      -2.9      1.690      2.992
REMARK  1 active torsions:
REMARK  status: ('A' for Active; 'I' for Inactive)
REMARK    1  A    between atoms: C4_4  and  O5_5 
ROOT
HETATM    1  C1  UNL     1     -33.265   4.851   2.540  1.00 20.00     0.014 C 
HETATM    2  C2  UNL     1     -33.603   5.700   3.319  1.00 20.00    -0.091 C 
HETATM    3  C4  UNL     1     -34.015   6.738   4.265  1.00 20.00     0.259 C 
ENDROOT
BRANCH   3   4
HETATM    4  O5  UNL     1     -33.888   6.271   5.602  1.00 20.00    -0.384 OA
HETATM    5  C3  UNL     1     -34.829   5.245   5.887  1.00 20.00     0.202 C 
ENDBRANCH   3   4
TORSDOF 1
ENDMDL
MODEL 9
REMARK VINA RESULT:      -2.9     12.447     12.774
REMARK  1 active torsions:
REMARK  status: ('A' for Active; 'I' for Inactive)
REMARK    1  A    between atoms: C4_4  and  O5_5 
ROOT
HETATM    1  C1  UNL     1     -34.711  15.119  -3.202  1.00 20.00     0.014 C 
HETATM    2  C2  UNL     1     -35.414  14.536  -3.980  1.00 20.00    -0.091 C 
HETATM    3  C4  UNL     1     -36.269  13.824  -4.932  1.00 20.00     0.259 C 
ENDROOT
BRANCH   3   4
HETATM    4  O5  UNL     1     -37.575  13.656  -4.398  1.00 20.00    -0.384 OA
HETATM    5  C3  UNL     1     -38.254  14.899  -4.282  1.00 20.00     0.202 C 
ENDBRANCH   3   4
TORSDOF 1
ENDMDL
