MODEL 1
REMARK VINA RESULT:      -5.1      0.000      0.000
REMARK  2 active torsions:
REMARK  status: ('A' for Active; 'I' for Inactive)
REMARK    1  A    between atoms: C1_1  and  C3_3 
REMARK    2  A    between atoms: C2_2  and  C4_4 
ROOT
HETATM    1  C1  UNL     1     -33.991   6.030   3.875  1.00 20.00     0.017 C 
HETATM    2  C2  UNL     1     -33.256   6.681   3.183  1.00 20.00     0.017 C 
ENDROOT
BRANCH   1   3
HETATM    3  C3  UNL     1     -34.881   5.244   4.709  1.00 20.00     0.459 C 
HETATM    4  F5  UNL     1     -36.148   5.292   4.241  1.00 20.00    -0.159 F 
HETATM    5  F6  UNL     1     -34.495   3.950   4.740  1.00 20.00    -0.159 F 
HETATM    6  F7  UNL     1     -34.887   5.709   5.979  1.00 20.00    -0.159 F 
ENDBRANCH   1   3
BRANCH   2   7
HETATM    7  C4  UNL     1     -32.367   7.468   2.348  1.00 20.00     0.459 C 
HETATM    8  F8  UNL     1     -31.323   7.938   3.065  1.00 20.00    -0.159 F 
HETATM    9  F9  UNL     1     -33.019   8.526   1.815  1.00 20.00    -0.159 F 
HETATM   10  F10 UNL     1     -31.877   6.725   1.332  1.00 20.00    -0.159 F 
ENDBRANCH   2   7
TORSDOF 2
ENDMDL
MODEL 2
REMARK VINA RESULT:      -5.1      0.026      1.688
REMARK  2 active torsions:
REMARK  status: ('A' for Active; 'I' for Inactive)
REMARK    1  A    between atoms: C1_1  and  C3_3 
REMARK    2  A    between atoms: C2_2  and  C4_4 
ROOT
HETATM    1  C1  UNL     1     -33.990   6.025   3.861  1.00 20.00     0.017 C 
HETATM    2  C2  UNL     1     -33.260   6.684   3.172  1.00 20.00     0.017 C 
ENDROOT
BRANCH   1   3
HETATM    3  C3  UNL     1     -34.873   5.230   4.694  1.00 20.00     0.459 C 
HETATM    4  F5  UNL     1     -34.484   3.936   4.710  1.00 20.00    -0.159 F 
HETATM    5  F6  UNL     1     -34.872   5.682   5.967  1.00 20.00    -0.159 F 
HETATM    6  F7  UNL     1     -36.143   5.279   4.233  1.00 20.00    -0.159 F 
ENDBRANCH   1   3
BRANCH   2   7
HETATM    7  C4  UNL     1     -32.377   7.482   2.341  1.00 20.00     0.459 C 
HETATM    8  F8  UNL     1     -31.864   6.741   1.334  1.00 20.00    -0.159 F 
HETATM    9  F9  UNL     1     -31.346   7.973   3.065  1.00 20.00    -0.159 F 
HETATM   10  F10 UNL     1     -33.040   8.526   1.797  1.00 20.00    -0.159 F 
ENDBRANCH   2   7
TORSDOF 2
ENDMDL
MODEL 3
REMARK VINA RESULT:      -5.1      0.020      4.580
REMARK  2 active torsions:
REMARK  status: ('A' for Active; 'I' for Inactive)
REMARK    1  A    between atoms: C1_1  and  C3_3 
REMARK    2  A    between atoms: C2_2  and  C4_4 
ROOT
HETATM    1  C1  UNL     1     -33.255   6.689   3.189  1.00 20.00     0.017 C 
HETATM    2  C2  UNL     1     -33.995   6.041   3.877  1.00 20.00     0.017 C 
ENDROOT
BRANCH   1   3
HETATM    3  C3  UNL     1     -32.360   7.473   2.357  1.00 20.00     0.459 C 
HETATM    4  F5  UNL     1     -31.309   7.926   3.076  1.00 20.00    -0.159 F 
HETATM    5  F6  UNL     1     -31.879   6.732   1.335  1.00 20.00    -0.159 F 
HETATM    6  F7  UNL     1     -33.001   8.541   1.833  1.00 20.00    -0.159 F 
ENDBRANCH   1   3
BRANCH   2   7
HETATM    7  C4  UNL     1     -34.891   5.259   4.709  1.00 20.00     0.459 C 
HETATM    8  F8  UNL     1     -34.519   3.961   4.729  1.00 20.00    -0.159 F 
HETATM    9  F9  UNL     1     -36.159   5.324   4.245  1.00 20.00    -0.159 F 
HETATM   10  F10 UNL     1     -34.888   5.715   5.981  1.00 20.00    -0.159 F 
ENDBRANCH   2   7
TORSDOF 2
ENDMDL
MODEL 4
REMARK VINA RESULT:      -5.1      0.019      1.197
REMARK  2 active torsions:
REMARK  status: ('A' for Active; 'I' for Inactive)
REMARK    1  A    between atoms: C1_1  and  C3_3 
REMARK    2  A    between atoms: C2_2  and  C4_4 
ROOT
HETATM    1  C1  UNL     1     -33.984   6.029   3.869  1.00 20.00     0.017 C 
HETATM    2  C2  UNL     1     -33.249   6.682   3.181  1.00 20.00     0.017 C 
ENDROOT
BRANCH   1   3
HETATM    3  C3  UNL     1     -34.874   5.239   4.700  1.00 20.00     0.459 C 
HETATM    4  F5  UNL     1     -36.145   5.306   4.245  1.00 20.00    -0.159 F 
HETATM    5  F6  UNL     1     -34.501   3.939   4.706  1.00 20.00    -0.159 F 
HETATM    6  F7  UNL     1     -34.863   5.683   5.977  1.00 20.00    -0.159 F 
ENDBRANCH   1   3
BRANCH   2   7
HETATM    7  C4  UNL     1     -32.361   7.474   2.349  1.00 20.00     0.459 C 
HETATM    8  F8  UNL     1     -33.012   8.533   1.822  1.00 20.00    -0.159 F 
HETATM    9  F9  UNL     1     -31.870   6.734   1.330  1.00 20.00    -0.159 F 
HETATM   10  F10 UNL     1     -31.316   7.940   3.068  1.00 20.00    -0.159 F 
ENDBRANCH   2   7
TORSDOF 2
ENDMDL
MODEL 5
REMARK VINA RESULT:      -5.1      0.019      4.580
REMARK  2 active torsions:
REMARK  status: ('A' for Active; 'I' for Inactive)
REMARK    1  A    between atoms: C1_1  and  C3_3 
REMARK    2  A    between atoms: C2_2  and  C4_4 
ROOT
HETATM    1  C1  UNL     1     -33.254   6.689   3.190  1.00 20.00     0.017 C 
HETATM    2  C2  UNL     1     -33.994   6.043   3.880  1.00 20.00     0.017 C 
ENDROOT
BRANCH   1   3
HETATM    3  C3  UNL     1     -32.361   7.472   2.357  1.00 20.00     0.459 C 
HETATM    4  F5  UNL     1     -33.003   8.539   1.832  1.00 20.00    -0.159 F 
HETATM    5  F6  UNL     1     -31.309   7.928   3.073  1.00 20.00    -0.159 F 
HETATM    6  F7  UNL     1     -31.879   6.729   1.335  1.00 20.00    -0.159 F 
ENDBRANCH   1   3
BRANCH   2   7
HETATM    7  C4  UNL     1     -34.890   5.261   4.713  1.00 20.00     0.459 C 
HETATM    8  F8  UNL     1     -36.156   5.322   4.247  1.00 20.00    -0.159 F 
HETATM    9  F9  UNL     1     -34.889   5.720   5.984  1.00 20.00    -0.159 F 
HETATM   10  F10 UNL     1     -34.515   3.963   4.737  1.00 20.00    -0.159 F 
ENDBRANCH   2   7
TORSDOF 2
ENDMDL
MODEL 6
REMARK VINA RESULT:      -4.6      1.685      4.792
REMARK  2 active torsions:
REMARK  status: ('A' for Active; 'I' for Inactive)
REMARK    1  A    between atoms: C1_1  and  C3_3 
REMARK    2  A    between atoms: C2_2  and  C4_4 
ROOT
HETATM    1  C1  UNL     1     -33.023   7.662   1.721  1.00 20.00     0.017 C 
HETATM    2  C2  UNL     1     -33.331   7.029   2.693  1.00 20.00     0.017 C 
ENDROOT
BRANCH   1   3
HETATM    3  C3  UNL     1     -32.652   8.426   0.545  1.00 20.00     0.459 C 
HETATM    4  F5  UNL     1     -31.450   8.030   0.072  1.00 20.00    -0.159 F 
HETATM    5  F6  UNL     1     -33.563   8.266  -0.441  1.00 20.00    -0.159 F 
HETATM    6  F7  UNL     1     -32.574   9.745   0.831  1.00 20.00    -0.159 F 
ENDBRANCH   1   3
BRANCH   2   7
HETATM    7  C4  UNL     1     -33.703   6.263   3.869  1.00 20.00     0.459 C 
HETATM    8  F8  UNL     1     -35.034   6.338   4.091  1.00 20.00    -0.159 F 
HETATM    9  F9  UNL     1     -33.069   6.728   4.968  1.00 20.00    -0.159 F 
HETATM   10  F10 UNL     1     -33.377   4.960   3.718  1.00 20.00    -0.159 F 
ENDBRANCH   2   7
TORSDOF 2
ENDMDL
MODEL 7
REMARK VINA RESULT:      -4.6      1.645      2.551
REMARK  2 active torsions:
REMARK  status: ('A' for Active; 'I' for Inactive)
REMARK    1  A    between atoms: C1_1  and  C3_3 
REMARK    2  A    between atoms: C2_2  and  C4_4 
ROOT
HETATM    1  C1  UNL     1     -33.401   6.938   2.700  1.00 20.00     0.017 C 
HETATM    2  C2  UNL     1     -33.070   7.596   1.752  1.00 20.00     0.017 C 
ENDROOT
BRANCH   1   3
HETATM    3  C3  UNL     1     -33.802   6.140   3.844  1.00 20.00     0.459 C 
HETATM    4  F5  UNL     1     -33.432   4.850   3.685  1.00 20.00    -0.159 F 
HETATM    5  F6  UNL     1     -33.230   6.602   4.978  1.00 20.00    -0.159 F 
HETATM    6  F7  UNL     1     -35.143   6.173   4.009  1.00 20.00    -0.159 F 
ENDBRANCH   1   3
BRANCH   2   7
HETATM    7  C4  UNL     1     -32.671   8.393   0.607  1.00 20.00     0.459 C 
HETATM    8  F8  UNL     1     -33.555   8.258  -0.406  1.00 20.00    -0.159 F 
HETATM    9  F9  UNL     1     -31.456   8.011   0.154  1.00 20.00    -0.159 F 
HETATM   10  F10 UNL     1     -32.603   9.703   0.931  1.00 20.00    -0.159 F 
ENDBRANCH   2   7
TORSDOF 2
ENDMDL
MODEL 8
REMARK VINA RESULT:      -4.1     10.703     11.769
REMARK  2 active torsions:
REMARK  status: ('A' for Active; 'I' for Inactive)
REMARK    1  A    between atoms: C1_1  and  C3_3 
REMARK    2  A    between atoms: C2_2  and  C4_4 
ROOT
HETATM    1  C1  UNL     1     -34.485  15.315  -3.044  1.00 20.00     0.017 C 
HETATM    2  C2  UNL     1     -34.650  16.133  -2.181  1.00 20.00     0.017 C 
ENDROOT
BRANCH   1   3
HETATM    3  C3  UNL     1     -34.285  14.325  -4.086  1.00 20.00     0.459 C 
HETATM    4  F5  UNL     1     -34.867  14.718  -5.242  1.00 20.00    -0.159 F 
HETATM    5  F6  UNL     1     -32.969  14.135  -4.325  1.00 20.00    -0.159 F 
HETATM    6  F7  UNL     1     -34.822  13.136  -3.732  1.00 20.00    -0.159 F 
ENDBRANCH   1   3
BRANCH   2   7
HETATM    7  C4  UNL     1     -34.847  17.123  -1.138  1.00 20.00     0.459 C 
HETATM    8  F8  UNL     1     -33.664  17.603  -0.699  1.00 20.00    -0.159 F 
HETATM    9  F9  UNL     1     -35.499  16.587  -0.082  1.00 20.00    -0.159 F 
HETATM   10  F10 UNL     1     -35.578  18.164  -1.595  1.00 20.00    -0.159 F 
ENDBRANCH   2   7
TORSDOF 2
ENDMDL
MODEL 9
REMARK VINA RESULT:      -4.1     10.705     11.643
REMARK  2 active torsions:
REMARK  status: ('A' for Active; 'I' for Inactive)
REMARK    1  A    between atoms: C1_1  and  C3_3 
REMARK    2  A    between atoms: C2_2  and  C4_4 
ROOT
HETATM    1  C1  UNL     1     -34.659  16.120  -2.193  1.00 20.00     0.017 C 
HETATM    2  C2  UNL     1     -34.504  15.297  -3.054  1.00 20.00     0.017 C 
ENDROOT
BRANCH   1   3
HETATM    3  C3  UNL     1     -34.847  17.115  -1.154  1.00 20.00     0.459 C 
HETATM    4  F5  UNL     1     -35.581  18.154  -1.609  1.00 20.00    -0.159 F 
HETATM    5  F6  UNL     1     -35.489  16.585  -0.089  1.00 20.00    -0.159 F 
HETATM    6  F7  UNL     1     -33.659  17.597  -0.727  1.00 20.00    -0.159 F 
ENDBRANCH   1   3
BRANCH   2   7
HETATM    7  C4  UNL     1     -34.316  14.304  -4.095  1.00 20.00     0.459 C 
HETATM    8  F8  UNL     1     -33.002  14.089  -4.325  1.00 20.00    -0.159 F 
HETATM    9  F9  UNL     1     -34.882  14.707  -5.254  1.00 20.00    -0.159 F 
HETATM   10  F10 UNL     1     -34.877  13.126  -3.744  1.00 20.00    -0.159 F 
ENDBRANCH   2   7
TORSDOF 2
ENDMDL
