MODEL 1
REMARK VINA RESULT:      -4.6      0.000      0.000
REMARK  2 active torsions:
REMARK  status: ('A' for Active; 'I' for Inactive)
REMARK    1  A    between atoms: C1_1  and  C2_2 
REMARK    2  A    between atoms: C2_2  and  C3_3 
ROOT
HETATM    1  C3  UNL     1     -34.903   5.291   4.684  1.00 20.00     0.393 C 
HETATM    2  F5  UNL     1     -34.341   4.178   4.167  1.00 20.00    -0.171 F 
HETATM    3  F6  UNL     1     -35.145   5.053   5.992  1.00 20.00    -0.171 F 
HETATM    4  F7  UNL     1     -36.094   5.483   4.078  1.00 20.00    -0.171 F 
ENDROOT
BRANCH   1   5
HETATM    5  C2  UNL     1     -34.001   6.490   4.526  1.00 20.00     0.186 C 
BRANCH   5   6
HETATM    6  C1  UNL     1     -33.187   6.455   3.256  1.00 20.00     0.239 C 
HETATM    7  O4  UNL     1     -32.193   7.142   3.043  1.00 20.00    -0.307 OA
ENDBRANCH   5   6
ENDBRANCH   1   5
TORSDOF 2
ENDMDL
MODEL 2
REMARK VINA RESULT:      -4.6      0.028      1.418
REMARK  2 active torsions:
REMARK  status: ('A' for Active; 'I' for Inactive)
REMARK    1  A    between atoms: C1_1  and  C2_2 
REMARK    2  A    between atoms: C2_2  and  C3_3 
ROOT
HETATM    1  C3  UNL     1     -34.887   5.278   4.695  1.00 20.00     0.393 C 
HETATM    2  F5  UNL     1     -35.117   5.014   5.998  1.00 20.00    -0.171 F 
HETATM    3  F6  UNL     1     -36.085   5.485   4.105  1.00 20.00    -0.171 F 
HETATM    4  F7  UNL     1     -34.340   4.181   4.131  1.00 20.00    -0.171 F 
ENDROOT
BRANCH   1   5
HETATM    5  C2  UNL     1     -34.001   6.488   4.524  1.00 20.00     0.186 C 
BRANCH   5   6
HETATM    6  C1  UNL     1     -33.195   6.455   3.249  1.00 20.00     0.239 C 
HETATM    7  O4  UNL     1     -32.189   7.126   3.040  1.00 20.00    -0.307 OA
ENDBRANCH   5   6
ENDBRANCH   1   5
TORSDOF 2
ENDMDL
MODEL 3
REMARK VINA RESULT:      -4.6      0.031      1.434
REMARK  2 active torsions:
REMARK  status: ('A' for Active; 'I' for Inactive)
REMARK    1  A    between atoms: C1_1  and  C2_2 
REMARK    2  A    between atoms: C2_2  and  C3_3 
ROOT
HETATM    1  C3  UNL     1     -34.917   5.303   4.691  1.00 20.00     0.393 C 
HETATM    2  F5  UNL     1     -36.108   5.498   4.086  1.00 20.00    -0.171 F 
HETATM    3  F6  UNL     1     -34.363   4.195   4.151  1.00 20.00    -0.171 F 
HETATM    4  F7  UNL     1     -35.144   5.049   5.997  1.00 20.00    -0.171 F 
ENDROOT
BRANCH   1   5
HETATM    5  C2  UNL     1     -34.003   6.489   4.509  1.00 20.00     0.186 C 
BRANCH   5   6
HETATM    6  C1  UNL     1     -33.195   6.423   3.236  1.00 20.00     0.239 C 
HETATM    7  O4  UNL     1     -32.202   7.105   3.001  1.00 20.00    -0.307 OA
ENDBRANCH   5   6
ENDBRANCH   1   5
TORSDOF 2
ENDMDL
MODEL 4
REMARK VINA RESULT:      -4.4      1.001      1.705
REMARK  2 active torsions:
REMARK  status: ('A' for Active; 'I' for Inactive)
REMARK    1  A    between atoms: C1_1  and  C2_2 
REMARK    2  A    between atoms: C2_2  and  C3_3 
ROOT
HETATM    1  C3  UNL     1     -34.662   5.422   4.404  1.00 20.00     0.393 C 
HETATM    2  F5  UNL     1     -34.353   6.452   5.222  1.00 20.00    -0.171 F 
HETATM    3  F6  UNL     1     -35.972   5.531   4.092  1.00 20.00    -0.171 F 
HETATM    4  F7  UNL     1     -34.502   4.273   5.094  1.00 20.00    -0.171 F 
ENDROOT
BRANCH   1   5
HETATM    5  C2  UNL     1     -33.820   5.439   3.152  1.00 20.00     0.186 C 
BRANCH   5   6
HETATM    6  C1  UNL     1     -32.905   6.635   3.071  1.00 20.00     0.239 C 
HETATM    7  O4  UNL     1     -32.580   7.198   2.030  1.00 20.00    -0.307 OA
ENDBRANCH   5   6
ENDBRANCH   1   5
TORSDOF 2
ENDMDL
MODEL 5
REMARK VINA RESULT:      -4.3      1.800      2.355
REMARK  2 active torsions:
REMARK  status: ('A' for Active; 'I' for Inactive)
REMARK    1  A    between atoms: C1_1  and  C2_2 
REMARK    2  A    between atoms: C2_2  and  C3_3 
ROOT
HETATM    1  C3  UNL     1     -34.854   5.066   4.297  1.00 20.00     0.393 C 
HETATM    2  F5  UNL     1     -36.135   5.260   3.915  1.00 20.00    -0.171 F 
HETATM    3  F6  UNL     1     -34.084   5.915   3.582  1.00 20.00    -0.171 F 
HETATM    4  F7  UNL     1     -34.499   3.809   3.957  1.00 20.00    -0.171 F 
ENDROOT
BRANCH   1   5
HETATM    5  C2  UNL     1     -34.675   5.311   5.775  1.00 20.00     0.186 C 
BRANCH   5   6
HETATM    6  C1  UNL     1     -34.229   6.717   6.092  1.00 20.00     0.239 C 
HETATM    7  O4  UNL     1     -33.130   7.183   5.808  1.00 20.00    -0.307 OA
ENDBRANCH   5   6
ENDBRANCH   1   5
TORSDOF 2
ENDMDL
MODEL 6
REMARK VINA RESULT:      -4.1      2.928      3.472
REMARK  2 active torsions:
REMARK  status: ('A' for Active; 'I' for Inactive)
REMARK    1  A    between atoms: C1_1  and  C2_2 
REMARK    2  A    between atoms: C2_2  and  C3_3 
ROOT
HETATM    1  C3  UNL     1     -32.853   6.735   3.045  1.00 20.00     0.393 C 
HETATM    2  F5  UNL     1     -33.330   7.580   2.107  1.00 20.00    -0.171 F 
HETATM    3  F6  UNL     1     -31.701   7.260   3.517  1.00 20.00    -0.171 F 
HETATM    4  F7  UNL     1     -32.551   5.565   2.444  1.00 20.00    -0.171 F 
ENDROOT
BRANCH   1   5
HETATM    5  C2  UNL     1     -33.841   6.541   4.169  1.00 20.00     0.186 C 
BRANCH   5   6
HETATM    6  C1  UNL     1     -34.770   5.373   3.946  1.00 20.00     0.239 C 
HETATM    7  O4  UNL     1     -34.624   4.259   4.438  1.00 20.00    -0.307 OA
ENDBRANCH   5   6
ENDBRANCH   1   5
TORSDOF 2
ENDMDL
MODEL 7
REMARK VINA RESULT:      -4.1      2.921      3.483
REMARK  2 active torsions:
REMARK  status: ('A' for Active; 'I' for Inactive)
REMARK    1  A    between atoms: C1_1  and  C2_2 
REMARK    2  A    between atoms: C2_2  and  C3_3 
ROOT
HETATM    1  C3  UNL     1     -32.843   6.707   3.046  1.00 20.00     0.393 C 
HETATM    2  F5  UNL     1     -32.582   5.536   2.426  1.00 20.00    -0.171 F 
HETATM    3  F6  UNL     1     -33.335   7.557   2.117  1.00 20.00    -0.171 F 
HETATM    4  F7  UNL     1     -31.676   7.219   3.490  1.00 20.00    -0.171 F 
ENDROOT
BRANCH   1   5
HETATM    5  C2  UNL     1     -33.834   6.529   4.171  1.00 20.00     0.186 C 
BRANCH   5   6
HETATM    6  C1  UNL     1     -34.767   5.363   3.957  1.00 20.00     0.239 C 
HETATM    7  O4  UNL     1     -34.620   4.249   4.449  1.00 20.00    -0.307 OA
ENDBRANCH   5   6
ENDBRANCH   1   5
TORSDOF 2
ENDMDL
MODEL 8
REMARK VINA RESULT:      -4.1      2.932      3.425
REMARK  2 active torsions:
REMARK  status: ('A' for Active; 'I' for Inactive)
REMARK    1  A    between atoms: C1_1  and  C2_2 
REMARK    2  A    between atoms: C2_2  and  C3_3 
ROOT
HETATM    1  C3  UNL     1     -32.847   6.756   3.053  1.00 20.00     0.393 C 
HETATM    2  F5  UNL     1     -31.698   7.286   3.523  1.00 20.00    -0.171 F 
HETATM    3  F6  UNL     1     -32.541   5.579   2.464  1.00 20.00    -0.171 F 
HETATM    4  F7  UNL     1     -33.329   7.577   2.096  1.00 20.00    -0.171 F 
ENDROOT
BRANCH   1   5
HETATM    5  C2  UNL     1     -33.852   6.545   4.158  1.00 20.00     0.186 C 
BRANCH   5   6
HETATM    6  C1  UNL     1     -34.747   5.353   3.925  1.00 20.00     0.239 C 
HETATM    7  O4  UNL     1     -34.635   4.272   4.493  1.00 20.00    -0.307 OA
ENDBRANCH   5   6
ENDBRANCH   1   5
TORSDOF 2
ENDMDL
MODEL 9
REMARK VINA RESULT:      -3.8      2.742      3.227
REMARK  2 active torsions:
REMARK  status: ('A' for Active; 'I' for Inactive)
REMARK    1  A    between atoms: C1_1  and  C2_2 
REMARK    2  A    between atoms: C2_2  and  C3_3 
ROOT
HETATM    1  C3  UNL     1     -33.495   5.162   2.824  1.00 20.00     0.393 C 
HETATM    2  F5  UNL     1     -32.524   4.317   2.417  1.00 20.00    -0.171 F 
HETATM    3  F6  UNL     1     -34.217   5.506   1.734  1.00 20.00    -0.171 F 
HETATM    4  F7  UNL     1     -32.909   6.283   3.295  1.00 20.00    -0.171 F 
ENDROOT
BRANCH   1   5
HETATM    5  C2  UNL     1     -34.384   4.524   3.863  1.00 20.00     0.186 C 
BRANCH   5   6
HETATM    6  C1  UNL     1     -34.889   5.504   4.892  1.00 20.00     0.239 C 
HETATM    7  O4  UNL     1     -34.818   5.343   6.106  1.00 20.00    -0.307 OA
ENDBRANCH   5   6
ENDBRANCH   1   5
TORSDOF 2
ENDMDL
