MODEL 1
REMARK VINA RESULT:      -4.6      0.000      0.000
REMARK  3 active torsions:
REMARK  status: ('A' for Active; 'I' for Inactive)
REMARK    1  A    between atoms: C1_1  and  C10_10 
REMARK    2  A    between atoms: C2_2  and  C8_8 
REMARK    3  A    between atoms: C9_9  and  C10_10 
ROOT
HETATM    1  C1  UNL     1     -33.668   6.461   3.742  1.00 20.00    -0.016 C 
HETATM    2  C2  UNL     1     -32.983   6.336   2.585  1.00 20.00    -0.087 C 
HETATM    3  C3  UNL     1     -33.091   5.049   1.800  1.00 20.00     0.043 C 
ENDROOT
BRANCH   1   4
HETATM    4  C10 UNL     1     -34.599   5.498   4.478  1.00 20.00    -0.030 C 
HETATM    5  C6  UNL     1     -36.021   5.581   3.884  1.00 20.00     0.019 C 
HETATM    6  C7  UNL     1     -34.096   4.055   4.214  1.00 20.00     0.019 C 
BRANCH   4   7
HETATM    7  C9  UNL     1     -34.665   5.727   6.013  1.00 20.00     0.008 C 
HETATM    8  C5  UNL     1     -33.953   6.979   6.519  1.00 20.00     0.006 C 
ENDBRANCH   4   7
ENDBRANCH   1   4
BRANCH   2   9
HETATM    9  C8  UNL     1     -32.123   7.392   1.931  1.00 20.00     0.029 C 
HETATM   10  C4  UNL     1     -32.911   8.316   1.010  1.00 20.00     0.010 C 
ENDBRANCH   2   9
TORSDOF 3
ENDMDL
MODEL 2
REMARK VINA RESULT:      -4.5     11.289     12.529
REMARK  3 active torsions:
REMARK  status: ('A' for Active; 'I' for Inactive)
REMARK    1  A    between atoms: C1_1  and  C10_10 
REMARK    2  A    between atoms: C2_2  and  C8_8 
REMARK    3  A    between atoms: C9_9  and  C10_10 
ROOT
HETATM    1  C1  UNL     1     -35.249  15.462  -2.914  1.00 20.00    -0.016 C 
HETATM    2  C2  UNL     1     -34.551  16.350  -2.173  1.00 20.00    -0.087 C 
HETATM    3  C3  UNL     1     -33.202  16.821  -2.663  1.00 20.00     0.043 C 
ENDROOT
BRANCH   1   4
HETATM    4  C10 UNL     1     -34.932  14.786  -4.247  1.00 20.00    -0.030 C 
HETATM    5  C6  UNL     1     -33.561  14.081  -4.169  1.00 20.00     0.019 C 
HETATM    6  C7  UNL     1     -35.986  13.673  -4.479  1.00 20.00     0.019 C 
BRANCH   4   7
HETATM    7  C9  UNL     1     -34.951  15.748  -5.467  1.00 20.00     0.008 C 
HETATM    8  C5  UNL     1     -34.194  15.257  -6.699  1.00 20.00     0.006 C 
ENDBRANCH   4   7
ENDBRANCH   1   4
BRANCH   2   9
HETATM    9  C8  UNL     1     -35.000  16.989  -0.879  1.00 20.00     0.029 C 
HETATM   10  C4  UNL     1     -34.006  18.012  -0.344  1.00 20.00     0.010 C 
ENDBRANCH   2   9
TORSDOF 3
ENDMDL
MODEL 3
REMARK VINA RESULT:      -4.4     11.245     12.458
REMARK  3 active torsions:
REMARK  status: ('A' for Active; 'I' for Inactive)
REMARK    1  A    between atoms: C1_1  and  C10_10 
REMARK    2  A    between atoms: C2_2  and  C8_8 
REMARK    3  A    between atoms: C9_9  and  C10_10 
ROOT
HETATM    1  C1  UNL     1     -33.469  16.297  -2.844  1.00 20.00    -0.016 C 
HETATM    2  C2  UNL     1     -34.056  17.067  -1.903  1.00 20.00    -0.087 C 
HETATM    3  C3  UNL     1     -35.564  17.101  -1.814  1.00 20.00     0.043 C 
ENDROOT
BRANCH   1   4
HETATM    4  C10 UNL     1     -34.058  15.384  -3.918  1.00 20.00    -0.030 C 
HETATM    5  C6  UNL     1     -34.541  16.223  -5.119  1.00 20.00     0.019 C 
HETATM    6  C7  UNL     1     -32.919  14.475  -4.447  1.00 20.00     0.019 C 
BRANCH   4   7
HETATM    7  C9  UNL     1     -35.219  14.482  -3.416  1.00 20.00     0.008 C 
HETATM    8  C5  UNL     1     -36.005  13.760  -4.507  1.00 20.00     0.006 C 
ENDBRANCH   4   7
ENDBRANCH   1   4
BRANCH   2   9
HETATM    9  C8  UNL     1     -33.354  17.898  -0.854  1.00 20.00     0.029 C 
HETATM   10  C4  UNL     1     -31.907  18.211  -1.213  1.00 20.00     0.010 C 
ENDBRANCH   2   9
TORSDOF 3
ENDMDL
MODEL 4
REMARK VINA RESULT:      -4.3     11.174     12.386
REMARK  3 active torsions:
REMARK  status: ('A' for Active; 'I' for Inactive)
REMARK    1  A    between atoms: C1_1  and  C10_10 
REMARK    2  A    between atoms: C2_2  and  C8_8 
REMARK    3  A    between atoms: C9_9  and  C10_10 
ROOT
HETATM    1  C1  UNL     1     -34.538  15.811  -2.602  1.00 20.00    -0.016 C 
HETATM    2  C2  UNL     1     -33.911  16.906  -2.122  1.00 20.00    -0.087 C 
HETATM    3  C3  UNL     1     -32.942  17.650  -3.012  1.00 20.00     0.043 C 
ENDROOT
BRANCH   1   4
HETATM    4  C10 UNL     1     -34.467  15.117  -3.961  1.00 20.00    -0.030 C 
HETATM    5  C6  UNL     1     -34.857  16.105  -5.080  1.00 20.00     0.019 C 
HETATM    6  C7  UNL     1     -32.989  14.723  -4.218  1.00 20.00     0.019 C 
BRANCH   4   7
HETATM    7  C9  UNL     1     -35.346  13.840  -4.069  1.00 20.00     0.008 C 
HETATM    8  C5  UNL     1     -36.791  14.076  -4.498  1.00 20.00     0.006 C 
ENDBRANCH   4   7
ENDBRANCH   1   4
BRANCH   2   9
HETATM    9  C8  UNL     1     -34.105  17.529  -0.759  1.00 20.00     0.029 C 
HETATM   10  C4  UNL     1     -35.413  17.116  -0.096  1.00 20.00     0.010 C 
ENDBRANCH   2   9
TORSDOF 3
ENDMDL
MODEL 5
REMARK VINA RESULT:      -4.3     11.013     12.366
REMARK  3 active torsions:
REMARK  status: ('A' for Active; 'I' for Inactive)
REMARK    1  A    between atoms: C1_1  and  C10_10 
REMARK    2  A    between atoms: C2_2  and  C8_8 
REMARK    3  A    between atoms: C9_9  and  C10_10 
ROOT
HETATM    1  C1  UNL     1     -35.003  15.860  -2.300  1.00 20.00    -0.016 C 
HETATM    2  C2  UNL     1     -34.429  15.199  -3.327  1.00 20.00    -0.087 C 
HETATM    3  C3  UNL     1     -33.232  15.810  -4.019  1.00 20.00     0.043 C 
ENDROOT
BRANCH   1   4
HETATM    4  C10 UNL     1     -34.669  17.199  -1.642  1.00 20.00    -0.030 C 
HETATM    5  C6  UNL     1     -35.342  18.351  -2.418  1.00 20.00     0.019 C 
HETATM    6  C7  UNL     1     -35.292  17.201  -0.223  1.00 20.00     0.019 C 
BRANCH   4   7
HETATM    7  C9  UNL     1     -33.146  17.481  -1.516  1.00 20.00     0.008 C 
HETATM    8  C5  UNL     1     -32.701  18.875  -1.949  1.00 20.00     0.006 C 
ENDBRANCH   4   7
ENDBRANCH   1   4
BRANCH   2   9
HETATM    9  C8  UNL     1     -34.828  13.842  -3.859  1.00 20.00     0.029 C 
HETATM   10  C4  UNL     1     -36.222  13.830  -4.473  1.00 20.00     0.010 C 
ENDBRANCH   2   9
TORSDOF 3
ENDMDL
MODEL 6
REMARK VINA RESULT:      -4.2     11.474     12.487
REMARK  3 active torsions:
REMARK  status: ('A' for Active; 'I' for Inactive)
REMARK    1  A    between atoms: C1_1  and  C10_10 
REMARK    2  A    between atoms: C2_2  and  C8_8 
REMARK    3  A    between atoms: C9_9  and  C10_10 
ROOT
HETATM    1  C1  UNL     1     -35.300  16.165  -1.909  1.00 20.00    -0.016 C 
HETATM    2  C2  UNL     1     -34.815  17.010  -0.974  1.00 20.00    -0.087 C 
HETATM    3  C3  UNL     1     -33.609  17.860  -1.302  1.00 20.00     0.043 C 
ENDROOT
BRANCH   1   4
HETATM    4  C10 UNL     1     -34.848  15.869  -3.338  1.00 20.00    -0.030 C 
HETATM    5  C6  UNL     1     -35.575  14.618  -3.874  1.00 20.00     0.019 C 
HETATM    6  C7  UNL     1     -35.293  17.053  -4.234  1.00 20.00     0.019 C 
BRANCH   4   7
HETATM    7  C9  UNL     1     -33.313  15.681  -3.492  1.00 20.00     0.008 C 
HETATM    8  C5  UNL     1     -32.883  14.528  -4.396  1.00 20.00     0.006 C 
ENDBRANCH   4   7
ENDBRANCH   1   4
BRANCH   2   9
HETATM    9  C8  UNL     1     -35.387  17.249   0.404  1.00 20.00     0.029 C 
HETATM   10  C4  UNL     1     -34.416  17.960   1.338  1.00 20.00     0.010 C 
ENDBRANCH   2   9
TORSDOF 3
ENDMDL
MODEL 7
REMARK VINA RESULT:      -4.2     11.418     12.635
REMARK  3 active torsions:
REMARK  status: ('A' for Active; 'I' for Inactive)
REMARK    1  A    between atoms: C1_1  and  C10_10 
REMARK    2  A    between atoms: C2_2  and  C8_8 
REMARK    3  A    between atoms: C9_9  and  C10_10 
ROOT
HETATM    1  C1  UNL     1     -35.999  15.702  -3.306  1.00 20.00    -0.016 C 
HETATM    2  C2  UNL     1     -34.718  15.900  -2.929  1.00 20.00    -0.087 C 
HETATM    3  C3  UNL     1     -33.604  15.305  -3.759  1.00 20.00     0.043 C 
ENDROOT
BRANCH   1   4
HETATM    4  C10 UNL     1     -36.601  14.945  -4.489  1.00 20.00    -0.030 C 
HETATM    5  C6  UNL     1     -36.059  13.501  -4.523  1.00 20.00     0.019 C 
HETATM    6  C7  UNL     1     -38.130  14.836  -4.257  1.00 20.00     0.019 C 
BRANCH   4   7
HETATM    7  C9  UNL     1     -36.357  15.622  -5.867  1.00 20.00     0.008 C 
HETATM    8  C5  UNL     1     -35.602  14.775  -6.887  1.00 20.00     0.006 C 
ENDBRANCH   4   7
ENDBRANCH   1   4
BRANCH   2   9
HETATM    9  C8  UNL     1     -34.244  16.718  -1.750  1.00 20.00     0.029 C 
HETATM   10  C4  UNL     1     -32.956  17.480  -2.033  1.00 20.00     0.010 C 
ENDBRANCH   2   9
TORSDOF 3
ENDMDL
MODEL 8
REMARK VINA RESULT:      -4.1     11.617     12.454
REMARK  3 active torsions:
REMARK  status: ('A' for Active; 'I' for Inactive)
REMARK    1  A    between atoms: C1_1  and  C10_10 
REMARK    2  A    between atoms: C2_2  and  C8_8 
REMARK    3  A    between atoms: C9_9  and  C10_10 
ROOT
HETATM    1  C1  UNL     1     -33.563  16.605  -2.364  1.00 20.00    -0.016 C 
HETATM    2  C2  UNL     1     -34.129  15.686  -3.175  1.00 20.00    -0.087 C 
HETATM    3  C3  UNL     1     -35.633  15.542  -3.188  1.00 20.00     0.043 C 
ENDROOT
BRANCH   1   4
HETATM    4  C10 UNL     1     -34.174  17.605  -1.384  1.00 20.00    -0.030 C 
HETATM    5  C6  UNL     1     -33.062  18.275  -0.549  1.00 20.00     0.019 C 
HETATM    6  C7  UNL     1     -34.844  18.734  -2.209  1.00 20.00     0.019 C 
BRANCH   4   7
HETATM    7  C9  UNL     1     -35.237  16.991  -0.431  1.00 20.00     0.008 C 
HETATM    8  C5  UNL     1     -36.486  17.841  -0.209  1.00 20.00     0.006 C 
ENDBRANCH   4   7
ENDBRANCH   1   4
BRANCH   2   9
HETATM    9  C8  UNL     1     -33.410  14.779  -4.145  1.00 20.00     0.029 C 
HETATM   10  C4  UNL     1     -33.908  14.923  -5.578  1.00 20.00     0.010 C 
ENDBRANCH   2   9
TORSDOF 3
ENDMDL
MODEL 9
REMARK VINA RESULT:      -4.0     11.067     12.554
REMARK  3 active torsions:
REMARK  status: ('A' for Active; 'I' for Inactive)
REMARK    1  A    between atoms: C1_1  and  C10_10 
REMARK    2  A    between atoms: C2_2  and  C8_8 
REMARK    3  A    between atoms: C9_9  and  C10_10 
ROOT
HETATM    1  C1  UNL     1     -34.791  15.888  -2.266  1.00 20.00    -0.016 C 
HETATM    2  C2  UNL     1     -34.592  15.344  -3.485  1.00 20.00    -0.087 C 
HETATM    3  C3  UNL     1     -34.067  16.214  -4.604  1.00 20.00     0.043 C 
ENDROOT
BRANCH   1   4
HETATM    4  C10 UNL     1     -34.578  17.309  -1.743  1.00 20.00    -0.030 C 
HETATM    5  C6  UNL     1     -34.967  17.387  -0.252  1.00 20.00     0.019 C 
HETATM    6  C7  UNL     1     -33.062  17.622  -1.819  1.00 20.00     0.019 C 
BRANCH   4   7
HETATM    7  C9  UNL     1     -35.350  18.399  -2.537  1.00 20.00     0.008 C 
HETATM    8  C5  UNL     1     -36.848  18.154  -2.698  1.00 20.00     0.006 C 
ENDBRANCH   4   7
ENDBRANCH   1   4
BRANCH   2   9
HETATM    9  C8  UNL     1     -34.797  13.897  -3.868  1.00 20.00     0.029 C 
HETATM   10  C4  UNL     1     -36.132  13.646  -4.556  1.00 20.00     0.010 C 
ENDBRANCH   2   9
TORSDOF 3
ENDMDL
