MODEL 1
REMARK VINA RESULT:      -2.8      0.000      0.000
REMARK  0 active torsions:
REMARK  status: ('A' for Active; 'I' for Inactive)
ROOT
HETATM    1  C1  UNL     1     -24.288  17.802   9.988  1.00 20.00     0.044 C 
HETATM    2  C2  UNL     1     -24.671  15.921  11.628  1.00 20.00     0.044 C 
HETATM    3  C3  UNL     1     -24.370  17.404  11.456  1.00 20.00     0.087 C 
HETATM    4 CL4  UNL     1     -25.622  18.375  12.278  1.00 20.00    -0.107 Cl
HETATM    5 BR5  UNL     1     -22.646  17.792  12.305  1.00 20.00    -0.069 Br
ENDROOT
TORSDOF 0
ENDMDL
MODEL 2
REMARK VINA RESULT:      -2.8      1.925      2.497
REMARK  0 active torsions:
REMARK  status: ('A' for Active; 'I' for Inactive)
ROOT
HETATM    1  C1  UNL     1     -24.623  15.890  11.662  1.00 20.00     0.044 C 
HETATM    2  C2  UNL     1     -24.014  17.622   9.931  1.00 20.00     0.044 C 
HETATM    3  C3  UNL     1     -24.235  17.341  11.411  1.00 20.00     0.087 C 
HETATM    4 CL4  UNL     1     -22.760  17.742  12.331  1.00 20.00    -0.107 Cl
HETATM    5 BR5  UNL     1     -25.685  18.494  12.054  1.00 20.00    -0.069 Br
ENDROOT
TORSDOF 0
ENDMDL
MODEL 3
REMARK VINA RESULT:      -2.8      1.549      2.074
REMARK  0 active torsions:
REMARK  status: ('A' for Active; 'I' for Inactive)
ROOT
HETATM    1  C1  UNL     1     -24.523  16.076  11.588  1.00 20.00     0.044 C 
HETATM    2  C2  UNL     1     -22.760  17.735  12.302  1.00 20.00     0.044 C 
HETATM    3  C3  UNL     1     -24.085  17.534  11.580  1.00 20.00     0.087 C 
HETATM    4 CL4  UNL     1     -25.345  18.551  12.332  1.00 20.00    -0.107 Cl
HETATM    5 BR5  UNL     1     -23.873  18.110   9.717  1.00 20.00    -0.069 Br
ENDROOT
TORSDOF 0
ENDMDL
MODEL 4
REMARK VINA RESULT:      -2.8      1.579      2.183
REMARK  0 active torsions:
REMARK  status: ('A' for Active; 'I' for Inactive)
ROOT
HETATM    1  C1  UNL     1     -22.955  18.026  12.332  1.00 20.00     0.044 C 
HETATM    2  C2  UNL     1     -24.100  18.223  10.091  1.00 20.00     0.044 C 
HETATM    3  C3  UNL     1     -24.240  17.799  11.547  1.00 20.00     0.087 C 
HETATM    4 CL4  UNL     1     -25.583  18.691  12.312  1.00 20.00    -0.107 Cl
HETATM    5 BR5  UNL     1     -24.673  15.887  11.600  1.00 20.00    -0.069 Br
ENDROOT
TORSDOF 0
ENDMDL
MODEL 5
REMARK VINA RESULT:      -2.8      2.088      2.273
REMARK  0 active torsions:
REMARK  status: ('A' for Active; 'I' for Inactive)
ROOT
HETATM    1  C1  UNL     1     -23.949  17.844   9.955  1.00 20.00     0.044 C 
HETATM    2  C2  UNL     1     -23.098  17.889  12.331  1.00 20.00     0.044 C 
HETATM    3  C3  UNL     1     -24.260  17.534  11.413  1.00 20.00     0.087 C 
HETATM    4 CL4  UNL     1     -24.668  15.806  11.593  1.00 20.00    -0.107 Cl
HETATM    5 BR5  UNL     1     -25.824  18.587  11.954  1.00 20.00    -0.069 Br
ENDROOT
TORSDOF 0
ENDMDL
MODEL 6
REMARK VINA RESULT:      -2.8      1.428      2.004
REMARK  0 active torsions:
REMARK  status: ('A' for Active; 'I' for Inactive)
ROOT
HETATM    1  C1  UNL     1     -24.643  15.883  11.592  1.00 20.00     0.044 C 
HETATM    2  C2  UNL     1     -25.523  18.139  12.306  1.00 20.00     0.044 C 
HETATM    3  C3  UNL     1     -24.442  17.392  11.536  1.00 20.00     0.087 C 
HETATM    4 CL4  UNL     1     -24.421  17.938   9.837  1.00 20.00    -0.107 Cl
HETATM    5 BR5  UNL     1     -22.702  17.819  12.332  1.00 20.00    -0.069 Br
ENDROOT
TORSDOF 0
ENDMDL
MODEL 7
REMARK VINA RESULT:      -2.8      2.089      2.479
REMARK  0 active torsions:
REMARK  status: ('A' for Active; 'I' for Inactive)
ROOT
HETATM    1  C1  UNL     1     -22.878  17.775  12.331  1.00 20.00     0.044 C 
HETATM    2  C2  UNL     1     -25.309  18.445  12.201  1.00 20.00     0.044 C 
HETATM    3  C3  UNL     1     -24.196  17.605  11.588  1.00 20.00     0.087 C 
HETATM    4 CL4  UNL     1     -24.671  15.884  11.581  1.00 20.00    -0.107 Cl
HETATM    5 BR5  UNL     1     -23.941  18.171   9.728  1.00 20.00    -0.069 Br
ENDROOT
TORSDOF 0
ENDMDL
MODEL 8
REMARK VINA RESULT:      -2.8      2.119      2.302
REMARK  0 active torsions:
REMARK  status: ('A' for Active; 'I' for Inactive)
ROOT
HETATM    1  C1  UNL     1     -23.002  17.754  12.215  1.00 20.00     0.044 C 
HETATM    2  C2  UNL     1     -24.607  15.863  11.750  1.00 20.00     0.044 C 
HETATM    3  C3  UNL     1     -24.257  17.319  11.472  1.00 20.00     0.087 C 
HETATM    4 CL4  UNL     1     -24.040  17.565   9.718  1.00 20.00    -0.107 Cl
HETATM    5 BR5  UNL     1     -25.752  18.443  12.062  1.00 20.00    -0.069 Br
ENDROOT
TORSDOF 0
ENDMDL
MODEL 9
REMARK VINA RESULT:      -2.8     23.887     24.103
REMARK  0 active torsions:
REMARK  status: ('A' for Active; 'I' for Inactive)
ROOT
HETATM    1  C1  UNL     1     -41.323   7.517   0.599  1.00 20.00     0.044 C 
HETATM    2  C2  UNL     1     -42.638   5.400   0.998  1.00 20.00     0.044 C 
HETATM    3  C3  UNL     1     -42.003   6.314  -0.041  1.00 20.00     0.087 C 
HETATM    4 CL4  UNL     1     -40.821   5.397  -1.014  1.00 20.00    -0.107 Cl
HETATM    5 BR5  UNL     1     -43.409   6.961  -1.245  1.00 20.00    -0.069 Br
ENDROOT
TORSDOF 0
ENDMDL
