MODEL 1
REMARK VINA RESULT:      -5.3      0.000      0.000
REMARK  0 active torsions:
REMARK  status: ('A' for Active; 'I' for Inactive)
ROOT
HETATM    1  C1  UNL     1     -33.951  14.218  -4.120  1.00 20.00     0.047 C 
HETATM    2  C2  UNL     1     -33.505  15.390  -3.653  1.00 20.00    -0.014 C 
HETATM    3  C3  UNL     1     -35.404  13.927  -4.164  1.00 20.00     0.149 C 
HETATM    4  C4  UNL     1     -36.366  15.004  -3.723  1.00 20.00     0.084 C 
HETATM    5  C5  UNL     1     -35.741  15.891  -2.655  1.00 20.00     0.021 C 
HETATM    6  C6  UNL     1     -32.764  19.032  -3.179  1.00 20.00     0.000 C 
HETATM    7  C7  UNL     1     -33.342  18.420  -4.449  1.00 20.00     0.001 C 
HETATM    8  C8  UNL     1     -32.484  17.971  -2.122  1.00 20.00     0.001 C 
HETATM    9  C9  UNL     1     -34.597  17.595  -4.156  1.00 20.00     0.013 C 
HETATM   10  C10 UNL     1     -33.724  17.123  -1.827  1.00 20.00     0.013 C 
HETATM   11  C11 UNL     1     -34.380  16.496  -3.085  1.00 20.00    -0.022 C 
HETATM   12  O12 UNL     1     -35.797  12.851  -4.607  1.00 20.00    -0.293 OA
ENDROOT
TORSDOF 0
ENDMDL
MODEL 2
REMARK VINA RESULT:      -5.2      1.334      2.279
REMARK  0 active torsions:
REMARK  status: ('A' for Active; 'I' for Inactive)
ROOT
HETATM    1  C1  UNL     1     -35.591  16.314  -5.370  1.00 20.00     0.047 C 
HETATM    2  C2  UNL     1     -34.882  16.813  -4.351  1.00 20.00    -0.014 C 
HETATM    3  C3  UNL     1     -35.843  14.858  -5.472  1.00 20.00     0.149 C 
HETATM    4  C4  UNL     1     -35.330  13.960  -4.372  1.00 20.00     0.084 C 
HETATM    5  C5  UNL     1     -34.062  14.529  -3.750  1.00 20.00     0.021 C 
HETATM    6  C6  UNL     1     -33.705  17.850  -0.948  1.00 20.00     0.000 C 
HETATM    7  C7  UNL     1     -35.117  17.381  -1.274  1.00 20.00     0.001 C 
HETATM    8  C8  UNL     1     -32.823  17.884  -2.191  1.00 20.00     0.001 C 
HETATM    9  C9  UNL     1     -35.110  16.022  -1.978  1.00 20.00     0.013 C 
HETATM   10  C10 UNL     1     -32.818  16.538  -2.920  1.00 20.00     0.013 C 
HETATM   11  C11 UNL     1     -34.229  15.989  -3.253  1.00 20.00    -0.022 C 
HETATM   12  O12 UNL     1     -36.507  14.418  -6.408  1.00 20.00    -0.293 OA
ENDROOT
TORSDOF 0
ENDMDL
MODEL 3
REMARK VINA RESULT:      -5.2      2.391      4.384
REMARK  0 active torsions:
REMARK  status: ('A' for Active; 'I' for Inactive)
ROOT
HETATM    1  C1  UNL     1     -35.030  16.791  -1.271  1.00 20.00     0.047 C 
HETATM    2  C2  UNL     1     -35.350  15.966  -2.275  1.00 20.00    -0.014 C 
HETATM    3  C3  UNL     1     -33.783  17.589  -1.320  1.00 20.00     0.149 C 
HETATM    4  C4  UNL     1     -32.914  17.491  -2.551  1.00 20.00     0.084 C 
HETATM    5  C5  UNL     1     -33.030  16.115  -3.193  1.00 20.00     0.021 C 
HETATM    6  C6  UNL     1     -36.304  14.551  -5.611  1.00 20.00     0.000 C 
HETATM    7  C7  UNL     1     -36.374  16.027  -5.240  1.00 20.00     0.001 C 
HETATM    8  C8  UNL     1     -35.829  13.700  -4.440  1.00 20.00     0.001 C 
HETATM    9  C9  UNL     1     -35.035  16.535  -4.701  1.00 20.00     0.013 C 
HETATM   10  C10 UNL     1     -34.499  14.204  -3.874  1.00 20.00     0.013 C 
HETATM   11  C11 UNL     1     -34.495  15.710  -3.506  1.00 20.00    -0.022 C 
HETATM   12  O12 UNL     1     -33.510  18.351  -0.396  1.00 20.00    -0.293 OA
ENDROOT
TORSDOF 0
ENDMDL
MODEL 4
REMARK VINA RESULT:      -5.0      1.356      2.584
REMARK  0 active torsions:
REMARK  status: ('A' for Active; 'I' for Inactive)
ROOT
HETATM    1  C1  UNL     1     -37.481  15.965  -3.997  1.00 20.00     0.047 C 
HETATM    2  C2  UNL     1     -36.323  16.622  -3.870  1.00 20.00    -0.014 C 
HETATM    3  C3  UNL     1     -37.496  14.520  -4.324  1.00 20.00     0.149 C 
HETATM    4  C4  UNL     1     -36.176  13.799  -4.456  1.00 20.00     0.084 C 
HETATM    5  C5  UNL     1     -35.087  14.740  -4.954  1.00 20.00     0.021 C 
HETATM    6  C6  UNL     1     -32.967  17.817  -2.708  1.00 20.00     0.000 C 
HETATM    7  C7  UNL     1     -33.888  16.903  -1.911  1.00 20.00     0.001 C 
HETATM    8  C8  UNL     1     -33.592  18.225  -4.037  1.00 20.00     0.001 C 
HETATM    9  C9  UNL     1     -34.301  15.673  -2.722  1.00 20.00     0.013 C 
HETATM   10  C10 UNL     1     -34.028  17.008  -4.856  1.00 20.00     0.013 C 
HETATM   11  C11 UNL     1     -34.945  16.019  -4.089  1.00 20.00    -0.022 C 
HETATM   12  O12 UNL     1     -38.568  13.928  -4.425  1.00 20.00    -0.293 OA
ENDROOT
TORSDOF 0
ENDMDL
MODEL 5
REMARK VINA RESULT:      -4.9      1.630      2.740
REMARK  0 active torsions:
REMARK  status: ('A' for Active; 'I' for Inactive)
ROOT
HETATM    1  C1  UNL     1     -34.711  16.930  -5.415  1.00 20.00     0.047 C 
HETATM    2  C2  UNL     1     -34.463  17.341  -4.167  1.00 20.00    -0.014 C 
HETATM    3  C3  UNL     1     -34.366  15.552  -5.837  1.00 20.00     0.149 C 
HETATM    4  C4  UNL     1     -33.782  14.610  -4.812  1.00 20.00     0.084 C 
HETATM    5  C5  UNL     1     -32.976  15.372  -3.768  1.00 20.00     0.021 C 
HETATM    6  C6  UNL     1     -34.472  17.763  -0.443  1.00 20.00     0.000 C 
HETATM    7  C7  UNL     1     -35.505  16.967  -1.231  1.00 20.00     0.001 C 
HETATM    8  C8  UNL     1     -33.440  18.407  -1.361  1.00 20.00     0.001 C 
HETATM    9  C9  UNL     1     -34.844  15.921  -2.130  1.00 20.00     0.013 C 
HETATM   10  C10 UNL     1     -32.779  17.379  -2.282  1.00 20.00     0.013 C 
HETATM   11  C11 UNL     1     -33.780  16.512  -3.090  1.00 20.00    -0.022 C 
HETATM   12  O12 UNL     1     -34.612  15.186  -6.984  1.00 20.00    -0.293 OA
ENDROOT
TORSDOF 0
ENDMDL
MODEL 6
REMARK VINA RESULT:      -4.9      1.360      2.617
REMARK  0 active torsions:
REMARK  status: ('A' for Active; 'I' for Inactive)
ROOT
HETATM    1  C1  UNL     1     -36.746  14.794  -4.056  1.00 20.00     0.047 C 
HETATM    2  C2  UNL     1     -36.462  16.004  -3.563  1.00 20.00    -0.014 C 
HETATM    3  C3  UNL     1     -35.674  13.791  -4.260  1.00 20.00     0.149 C 
HETATM    4  C4  UNL     1     -34.267  14.150  -3.846  1.00 20.00     0.084 C 
HETATM    5  C5  UNL     1     -34.024  15.647  -3.978  1.00 20.00     0.021 C 
HETATM    6  C6  UNL     1     -35.407  18.834  -1.345  1.00 20.00     0.000 C 
HETATM    7  C7  UNL     1     -35.652  17.406  -0.875  1.00 20.00     0.001 C 
HETATM    8  C8  UNL     1     -35.680  18.990  -2.836  1.00 20.00     0.001 C 
HETATM    9  C9  UNL     1     -34.837  16.398  -1.689  1.00 20.00     0.013 C 
HETATM   10  C10 UNL     1     -34.887  17.978  -3.666  1.00 20.00     0.013 C 
HETATM   11  C11 UNL     1     -35.069  16.504  -3.217  1.00 20.00    -0.022 C 
HETATM   12  O12 UNL     1     -35.954  12.680  -4.702  1.00 20.00    -0.293 OA
ENDROOT
TORSDOF 0
ENDMDL
MODEL 7
REMARK VINA RESULT:      -4.7      2.518      4.105
REMARK  0 active torsions:
REMARK  status: ('A' for Active; 'I' for Inactive)
ROOT
HETATM    1  C1  UNL     1     -35.238  16.639  -1.005  1.00 20.00     0.047 C 
HETATM    2  C2  UNL     1     -34.929  16.128  -2.202  1.00 20.00    -0.014 C 
HETATM    3  C3  UNL     1     -34.489  17.797  -0.463  1.00 20.00     0.149 C 
HETATM    4  C4  UNL     1     -33.408  18.418  -1.316  1.00 20.00     0.084 C 
HETATM    5  C5  UNL     1     -32.764  17.378  -2.223  1.00 20.00     0.021 C 
HETATM    6  C6  UNL     1     -34.381  15.632  -5.876  1.00 20.00     0.000 C 
HETATM    7  C7  UNL     1     -35.169  16.782  -5.262  1.00 20.00     0.001 C 
HETATM    8  C8  UNL     1     -33.864  14.673  -4.810  1.00 20.00     0.001 C 
HETATM    9  C9  UNL     1     -34.349  17.526  -4.206  1.00 20.00     0.013 C 
HETATM   10  C10 UNL     1     -33.055  15.402  -3.735  1.00 20.00     0.013 C 
HETATM   11  C11 UNL     1     -33.791  16.606  -3.091  1.00 20.00    -0.022 C 
HETATM   12  O12 UNL     1     -34.794  18.262   0.632  1.00 20.00    -0.293 OA
ENDROOT
TORSDOF 0
ENDMDL
MODEL 8
REMARK VINA RESULT:      -4.7      1.452      2.153
REMARK  0 active torsions:
REMARK  status: ('A' for Active; 'I' for Inactive)
ROOT
HETATM    1  C1  UNL     1     -34.449  14.673  -3.805  1.00 20.00     0.047 C 
HETATM    2  C2  UNL     1     -34.390  15.528  -2.778  1.00 20.00    -0.014 C 
HETATM    3  C3  UNL     1     -34.740  15.157  -5.175  1.00 20.00     0.149 C 
HETATM    4  C4  UNL     1     -34.914  16.642  -5.390  1.00 20.00     0.084 C 
HETATM    5  C5  UNL     1     -35.483  17.311  -4.146  1.00 20.00     0.021 C 
HETATM    6  C6  UNL     1     -33.409  18.284  -0.437  1.00 20.00     0.000 C 
HETATM    7  C7  UNL     1     -32.549  17.772  -1.585  1.00 20.00     0.001 C 
HETATM    8  C8  UNL     1     -34.718  17.511  -0.326  1.00 20.00     0.001 C 
HETATM    9  C9  UNL     1     -33.312  17.793  -2.911  1.00 20.00     0.013 C 
HETATM   10  C10 UNL     1     -35.487  17.505  -1.649  1.00 20.00     0.013 C 
HETATM   11  C11 UNL     1     -34.656  17.022  -2.867  1.00 20.00    -0.022 C 
HETATM   12  O12 UNL     1     -34.778  14.360  -6.109  1.00 20.00    -0.293 OA
ENDROOT
TORSDOF 0
ENDMDL
MODEL 9
REMARK VINA RESULT:      -4.5      2.582      4.153
REMARK  0 active torsions:
REMARK  status: ('A' for Active; 'I' for Inactive)
ROOT
HETATM    1  C1  UNL     1     -32.940  17.817  -1.714  1.00 20.00     0.047 C 
HETATM    2  C2  UNL     1     -33.299  17.305  -2.897  1.00 20.00    -0.014 C 
HETATM    3  C3  UNL     1     -33.857  17.747  -0.552  1.00 20.00     0.149 C 
HETATM    4  C4  UNL     1     -35.178  17.036  -0.721  1.00 20.00     0.084 C 
HETATM    5  C5  UNL     1     -35.680  17.150  -2.154  1.00 20.00     0.021 C 
HETATM    6  C6  UNL     1     -34.281  14.983  -5.669  1.00 20.00     0.000 C 
HETATM    7  C7  UNL     1     -33.714  14.542  -4.325  1.00 20.00     0.001 C 
HETATM    8  C8  UNL     1     -34.369  16.500  -5.771  1.00 20.00     0.001 C 
HETATM    9  C9  UNL     1     -34.516  15.124  -3.158  1.00 20.00     0.013 C 
HETATM   10  C10 UNL     1     -35.153  17.103  -4.602  1.00 20.00     0.013 C 
HETATM   11  C11 UNL     1     -34.645  16.668  -3.203  1.00 20.00    -0.022 C 
HETATM   12  O12 UNL     1     -33.507  18.211   0.530  1.00 20.00    -0.293 OA
ENDROOT
TORSDOF 0
ENDMDL
