MODEL 1
REMARK VINA RESULT:      -5.5      0.000      0.000
REMARK  1 active torsions:
REMARK  status: ('A' for Active; 'I' for Inactive)
REMARK    1  A    between atoms: C2_2  and  C3_3 
ROOT
HETATM    1  C1  UNL     1     -33.722   6.046   3.592  1.00 20.00     0.147 C 
HETATM    2  C2  UNL     1     -34.641   5.302   4.448  1.00 20.00     0.425 C 
HETATM    3  N4  UNL     1     -32.992   6.637   2.910  1.00 20.00    -0.191 NA
HETATM    4  F5  UNL     1     -34.476   3.975   4.223  1.00 20.00    -0.179 F 
HETATM    5  F6  UNL     1     -35.915   5.603   4.092  1.00 20.00    -0.179 F 
ENDROOT
BRANCH   2   6
HETATM    6  C3  UNL     1     -34.452   5.586   5.914  1.00 20.00     0.469 C 
HETATM    7  F7  UNL     1     -33.821   4.557   6.520  1.00 20.00    -0.164 F 
HETATM    8  F8  UNL     1     -33.709   6.695   6.111  1.00 20.00    -0.164 F 
HETATM    9  F9  UNL     1     -35.636   5.764   6.539  1.00 20.00    -0.164 F 
ENDBRANCH   2   6
TORSDOF 1
ENDMDL
MODEL 2
REMARK VINA RESULT:      -4.9      1.103      1.806
REMARK  1 active torsions:
REMARK  status: ('A' for Active; 'I' for Inactive)
REMARK    1  A    between atoms: C2_2  and  C3_3 
ROOT
HETATM    1  C1  UNL     1     -33.901   5.135   3.357  1.00 20.00     0.147 C 
HETATM    2  C2  UNL     1     -34.730   5.845   4.326  1.00 20.00     0.425 C 
HETATM    3  N4  UNL     1     -33.242   4.571   2.586  1.00 20.00    -0.191 NA
HETATM    4  F5  UNL     1     -36.035   5.597   4.055  1.00 20.00    -0.179 F 
HETATM    5  F6  UNL     1     -34.545   7.180   4.169  1.00 20.00    -0.179 F 
ENDROOT
BRANCH   2   6
HETATM    6  C3  UNL     1     -34.438   5.467   5.753  1.00 20.00     0.469 C 
HETATM    7  F7  UNL     1     -33.562   6.335   6.305  1.00 20.00    -0.164 F 
HETATM    8  F8  UNL     1     -35.557   5.480   6.508  1.00 20.00    -0.164 F 
HETATM    9  F9  UNL     1     -33.896   4.232   5.836  1.00 20.00    -0.164 F 
ENDBRANCH   2   6
TORSDOF 1
ENDMDL
MODEL 3
REMARK VINA RESULT:      -4.9      0.985      2.379
REMARK  1 active torsions:
REMARK  status: ('A' for Active; 'I' for Inactive)
REMARK    1  A    between atoms: C2_2  and  C3_3 
ROOT
HETATM    1  C1  UNL     1     -33.198   6.475   3.412  1.00 20.00     0.147 C 
HETATM    2  C2  UNL     1     -34.057   6.484   4.593  1.00 20.00     0.425 C 
HETATM    3  N4  UNL     1     -32.515   6.469   2.474  1.00 20.00    -0.191 NA
HETATM    4  F5  UNL     1     -34.887   7.553   4.526  1.00 20.00    -0.179 F 
HETATM    5  F6  UNL     1     -33.285   6.656   5.696  1.00 20.00    -0.179 F 
ENDROOT
BRANCH   2   6
HETATM    6  C3  UNL     1     -34.872   5.228   4.746  1.00 20.00     0.469 C 
HETATM    7  F7  UNL     1     -36.066   5.359   4.126  1.00 20.00    -0.164 F 
HETATM    8  F8  UNL     1     -34.245   4.162   4.207  1.00 20.00    -0.164 F 
HETATM    9  F9  UNL     1     -35.115   4.953   6.046  1.00 20.00    -0.164 F 
ENDBRANCH   2   6
TORSDOF 1
ENDMDL
MODEL 4
REMARK VINA RESULT:      -4.8      2.035      3.212
REMARK  1 active torsions:
REMARK  status: ('A' for Active; 'I' for Inactive)
REMARK    1  A    between atoms: C2_2  and  C3_3 
ROOT
HETATM    1  C1  UNL     1     -34.170   6.090   5.188  1.00 20.00     0.147 C 
HETATM    2  C2  UNL     1     -34.440   5.178   4.080  1.00 20.00     0.425 C 
HETATM    3  N4  UNL     1     -33.955   6.813   6.069  1.00 20.00    -0.191 NA
HETATM    4  F5  UNL     1     -35.731   5.327   3.692  1.00 20.00    -0.179 F 
HETATM    5  F6  UNL     1     -34.309   3.901   4.519  1.00 20.00    -0.179 F 
ENDROOT
BRANCH   2   6
HETATM    6  C3  UNL     1     -33.537   5.394   2.896  1.00 20.00     0.469 C 
HETATM    7  F7  UNL     1     -32.780   6.499   3.072  1.00 20.00    -0.164 F 
HETATM    8  F8  UNL     1     -32.700   4.350   2.716  1.00 20.00    -0.164 F 
HETATM    9  F9  UNL     1     -34.245   5.560   1.758  1.00 20.00    -0.164 F 
ENDBRANCH   2   6
TORSDOF 1
ENDMDL
MODEL 5
REMARK VINA RESULT:      -4.7      1.430      1.969
REMARK  1 active torsions:
REMARK  status: ('A' for Active; 'I' for Inactive)
REMARK    1  A    between atoms: C2_2  and  C3_3 
ROOT
HETATM    1  C1  UNL     1     -32.775   6.511   2.874  1.00 20.00     0.147 C 
HETATM    2  C2  UNL     1     -33.634   5.330   2.892  1.00 20.00     0.425 C 
HETATM    3  N4  UNL     1     -32.092   7.449   2.858  1.00 20.00    -0.191 NA
HETATM    4  F5  UNL     1     -32.861   4.221   2.780  1.00 20.00    -0.179 F 
HETATM    5  F6  UNL     1     -34.441   5.356   1.802  1.00 20.00    -0.179 F 
ENDROOT
BRANCH   2   6
HETATM    6  C3  UNL     1     -34.477   5.225   4.134  1.00 20.00     0.469 C 
HETATM    7  F7  UNL     1     -34.347   4.002   4.695  1.00 20.00    -0.164 F 
HETATM    8  F8  UNL     1     -34.113   6.139   5.058  1.00 20.00    -0.164 F 
HETATM    9  F9  UNL     1     -35.786   5.412   3.859  1.00 20.00    -0.164 F 
ENDBRANCH   2   6
TORSDOF 1
ENDMDL
MODEL 6
REMARK VINA RESULT:      -4.6      2.538      3.525
REMARK  1 active torsions:
REMARK  status: ('A' for Active; 'I' for Inactive)
REMARK    1  A    between atoms: C2_2  and  C3_3 
ROOT
HETATM    1  C1  UNL     1     -34.329   5.366   4.230  1.00 20.00     0.147 C 
HETATM    2  C2  UNL     1     -33.731   6.689   4.083  1.00 20.00     0.425 C 
HETATM    3  N4  UNL     1     -34.806   4.314   4.347  1.00 20.00    -0.191 NA
HETATM    4  F5  UNL     1     -33.143   7.039   5.254  1.00 20.00    -0.179 F 
HETATM    5  F6  UNL     1     -34.716   7.594   3.854  1.00 20.00    -0.179 F 
ENDROOT
BRANCH   2   6
HETATM    6  C3  UNL     1     -32.717   6.766   2.974  1.00 20.00     0.469 C 
HETATM    7  F7  UNL     1     -32.499   5.542   2.444  1.00 20.00    -0.164 F 
HETATM    8  F8  UNL     1     -33.134   7.575   1.977  1.00 20.00    -0.164 F 
HETATM    9  F9  UNL     1     -31.532   7.235   3.421  1.00 20.00    -0.164 F 
ENDBRANCH   2   6
TORSDOF 1
ENDMDL
MODEL 7
REMARK VINA RESULT:      -4.5      8.334      9.600
REMARK  1 active torsions:
REMARK  status: ('A' for Active; 'I' for Inactive)
REMARK    1  A    between atoms: C2_2  and  C3_3 
ROOT
HETATM    1  C1  UNL     1     -41.530   9.011   0.373  1.00 20.00     0.147 C 
HETATM    2  C2  UNL     1     -41.650   7.556   0.373  1.00 20.00     0.425 C 
HETATM    3  N4  UNL     1     -41.434  10.167   0.375  1.00 20.00    -0.191 NA
HETATM    4  F5  UNL     1     -42.731   7.203   1.112  1.00 20.00    -0.179 F 
HETATM    5  F6  UNL     1     -40.564   7.025   0.989  1.00 20.00    -0.179 F 
ENDROOT
BRANCH   2   6
HETATM    6  C3  UNL     1     -41.777   6.969  -1.007  1.00 20.00     0.469 C 
HETATM    7  F7  UNL     1     -41.777   7.945  -1.941  1.00 20.00    -0.164 F 
HETATM    8  F8  UNL     1     -40.752   6.136  -1.286  1.00 20.00    -0.164 F 
HETATM    9  F9  UNL     1     -42.927   6.273  -1.144  1.00 20.00    -0.164 F 
ENDBRANCH   2   6
TORSDOF 1
ENDMDL
MODEL 8
REMARK VINA RESULT:      -4.4     12.173     12.980
REMARK  1 active torsions:
REMARK  status: ('A' for Active; 'I' for Inactive)
REMARK    1  A    between atoms: C2_2  and  C3_3 
ROOT
HETATM    1  C1  UNL     1     -36.478  14.071  -4.313  1.00 20.00     0.147 C 
HETATM    2  C2  UNL     1     -35.038  14.276  -4.186  1.00 20.00     0.425 C 
HETATM    3  N4  UNL     1     -37.622  13.906  -4.416  1.00 20.00    -0.191 NA
HETATM    4  F5  UNL     1     -34.508  14.457  -5.421  1.00 20.00    -0.179 F 
HETATM    5  F6  UNL     1     -34.476  13.150  -3.679  1.00 20.00    -0.179 F 
ENDROOT
BRANCH   2   6
HETATM    6  C3  UNL     1     -34.678  15.448  -3.313  1.00 20.00     0.469 C 
HETATM    7  F7  UNL     1     -35.031  16.609  -3.907  1.00 20.00    -0.164 F 
HETATM    8  F8  UNL     1     -35.310  15.390  -2.121  1.00 20.00    -0.164 F 
HETATM    9  F9  UNL     1     -33.350  15.498  -3.076  1.00 20.00    -0.164 F 
ENDBRANCH   2   6
TORSDOF 1
ENDMDL
MODEL 9
REMARK VINA RESULT:      -4.4      2.707      3.514
REMARK  1 active torsions:
REMARK  status: ('A' for Active; 'I' for Inactive)
REMARK    1  A    between atoms: C2_2  and  C3_3 
ROOT
HETATM    1  C1  UNL     1     -34.336   4.939   3.767  1.00 20.00     0.147 C 
HETATM    2  C2  UNL     1     -33.439   5.407   2.715  1.00 20.00     0.425 C 
HETATM    3  N4  UNL     1     -35.050   4.566   4.602  1.00 20.00    -0.191 NA
HETATM    4  F5  UNL     1     -34.123   5.468   1.546  1.00 20.00    -0.179 F 
HETATM    5  F6  UNL     1     -32.450   4.494   2.542  1.00 20.00    -0.179 F 
ENDROOT
BRANCH   2   6
HETATM    6  C3  UNL     1     -32.829   6.752   3.006  1.00 20.00     0.469 C 
HETATM    7  F7  UNL     1     -33.141   7.154   4.258  1.00 20.00    -0.164 F 
HETATM    8  F8  UNL     1     -31.483   6.716   2.911  1.00 20.00    -0.164 F 
HETATM    9  F9  UNL     1     -33.280   7.694   2.150  1.00 20.00    -0.164 F 
ENDBRANCH   2   6
TORSDOF 1
ENDMDL
