MODEL 1
REMARK VINA RESULT:      -6.2      0.000      0.000
REMARK  0 active torsions:
REMARK  status: ('A' for Active; 'I' for Inactive)
ROOT
HETATM    1  C1  UNL     1     -34.456   6.082   6.295  1.00 20.00    -0.030 C 
HETATM    2  C2  UNL     1     -35.051   5.017   5.724  1.00 20.00    -0.030 C 
HETATM    3  C3  UNL     1     -32.466   6.497   2.089  1.00 20.00    -0.030 C 
HETATM    4  C4  UNL     1     -32.643   7.349   3.111  1.00 20.00    -0.025 C 
HETATM    5  C5  UNL     1     -33.533   7.022   5.553  1.00 20.00     0.035 C 
HETATM    6  C6  UNL     1     -34.816   4.600   4.289  1.00 20.00     0.032 C 
HETATM    7  C7  UNL     1     -33.306   5.257   2.244  1.00 20.00     0.032 C 
HETATM    8  C8  UNL     1     -33.680   6.819   4.047  1.00 20.00     0.016 C 
HETATM    9  C9  UNL     1     -33.589   5.317   3.741  1.00 20.00     0.000 C 
ENDROOT
TORSDOF 0
ENDMDL
MODEL 2
REMARK VINA RESULT:      -6.1      0.141      2.050
REMARK  0 active torsions:
REMARK  status: ('A' for Active; 'I' for Inactive)
ROOT
HETATM    1  C1  UNL     1     -35.101   5.075   5.601  1.00 20.00    -0.030 C 
HETATM    2  C2  UNL     1     -34.474   6.089   6.228  1.00 20.00    -0.030 C 
HETATM    3  C3  UNL     1     -32.576   6.536   1.953  1.00 20.00    -0.030 C 
HETATM    4  C4  UNL     1     -33.204   5.384   2.234  1.00 20.00    -0.025 C 
HETATM    5  C5  UNL     1     -34.823   4.678   4.168  1.00 20.00     0.035 C 
HETATM    6  C6  UNL     1     -33.465   6.990   5.552  1.00 20.00     0.032 C 
HETATM    7  C7  UNL     1     -32.453   7.416   3.167  1.00 20.00     0.032 C 
HETATM    8  C8  UNL     1     -33.520   5.315   3.692  1.00 20.00     0.016 C 
HETATM    9  C9  UNL     1     -33.544   6.809   4.042  1.00 20.00     0.000 C 
ENDROOT
TORSDOF 0
ENDMDL
MODEL 3
REMARK VINA RESULT:      -5.8      0.688      3.771
REMARK  0 active torsions:
REMARK  status: ('A' for Active; 'I' for Inactive)
ROOT
HETATM    1  C1  UNL     1     -32.913   5.617   1.986  1.00 20.00    -0.030 C 
HETATM    2  C2  UNL     1     -32.532   6.864   2.325  1.00 20.00    -0.030 C 
HETATM    3  C3  UNL     1     -34.840   5.674   6.241  1.00 20.00    -0.030 C 
HETATM    4  C4  UNL     1     -35.045   4.922   5.149  1.00 20.00    -0.025 C 
HETATM    5  C5  UNL     1     -33.779   4.740   2.863  1.00 20.00     0.035 C 
HETATM    6  C6  UNL     1     -32.874   7.510   3.649  1.00 20.00     0.032 C 
HETATM    7  C7  UNL     1     -34.015   6.894   5.932  1.00 20.00     0.032 C 
HETATM    8  C8  UNL     1     -34.441   5.581   3.952  1.00 20.00     0.016 C 
HETATM    9  C9  UNL     1     -33.370   6.450   4.624  1.00 20.00     0.000 C 
ENDROOT
TORSDOF 0
ENDMDL
MODEL 4
REMARK VINA RESULT:      -5.6      0.706      3.220
REMARK  0 active torsions:
REMARK  status: ('A' for Active; 'I' for Inactive)
ROOT
HETATM    1  C1  UNL     1     -32.441   7.215   2.444  1.00 20.00    -0.030 C 
HETATM    2  C2  UNL     1     -32.750   6.004   1.940  1.00 20.00    -0.030 C 
HETATM    3  C3  UNL     1     -34.917   5.681   6.096  1.00 20.00    -0.030 C 
HETATM    4  C4  UNL     1     -34.009   6.658   5.946  1.00 20.00    -0.025 C 
HETATM    5  C5  UNL     1     -32.826   7.664   3.837  1.00 20.00     0.035 C 
HETATM    6  C6  UNL     1     -33.570   4.975   2.685  1.00 20.00     0.032 C 
HETATM    7  C7  UNL     1     -34.933   4.746   4.917  1.00 20.00     0.032 C 
HETATM    8  C8  UNL     1     -33.249   6.460   4.675  1.00 20.00     0.016 C 
HETATM    9  C9  UNL     1     -34.262   5.631   3.872  1.00 20.00     0.000 C 
ENDROOT
TORSDOF 0
ENDMDL
MODEL 5
REMARK VINA RESULT:      -4.6     15.645     16.494
REMARK  0 active torsions:
REMARK  status: ('A' for Active; 'I' for Inactive)
ROOT
HETATM    1  C1  UNL     1     -23.962  18.988   8.612  1.00 20.00    -0.030 C 
HETATM    2  C2  UNL     1     -23.026  18.020   8.605  1.00 20.00    -0.030 C 
HETATM    3  C3  UNL     1     -25.557  16.615  12.305  1.00 20.00    -0.030 C 
HETATM    4  C4  UNL     1     -25.743  17.870  11.869  1.00 20.00    -0.025 C 
HETATM    5  C5  UNL     1     -25.043  19.098   9.664  1.00 20.00     0.035 C 
HETATM    6  C6  UNL     1     -22.984  16.893   9.612  1.00 20.00     0.032 C 
HETATM    7  C7  UNL     1     -24.409  15.942  11.602  1.00 20.00     0.032 C 
HETATM    8  C8  UNL     1     -24.694  18.224  10.866  1.00 20.00     0.016 C 
HETATM    9  C9  UNL     1     -24.306  16.826  10.364  1.00 20.00     0.000 C 
ENDROOT
TORSDOF 0
ENDMDL
MODEL 6
REMARK VINA RESULT:      -4.6     15.639     16.575
REMARK  0 active torsions:
REMARK  status: ('A' for Active; 'I' for Inactive)
ROOT
HETATM    1  C1  UNL     1     -22.925  18.051   8.562  1.00 20.00    -0.030 C 
HETATM    2  C2  UNL     1     -23.870  19.010   8.535  1.00 20.00    -0.030 C 
HETATM    3  C3  UNL     1     -25.293  16.636  12.332  1.00 20.00    -0.030 C 
HETATM    4  C4  UNL     1     -24.418  16.030  11.515  1.00 20.00    -0.025 C 
HETATM    5  C5  UNL     1     -22.913  16.917   9.564  1.00 20.00     0.035 C 
HETATM    6  C6  UNL     1     -24.996  19.101   9.541  1.00 20.00     0.032 C 
HETATM    7  C7  UNL     1     -25.791  17.934  11.754  1.00 20.00     0.032 C 
HETATM    8  C8  UNL     1     -24.272  16.811  10.250  1.00 20.00     0.016 C 
HETATM    9  C9  UNL     1     -24.691  18.206  10.735  1.00 20.00     0.000 C 
ENDROOT
TORSDOF 0
ENDMDL
MODEL 7
REMARK VINA RESULT:      -4.5     11.830     12.485
REMARK  0 active torsions:
REMARK  status: ('A' for Active; 'I' for Inactive)
ROOT
HETATM    1  C1  UNL     1     -33.469  18.099  -0.930  1.00 20.00    -0.030 C 
HETATM    2  C2  UNL     1     -34.789  17.912  -0.737  1.00 20.00    -0.030 C 
HETATM    3  C3  UNL     1     -34.031  14.671  -4.053  1.00 20.00    -0.030 C 
HETATM    4  C4  UNL     1     -33.088  15.609  -3.878  1.00 20.00    -0.025 C 
HETATM    5  C5  UNL     1     -32.663  17.356  -1.973  1.00 20.00     0.035 C 
HETATM    6  C6  UNL     1     -35.607  16.892  -1.496  1.00 20.00     0.032 C 
HETATM    7  C7  UNL     1     -35.264  14.959  -3.239  1.00 20.00     0.032 C 
HETATM    8  C8  UNL     1     -33.598  16.686  -2.977  1.00 20.00     0.016 C 
HETATM    9  C9  UNL     1     -34.679  15.915  -2.206  1.00 20.00     0.000 C 
ENDROOT
TORSDOF 0
ENDMDL
MODEL 8
REMARK VINA RESULT:      -4.4     11.823     12.649
REMARK  0 active torsions:
REMARK  status: ('A' for Active; 'I' for Inactive)
ROOT
HETATM    1  C1  UNL     1     -34.808  18.171  -0.933  1.00 20.00    -0.030 C 
HETATM    2  C2  UNL     1     -33.477  18.301  -1.087  1.00 20.00    -0.030 C 
HETATM    3  C3  UNL     1     -34.243  14.716  -4.026  1.00 20.00    -0.030 C 
HETATM    4  C4  UNL     1     -35.211  15.012  -3.146  1.00 20.00    -0.025 C 
HETATM    5  C5  UNL     1     -35.626  17.089  -1.605  1.00 20.00     0.035 C 
HETATM    6  C6  UNL     1     -32.652  17.419  -1.999  1.00 20.00     0.032 C 
HETATM    7  C7  UNL     1     -32.992  15.512  -3.770  1.00 20.00     0.032 C 
HETATM    8  C8  UNL     1     -34.706  15.995  -2.140  1.00 20.00     0.016 C 
HETATM    9  C9  UNL     1     -33.571  16.651  -2.939  1.00 20.00     0.000 C 
ENDROOT
TORSDOF 0
ENDMDL
MODEL 9
REMARK VINA RESULT:      -4.3     11.998     12.785
REMARK  0 active torsions:
REMARK  status: ('A' for Active; 'I' for Inactive)
ROOT
HETATM    1  C1  UNL     1     -35.309  14.495  -6.063  1.00 20.00    -0.030 C 
HETATM    2  C2  UNL     1     -36.340  14.189  -5.253  1.00 20.00    -0.030 C 
HETATM    3  C3  UNL     1     -33.679  16.606  -2.228  1.00 20.00    -0.030 C 
HETATM    4  C4  UNL     1     -33.098  16.181  -3.361  1.00 20.00    -0.025 C 
HETATM    5  C5  UNL     1     -34.071  15.233  -5.600  1.00 20.00     0.035 C 
HETATM    6  C6  UNL     1     -36.410  14.601  -3.800  1.00 20.00     0.032 C 
HETATM    7  C7  UNL     1     -35.070  16.054  -2.072  1.00 20.00     0.032 C 
HETATM    8  C8  UNL     1     -34.002  15.230  -4.075  1.00 20.00     0.016 C 
HETATM    9  C9  UNL     1     -35.363  15.670  -3.518  1.00 20.00     0.000 C 
ENDROOT
TORSDOF 0
ENDMDL
