MODEL 1
REMARK VINA RESULT:      -4.9      0.000      0.000
REMARK  2 active torsions:
REMARK  status: ('A' for Active; 'I' for Inactive)
REMARK    1  A    between atoms: C1_1  and  C2_2 
REMARK    2  A    between atoms: C1_1  and  C3_3 
ROOT
HETATM    1  C3  UNL     1     -34.744   5.301   4.457  1.00 20.00     0.321 C 
HETATM    2  F4  UNL     1     -36.013   5.534   4.028  1.00 20.00    -0.188 F 
HETATM    3  F5  UNL     1     -34.375   4.106   3.929  1.00 20.00    -0.188 F 
HETATM    4 CL7  UNL     1     -34.741   5.199   6.225  1.00 20.00    -0.048 Cl
ENDROOT
BRANCH   1   5
HETATM    5  C1  UNL     1     -33.836   6.400   3.920  1.00 20.00     0.112 C 
BRANCH   5   6
HETATM    6  C2  UNL     1     -33.052   5.988   2.680  1.00 20.00     0.122 C 
HETATM    7 CL6  UNL     1     -32.419   7.428   1.844  1.00 20.00    -0.130 Cl
ENDBRANCH   5   6
ENDBRANCH   1   5
TORSDOF 2
ENDMDL
MODEL 2
REMARK VINA RESULT:      -4.5      2.165      2.222
REMARK  2 active torsions:
REMARK  status: ('A' for Active; 'I' for Inactive)
REMARK    1  A    between atoms: C1_1  and  C2_2 
REMARK    2  A    between atoms: C1_1  and  C3_3 
ROOT
HETATM    1  C3  UNL     1     -34.591   5.573   5.825  1.00 20.00     0.321 C 
HETATM    2  F4  UNL     1     -35.621   5.809   6.680  1.00 20.00    -0.188 F 
HETATM    3  F5  UNL     1     -33.868   4.559   6.367  1.00 20.00    -0.188 F 
HETATM    4 CL7  UNL     1     -33.587   7.028   5.714  1.00 20.00    -0.048 Cl
ENDROOT
BRANCH   1   5
HETATM    5  C1  UNL     1     -35.160   5.136   4.482  1.00 20.00     0.112 C 
BRANCH   5   6
HETATM    6  C2  UNL     1     -34.182   4.321   3.643  1.00 20.00     0.122 C 
HETATM    7 CL6  UNL     1     -33.234   5.394   2.585  1.00 20.00    -0.130 Cl
ENDBRANCH   5   6
ENDBRANCH   1   5
TORSDOF 2
ENDMDL
MODEL 3
REMARK VINA RESULT:      -4.5      1.313      1.559
REMARK  2 active torsions:
REMARK  status: ('A' for Active; 'I' for Inactive)
REMARK    1  A    between atoms: C1_1  and  C2_2 
REMARK    2  A    between atoms: C1_1  and  C3_3 
ROOT
HETATM    1  C3  UNL     1     -34.781   5.476   4.575  1.00 20.00     0.321 C 
HETATM    2  F4  UNL     1     -34.854   5.547   5.930  1.00 20.00    -0.188 F 
HETATM    3  F5  UNL     1     -36.044   5.661   4.113  1.00 20.00    -0.188 F 
HETATM    4 CL7  UNL     1     -34.205   3.868   4.110  1.00 20.00    -0.048 Cl
ENDROOT
BRANCH   1   5
HETATM    5  C1  UNL     1     -33.883   6.600   4.073  1.00 20.00     0.112 C 
BRANCH   5   6
HETATM    6  C2  UNL     1     -32.983   6.188   2.914  1.00 20.00     0.122 C 
HETATM    7 CL6  UNL     1     -32.558   7.608   1.927  1.00 20.00    -0.130 Cl
ENDBRANCH   5   6
ENDBRANCH   1   5
TORSDOF 2
ENDMDL
MODEL 4
REMARK VINA RESULT:      -4.4      1.514      1.579
REMARK  2 active torsions:
REMARK  status: ('A' for Active; 'I' for Inactive)
REMARK    1  A    between atoms: C1_1  and  C2_2 
REMARK    2  A    between atoms: C1_1  and  C3_3 
ROOT
HETATM    1  C3  UNL     1     -34.818   5.367   4.994  1.00 20.00     0.321 C 
HETATM    2  F4  UNL     1     -35.894   5.746   4.256  1.00 20.00    -0.188 F 
HETATM    3  F5  UNL     1     -35.308   4.690   6.064  1.00 20.00    -0.188 F 
HETATM    4 CL7  UNL     1     -33.956   6.811   5.545  1.00 20.00    -0.048 Cl
ENDROOT
BRANCH   1   5
HETATM    5  C1  UNL     1     -33.951   4.437   4.154  1.00 20.00     0.112 C 
BRANCH   5   6
HETATM    6  C2  UNL     1     -33.795   4.894   2.708  1.00 20.00     0.122 C 
HETATM    7 CL6  UNL     1     -32.742   6.328   2.624  1.00 20.00    -0.130 Cl
ENDBRANCH   5   6
ENDBRANCH   1   5
TORSDOF 2
ENDMDL
MODEL 5
REMARK VINA RESULT:      -4.3      1.790      3.416
REMARK  2 active torsions:
REMARK  status: ('A' for Active; 'I' for Inactive)
REMARK    1  A    between atoms: C1_1  and  C2_2 
REMARK    2  A    between atoms: C1_1  and  C3_3 
ROOT
HETATM    1  C3  UNL     1     -33.460   5.150   2.699  1.00 20.00     0.321 C 
HETATM    2  F4  UNL     1     -32.448   4.328   2.315  1.00 20.00    -0.188 F 
HETATM    3  F5  UNL     1     -34.270   5.290   1.618  1.00 20.00    -0.188 F 
HETATM    4 CL7  UNL     1     -32.788   6.724   3.149  1.00 20.00    -0.048 Cl
ENDROOT
BRANCH   1   5
HETATM    5  C1  UNL     1     -34.230   4.482   3.832  1.00 20.00     0.112 C 
BRANCH   5   6
HETATM    6  C2  UNL     1     -35.203   5.417   4.539  1.00 20.00     0.122 C 
HETATM    7 CL6  UNL     1     -34.553   5.901   6.125  1.00 20.00    -0.130 Cl
ENDBRANCH   5   6
ENDBRANCH   1   5
TORSDOF 2
ENDMDL
MODEL 6
REMARK VINA RESULT:      -4.3      1.993      3.854
REMARK  2 active torsions:
REMARK  status: ('A' for Active; 'I' for Inactive)
REMARK    1  A    between atoms: C1_1  and  C2_2 
REMARK    2  A    between atoms: C1_1  and  C3_3 
ROOT
HETATM    1  C3  UNL     1     -32.668   6.806   2.874  1.00 20.00     0.321 C 
HETATM    2  F4  UNL     1     -31.506   7.181   3.471  1.00 20.00    -0.188 F 
HETATM    3  F5  UNL     1     -32.483   5.534   2.440  1.00 20.00    -0.188 F 
HETATM    4 CL7  UNL     1     -32.977   7.870   1.492  1.00 20.00    -0.048 Cl
ENDROOT
BRANCH   1   5
HETATM    5  C1  UNL     1     -33.783   6.836   3.912  1.00 20.00     0.112 C 
BRANCH   5   6
HETATM    6  C2  UNL     1     -34.466   5.487   4.109  1.00 20.00     0.122 C 
HETATM    7 CL6  UNL     1     -34.833   5.228   5.832  1.00 20.00    -0.130 Cl
ENDBRANCH   5   6
ENDBRANCH   1   5
TORSDOF 2
ENDMDL
MODEL 7
REMARK VINA RESULT:      -3.9      1.982      3.667
REMARK  2 active torsions:
REMARK  status: ('A' for Active; 'I' for Inactive)
REMARK    1  A    between atoms: C1_1  and  C2_2 
REMARK    2  A    between atoms: C1_1  and  C3_3 
ROOT
HETATM    1  C3  UNL     1     -32.862   6.634   2.856  1.00 20.00     0.321 C 
HETATM    2  F4  UNL     1     -32.487   5.351   2.611  1.00 20.00    -0.188 F 
HETATM    3  F5  UNL     1     -33.193   7.172   1.654  1.00 20.00    -0.188 F 
HETATM    4 CL7  UNL     1     -31.492   7.515   3.548  1.00 20.00    -0.048 Cl
ENDROOT
BRANCH   1   5
HETATM    5  C1  UNL     1     -34.085   6.621   3.764  1.00 20.00     0.112 C 
BRANCH   5   6
HETATM    6  C2  UNL     1     -34.555   5.219   4.132  1.00 20.00     0.122 C 
HETATM    7 CL6  UNL     1     -34.857   5.109   5.884  1.00 20.00    -0.130 Cl
ENDBRANCH   5   6
ENDBRANCH   1   5
TORSDOF 2
ENDMDL
MODEL 8
REMARK VINA RESULT:      -3.8      1.896      2.278
REMARK  2 active torsions:
REMARK  status: ('A' for Active; 'I' for Inactive)
REMARK    1  A    between atoms: C1_1  and  C2_2 
REMARK    2  A    between atoms: C1_1  and  C3_3 
ROOT
HETATM    1  C3  UNL     1     -34.559   5.626   5.774  1.00 20.00     0.321 C 
HETATM    2  F4  UNL     1     -33.817   4.652   6.366  1.00 20.00    -0.188 F 
HETATM    3  F5  UNL     1     -35.391   6.108   6.732  1.00 20.00    -0.188 F 
HETATM    4 CL7  UNL     1     -35.509   4.912   4.462  1.00 20.00    -0.048 Cl
ENDROOT
BRANCH   1   5
HETATM    5  C1  UNL     1     -33.625   6.733   5.302  1.00 20.00     0.112 C 
BRANCH   5   6
HETATM    6  C2  UNL     1     -33.482   6.802   3.787  1.00 20.00     0.122 C 
HETATM    7 CL6  UNL     1     -31.868   7.413   3.347  1.00 20.00    -0.130 Cl
ENDBRANCH   5   6
ENDBRANCH   1   5
TORSDOF 2
ENDMDL
MODEL 9
REMARK VINA RESULT:      -3.7      1.806      2.833
REMARK  2 active torsions:
REMARK  status: ('A' for Active; 'I' for Inactive)
REMARK    1  A    between atoms: C1_1  and  C2_2 
REMARK    2  A    between atoms: C1_1  and  C3_3 
ROOT
HETATM    1  C3  UNL     1     -34.622   4.890   4.158  1.00 20.00     0.321 C 
HETATM    2  F4  UNL     1     -34.498   3.587   3.790  1.00 20.00    -0.188 F 
HETATM    3  F5  UNL     1     -35.908   5.240   3.898  1.00 20.00    -0.188 F 
HETATM    4 CL7  UNL     1     -33.525   5.875   3.177  1.00 20.00    -0.048 Cl
ENDROOT
BRANCH   1   5
HETATM    5  C1  UNL     1     -34.353   5.004   5.652  1.00 20.00     0.112 C 
BRANCH   5   6
HETATM    6  C2  UNL     1     -34.487   6.425   6.187  1.00 20.00     0.122 C 
HETATM    7 CL6  UNL     1     -33.096   7.412   5.674  1.00 20.00    -0.130 Cl
ENDBRANCH   5   6
ENDBRANCH   1   5
TORSDOF 2
ENDMDL
