MODEL 1
REMARK VINA RESULT:      -4.2      0.000      0.000
REMARK  2 active torsions:
REMARK  status: ('A' for Active; 'I' for Inactive)
REMARK    1  A    between atoms: C3_3  and  C8_8 
REMARK    2  A    between atoms: C4_4  and  C7_7 
ROOT
HETATM    1  C5  UNL     1     -34.770  14.068  -3.988  1.00 20.00     0.040 C 
HETATM    2  C6  UNL     1     -36.115  13.660  -4.543  1.00 20.00     0.045 C 
HETATM    3  C7  UNL     1     -35.168  15.087  -2.934  1.00 20.00     0.151 C 
HETATM    4  C8  UNL     1     -36.891  14.977  -4.527  1.00 20.00     0.075 C 
HETATM    5  C10 UNL     1     -38.385  14.763  -4.305  1.00 20.00     0.050 C 
HETATM    6  O11 UNL     1     -36.362  15.730  -3.415  1.00 20.00    -0.367 OA
ENDROOT
BRANCH   3   7
HETATM    7  C4  UNL     1     -34.114  16.106  -2.677  1.00 20.00    -0.065 C 
HETATM    8  C2  UNL     1     -32.998  16.174  -3.417  1.00 20.00     0.016 C 
HETATM    9  C9  UNL     1     -34.373  17.054  -1.543  1.00 20.00     0.045 C 
ENDBRANCH   3   7
BRANCH   4  10
HETATM   10  C3  UNL     1     -36.672  15.783  -5.774  1.00 20.00     0.000 C 
HETATM   11  C1  UNL     1     -36.308  17.069  -5.780  1.00 20.00     0.010 C 
ENDBRANCH   4  10
TORSDOF 2
ENDMDL
MODEL 2
REMARK VINA RESULT:      -4.1      1.635      2.243
REMARK  2 active torsions:
REMARK  status: ('A' for Active; 'I' for Inactive)
REMARK    1  A    between atoms: C3_3  and  C8_8 
REMARK    2  A    between atoms: C4_4  and  C7_7 
ROOT
HETATM    1  C5  UNL     1     -35.555  14.140  -3.975  1.00 20.00     0.040 C 
HETATM    2  C6  UNL     1     -36.097  14.074  -5.385  1.00 20.00     0.045 C 
HETATM    3  C7  UNL     1     -35.693  15.620  -3.661  1.00 20.00     0.151 C 
HETATM    4  C8  UNL     1     -35.584  15.378  -5.995  1.00 20.00     0.075 C 
HETATM    5  C10 UNL     1     -36.531  15.928  -7.058  1.00 20.00     0.050 C 
HETATM    6  O11 UNL     1     -35.516  16.321  -4.905  1.00 20.00    -0.367 OA
ENDROOT
BRANCH   3   7
HETATM    7  C4  UNL     1     -34.699  16.102  -2.663  1.00 20.00    -0.065 C 
HETATM    8  C2  UNL     1     -35.065  16.518  -1.442  1.00 20.00     0.016 C 
HETATM    9  C9  UNL     1     -33.265  16.095  -3.103  1.00 20.00     0.045 C 
ENDBRANCH   3   7
BRANCH   4  10
HETATM   10  C3  UNL     1     -34.204  15.236  -6.567  1.00 20.00     0.000 C 
HETATM   11  C1  UNL     1     -33.906  15.416  -7.858  1.00 20.00     0.010 C 
ENDBRANCH   4  10
TORSDOF 2
ENDMDL
MODEL 3
REMARK VINA RESULT:      -4.0      1.156      2.026
REMARK  2 active torsions:
REMARK  status: ('A' for Active; 'I' for Inactive)
REMARK    1  A    between atoms: C3_3  and  C8_8 
REMARK    2  A    between atoms: C4_4  and  C7_7 
ROOT
HETATM    1  C5  UNL     1     -33.350  15.860  -3.347  1.00 20.00     0.040 C 
HETATM    2  C6  UNL     1     -33.808  14.789  -4.310  1.00 20.00     0.045 C 
HETATM    3  C7  UNL     1     -34.465  15.844  -2.315  1.00 20.00     0.151 C 
HETATM    4  C8  UNL     1     -35.324  14.988  -4.328  1.00 20.00     0.075 C 
HETATM    5  C10 UNL     1     -36.074  13.682  -4.567  1.00 20.00     0.050 C 
HETATM    6  O11 UNL     1     -35.669  15.485  -3.017  1.00 20.00    -0.367 OA
ENDROOT
BRANCH   3   7
HETATM    7  C4  UNL     1     -34.650  17.153  -1.631  1.00 20.00    -0.065 C 
HETATM    8  C2  UNL     1     -35.166  17.241  -0.396  1.00 20.00     0.016 C 
HETATM    9  C9  UNL     1     -34.225  18.367  -2.402  1.00 20.00     0.045 C 
ENDBRANCH   3   7
BRANCH   4  10
HETATM   10  C3  UNL     1     -35.752  16.014  -5.336  1.00 20.00     0.000 C 
HETATM   11  C1  UNL     1     -36.674  16.953  -5.103  1.00 20.00     0.010 C 
ENDBRANCH   4  10
TORSDOF 2
ENDMDL
MODEL 4
REMARK VINA RESULT:      -4.0      1.559      4.108
REMARK  2 active torsions:
REMARK  status: ('A' for Active; 'I' for Inactive)
REMARK    1  A    between atoms: C3_3  and  C8_8 
REMARK    2  A    between atoms: C4_4  and  C7_7 
ROOT
HETATM    1  C5  UNL     1     -33.433  14.834  -4.252  1.00 20.00     0.040 C 
HETATM    2  C6  UNL     1     -32.951  15.943  -3.346  1.00 20.00     0.045 C 
HETATM    3  C7  UNL     1     -34.456  15.559  -5.110  1.00 20.00     0.151 C 
HETATM    4  C8  UNL     1     -34.230  16.740  -3.091  1.00 20.00     0.075 C 
HETATM    5  C10 UNL     1     -33.952  18.225  -2.879  1.00 20.00     0.050 C 
HETATM    6  O11 UNL     1     -35.032  16.586  -4.281  1.00 20.00    -0.367 OA
ENDROOT
BRANCH   3   7
HETATM    7  C4  UNL     1     -35.529  14.665  -5.624  1.00 20.00    -0.065 C 
HETATM    8  C2  UNL     1     -36.182  13.809  -4.825  1.00 20.00     0.016 C 
HETATM    9  C9  UNL     1     -35.837  14.776  -7.088  1.00 20.00     0.045 C 
ENDBRANCH   3   7
BRANCH   4  10
HETATM   10  C3  UNL     1     -35.017  16.198  -1.933  1.00 20.00     0.000 C 
HETATM   11  C1  UNL     1     -35.290  16.892  -0.823  1.00 20.00     0.010 C 
ENDBRANCH   4  10
TORSDOF 2
ENDMDL
MODEL 5
REMARK VINA RESULT:      -3.9      1.695      4.238
REMARK  2 active torsions:
REMARK  status: ('A' for Active; 'I' for Inactive)
REMARK    1  A    between atoms: C3_3  and  C8_8 
REMARK    2  A    between atoms: C4_4  and  C7_7 
ROOT
HETATM    1  C5  UNL     1     -35.422  17.095  -3.867  1.00 20.00     0.040 C 
HETATM    2  C6  UNL     1     -35.274  18.055  -2.708  1.00 20.00     0.045 C 
HETATM    3  C7  UNL     1     -35.524  15.759  -3.149  1.00 20.00     0.151 C 
HETATM    4  C8  UNL     1     -34.403  17.263  -1.733  1.00 20.00     0.075 C 
HETATM    5  C10 UNL     1     -34.705  17.610  -0.278  1.00 20.00     0.050 C 
HETATM    6  O11 UNL     1     -34.731  15.875  -1.953  1.00 20.00    -0.367 OA
ENDROOT
BRANCH   3   7
HETATM    7  C4  UNL     1     -35.039  14.615  -3.968  1.00 20.00    -0.065 C 
HETATM    8  C2  UNL     1     -33.738  14.439  -4.240  1.00 20.00     0.016 C 
HETATM    9  C9  UNL     1     -36.090  13.670  -4.472  1.00 20.00     0.045 C 
ENDBRANCH   3   7
BRANCH   4  10
HETATM   10  C3  UNL     1     -32.938  17.438  -2.006  1.00 20.00     0.000 C 
HETATM   11  C1  UNL     1     -32.122  18.188  -1.258  1.00 20.00     0.010 C 
ENDBRANCH   4  10
TORSDOF 2
ENDMDL
MODEL 6
REMARK VINA RESULT:      -3.8      1.995      4.553
REMARK  2 active torsions:
REMARK  status: ('A' for Active; 'I' for Inactive)
REMARK    1  A    between atoms: C3_3  and  C8_8 
REMARK    2  A    between atoms: C4_4  and  C7_7 
ROOT
HETATM    1  C5  UNL     1     -35.247  16.838  -1.678  1.00 20.00     0.040 C 
HETATM    2  C6  UNL     1     -34.372  17.832  -0.948  1.00 20.00     0.045 C 
HETATM    3  C7  UNL     1     -34.213  15.896  -2.273  1.00 20.00     0.151 C 
HETATM    4  C8  UNL     1     -33.175  17.969  -1.888  1.00 20.00     0.075 C 
HETATM    5  C10 UNL     1     -31.882  18.263  -1.135  1.00 20.00     0.050 C 
HETATM    6  O11 UNL     1     -33.044  16.691  -2.546  1.00 20.00    -0.367 OA
ENDROOT
BRANCH   3   7
HETATM    7  C4  UNL     1     -34.676  15.233  -3.522  1.00 20.00    -0.065 C 
HETATM    8  C2  UNL     1     -35.978  15.046  -3.786  1.00 20.00     0.016 C 
HETATM    9  C9  UNL     1     -33.602  14.785  -4.470  1.00 20.00     0.045 C 
ENDBRANCH   3   7
BRANCH   4  10
HETATM   10  C3  UNL     1     -33.397  19.010  -2.946  1.00 20.00     0.000 C 
HETATM   11  C1  UNL     1     -32.982  18.892  -4.211  1.00 20.00     0.010 C 
ENDBRANCH   4  10
TORSDOF 2
ENDMDL
MODEL 7
REMARK VINA RESULT:      -3.8      2.295      3.585
REMARK  2 active torsions:
REMARK  status: ('A' for Active; 'I' for Inactive)
REMARK    1  A    between atoms: C3_3  and  C8_8 
REMARK    2  A    between atoms: C4_4  and  C7_7 
ROOT
HETATM    1  C5  UNL     1     -34.944  16.575  -1.378  1.00 20.00     0.040 C 
HETATM    2  C6  UNL     1     -35.361  16.182  -2.777  1.00 20.00     0.045 C 
HETATM    3  C7  UNL     1     -34.224  17.889  -1.629  1.00 20.00     0.151 C 
HETATM    4  C8  UNL     1     -34.168  16.638  -3.617  1.00 20.00     0.075 C 
HETATM    5  C10 UNL     1     -34.581  17.061  -5.023  1.00 20.00     0.050 C 
HETATM    6  O11 UNL     1     -33.622  17.785  -2.932  1.00 20.00    -0.367 OA
ENDROOT
BRANCH   3   7
HETATM    7  C4  UNL     1     -33.179  18.188  -0.612  1.00 20.00    -0.065 C 
HETATM    8  C2  UNL     1     -31.880  18.278  -0.935  1.00 20.00     0.016 C 
HETATM    9  C9  UNL     1     -33.662  18.383   0.795  1.00 20.00     0.045 C 
ENDBRANCH   3   7
BRANCH   4  10
HETATM   10  C3  UNL     1     -33.093  15.594  -3.694  1.00 20.00     0.000 C 
HETATM   11  C1  UNL     1     -33.189  14.473  -4.417  1.00 20.00     0.010 C 
ENDBRANCH   4  10
TORSDOF 2
ENDMDL
MODEL 8
REMARK VINA RESULT:      -3.8      1.644      2.940
REMARK  2 active torsions:
REMARK  status: ('A' for Active; 'I' for Inactive)
REMARK    1  A    between atoms: C3_3  and  C8_8 
REMARK    2  A    between atoms: C4_4  and  C7_7 
ROOT
HETATM    1  C5  UNL     1     -35.423  17.569  -4.571  1.00 20.00     0.040 C 
HETATM    2  C6  UNL     1     -35.522  16.998  -5.968  1.00 20.00     0.045 C 
HETATM    3  C7  UNL     1     -34.114  16.970  -4.086  1.00 20.00     0.151 C 
HETATM    4  C8  UNL     1     -34.959  15.589  -5.789  1.00 20.00     0.075 C 
HETATM    5  C10 UNL     1     -34.257  15.085  -7.046  1.00 20.00     0.050 C 
HETATM    6  O11 UNL     1     -33.988  15.686  -4.726  1.00 20.00    -0.367 OA
ENDROOT
BRANCH   3   7
HETATM    7  C4  UNL     1     -34.057  16.805  -2.608  1.00 20.00    -0.065 C 
HETATM    8  C2  UNL     1     -34.995  16.122  -1.934  1.00 20.00     0.016 C 
HETATM    9  C9  UNL     1     -32.890  17.445  -1.916  1.00 20.00     0.045 C 
ENDBRANCH   3   7
BRANCH   4  10
HETATM   10  C3  UNL     1     -36.010  14.606  -5.363  1.00 20.00     0.000 C 
HETATM   11  C1  UNL     1     -35.817  13.656  -4.443  1.00 20.00     0.010 C 
ENDBRANCH   4  10
TORSDOF 2
ENDMDL
MODEL 9
REMARK VINA RESULT:      -3.8      1.932      3.387
REMARK  2 active torsions:
REMARK  status: ('A' for Active; 'I' for Inactive)
REMARK    1  A    between atoms: C3_3  and  C8_8 
REMARK    2  A    between atoms: C4_4  and  C7_7 
ROOT
HETATM    1  C5  UNL     1     -34.096  18.016  -3.641  1.00 20.00     0.040 C 
HETATM    2  C6  UNL     1     -34.292  16.962  -4.707  1.00 20.00     0.045 C 
HETATM    3  C7  UNL     1     -32.897  17.470  -2.884  1.00 20.00     0.151 C 
HETATM    4  C8  UNL     1     -33.962  15.671  -3.958  1.00 20.00     0.075 C 
HETATM    5  C10 UNL     1     -33.357  14.612  -4.874  1.00 20.00     0.050 C 
HETATM    6  O11 UNL     1     -32.982  16.035  -2.963  1.00 20.00    -0.367 OA
ENDROOT
BRANCH   3   7
HETATM    7  C4  UNL     1     -32.860  17.896  -1.459  1.00 20.00    -0.065 C 
HETATM    8  C2  UNL     1     -31.732  18.332  -0.878  1.00 20.00     0.016 C 
HETATM    9  C9  UNL     1     -34.156  17.811  -0.709  1.00 20.00     0.045 C 
ENDBRANCH   3   7
BRANCH   4  10
HETATM   10  C3  UNL     1     -35.155  15.106  -3.243  1.00 20.00     0.000 C 
HETATM   11  C1  UNL     1     -36.325  14.842  -3.833  1.00 20.00     0.010 C 
ENDBRANCH   4  10
TORSDOF 2
ENDMDL
