MODEL 1
REMARK VINA RESULT:      -4.4      0.000      0.000
REMARK  1 active torsions:
REMARK  status: ('A' for Active; 'I' for Inactive)
REMARK    1  A    between atoms: C3_3  and  C7_7 
ROOT
HETATM    1  C1  UNL     1     -34.988  15.587  -6.302  1.00 20.00     0.001 C 
HETATM    2  C2  UNL     1     -36.021  15.838  -5.483  1.00 20.00    -0.083 C 
HETATM    3  C5  UNL     1     -33.826  14.734  -5.895  1.00 20.00     0.196 C 
HETATM    4  C6  UNL     1     -36.035  15.277  -4.086  1.00 20.00     0.069 C 
HETATM    5  C7  UNL     1     -34.654  14.776  -3.634  1.00 20.00     0.148 C 
HETATM    6  C8  UNL     1     -37.202  16.660  -5.897  1.00 20.00     0.043 C 
HETATM    7  O11 UNL     1     -34.045  14.011  -4.679  1.00 20.00    -0.378 OA
ENDROOT
BRANCH   5   8
HETATM    8  C3  UNL     1     -33.741  15.858  -3.140  1.00 20.00     0.007 C 
HETATM    9  C4  UNL     1     -33.930  16.677  -2.088  1.00 20.00    -0.089 C 
HETATM   10  C9  UNL     1     -32.910  17.719  -1.721  1.00 20.00     0.042 C 
HETATM   11  C10 UNL     1     -35.142  16.634  -1.202  1.00 20.00     0.042 C 
ENDBRANCH   5   8
TORSDOF 1
ENDMDL
MODEL 2
REMARK VINA RESULT:      -4.3      1.492      2.403
REMARK  1 active torsions:
REMARK  status: ('A' for Active; 'I' for Inactive)
REMARK    1  A    between atoms: C3_3  and  C7_7 
ROOT
HETATM    1  C1  UNL     1     -35.862  16.063  -4.907  1.00 20.00     0.001 C 
HETATM    2  C2  UNL     1     -35.444  14.885  -4.417  1.00 20.00    -0.083 C 
HETATM    3  C5  UNL     1     -35.044  17.313  -4.808  1.00 20.00     0.196 C 
HETATM    4  C6  UNL     1     -34.117  14.785  -3.713  1.00 20.00     0.069 C 
HETATM    5  C7  UNL     1     -33.556  16.157  -3.308  1.00 20.00     0.148 C 
HETATM    6  C8  UNL     1     -36.241  13.625  -4.546  1.00 20.00     0.043 C 
HETATM    7  O11 UNL     1     -33.693  17.082  -4.393  1.00 20.00    -0.378 OA
ENDROOT
BRANCH   5   8
HETATM    8  C3  UNL     1     -34.135  16.706  -2.039  1.00 20.00     0.007 C 
HETATM    9  C4  UNL     1     -33.572  17.591  -1.193  1.00 20.00    -0.089 C 
HETATM   10  C9  UNL     1     -34.291  18.044   0.047  1.00 20.00     0.042 C 
HETATM   11  C10 UNL     1     -32.212  18.194  -1.397  1.00 20.00     0.042 C 
ENDBRANCH   5   8
TORSDOF 1
ENDMDL
MODEL 3
REMARK VINA RESULT:      -4.2      3.149      6.033
REMARK  1 active torsions:
REMARK  status: ('A' for Active; 'I' for Inactive)
REMARK    1  A    between atoms: C3_3  and  C7_7 
ROOT
HETATM    1  C1  UNL     1     -31.730  18.178   1.137  1.00 20.00     0.001 C 
HETATM    2  C2  UNL     1     -33.042  18.456   1.089  1.00 20.00    -0.083 C 
HETATM    3  C5  UNL     1     -30.821  18.374  -0.037  1.00 20.00     0.196 C 
HETATM    4  C6  UNL     1     -33.664  18.962  -0.185  1.00 20.00     0.069 C 
HETATM    5  C7  UNL     1     -32.764  18.744  -1.412  1.00 20.00     0.148 C 
HETATM    6  C8  UNL     1     -33.947  18.296   2.270  1.00 20.00     0.043 C 
HETATM    7  O11 UNL     1     -31.418  19.120  -1.104  1.00 20.00    -0.378 OA
ENDROOT
BRANCH   5   8
HETATM    8  C3  UNL     1     -32.832  17.360  -1.984  1.00 20.00     0.007 C 
HETATM    9  C4  UNL     1     -33.250  16.996  -3.212  1.00 20.00    -0.089 C 
HETATM   10  C9  UNL     1     -33.257  15.554  -3.635  1.00 20.00     0.042 C 
HETATM   11  C10 UNL     1     -33.737  17.967  -4.250  1.00 20.00     0.042 C 
ENDBRANCH   5   8
TORSDOF 1
ENDMDL
MODEL 4
REMARK VINA RESULT:      -4.2      1.333      4.375
REMARK  1 active torsions:
REMARK  status: ('A' for Active; 'I' for Inactive)
REMARK    1  A    between atoms: C3_3  and  C7_7 
ROOT
HETATM    1  C1  UNL     1     -35.094  16.167  -2.105  1.00 20.00     0.001 C 
HETATM    2  C2  UNL     1     -33.859  16.670  -2.251  1.00 20.00    -0.083 C 
HETATM    3  C5  UNL     1     -35.652  15.124  -3.024  1.00 20.00     0.196 C 
HETATM    4  C6  UNL     1     -32.982  16.212  -3.384  1.00 20.00     0.069 C 
HETATM    5  C7  UNL     1     -33.765  15.473  -4.479  1.00 20.00     0.148 C 
HETATM    6  C8  UNL     1     -33.283  17.686  -1.313  1.00 20.00     0.043 C 
HETATM    7  O11 UNL     1     -34.671  14.536  -3.886  1.00 20.00    -0.378 OA
ENDROOT
BRANCH   5   8
HETATM    8  C3  UNL     1     -34.465  16.377  -5.449  1.00 20.00     0.007 C 
HETATM    9  C4  UNL     1     -34.508  16.269  -6.791  1.00 20.00    -0.089 C 
HETATM   10  C9  UNL     1     -35.260  17.267  -7.627  1.00 20.00     0.042 C 
HETATM   11  C10 UNL     1     -33.829  15.174  -7.564  1.00 20.00     0.042 C 
ENDBRANCH   5   8
TORSDOF 1
ENDMDL
MODEL 5
REMARK VINA RESULT:      -4.2      2.182      4.843
REMARK  1 active torsions:
REMARK  status: ('A' for Active; 'I' for Inactive)
REMARK    1  A    between atoms: C3_3  and  C7_7 
ROOT
HETATM    1  C1  UNL     1     -32.228  18.867  -2.419  1.00 20.00     0.001 C 
HETATM    2  C2  UNL     1     -32.306  18.377  -1.172  1.00 20.00    -0.083 C 
HETATM    3  C5  UNL     1     -33.369  18.795  -3.386  1.00 20.00     0.196 C 
HETATM    4  C6  UNL     1     -33.564  17.701  -0.700  1.00 20.00     0.069 C 
HETATM    5  C7  UNL     1     -34.502  17.319  -1.856  1.00 20.00     0.148 C 
HETATM    6  C8  UNL     1     -31.180  18.479  -0.191  1.00 20.00     0.043 C 
HETATM    7  O11 UNL     1     -34.608  18.407  -2.780  1.00 20.00    -0.378 OA
ENDROOT
BRANCH   5   8
HETATM    8  C3  UNL     1     -34.132  16.042  -2.549  1.00 20.00     0.007 C 
HETATM    9  C4  UNL     1     -34.927  15.249  -3.294  1.00 20.00    -0.089 C 
HETATM   10  C9  UNL     1     -34.397  13.992  -3.925  1.00 20.00     0.042 C 
HETATM   11  C10 UNL     1     -36.377  15.534  -3.560  1.00 20.00     0.042 C 
ENDBRANCH   5   8
TORSDOF 1
ENDMDL
MODEL 6
REMARK VINA RESULT:      -4.2     10.374     11.815
REMARK  1 active torsions:
REMARK  status: ('A' for Active; 'I' for Inactive)
REMARK    1  A    between atoms: C3_3  and  C7_7 
ROOT
HETATM    1  C1  UNL     1     -34.384   5.575   4.033  1.00 20.00     0.001 C 
HETATM    2  C2  UNL     1     -33.772   6.505   4.783  1.00 20.00    -0.083 C 
HETATM    3  C5  UNL     1     -33.848   5.129   2.707  1.00 20.00     0.196 C 
HETATM    4  C6  UNL     1     -32.511   7.164   4.294  1.00 20.00     0.069 C 
HETATM    5  C7  UNL     1     -32.274   6.950   2.791  1.00 20.00     0.148 C 
HETATM    6  C8  UNL     1     -34.284   6.927   6.125  1.00 20.00     0.043 C 
HETATM    7  O11 UNL     1     -32.514   5.581   2.448  1.00 20.00    -0.378 OA
ENDROOT
BRANCH   5   8
HETATM    8  C3  UNL     1     -33.048   7.883   1.909  1.00 20.00     0.007 C 
HETATM    9  C4  UNL     1     -32.731   8.292   0.665  1.00 20.00    -0.089 C 
HETATM   10  C9  UNL     1     -33.622   9.238  -0.092  1.00 20.00     0.042 C 
HETATM   11  C10 UNL     1     -31.495   7.857  -0.069  1.00 20.00     0.042 C 
ENDBRANCH   5   8
TORSDOF 1
ENDMDL
MODEL 7
REMARK VINA RESULT:      -4.0      2.475      3.857
REMARK  1 active torsions:
REMARK  status: ('A' for Active; 'I' for Inactive)
REMARK    1  A    between atoms: C3_3  and  C7_7 
ROOT
HETATM    1  C1  UNL     1     -35.420  17.238  -3.429  1.00 20.00     0.001 C 
HETATM    2  C2  UNL     1     -34.523  16.252  -3.279  1.00 20.00    -0.083 C 
HETATM    3  C5  UNL     1     -35.066  18.683  -3.254  1.00 20.00     0.196 C 
HETATM    4  C6  UNL     1     -33.103  16.570  -2.896  1.00 20.00     0.069 C 
HETATM    5  C7  UNL     1     -32.941  17.998  -2.352  1.00 20.00     0.148 C 
HETATM    6  C8  UNL     1     -34.863  14.809  -3.489  1.00 20.00     0.043 C 
HETATM    7  O11 UNL     1     -33.656  18.921  -3.179  1.00 20.00    -0.378 OA
ENDROOT
BRANCH   5   8
HETATM    8  C3  UNL     1     -33.314  18.149  -0.908  1.00 20.00     0.007 C 
HETATM    9  C4  UNL     1     -32.488  18.332   0.141  1.00 20.00    -0.089 C 
HETATM   10  C9  UNL     1     -33.026  18.466   1.539  1.00 20.00     0.042 C 
HETATM   11  C10 UNL     1     -30.993  18.416   0.023  1.00 20.00     0.042 C 
ENDBRANCH   5   8
TORSDOF 1
ENDMDL
MODEL 8
REMARK VINA RESULT:      -4.0      1.983      3.110
REMARK  1 active torsions:
REMARK  status: ('A' for Active; 'I' for Inactive)
REMARK    1  A    between atoms: C3_3  and  C7_7 
ROOT
HETATM    1  C1  UNL     1     -34.945  14.197  -4.032  1.00 20.00     0.001 C 
HETATM    2  C2  UNL     1     -33.795  14.887  -4.073  1.00 20.00    -0.083 C 
HETATM    3  C5  UNL     1     -36.265  14.846  -3.753  1.00 20.00     0.196 C 
HETATM    4  C6  UNL     1     -33.790  16.369  -3.810  1.00 20.00     0.069 C 
HETATM    5  C7  UNL     1     -35.087  16.858  -3.147  1.00 20.00     0.148 C 
HETATM    6  C8  UNL     1     -32.478  14.248  -4.387  1.00 20.00     0.043 C 
HETATM    7  O11 UNL     1     -36.220  16.277  -3.802  1.00 20.00    -0.378 OA
ENDROOT
BRANCH   5   8
HETATM    8  C3  UNL     1     -35.137  16.642  -1.664  1.00 20.00     0.007 C 
HETATM    9  C4  UNL     1     -35.492  17.530  -0.715  1.00 20.00    -0.089 C 
HETATM   10  C9  UNL     1     -35.489  17.153   0.740  1.00 20.00     0.042 C 
HETATM   11  C10 UNL     1     -35.914  18.942  -1.007  1.00 20.00     0.042 C 
ENDBRANCH   5   8
TORSDOF 1
ENDMDL
MODEL 9
REMARK VINA RESULT:      -4.0      1.173      1.280
REMARK  1 active torsions:
REMARK  status: ('A' for Active; 'I' for Inactive)
REMARK    1  A    between atoms: C3_3  and  C7_7 
ROOT
HETATM    1  C1  UNL     1     -34.134  15.330  -5.699  1.00 20.00     0.001 C 
HETATM    2  C2  UNL     1     -35.052  16.281  -5.470  1.00 20.00    -0.083 C 
HETATM    3  C5  UNL     1     -33.608  14.440  -4.615  1.00 20.00     0.196 C 
HETATM    4  C6  UNL     1     -35.579  16.508  -4.078  1.00 20.00     0.069 C 
HETATM    5  C7  UNL     1     -34.706  15.849  -2.999  1.00 20.00     0.148 C 
HETATM    6  C8  UNL     1     -35.607  17.148  -6.556  1.00 20.00     0.043 C 
HETATM    7  O11 UNL     1     -34.357  14.518  -3.397  1.00 20.00    -0.378 OA
ENDROOT
BRANCH   5   8
HETATM    8  C3  UNL     1     -33.494  16.646  -2.619  1.00 20.00     0.007 C 
HETATM    9  C4  UNL     1     -33.352  17.478  -1.570  1.00 20.00    -0.089 C 
HETATM   10  C9  UNL     1     -32.061  18.209  -1.327  1.00 20.00     0.042 C 
HETATM   11  C10 UNL     1     -34.437  17.752  -0.567  1.00 20.00     0.042 C 
ENDBRANCH   5   8
TORSDOF 1
ENDMDL
