MODEL 1
REMARK VINA RESULT:      -5.3      0.000      0.000
REMARK  2 active torsions:
REMARK  status: ('A' for Active; 'I' for Inactive)
REMARK    1  A    between atoms: C1_1  and  C2_2 
REMARK    2  A    between atoms: C1_1  and  C3_3 
ROOT
HETATM    1  C1  UNL     1     -33.911   6.409   4.150  1.00 20.00     0.188 C 
ENDROOT
BRANCH   1   2
HETATM    2  C2  UNL     1     -33.053   5.887   3.016  1.00 20.00     0.361 C 
HETATM    3  F4  UNL     1     -32.455   6.931   2.389  1.00 20.00    -0.214 F 
HETATM    4  F5  UNL     1     -33.833   5.275   2.090  1.00 20.00    -0.214 F 
ENDBRANCH   1   2
BRANCH   1   5
HETATM    5  C3  UNL     1     -34.845   5.352   4.696  1.00 20.00     0.392 C 
HETATM    6  F6  UNL     1     -34.367   4.109   4.474  1.00 20.00    -0.171 F 
HETATM    7  F7  UNL     1     -35.028   5.498   6.026  1.00 20.00    -0.171 F 
HETATM    8  F8  UNL     1     -36.056   5.438   4.103  1.00 20.00    -0.171 F 
ENDBRANCH   1   5
TORSDOF 2
ENDMDL
MODEL 2
REMARK VINA RESULT:      -5.2      0.577      1.791
REMARK  2 active torsions:
REMARK  status: ('A' for Active; 'I' for Inactive)
REMARK    1  A    between atoms: C1_1  and  C2_2 
REMARK    2  A    between atoms: C1_1  and  C3_3 
ROOT
HETATM    1  C1  UNL     1     -33.792   6.353   4.640  1.00 20.00     0.188 C 
ENDROOT
BRANCH   1   2
HETATM    2  C2  UNL     1     -33.377   6.489   3.189  1.00 20.00     0.361 C 
HETATM    3  F4  UNL     1     -33.001   5.274   2.716  1.00 20.00    -0.214 F 
HETATM    4  F5  UNL     1     -32.291   7.295   3.091  1.00 20.00    -0.214 F 
ENDBRANCH   1   2
BRANCH   1   5
HETATM    5  C3  UNL     1     -34.851   5.292   4.837  1.00 20.00     0.392 C 
HETATM    6  F6  UNL     1     -35.947   5.543   4.090  1.00 20.00    -0.171 F 
HETATM    7  F7  UNL     1     -34.389   4.069   4.503  1.00 20.00    -0.171 F 
HETATM    8  F8  UNL     1     -35.239   5.245   6.131  1.00 20.00    -0.171 F 
ENDBRANCH   1   5
TORSDOF 2
ENDMDL
MODEL 3
REMARK VINA RESULT:      -5.2      1.153      1.689
REMARK  2 active torsions:
REMARK  status: ('A' for Active; 'I' for Inactive)
REMARK    1  A    between atoms: C1_1  and  C2_2 
REMARK    2  A    between atoms: C1_1  and  C3_3 
ROOT
HETATM    1  C1  UNL     1     -34.041   4.473   3.964  1.00 20.00     0.188 C 
ENDROOT
BRANCH   1   2
HETATM    2  C2  UNL     1     -33.585   5.078   2.652  1.00 20.00     0.361 C 
HETATM    3  F4  UNL     1     -33.053   4.104   1.871  1.00 20.00    -0.214 F 
HETATM    4  F5  UNL     1     -32.595   5.978   2.876  1.00 20.00    -0.214 F 
ENDBRANCH   1   2
BRANCH   1   5
HETATM    5  C3  UNL     1     -34.910   5.421   4.761  1.00 20.00     0.392 C 
HETATM    6  F6  UNL     1     -35.174   4.932   5.992  1.00 20.00    -0.171 F 
HETATM    7  F7  UNL     1     -34.318   6.625   4.909  1.00 20.00    -0.171 F 
HETATM    8  F8  UNL     1     -36.091   5.618   4.136  1.00 20.00    -0.171 F 
ENDBRANCH   1   5
TORSDOF 2
ENDMDL
MODEL 4
REMARK VINA RESULT:      -5.1      0.546      1.692
REMARK  2 active torsions:
REMARK  status: ('A' for Active; 'I' for Inactive)
REMARK    1  A    between atoms: C1_1  and  C2_2 
REMARK    2  A    between atoms: C1_1  and  C3_3 
ROOT
HETATM    1  C1  UNL     1     -33.767   6.248   4.093  1.00 20.00     0.188 C 
ENDROOT
BRANCH   1   2
HETATM    2  C2  UNL     1     -33.438   5.924   2.650  1.00 20.00     0.361 C 
HETATM    3  F4  UNL     1     -32.655   4.817   2.607  1.00 20.00    -0.214 F 
HETATM    4  F5  UNL     1     -32.714   6.931   2.102  1.00 20.00    -0.214 F 
ENDBRANCH   1   2
BRANCH   1   5
HETATM    5  C3  UNL     1     -34.823   5.327   4.661  1.00 20.00     0.392 C 
HETATM    6  F6  UNL     1     -34.977   5.513   5.990  1.00 20.00    -0.171 F 
HETATM    7  F7  UNL     1     -36.020   5.529   4.071  1.00 20.00    -0.171 F 
HETATM    8  F8  UNL     1     -34.481   4.035   4.464  1.00 20.00    -0.171 F 
ENDBRANCH   1   5
TORSDOF 2
ENDMDL
MODEL 5
REMARK VINA RESULT:      -5.1      1.518      2.406
REMARK  2 active torsions:
REMARK  status: ('A' for Active; 'I' for Inactive)
REMARK    1  A    between atoms: C1_1  and  C2_2 
REMARK    2  A    between atoms: C1_1  and  C3_3 
ROOT
HETATM    1  C1  UNL     1     -34.066   6.313   4.313  1.00 20.00     0.188 C 
ENDROOT
BRANCH   1   2
HETATM    2  C2  UNL     1     -33.429   6.797   5.599  1.00 20.00     0.361 C 
HETATM    3  F4  UNL     1     -34.357   7.455   6.339  1.00 20.00    -0.214 F 
HETATM    4  F5  UNL     1     -32.449   7.692   5.322  1.00 20.00    -0.214 F 
ENDBRANCH   1   2
BRANCH   1   5
HETATM    5  C3  UNL     1     -34.980   5.129   4.536  1.00 20.00     0.392 C 
HETATM    6  F6  UNL     1     -34.509   4.020   3.924  1.00 20.00    -0.171 F 
HETATM    7  F7  UNL     1     -35.118   4.854   5.850  1.00 20.00    -0.171 F 
HETATM    8  F8  UNL     1     -36.210   5.380   4.037  1.00 20.00    -0.171 F 
ENDBRANCH   1   5
TORSDOF 2
ENDMDL
MODEL 6
REMARK VINA RESULT:      -5.0      1.225      2.950
REMARK  2 active torsions:
REMARK  status: ('A' for Active; 'I' for Inactive)
REMARK    1  A    between atoms: C1_1  and  C2_2 
REMARK    2  A    between atoms: C1_1  and  C3_3 
ROOT
HETATM    1  C1  UNL     1     -34.006   6.404   4.479  1.00 20.00     0.188 C 
ENDROOT
BRANCH   1   2
HETATM    2  C2  UNL     1     -34.009   6.391   5.994  1.00 20.00     0.361 C 
HETATM    3  F4  UNL     1     -35.100   5.714   6.434  1.00 20.00    -0.214 F 
HETATM    4  F5  UNL     1     -34.123   7.657   6.468  1.00 20.00    -0.214 F 
ENDBRANCH   1   2
BRANCH   1   5
HETATM    5  C3  UNL     1     -34.572   5.129   3.894  1.00 20.00     0.392 C 
HETATM    6  F6  UNL     1     -34.131   4.926   2.634  1.00 20.00    -0.171 F 
HETATM    7  F7  UNL     1     -34.231   4.054   4.635  1.00 20.00    -0.171 F 
HETATM    8  F8  UNL     1     -35.922   5.187   3.851  1.00 20.00    -0.171 F 
ENDBRANCH   1   5
TORSDOF 2
ENDMDL
MODEL 7
REMARK VINA RESULT:      -4.9      0.921      3.400
REMARK  2 active torsions:
REMARK  status: ('A' for Active; 'I' for Inactive)
REMARK    1  A    between atoms: C1_1  and  C2_2 
REMARK    2  A    between atoms: C1_1  and  C3_3 
ROOT
HETATM    1  C1  UNL     1     -33.888   6.595   4.188  1.00 20.00     0.188 C 
ENDROOT
BRANCH   1   2
HETATM    2  C2  UNL     1     -34.646   5.283   4.164  1.00 20.00     0.361 C 
HETATM    3  F4  UNL     1     -35.977   5.538   4.091  1.00 20.00    -0.214 F 
HETATM    4  F5  UNL     1     -34.445   4.611   5.324  1.00 20.00    -0.214 F 
ENDBRANCH   1   2
BRANCH   1   5
HETATM    5  C3  UNL     1     -32.872   6.690   3.072  1.00 20.00     0.392 C 
HETATM    6  F6  UNL     1     -31.696   7.185   3.515  1.00 20.00    -0.171 F 
HETATM    7  F7  UNL     1     -32.633   5.482   2.519  1.00 20.00    -0.171 F 
HETATM    8  F8  UNL     1     -33.318   7.508   2.094  1.00 20.00    -0.171 F 
ENDBRANCH   1   5
TORSDOF 2
ENDMDL
MODEL 8
REMARK VINA RESULT:      -4.7      1.349      1.824
REMARK  2 active torsions:
REMARK  status: ('A' for Active; 'I' for Inactive)
REMARK    1  A    between atoms: C1_1  and  C2_2 
REMARK    2  A    between atoms: C1_1  and  C3_3 
ROOT
HETATM    1  C1  UNL     1     -34.851   5.504   4.382  1.00 20.00     0.188 C 
ENDROOT
BRANCH   1   2
HETATM    2  C2  UNL     1     -33.624   5.641   3.504  1.00 20.00     0.361 C 
HETATM    3  F4  UNL     1     -33.421   6.953   3.220  1.00 20.00    -0.214 F 
HETATM    4  F5  UNL     1     -33.831   5.017   2.318  1.00 20.00    -0.214 F 
ENDBRANCH   1   2
BRANCH   1   5
HETATM    5  C3  UNL     1     -34.521   5.628   5.852  1.00 20.00     0.392 C 
HETATM    6  F6  UNL     1     -33.749   6.709   6.095  1.00 20.00    -0.171 F 
HETATM    7  F7  UNL     1     -35.639   5.736   6.600  1.00 20.00    -0.171 F 
HETATM    8  F8  UNL     1     -33.845   4.538   6.279  1.00 20.00    -0.171 F 
ENDBRANCH   1   5
TORSDOF 2
ENDMDL
MODEL 9
REMARK VINA RESULT:      -4.5      1.304      3.379
REMARK  2 active torsions:
REMARK  status: ('A' for Active; 'I' for Inactive)
REMARK    1  A    between atoms: C1_1  and  C2_2 
REMARK    2  A    between atoms: C1_1  and  C3_3 
ROOT
HETATM    1  C1  UNL     1     -34.858   5.506   4.077  1.00 20.00     0.188 C 
ENDROOT
BRANCH   1   2
HETATM    2  C2  UNL     1     -34.361   5.613   5.505  1.00 20.00     0.361 C 
HETATM    3  F4  UNL     1     -35.290   5.088   6.343  1.00 20.00    -0.214 F 
HETATM    4  F5  UNL     1     -34.222   6.917   5.850  1.00 20.00    -0.214 F 
ENDBRANCH   1   2
BRANCH   1   5
HETATM    5  C3  UNL     1     -33.725   5.362   3.085  1.00 20.00     0.392 C 
HETATM    6  F6  UNL     1     -33.105   4.170   3.214  1.00 20.00    -0.171 F 
HETATM    7  F7  UNL     1     -34.168   5.467   1.815  1.00 20.00    -0.171 F 
HETATM    8  F8  UNL     1     -32.801   6.329   3.279  1.00 20.00    -0.171 F 
ENDBRANCH   1   5
TORSDOF 2
ENDMDL
