MODEL 1
REMARK VINA RESULT:      -4.0      0.000      0.000
REMARK  2 active torsions:
REMARK  status: ('A' for Active; 'I' for Inactive)
REMARK    1  A    between atoms: C3_3  and  C8_8 
REMARK    2  A    between atoms: C4_4  and  C7_7 
ROOT
HETATM    1  C5  UNL     1     -33.247  15.750  -3.602  1.00 20.00     0.040 C 
HETATM    2  C6  UNL     1     -33.897  14.496  -4.143  1.00 20.00     0.045 C 
HETATM    3  C7  UNL     1     -34.313  16.809  -3.833  1.00 20.00     0.151 C 
HETATM    4  C8  UNL     1     -34.732  15.024  -5.310  1.00 20.00     0.075 C 
HETATM    5  C10 UNL     1     -33.931  15.060  -6.615  1.00 20.00     0.050 C 
HETATM    6  O11 UNL     1     -35.078  16.383  -4.973  1.00 20.00    -0.367 OA
ENDROOT
BRANCH   3   7
HETATM    7  C4  UNL     1     -35.246  16.980  -2.678  1.00 20.00    -0.065 C 
HETATM    8  C2  UNL     1     -34.873  16.705  -1.419  1.00 20.00     0.016 C 
HETATM    9  C9  UNL     1     -36.622  17.477  -3.007  1.00 20.00     0.045 C 
ENDBRANCH   3   7
BRANCH   4  10
HETATM   10  C3  UNL     1     -35.998  14.245  -5.484  1.00 20.00     0.000 C 
HETATM   11  C1  UNL     1     -36.909  14.071  -4.519  1.00 20.00     0.010 C 
ENDBRANCH   4  10
TORSDOF 2
ENDMDL
MODEL 2
REMARK VINA RESULT:      -3.8      1.548      2.569
REMARK  2 active torsions:
REMARK  status: ('A' for Active; 'I' for Inactive)
REMARK    1  A    between atoms: C3_3  and  C8_8 
REMARK    2  A    between atoms: C4_4  and  C7_7 
ROOT
HETATM    1  C5  UNL     1     -35.399  14.811  -3.699  1.00 20.00     0.040 C 
HETATM    2  C6  UNL     1     -35.823  15.715  -4.834  1.00 20.00     0.045 C 
HETATM    3  C7  UNL     1     -34.044  15.377  -3.306  1.00 20.00     0.151 C 
HETATM    4  C8  UNL     1     -34.495  16.048  -5.516  1.00 20.00     0.075 C 
HETATM    5  C10 UNL     1     -34.133  15.021  -6.593  1.00 20.00     0.050 C 
HETATM    6  O11 UNL     1     -33.487  15.976  -4.488  1.00 20.00    -0.367 OA
ENDROOT
BRANCH   3   7
HETATM    7  C4  UNL     1     -34.118  16.422  -2.240  1.00 20.00    -0.065 C 
HETATM    8  C2  UNL     1     -35.155  16.496  -1.392  1.00 20.00     0.016 C 
HETATM    9  C9  UNL     1     -32.969  17.383  -2.174  1.00 20.00     0.045 C 
ENDBRANCH   3   7
BRANCH   4  10
HETATM   10  C3  UNL     1     -34.494  17.434  -6.081  1.00 20.00     0.000 C 
HETATM   11  C1  UNL     1     -34.572  18.545  -5.340  1.00 20.00     0.010 C 
ENDBRANCH   4  10
TORSDOF 2
ENDMDL
MODEL 3
REMARK VINA RESULT:      -3.8     10.616     12.421
REMARK  2 active torsions:
REMARK  status: ('A' for Active; 'I' for Inactive)
REMARK    1  A    between atoms: C3_3  and  C8_8 
REMARK    2  A    between atoms: C4_4  and  C7_7 
ROOT
HETATM    1  C5  UNL     1     -40.821   6.903  -1.207  1.00 20.00     0.040 C 
HETATM    2  C6  UNL     1     -41.171   5.637  -0.458  1.00 20.00     0.045 C 
HETATM    3  C7  UNL     1     -42.138   7.663  -1.217  1.00 20.00     0.151 C 
HETATM    4  C8  UNL     1     -42.619   5.384  -0.877  1.00 20.00     0.075 C 
HETATM    5  C10 UNL     1     -42.706   4.542  -2.153  1.00 20.00     0.050 C 
HETATM    6  O11 UNL     1     -43.184   6.678  -1.169  1.00 20.00    -0.367 OA
ENDROOT
BRANCH   3   7
HETATM    7  C4  UNL     1     -42.306   8.583  -0.052  1.00 20.00    -0.065 C 
HETATM    8  C2  UNL     1     -43.417   8.582   0.699  1.00 20.00     0.016 C 
HETATM    9  C9  UNL     1     -41.161   9.510   0.229  1.00 20.00     0.045 C 
ENDBRANCH   3   7
BRANCH   4  10
HETATM   10  C3  UNL     1     -43.415   4.761   0.227  1.00 20.00     0.000 C 
HETATM   11  C1  UNL     1     -43.117   4.882   1.526  1.00 20.00     0.010 C 
ENDBRANCH   4  10
TORSDOF 2
ENDMDL
MODEL 4
REMARK VINA RESULT:      -3.8      1.398      2.959
REMARK  2 active torsions:
REMARK  status: ('A' for Active; 'I' for Inactive)
REMARK    1  A    between atoms: C3_3  and  C8_8 
REMARK    2  A    between atoms: C4_4  and  C7_7 
ROOT
HETATM    1  C5  UNL     1     -35.957  16.663  -2.622  1.00 20.00     0.040 C 
HETATM    2  C6  UNL     1     -36.529  16.951  -3.991  1.00 20.00     0.045 C 
HETATM    3  C7  UNL     1     -35.084  15.444  -2.871  1.00 20.00     0.151 C 
HETATM    4  C8  UNL     1     -36.683  15.555  -4.594  1.00 20.00     0.075 C 
HETATM    5  C10 UNL     1     -38.042  14.934  -4.259  1.00 20.00     0.050 C 
HETATM    6  O11 UNL     1     -35.667  14.738  -3.978  1.00 20.00    -0.367 OA
ENDROOT
BRANCH   3   7
HETATM    7  C4  UNL     1     -33.671  15.781  -3.220  1.00 20.00    -0.065 C 
HETATM    8  C2  UNL     1     -33.045  16.844  -2.693  1.00 20.00     0.016 C 
HETATM    9  C9  UNL     1     -32.992  14.864  -4.193  1.00 20.00     0.045 C 
ENDBRANCH   3   7
BRANCH   4  10
HETATM   10  C3  UNL     1     -36.451  15.560  -6.073  1.00 20.00     0.000 C 
HETATM   11  C1  UNL     1     -35.634  14.710  -6.706  1.00 20.00     0.010 C 
ENDBRANCH   4  10
TORSDOF 2
ENDMDL
MODEL 5
REMARK VINA RESULT:      -3.8      1.568      2.629
REMARK  2 active torsions:
REMARK  status: ('A' for Active; 'I' for Inactive)
REMARK    1  A    between atoms: C3_3  and  C8_8 
REMARK    2  A    between atoms: C4_4  and  C7_7 
ROOT
HETATM    1  C5  UNL     1     -36.331  15.250  -3.735  1.00 20.00     0.040 C 
HETATM    2  C6  UNL     1     -36.399  16.174  -4.929  1.00 20.00     0.045 C 
HETATM    3  C7  UNL     1     -34.835  15.089  -3.518  1.00 20.00     0.151 C 
HETATM    4  C8  UNL     1     -35.177  15.760  -5.748  1.00 20.00     0.075 C 
HETATM    5  C10 UNL     1     -35.500  14.626  -6.725  1.00 20.00     0.050 C 
HETATM    6  O11 UNL     1     -34.211  15.259  -4.802  1.00 20.00    -0.367 OA
ENDROOT
BRANCH   3   7
HETATM    7  C4  UNL     1     -34.256  16.094  -2.577  1.00 20.00    -0.065 C 
HETATM    8  C2  UNL     1     -33.046  16.639  -2.778  1.00 20.00     0.016 C 
HETATM    9  C9  UNL     1     -35.103  16.460  -1.395  1.00 20.00     0.045 C 
ENDBRANCH   3   7
BRANCH   4  10
HETATM   10  C3  UNL     1     -34.570  16.925  -6.467  1.00 20.00     0.000 C 
HETATM   11  C1  UNL     1     -34.585  18.180  -6.005  1.00 20.00     0.010 C 
ENDBRANCH   4  10
TORSDOF 2
ENDMDL
MODEL 6
REMARK VINA RESULT:      -3.8      1.304      2.590
REMARK  2 active torsions:
REMARK  status: ('A' for Active; 'I' for Inactive)
REMARK    1  A    between atoms: C3_3  and  C8_8 
REMARK    2  A    between atoms: C4_4  and  C7_7 
ROOT
HETATM    1  C5  UNL     1     -36.292  16.471  -3.128  1.00 20.00     0.040 C 
HETATM    2  C6  UNL     1     -35.929  16.268  -4.581  1.00 20.00     0.045 C 
HETATM    3  C7  UNL     1     -35.129  15.821  -2.396  1.00 20.00     0.151 C 
HETATM    4  C8  UNL     1     -35.216  14.916  -4.567  1.00 20.00     0.075 C 
HETATM    5  C10 UNL     1     -36.195  13.752  -4.746  1.00 20.00     0.050 C 
HETATM    6  O11 UNL     1     -34.622  14.789  -3.259  1.00 20.00    -0.367 OA
ENDROOT
BRANCH   3   7
HETATM    7  C4  UNL     1     -34.013  16.766  -2.089  1.00 20.00    -0.065 C 
HETATM    8  C2  UNL     1     -32.871  16.769  -2.794  1.00 20.00     0.016 C 
HETATM    9  C9  UNL     1     -34.241  17.711  -0.947  1.00 20.00     0.045 C 
ENDBRANCH   3   7
BRANCH   4  10
HETATM   10  C3  UNL     1     -34.123  14.854  -5.589  1.00 20.00     0.000 C 
HETATM   11  C1  UNL     1     -34.235  15.329  -6.834  1.00 20.00     0.010 C 
ENDBRANCH   4  10
TORSDOF 2
ENDMDL
MODEL 7
REMARK VINA RESULT:      -3.7      1.321      3.733
REMARK  2 active torsions:
REMARK  status: ('A' for Active; 'I' for Inactive)
REMARK    1  A    between atoms: C3_3  and  C8_8 
REMARK    2  A    between atoms: C4_4  and  C7_7 
ROOT
HETATM    1  C5  UNL     1     -34.305  16.774  -5.247  1.00 20.00     0.040 C 
HETATM    2  C6  UNL     1     -34.904  17.342  -3.980  1.00 20.00     0.045 C 
HETATM    3  C7  UNL     1     -34.192  15.292  -4.931  1.00 20.00     0.151 C 
HETATM    4  C8  UNL     1     -34.290  16.461  -2.891  1.00 20.00     0.075 C 
HETATM    5  C10 UNL     1     -32.951  17.016  -2.396  1.00 20.00     0.050 C 
HETATM    6  O11 UNL     1     -34.032  15.183  -3.507  1.00 20.00    -0.367 OA
ENDROOT
BRANCH   3   7
HETATM    7  C4  UNL     1     -35.396  14.502  -5.331  1.00 20.00    -0.065 C 
HETATM    8  C2  UNL     1     -36.026  13.687  -4.471  1.00 20.00     0.016 C 
HETATM    9  C9  UNL     1     -35.859  14.671  -6.747  1.00 20.00     0.045 C 
ENDBRANCH   3   7
BRANCH   4  10
HETATM   10  C3  UNL     1     -35.235  16.252  -1.749  1.00 20.00     0.000 C 
HETATM   11  C1  UNL     1     -35.250  17.003  -0.642  1.00 20.00     0.010 C 
ENDBRANCH   4  10
TORSDOF 2
ENDMDL
MODEL 8
REMARK VINA RESULT:      -3.7      1.387      3.962
REMARK  2 active torsions:
REMARK  status: ('A' for Active; 'I' for Inactive)
REMARK    1  A    between atoms: C3_3  and  C8_8 
REMARK    2  A    between atoms: C4_4  and  C7_7 
ROOT
HETATM    1  C5  UNL     1     -35.203  14.532  -4.873  1.00 20.00     0.040 C 
HETATM    2  C6  UNL     1     -34.057  14.637  -3.893  1.00 20.00     0.045 C 
HETATM    3  C7  UNL     1     -35.356  15.961  -5.369  1.00 20.00     0.151 C 
HETATM    4  C8  UNL     1     -34.253  16.028  -3.290  1.00 20.00     0.075 C 
HETATM    5  C10 UNL     1     -35.174  15.996  -2.067  1.00 20.00     0.050 C 
HETATM    6  O11 UNL     1     -34.906  16.817  -4.306  1.00 20.00    -0.367 OA
ENDROOT
BRANCH   3   7
HETATM    7  C4  UNL     1     -34.545  16.260  -6.588  1.00 20.00    -0.065 C 
HETATM    8  C2  UNL     1     -34.081  15.287  -7.387  1.00 20.00     0.016 C 
HETATM    9  C9  UNL     1     -34.279  17.709  -6.867  1.00 20.00     0.045 C 
ENDBRANCH   3   7
BRANCH   4  10
HETATM   10  C3  UNL     1     -32.947  16.678  -2.956  1.00 20.00     0.000 C 
HETATM   11  C1  UNL     1     -32.795  17.612  -2.010  1.00 20.00     0.010 C 
ENDBRANCH   4  10
TORSDOF 2
ENDMDL
MODEL 9
REMARK VINA RESULT:      -3.6      1.703      3.385
REMARK  2 active torsions:
REMARK  status: ('A' for Active; 'I' for Inactive)
REMARK    1  A    between atoms: C3_3  and  C8_8 
REMARK    2  A    between atoms: C4_4  and  C7_7 
ROOT
HETATM    1  C5  UNL     1     -34.293  15.099  -6.686  1.00 20.00     0.040 C 
HETATM    2  C6  UNL     1     -33.719  14.773  -5.325  1.00 20.00     0.045 C 
HETATM    3  C7  UNL     1     -35.300  16.194  -6.373  1.00 20.00     0.151 C 
HETATM    4  C8  UNL     1     -34.915  14.976  -4.395  1.00 20.00     0.075 C 
HETATM    5  C10 UNL     1     -35.747  13.699  -4.248  1.00 20.00     0.050 C 
HETATM    6  O11 UNL     1     -35.749  15.970  -5.026  1.00 20.00    -0.367 OA
ENDROOT
BRANCH   3   7
HETATM    7  C4  UNL     1     -34.730  17.573  -6.454  1.00 20.00    -0.065 C 
HETATM    8  C2  UNL     1     -34.954  18.490  -5.501  1.00 20.00     0.016 C 
HETATM    9  C9  UNL     1     -33.893  17.872  -7.662  1.00 20.00     0.045 C 
ENDBRANCH   3   7
BRANCH   4  10
HETATM   10  C3  UNL     1     -34.495  15.495  -3.056  1.00 20.00     0.000 C 
HETATM   11  C1  UNL     1     -33.425  16.273  -2.856  1.00 20.00     0.010 C 
ENDBRANCH   4  10
TORSDOF 2
ENDMDL
