MODEL 1
REMARK VINA RESULT:      -5.2      0.000      0.000
REMARK  2 active torsions:
REMARK  status: ('A' for Active; 'I' for Inactive)
REMARK    1  A    between atoms: C1_1  and  C2_2 
REMARK    2  A    between atoms: C2_2  and  C3_3 
ROOT
HETATM    1  C2  UNL     1     -34.668   5.330   4.423  1.00 20.00     0.391 C 
HETATM    2  F5  UNL     1     -35.973   5.568   4.124  1.00 20.00    -0.188 F 
HETATM    3  F6  UNL     1     -34.448   4.014   4.166  1.00 20.00    -0.188 F 
ENDROOT
BRANCH   1   4
HETATM    4  C1  UNL     1     -33.756   6.187   3.591  1.00 20.00     0.319 C 
HETATM    5  O4  UNL     1     -33.098   5.757   2.649  1.00 20.00    -0.300 OA
ENDBRANCH   1   4
BRANCH   1   6
HETATM    6  C3  UNL     1     -34.452   5.580   5.893  1.00 20.00     0.461 C 
HETATM    7  F7  UNL     1     -35.625   5.760   6.538  1.00 20.00    -0.165 F 
HETATM    8  F8  UNL     1     -33.825   4.531   6.467  1.00 20.00    -0.165 F 
HETATM    9  F9  UNL     1     -33.691   6.676   6.100  1.00 20.00    -0.165 F 
ENDBRANCH   1   6
TORSDOF 2
ENDMDL
MODEL 2
REMARK VINA RESULT:      -5.0      0.947      1.259
REMARK  2 active torsions:
REMARK  status: ('A' for Active; 'I' for Inactive)
REMARK    1  A    between atoms: C1_1  and  C2_2 
REMARK    2  A    between atoms: C2_2  and  C3_3 
ROOT
HETATM    1  C2  UNL     1     -34.709   5.667   4.392  1.00 20.00     0.391 C 
HETATM    2  F5  UNL     1     -34.262   6.860   3.919  1.00 20.00    -0.188 F 
HETATM    3  F6  UNL     1     -36.050   5.644   4.173  1.00 20.00    -0.188 F 
ENDROOT
BRANCH   1   4
HETATM    4  C1  UNL     1     -34.042   4.519   3.690  1.00 20.00     0.319 C 
HETATM    5  O4  UNL     1     -33.373   4.649   2.669  1.00 20.00    -0.300 OA
ENDBRANCH   1   4
BRANCH   1   6
HETATM    6  C3  UNL     1     -34.460   5.609   5.878  1.00 20.00     0.461 C 
HETATM    7  F7  UNL     1     -35.613   5.720   6.573  1.00 20.00    -0.165 F 
HETATM    8  F8  UNL     1     -33.887   4.434   6.218  1.00 20.00    -0.165 F 
HETATM    9  F9  UNL     1     -33.635   6.599   6.279  1.00 20.00    -0.165 F 
ENDBRANCH   1   6
TORSDOF 2
ENDMDL
MODEL 3
REMARK VINA RESULT:      -4.8      1.062      2.400
REMARK  2 active torsions:
REMARK  status: ('A' for Active; 'I' for Inactive)
REMARK    1  A    between atoms: C1_1  and  C2_2 
REMARK    2  A    between atoms: C2_2  and  C3_3 
ROOT
HETATM    1  C2  UNL     1     -33.961   6.414   4.304  1.00 20.00     0.391 C 
HETATM    2  F5  UNL     1     -33.254   6.771   5.409  1.00 20.00    -0.188 F 
HETATM    3  F6  UNL     1     -34.753   7.473   3.994  1.00 20.00    -0.188 F 
ENDROOT
BRANCH   1   4
HETATM    4  C1  UNL     1     -33.048   6.087   3.157  1.00 20.00     0.319 C 
HETATM    5  O4  UNL     1     -32.567   6.937   2.413  1.00 20.00    -0.300 OA
ENDBRANCH   1   4
BRANCH   1   6
HETATM    6  C3  UNL     1     -34.838   5.237   4.647  1.00 20.00     0.461 C 
HETATM    7  F7  UNL     1     -34.975   5.101   5.984  1.00 20.00    -0.165 F 
HETATM    8  F8  UNL     1     -36.072   5.395   4.122  1.00 20.00    -0.165 F 
HETATM    9  F9  UNL     1     -34.330   4.085   4.162  1.00 20.00    -0.165 F 
ENDBRANCH   1   6
TORSDOF 2
ENDMDL
MODEL 4
REMARK VINA RESULT:      -4.6      1.571      2.394
REMARK  2 active torsions:
REMARK  status: ('A' for Active; 'I' for Inactive)
REMARK    1  A    between atoms: C1_1  and  C2_2 
REMARK    2  A    between atoms: C2_2  and  C3_3 
ROOT
HETATM    1  C2  UNL     1     -33.513   5.440   2.843  1.00 20.00     0.391 C 
HETATM    2  F5  UNL     1     -34.289   5.417   1.728  1.00 20.00    -0.188 F 
HETATM    3  F6  UNL     1     -32.630   4.415   2.720  1.00 20.00    -0.188 F 
ENDROOT
BRANCH   1   4
HETATM    4  C1  UNL     1     -32.784   6.748   2.970  1.00 20.00     0.319 C 
HETATM    5  O4  UNL     1     -32.452   7.432   2.007  1.00 20.00    -0.300 OA
ENDBRANCH   1   4
BRANCH   1   6
HETATM    6  C3  UNL     1     -34.383   5.188   4.048  1.00 20.00     0.461 C 
HETATM    7  F7  UNL     1     -34.255   3.918   4.489  1.00 20.00    -0.165 F 
HETATM    8  F8  UNL     1     -34.041   6.011   5.062  1.00 20.00    -0.165 F 
HETATM    9  F9  UNL     1     -35.686   5.401   3.768  1.00 20.00    -0.165 F 
ENDBRANCH   1   6
TORSDOF 2
ENDMDL
MODEL 5
REMARK VINA RESULT:      -4.6      2.139      3.230
REMARK  2 active torsions:
REMARK  status: ('A' for Active; 'I' for Inactive)
REMARK    1  A    between atoms: C1_1  and  C2_2 
REMARK    2  A    between atoms: C2_2  and  C3_3 
ROOT
HETATM    1  C2  UNL     1     -34.437   5.292   4.101  1.00 20.00     0.391 C 
HETATM    2  F5  UNL     1     -34.318   4.071   4.686  1.00 20.00    -0.188 F 
HETATM    3  F6  UNL     1     -35.732   5.406   3.707  1.00 20.00    -0.188 F 
ENDROOT
BRANCH   1   4
HETATM    4  C1  UNL     1     -34.082   6.391   5.061  1.00 20.00     0.319 C 
HETATM    5  O4  UNL     1     -34.397   6.380   6.247  1.00 20.00    -0.300 OA
ENDBRANCH   1   4
BRANCH   1   6
HETATM    6  C3  UNL     1     -33.553   5.335   2.881  1.00 20.00     0.461 C 
HETATM    7  F7  UNL     1     -32.659   6.345   2.958  1.00 20.00    -0.165 F 
HETATM    8  F8  UNL     1     -32.861   4.183   2.754  1.00 20.00    -0.165 F 
HETATM    9  F9  UNL     1     -34.276   5.506   1.753  1.00 20.00    -0.165 F 
ENDBRANCH   1   6
TORSDOF 2
ENDMDL
MODEL 6
REMARK VINA RESULT:      -4.5      1.425      2.813
REMARK  2 active torsions:
REMARK  status: ('A' for Active; 'I' for Inactive)
REMARK    1  A    between atoms: C1_1  and  C2_2 
REMARK    2  A    between atoms: C2_2  and  C3_3 
ROOT
HETATM    1  C2  UNL     1     -34.523   5.477   5.768  1.00 20.00     0.391 C 
HETATM    2  F5  UNL     1     -33.608   4.598   6.256  1.00 20.00    -0.188 F 
HETATM    3  F6  UNL     1     -35.665   5.277   6.476  1.00 20.00    -0.188 F 
ENDROOT
BRANCH   1   4
HETATM    4  C1  UNL     1     -34.051   6.894   5.922  1.00 20.00     0.319 C 
HETATM    5  O4  UNL     1     -32.951   7.285   5.544  1.00 20.00    -0.300 OA
ENDBRANCH   1   4
BRANCH   1   6
HETATM    6  C3  UNL     1     -34.787   5.151   4.320  1.00 20.00     0.461 C 
HETATM    7  F7  UNL     1     -34.544   3.849   4.058  1.00 20.00    -0.165 F 
HETATM    8  F8  UNL     1     -36.076   5.399   4.004  1.00 20.00    -0.165 F 
HETATM    9  F9  UNL     1     -34.014   5.892   3.499  1.00 20.00    -0.165 F 
ENDBRANCH   1   6
TORSDOF 2
ENDMDL
MODEL 7
REMARK VINA RESULT:      -4.3      2.466      3.413
REMARK  2 active torsions:
REMARK  status: ('A' for Active; 'I' for Inactive)
REMARK    1  A    between atoms: C1_1  and  C2_2 
REMARK    2  A    between atoms: C2_2  and  C3_3 
ROOT
HETATM    1  C2  UNL     1     -33.821   6.469   4.013  1.00 20.00     0.391 C 
HETATM    2  F5  UNL     1     -34.848   7.341   3.833  1.00 20.00    -0.188 F 
HETATM    3  F6  UNL     1     -33.326   6.707   5.255  1.00 20.00    -0.188 F 
ENDROOT
BRANCH   1   4
HETATM    4  C1  UNL     1     -34.291   5.047   3.899  1.00 20.00     0.319 C 
HETATM    5  O4  UNL     1     -35.147   4.558   4.630  1.00 20.00    -0.300 OA
ENDBRANCH   1   4
BRANCH   1   6
HETATM    6  C3  UNL     1     -32.747   6.765   2.998  1.00 20.00     0.461 C 
HETATM    7  F7  UNL     1     -31.656   7.305   3.582  1.00 20.00    -0.165 F 
HETATM    8  F8  UNL     1     -32.360   5.633   2.371  1.00 20.00    -0.165 F 
HETATM    9  F9  UNL     1     -33.184   7.627   2.055  1.00 20.00    -0.165 F 
ENDBRANCH   1   6
TORSDOF 2
ENDMDL
MODEL 8
REMARK VINA RESULT:      -4.2      1.930      2.639
REMARK  2 active torsions:
REMARK  status: ('A' for Active; 'I' for Inactive)
REMARK    1  A    between atoms: C1_1  and  C2_2 
REMARK    2  A    between atoms: C2_2  and  C3_3 
ROOT
HETATM    1  C2  UNL     1     -33.999   6.262   4.242  1.00 20.00     0.391 C 
HETATM    2  F5  UNL     1     -34.690   7.261   3.631  1.00 20.00    -0.188 F 
HETATM    3  F6  UNL     1     -33.012   5.895   3.384  1.00 20.00    -0.188 F 
ENDROOT
BRANCH   1   4
HETATM    4  C1  UNL     1     -33.415   6.727   5.546  1.00 20.00     0.319 C 
HETATM    5  O4  UNL     1     -34.036   7.400   6.363  1.00 20.00    -0.300 OA
ENDBRANCH   1   4
BRANCH   1   6
HETATM    6  C3  UNL     1     -34.922   5.089   4.452  1.00 20.00     0.461 C 
HETATM    7  F7  UNL     1     -34.460   3.984   3.828  1.00 20.00    -0.165 F 
HETATM    8  F8  UNL     1     -35.034   4.801   5.767  1.00 20.00    -0.165 F 
HETATM    9  F9  UNL     1     -36.161   5.345   3.982  1.00 20.00    -0.165 F 
ENDBRANCH   1   6
TORSDOF 2
ENDMDL
MODEL 9
REMARK VINA RESULT:      -4.2      1.323      1.815
REMARK  2 active torsions:
REMARK  status: ('A' for Active; 'I' for Inactive)
REMARK    1  A    between atoms: C1_1  and  C2_2 
REMARK    2  A    between atoms: C2_2  and  C3_3 
ROOT
HETATM    1  C2  UNL     1     -34.809   5.285   4.697  1.00 20.00     0.391 C 
HETATM    2  F5  UNL     1     -36.047   5.495   4.177  1.00 20.00    -0.188 F 
HETATM    3  F6  UNL     1     -34.994   4.667   5.893  1.00 20.00    -0.188 F 
ENDROOT
BRANCH   1   4
HETATM    4  C1  UNL     1     -33.976   4.428   3.787  1.00 20.00     0.319 C 
HETATM    5  O4  UNL     1     -33.644   4.768   2.656  1.00 20.00    -0.300 OA
ENDBRANCH   1   4
BRANCH   1   6
HETATM    6  C3  UNL     1     -34.149   6.618   4.936  1.00 20.00     0.461 C 
HETATM    7  F7  UNL     1     -34.649   7.568   4.117  1.00 20.00    -0.165 F 
HETATM    8  F8  UNL     1     -34.348   7.026   6.208  1.00 20.00    -0.165 F 
HETATM    9  F9  UNL     1     -32.816   6.552   4.731  1.00 20.00    -0.165 F 
ENDBRANCH   1   6
TORSDOF 2
ENDMDL
