MODEL 1
REMARK VINA RESULT:      -5.4      0.000      0.000
REMARK  3 active torsions:
REMARK  status: ('A' for Active; 'I' for Inactive)
REMARK    1  A    between atoms: C1_1  and  C3_3 
REMARK    2  A    between atoms: C1_1  and  O4_4 
REMARK    3  A    between atoms: C2_2  and  O4_4 
ROOT
HETATM    1  C1  UNL     1     -33.938   6.422   4.272  1.00 20.00     0.291 C 
ENDROOT
BRANCH   1   2
HETATM    2  C3  UNL     1     -34.880   5.327   4.698  1.00 20.00     0.408 C 
HETATM    3  F7  UNL     1     -36.091   5.489   4.119  1.00 20.00    -0.169 F 
HETATM    4  F8  UNL     1     -35.062   5.330   6.036  1.00 20.00    -0.169 F 
HETATM    5  F9  UNL     1     -34.414   4.112   4.341  1.00 20.00    -0.169 F 
ENDBRANCH   1   2
BRANCH   1   6
HETATM    6  O4  UNL     1     -33.322   6.053   3.047  1.00 20.00    -0.324 OA
BRANCH   6   7
HETATM    7  C2  UNL     1     -32.314   6.971   2.646  1.00 20.00     0.500 C 
HETATM    8  F5  UNL     1     -32.863   7.928   1.860  1.00 20.00    -0.185 F 
HETATM    9  F6  UNL     1     -31.793   7.578   3.739  1.00 20.00    -0.185 F 
ENDBRANCH   6   7
ENDBRANCH   1   6
TORSDOF 3
ENDMDL
MODEL 2
REMARK VINA RESULT:      -5.1      1.494      3.846
REMARK  3 active torsions:
REMARK  status: ('A' for Active; 'I' for Inactive)
REMARK    1  A    between atoms: C1_1  and  C3_3 
REMARK    2  A    between atoms: C1_1  and  O4_4 
REMARK    3  A    between atoms: C2_2  and  O4_4 
ROOT
HETATM    1  C1  UNL     1     -33.714   6.939   4.017  1.00 20.00     0.291 C 
ENDROOT
BRANCH   1   2
HETATM    2  C3  UNL     1     -32.711   6.762   2.908  1.00 20.00     0.408 C 
HETATM    3  F7  UNL     1     -33.072   7.481   1.821  1.00 20.00    -0.169 F 
HETATM    4  F8  UNL     1     -32.620   5.468   2.531  1.00 20.00    -0.169 F 
HETATM    5  F9  UNL     1     -31.483   7.176   3.285  1.00 20.00    -0.169 F 
ENDBRANCH   1   2
BRANCH   1   6
HETATM    6  O4  UNL     1     -34.265   5.674   4.351  1.00 20.00    -0.324 OA
BRANCH   6   7
HETATM    7  C2  UNL     1     -34.768   5.632   5.679  1.00 20.00     0.500 C 
HETATM    8  F5  UNL     1     -34.206   4.593   6.343  1.00 20.00    -0.185 F 
HETATM    9  F6  UNL     1     -34.430   6.772   6.328  1.00 20.00    -0.185 F 
ENDBRANCH   6   7
ENDBRANCH   1   6
TORSDOF 3
ENDMDL
MODEL 3
REMARK VINA RESULT:      -5.1      1.497      3.876
REMARK  3 active torsions:
REMARK  status: ('A' for Active; 'I' for Inactive)
REMARK    1  A    between atoms: C1_1  and  C3_3 
REMARK    2  A    between atoms: C1_1  and  O4_4 
REMARK    3  A    between atoms: C2_2  and  O4_4 
ROOT
HETATM    1  C1  UNL     1     -33.722   6.949   3.979  1.00 20.00     0.291 C 
ENDROOT
BRANCH   1   2
HETATM    2  C3  UNL     1     -32.706   6.769   2.882  1.00 20.00     0.408 C 
HETATM    3  F7  UNL     1     -32.617   5.468   2.524  1.00 20.00    -0.169 F 
HETATM    4  F8  UNL     1     -31.479   7.168   3.281  1.00 20.00    -0.169 F 
HETATM    5  F9  UNL     1     -33.041   7.476   1.782  1.00 20.00    -0.169 F 
ENDBRANCH   1   2
BRANCH   1   6
HETATM    6  O4  UNL     1     -34.224   5.676   4.360  1.00 20.00    -0.324 OA
BRANCH   6   7
HETATM    7  C2  UNL     1     -34.743   5.669   5.683  1.00 20.00     0.500 C 
HETATM    8  F5  UNL     1     -34.223   4.622   6.366  1.00 20.00    -0.185 F 
HETATM    9  F6  UNL     1     -34.375   6.806   6.320  1.00 20.00    -0.185 F 
ENDBRANCH   6   7
ENDBRANCH   1   6
TORSDOF 3
ENDMDL
MODEL 4
REMARK VINA RESULT:      -5.1      1.464      3.893
REMARK  3 active torsions:
REMARK  status: ('A' for Active; 'I' for Inactive)
REMARK    1  A    between atoms: C1_1  and  C3_3 
REMARK    2  A    between atoms: C1_1  and  O4_4 
REMARK    3  A    between atoms: C2_2  and  O4_4 
ROOT
HETATM    1  C1  UNL     1     -33.679   6.923   4.063  1.00 20.00     0.291 C 
ENDROOT
BRANCH   1   2
HETATM    2  C3  UNL     1     -32.717   6.748   2.918  1.00 20.00     0.408 C 
HETATM    3  F7  UNL     1     -31.480   7.170   3.267  1.00 20.00    -0.169 F 
HETATM    4  F8  UNL     1     -33.104   7.462   1.839  1.00 20.00    -0.169 F 
HETATM    5  F9  UNL     1     -32.620   5.452   2.552  1.00 20.00    -0.169 F 
ENDBRANCH   1   2
BRANCH   1   6
HETATM    6  O4  UNL     1     -34.347   5.692   4.301  1.00 20.00    -0.324 OA
BRANCH   6   7
HETATM    7  C2  UNL     1     -34.805   5.570   5.640  1.00 20.00     0.500 C 
HETATM    8  F5  UNL     1     -34.182   4.526   6.237  1.00 20.00    -0.185 F 
HETATM    9  F6  UNL     1     -34.491   6.693   6.330  1.00 20.00    -0.185 F 
ENDBRANCH   6   7
ENDBRANCH   1   6
TORSDOF 3
ENDMDL
MODEL 5
REMARK VINA RESULT:      -5.1      1.886      2.407
REMARK  3 active torsions:
REMARK  status: ('A' for Active; 'I' for Inactive)
REMARK    1  A    between atoms: C1_1  and  C3_3 
REMARK    2  A    between atoms: C1_1  and  O4_4 
REMARK    3  A    between atoms: C2_2  and  O4_4 
ROOT
HETATM    1  C1  UNL     1     -35.105   5.451   4.498  1.00 20.00     0.291 C 
ENDROOT
BRANCH   1   2
HETATM    2  C3  UNL     1     -34.561   5.654   5.888  1.00 20.00     0.408 C 
HETATM    3  F7  UNL     1     -33.886   4.557   6.299  1.00 20.00    -0.169 F 
HETATM    4  F8  UNL     1     -35.553   5.880   6.774  1.00 20.00    -0.169 F 
HETATM    5  F9  UNL     1     -33.710   6.701   5.933  1.00 20.00    -0.169 F 
ENDBRANCH   1   2
BRANCH   1   6
HETATM    6  O4  UNL     1     -34.273   4.534   3.803  1.00 20.00    -0.324 OA
BRANCH   6   7
HETATM    7  C2  UNL     1     -33.596   5.134   2.707  1.00 20.00     0.500 C 
HETATM    8  F5  UNL     1     -32.993   6.274   3.119  1.00 20.00    -0.185 F 
HETATM    9  F6  UNL     1     -32.635   4.294   2.254  1.00 20.00    -0.185 F 
ENDBRANCH   6   7
ENDBRANCH   1   6
TORSDOF 3
ENDMDL
MODEL 6
REMARK VINA RESULT:      -5.0      2.044      3.571
REMARK  3 active torsions:
REMARK  status: ('A' for Active; 'I' for Inactive)
REMARK    1  A    between atoms: C1_1  and  C3_3 
REMARK    2  A    between atoms: C1_1  and  O4_4 
REMARK    3  A    between atoms: C2_2  and  O4_4 
ROOT
HETATM    1  C1  UNL     1     -34.398   4.623   3.899  1.00 20.00     0.291 C 
ENDROOT
BRANCH   1   2
HETATM    2  C3  UNL     1     -33.499   5.186   2.830  1.00 20.00     0.408 C 
HETATM    3  F7  UNL     1     -34.204   5.457   1.709  1.00 20.00    -0.169 F 
HETATM    4  F8  UNL     1     -32.524   4.312   2.500  1.00 20.00    -0.169 F 
HETATM    5  F9  UNL     1     -32.914   6.333   3.235  1.00 20.00    -0.169 F 
ENDBRANCH   1   2
BRANCH   1   6
HETATM    6  O4  UNL     1     -35.075   5.692   4.546  1.00 20.00    -0.324 OA
BRANCH   6   7
HETATM    7  C2  UNL     1     -34.810   5.739   5.941  1.00 20.00     0.500 C 
HETATM    8  F5  UNL     1     -34.109   4.640   6.305  1.00 20.00    -0.185 F 
HETATM    9  F6  UNL     1     -34.055   6.828   6.222  1.00 20.00    -0.185 F 
ENDBRANCH   6   7
ENDBRANCH   1   6
TORSDOF 3
ENDMDL
MODEL 7
REMARK VINA RESULT:      -4.3      2.218      4.745
REMARK  3 active torsions:
REMARK  status: ('A' for Active; 'I' for Inactive)
REMARK    1  A    between atoms: C1_1  and  C3_3 
REMARK    2  A    between atoms: C1_1  and  O4_4 
REMARK    3  A    between atoms: C2_2  and  O4_4 
ROOT
HETATM    1  C1  UNL     1     -32.999   8.015   1.933  1.00 20.00     0.291 C 
ENDROOT
BRANCH   1   2
HETATM    2  C3  UNL     1     -32.662   8.499   0.547  1.00 20.00     0.408 C 
HETATM    3  F7  UNL     1     -33.647   8.179  -0.322  1.00 20.00    -0.169 F 
HETATM    4  F8  UNL     1     -31.520   7.936   0.096  1.00 20.00    -0.169 F 
HETATM    5  F9  UNL     1     -32.508   9.839   0.519  1.00 20.00    -0.169 F 
ENDBRANCH   1   2
BRANCH   1   6
HETATM    6  O4  UNL     1     -32.378   6.757   2.150  1.00 20.00    -0.324 OA
BRANCH   6   7
HETATM    7  C2  UNL     1     -33.308   5.745   2.510  1.00 20.00     0.500 C 
HETATM    8  F5  UNL     1     -32.713   4.532   2.421  1.00 20.00    -0.185 F 
HETATM    9  F6  UNL     1     -33.697   5.925   3.795  1.00 20.00    -0.185 F 
ENDBRANCH   6   7
ENDBRANCH   1   6
TORSDOF 3
ENDMDL
MODEL 8
REMARK VINA RESULT:      -4.2      8.573      9.278
REMARK  3 active torsions:
REMARK  status: ('A' for Active; 'I' for Inactive)
REMARK    1  A    between atoms: C1_1  and  C3_3 
REMARK    2  A    between atoms: C1_1  and  O4_4 
REMARK    3  A    between atoms: C2_2  and  O4_4 
ROOT
HETATM    1  C1  UNL     1     -41.759   7.804  -1.169  1.00 20.00     0.291 C 
ENDROOT
BRANCH   1   2
HETATM    2  C3  UNL     1     -41.732   8.525   0.153  1.00 20.00     0.408 C 
HETATM    3  F7  UNL     1     -41.173   9.748   0.016  1.00 20.00    -0.169 F 
HETATM    4  F8  UNL     1     -41.009   7.844   1.068  1.00 20.00    -0.169 F 
HETATM    5  F9  UNL     1     -42.977   8.694   0.644  1.00 20.00    -0.169 F 
ENDBRANCH   1   2
BRANCH   1   6
HETATM    6  O4  UNL     1     -40.778   6.776  -1.158  1.00 20.00    -0.324 OA
BRANCH   6   7
HETATM    7  C2  UNL     1     -41.350   5.477  -1.108  1.00 20.00     0.500 C 
HETATM    8  F5  UNL     1     -40.408   4.556  -1.422  1.00 20.00    -0.185 F 
HETATM    9  F6  UNL     1     -41.781   5.220   0.150  1.00 20.00    -0.185 F 
ENDBRANCH   6   7
ENDBRANCH   1   6
TORSDOF 3
ENDMDL
MODEL 9
REMARK VINA RESULT:      -4.2      2.366      3.285
REMARK  3 active torsions:
REMARK  status: ('A' for Active; 'I' for Inactive)
REMARK    1  A    between atoms: C1_1  and  C3_3 
REMARK    2  A    between atoms: C1_1  and  O4_4 
REMARK    3  A    between atoms: C2_2  and  O4_4 
ROOT
HETATM    1  C1  UNL     1     -33.337   7.550   1.923  1.00 20.00     0.291 C 
ENDROOT
BRANCH   1   2
HETATM    2  C3  UNL     1     -32.709   6.738   3.026  1.00 20.00     0.408 C 
HETATM    3  F7  UNL     1     -33.511   6.712   4.114  1.00 20.00    -0.169 F 
HETATM    4  F8  UNL     1     -31.522   7.261   3.404  1.00 20.00    -0.169 F 
HETATM    5  F9  UNL     1     -32.501   5.462   2.638  1.00 20.00    -0.169 F 
ENDBRANCH   1   2
BRANCH   1   6
HETATM    6  O4  UNL     1     -32.337   7.899   0.977  1.00 20.00    -0.324 OA
BRANCH   6   7
HETATM    7  C2  UNL     1     -32.683   9.049   0.218  1.00 20.00     0.500 C 
HETATM    8  F5  UNL     1     -33.862   8.836  -0.413  1.00 20.00    -0.185 F 
HETATM    9  F6  UNL     1     -32.840  10.109   1.048  1.00 20.00    -0.185 F 
ENDBRANCH   6   7
ENDBRANCH   1   6
TORSDOF 3
ENDMDL
