MODEL 1
REMARK VINA RESULT:      -4.0      0.000      0.000
REMARK  0 active torsions:
REMARK  status: ('A' for Active; 'I' for Inactive)
ROOT
HETATM    1  C1  UNL     1     -34.469   4.511   4.528  1.00 20.00     0.009 A 
HETATM    2  C2  UNL     1     -35.571   5.478   4.206  1.00 20.00     0.009 A 
HETATM    3  C3  UNL     1     -34.206   5.997   4.594  1.00 20.00    -0.048 A 
HETATM    4  C4  UNL     1     -34.051   6.626   5.952  1.00 20.00     0.015 C 
HETATM    5  C5  UNL     1     -33.353   6.611   3.519  1.00 20.00     0.015 C 
ENDROOT
TORSDOF 0
ENDMDL
MODEL 2
REMARK VINA RESULT:      -4.0      0.010      1.861
REMARK  0 active torsions:
REMARK  status: ('A' for Active; 'I' for Inactive)
ROOT
HETATM    1  C1  UNL     1     -35.568   5.466   4.213  1.00 20.00     0.009 A 
HETATM    2  C2  UNL     1     -34.459   4.506   4.535  1.00 20.00     0.009 A 
HETATM    3  C3  UNL     1     -34.206   5.995   4.598  1.00 20.00    -0.048 A 
HETATM    4  C4  UNL     1     -33.359   6.612   3.519  1.00 20.00     0.015 C 
HETATM    5  C5  UNL     1     -34.051   6.628   5.954  1.00 20.00     0.015 C 
ENDROOT
TORSDOF 0
ENDMDL
MODEL 3
REMARK VINA RESULT:      -3.5      0.963      1.089
REMARK  0 active torsions:
REMARK  status: ('A' for Active; 'I' for Inactive)
ROOT
HETATM    1  C1  UNL     1     -34.587   4.648   5.015  1.00 20.00     0.009 A 
HETATM    2  C2  UNL     1     -35.591   5.411   4.201  1.00 20.00     0.009 A 
HETATM    3  C3  UNL     1     -34.115   5.663   4.001  1.00 20.00    -0.048 A 
HETATM    4  C4  UNL     1     -33.545   6.958   4.513  1.00 20.00     0.015 C 
HETATM    5  C5  UNL     1     -33.477   5.155   2.738  1.00 20.00     0.015 C 
ENDROOT
TORSDOF 0
ENDMDL
MODEL 4
REMARK VINA RESULT:      -3.5      0.989      1.957
REMARK  0 active torsions:
REMARK  status: ('A' for Active; 'I' for Inactive)
ROOT
HETATM    1  C1  UNL     1     -35.608   5.419   4.175  1.00 20.00     0.009 A 
HETATM    2  C2  UNL     1     -34.617   4.685   5.032  1.00 20.00     0.009 A 
HETATM    3  C3  UNL     1     -34.128   5.630   3.959  1.00 20.00    -0.048 A 
HETATM    4  C4  UNL     1     -33.504   5.035   2.726  1.00 20.00     0.015 C 
HETATM    5  C5  UNL     1     -33.531   6.941   4.391  1.00 20.00     0.015 C 
ENDROOT
TORSDOF 0
ENDMDL
MODEL 5
REMARK VINA RESULT:      -3.2      1.518      3.022
REMARK  0 active torsions:
REMARK  status: ('A' for Active; 'I' for Inactive)
ROOT
HETATM    1  C1  UNL     1     -32.991   7.439   2.031  1.00 20.00     0.009 A 
HETATM    2  C2  UNL     1     -31.880   7.126   2.992  1.00 20.00     0.009 A 
HETATM    3  C3  UNL     1     -33.152   6.309   3.022  1.00 20.00    -0.048 A 
HETATM    4  C4  UNL     1     -34.094   6.514   4.177  1.00 20.00     0.015 C 
HETATM    5  C5  UNL     1     -33.098   4.900   2.501  1.00 20.00     0.015 C 
ENDROOT
TORSDOF 0
ENDMDL
MODEL 6
REMARK VINA RESULT:      -3.2      1.082      2.311
REMARK  0 active torsions:
REMARK  status: ('A' for Active; 'I' for Inactive)
ROOT
HETATM    1  C1  UNL     1     -34.753   5.374   6.102  1.00 20.00     0.009 A 
HETATM    2  C2  UNL     1     -33.982   6.384   5.302  1.00 20.00     0.009 A 
HETATM    3  C3  UNL     1     -34.755   5.296   4.594  1.00 20.00    -0.048 A 
HETATM    4  C4  UNL     1     -33.976   4.185   3.944  1.00 20.00     0.015 C 
HETATM    5  C5  UNL     1     -36.015   5.683   3.868  1.00 20.00     0.015 C 
ENDROOT
TORSDOF 0
ENDMDL
MODEL 7
REMARK VINA RESULT:      -3.2      1.064      2.238
REMARK  0 active torsions:
REMARK  status: ('A' for Active; 'I' for Inactive)
ROOT
HETATM    1  C1  UNL     1     -33.951   6.408   5.260  1.00 20.00     0.009 A 
HETATM    2  C2  UNL     1     -34.729   5.433   6.096  1.00 20.00     0.009 A 
HETATM    3  C3  UNL     1     -34.748   5.313   4.590  1.00 20.00    -0.048 A 
HETATM    4  C4  UNL     1     -36.009   5.701   3.867  1.00 20.00     0.015 C 
HETATM    5  C5  UNL     1     -33.994   4.173   3.963  1.00 20.00     0.015 C 
ENDROOT
TORSDOF 0
ENDMDL
MODEL 8
REMARK VINA RESULT:      -3.1      8.190      9.230
REMARK  0 active torsions:
REMARK  status: ('A' for Active; 'I' for Inactive)
ROOT
HETATM    1  C1  UNL     1     -41.399   7.386  -1.034  1.00 20.00     0.009 A 
HETATM    2  C2  UNL     1     -41.159   6.971   0.389  1.00 20.00     0.009 A 
HETATM    3  C3  UNL     1     -41.933   8.236   0.095  1.00 20.00    -0.048 A 
HETATM    4  C4  UNL     1     -41.260   9.554   0.366  1.00 20.00     0.015 C 
HETATM    5  C5  UNL     1     -43.417   8.229   0.343  1.00 20.00     0.015 C 
ENDROOT
TORSDOF 0
ENDMDL
MODEL 9
REMARK VINA RESULT:      -3.1      8.210      9.186
REMARK  0 active torsions:
REMARK  status: ('A' for Active; 'I' for Inactive)
ROOT
HETATM    1  C1  UNL     1     -41.166   6.984   0.366  1.00 20.00     0.009 A 
HETATM    2  C2  UNL     1     -41.380   7.422  -1.054  1.00 20.00     0.009 A 
HETATM    3  C3  UNL     1     -41.929   8.256   0.080  1.00 20.00    -0.048 A 
HETATM    4  C4  UNL     1     -43.417   8.252   0.303  1.00 20.00     0.015 C 
HETATM    5  C5  UNL     1     -41.255   9.566   0.382  1.00 20.00     0.015 C 
ENDROOT
TORSDOF 0
ENDMDL
