MODEL 1
REMARK VINA RESULT:      -4.4      0.000      0.000
REMARK  3 active torsions:
REMARK  status: ('A' for Active; 'I' for Inactive)
REMARK    1  A    between atoms: C2_2  and  C3_3 
REMARK    2  A    between atoms: C3_3  and  C5_5 
REMARK    3  A    between atoms: C4_4  and  C5_5 
ROOT
HETATM    1  C5  UNL     1     -33.487   6.331   2.724  1.00 20.00     0.096 C 
HETATM    2 CL7  UNL     1     -33.018   4.620   2.434  1.00 20.00    -0.124 Cl
ENDROOT
BRANCH   1   3
HETATM    3  C3  UNL     1     -33.930   6.518   4.185  1.00 20.00     0.021 C 
BRANCH   3   4
HETATM    4  C2  UNL     1     -34.952   5.474   4.649  1.00 20.00    -0.003 C 
HETATM    5  C1  UNL     1     -34.768   5.136   6.121  1.00 20.00     0.005 C 
ENDBRANCH   3   4
ENDBRANCH   1   3
BRANCH   1   6
HETATM    6  C4  UNL     1     -32.297   7.214   2.343  1.00 20.00     0.134 C 
HETATM    7 CL6  UNL     1     -32.683   8.302   0.985  1.00 20.00    -0.129 Cl
ENDBRANCH   1   6
TORSDOF 3
ENDMDL
MODEL 2
REMARK VINA RESULT:      -4.3      2.368      4.303
REMARK  3 active torsions:
REMARK  status: ('A' for Active; 'I' for Inactive)
REMARK    1  A    between atoms: C2_2  and  C3_3 
REMARK    2  A    between atoms: C3_3  and  C5_5 
REMARK    3  A    between atoms: C4_4  and  C5_5 
ROOT
HETATM    1  C5  UNL     1     -34.166   6.335   3.947  1.00 20.00     0.096 C 
HETATM    2 CL7  UNL     1     -33.369   7.128   5.350  1.00 20.00    -0.124 Cl
ENDROOT
BRANCH   1   3
HETATM    3  C3  UNL     1     -33.136   6.064   2.837  1.00 20.00     0.021 C 
BRANCH   3   4
HETATM    4  C2  UNL     1     -32.201   7.250   2.571  1.00 20.00    -0.003 C 
HETATM    5  C1  UNL     1     -32.591   7.987   1.298  1.00 20.00     0.005 C 
ENDBRANCH   3   4
ENDBRANCH   1   3
BRANCH   1   6
HETATM    6  C4  UNL     1     -34.847   5.063   4.453  1.00 20.00     0.134 C 
HETATM    7 CL6  UNL     1     -34.866   4.980   6.234  1.00 20.00    -0.129 Cl
ENDBRANCH   1   6
TORSDOF 3
ENDMDL
MODEL 3
REMARK VINA RESULT:      -3.9      2.523      4.199
REMARK  3 active torsions:
REMARK  status: ('A' for Active; 'I' for Inactive)
REMARK    1  A    between atoms: C2_2  and  C3_3 
REMARK    2  A    between atoms: C3_3  and  C5_5 
REMARK    3  A    between atoms: C4_4  and  C5_5 
ROOT
HETATM    1  C5  UNL     1     -33.670   6.799   3.763  1.00 20.00     0.096 C 
HETATM    2 CL7  UNL     1     -33.577   7.016   5.545  1.00 20.00    -0.124 Cl
ENDROOT
BRANCH   1   3
HETATM    3  C3  UNL     1     -32.348   7.234   3.107  1.00 20.00     0.021 C 
BRANCH   3   4
HETATM    4  C2  UNL     1     -32.415   7.280   1.576  1.00 20.00    -0.003 C 
HETATM    5  C1  UNL     1     -32.824   8.660   1.082  1.00 20.00     0.005 C 
ENDBRANCH   3   4
ENDBRANCH   1   3
BRANCH   1   6
HETATM    6  C4  UNL     1     -34.021   5.336   3.487  1.00 20.00     0.134 C 
HETATM    7 CL6  UNL     1     -34.858   4.580   4.867  1.00 20.00    -0.129 Cl
ENDBRANCH   1   6
TORSDOF 3
ENDMDL
MODEL 4
REMARK VINA RESULT:      -3.9      1.181      2.615
REMARK  3 active torsions:
REMARK  status: ('A' for Active; 'I' for Inactive)
REMARK    1  A    between atoms: C2_2  and  C3_3 
REMARK    2  A    between atoms: C3_3  and  C5_5 
REMARK    3  A    between atoms: C4_4  and  C5_5 
ROOT
HETATM    1  C5  UNL     1     -32.914   6.340   3.160  1.00 20.00     0.096 C 
HETATM    2 CL7  UNL     1     -32.490   7.553   1.904  1.00 20.00    -0.124 Cl
ENDROOT
BRANCH   1   3
HETATM    3  C3  UNL     1     -34.063   6.865   4.037  1.00 20.00     0.021 C 
BRANCH   3   4
HETATM    4  C2  UNL     1     -33.771   6.775   5.540  1.00 20.00    -0.003 C 
HETATM    5  C1  UNL     1     -34.643   5.725   6.211  1.00 20.00     0.005 C 
ENDBRANCH   3   4
ENDBRANCH   1   3
BRANCH   1   6
HETATM    6  C4  UNL     1     -33.256   5.029   2.449  1.00 20.00     0.134 C 
HETATM    7 CL6  UNL     1     -34.059   3.869   3.538  1.00 20.00    -0.129 Cl
ENDBRANCH   1   6
TORSDOF 3
ENDMDL
MODEL 5
REMARK VINA RESULT:      -3.9      1.944      4.000
REMARK  3 active torsions:
REMARK  status: ('A' for Active; 'I' for Inactive)
REMARK    1  A    between atoms: C2_2  and  C3_3 
REMARK    2  A    between atoms: C3_3  and  C5_5 
REMARK    3  A    between atoms: C4_4  and  C5_5 
ROOT
HETATM    1  C5  UNL     1     -32.952   6.265   3.523  1.00 20.00     0.096 C 
HETATM    2 CL7  UNL     1     -33.241   4.995   2.284  1.00 20.00    -0.124 Cl
ENDROOT
BRANCH   1   3
HETATM    3  C3  UNL     1     -32.436   7.550   2.854  1.00 20.00     0.021 C 
BRANCH   3   4
HETATM    4  C2  UNL     1     -32.500   7.507   1.323  1.00 20.00    -0.003 C 
HETATM    5  C1  UNL     1     -32.878   8.864   0.747  1.00 20.00     0.005 C 
ENDBRANCH   3   4
ENDBRANCH   1   3
BRANCH   1   6
HETATM    6  C4  UNL     1     -34.257   6.474   4.292  1.00 20.00     0.134 C 
HETATM    7 CL6  UNL     1     -33.980   6.634   6.045  1.00 20.00    -0.129 Cl
ENDBRANCH   1   6
TORSDOF 3
ENDMDL
MODEL 6
REMARK VINA RESULT:      -3.6      2.490      3.812
REMARK  3 active torsions:
REMARK  status: ('A' for Active; 'I' for Inactive)
REMARK    1  A    between atoms: C2_2  and  C3_3 
REMARK    2  A    between atoms: C3_3  and  C5_5 
REMARK    3  A    between atoms: C4_4  and  C5_5 
ROOT
HETATM    1  C5  UNL     1     -34.861   4.641   4.565  1.00 20.00     0.096 C 
HETATM    2 CL7  UNL     1     -36.003   5.810   3.817  1.00 20.00    -0.124 Cl
ENDROOT
BRANCH   1   3
HETATM    3  C3  UNL     1     -33.592   4.515   3.704  1.00 20.00     0.021 C 
BRANCH   3   4
HETATM    4  C2  UNL     1     -33.581   5.460   2.496  1.00 20.00    -0.003 C 
HETATM    5  C1  UNL     1     -32.656   6.645   2.731  1.00 20.00     0.005 C 
ENDBRANCH   3   4
ENDBRANCH   1   3
BRANCH   1   6
HETATM    6  C4  UNL     1     -34.571   5.116   5.990  1.00 20.00     0.134 C 
HETATM    7 CL6  UNL     1     -33.988   6.800   6.025  1.00 20.00    -0.129 Cl
ENDBRANCH   1   6
TORSDOF 3
ENDMDL
MODEL 7
REMARK VINA RESULT:      -3.3      8.977      9.576
REMARK  3 active torsions:
REMARK  status: ('A' for Active; 'I' for Inactive)
REMARK    1  A    between atoms: C2_2  and  C3_3 
REMARK    2  A    between atoms: C3_3  and  C5_5 
REMARK    3  A    between atoms: C4_4  and  C5_5 
ROOT
HETATM    1  C5  UNL     1     -42.756   6.362   0.254  1.00 20.00     0.096 C 
HETATM    2 CL7  UNL     1     -43.257   5.506   1.754  1.00 20.00    -0.124 Cl
ENDROOT
BRANCH   1   3
HETATM    3  C3  UNL     1     -41.481   7.182   0.513  1.00 20.00     0.021 C 
BRANCH   3   4
HETATM    4  C2  UNL     1     -41.351   8.408  -0.399  1.00 20.00    -0.003 C 
HETATM    5  C1  UNL     1     -41.284   9.695   0.411  1.00 20.00     0.005 C 
ENDBRANCH   3   4
ENDBRANCH   1   3
BRANCH   1   6
HETATM    6  C4  UNL     1     -42.580   5.314  -0.846  1.00 20.00     0.134 C 
HETATM    7 CL6  UNL     1     -40.862   5.028  -1.224  1.00 20.00    -0.129 Cl
ENDBRANCH   1   6
TORSDOF 3
ENDMDL
MODEL 8
REMARK VINA RESULT:      -3.3      9.035      9.721
REMARK  3 active torsions:
REMARK  status: ('A' for Active; 'I' for Inactive)
REMARK    1  A    between atoms: C2_2  and  C3_3 
REMARK    2  A    between atoms: C3_3  and  C5_5 
REMARK    3  A    between atoms: C4_4  and  C5_5 
ROOT
HETATM    1  C5  UNL     1     -41.956   5.650   0.373  1.00 20.00     0.096 C 
HETATM    2 CL7  UNL     1     -40.779   5.466  -0.973  1.00 20.00    -0.124 Cl
ENDROOT
BRANCH   1   3
HETATM    3  C3  UNL     1     -42.059   7.128   0.788  1.00 20.00     0.021 C 
BRANCH   3   4
HETATM    4  C2  UNL     1     -41.425   8.089  -0.224  1.00 20.00    -0.003 C 
HETATM    5  C1  UNL     1     -41.357   9.506   0.327  1.00 20.00     0.005 C 
ENDBRANCH   3   4
ENDBRANCH   1   3
BRANCH   1   6
HETATM    6  C4  UNL     1     -43.291   5.065  -0.089  1.00 20.00     0.134 C 
HETATM    7 CL6  UNL     1     -43.253   4.590  -1.807  1.00 20.00    -0.129 Cl
ENDBRANCH   1   6
TORSDOF 3
ENDMDL
MODEL 9
REMARK VINA RESULT:      -3.2     11.400     12.137
REMARK  3 active torsions:
REMARK  status: ('A' for Active; 'I' for Inactive)
REMARK    1  A    between atoms: C2_2  and  C3_3 
REMARK    2  A    between atoms: C3_3  and  C5_5 
REMARK    3  A    between atoms: C4_4  and  C5_5 
ROOT
HETATM    1  C5  UNL     1     -35.199  14.856  -4.911  1.00 20.00     0.096 C 
HETATM    2 CL7  UNL     1     -36.139  13.396  -4.449  1.00 20.00    -0.124 Cl
ENDROOT
BRANCH   1   3
HETATM    3  C3  UNL     1     -33.760  14.752  -4.376  1.00 20.00     0.021 C 
BRANCH   3   4
HETATM    4  C2  UNL     1     -33.416  15.829  -3.341  1.00 20.00    -0.003 C 
HETATM    5  C1  UNL     1     -34.549  16.017  -2.342  1.00 20.00     0.005 C 
ENDBRANCH   3   4
ENDBRANCH   1   3
BRANCH   1   6
HETATM    6  C4  UNL     1     -35.262  14.992  -6.433  1.00 20.00     0.134 C 
HETATM    7 CL6  UNL     1     -33.639  14.987  -7.171  1.00 20.00    -0.129 Cl
ENDBRANCH   1   6
TORSDOF 3
ENDMDL
