MODEL 1
REMARK VINA RESULT:      -5.2      0.000      0.000
REMARK  2 active torsions:
REMARK  status: ('A' for Active; 'I' for Inactive)
REMARK    1  A    between atoms: C1_1  and  C4_4 
REMARK    2  A    between atoms: C5_5  and  C8_8 
ROOT
HETATM    1  C2  UNL     1     -34.245  14.801  -3.843  1.00 20.00     0.020 C 
HETATM    2  C3  UNL     1     -36.008  15.935  -3.460  1.00 20.00     0.020 C 
HETATM    3  C4  UNL     1     -35.633  14.874  -4.524  1.00 20.00     0.087 C 
HETATM    4  C5  UNL     1     -34.493  16.245  -3.339  1.00 20.00    -0.010 C 
ENDROOT
BRANCH   3   5
HETATM    5  C1  UNL     1     -36.432  13.622  -4.490  1.00 20.00     0.177 C 
HETATM    6  O9  UNL     1     -35.761  12.554  -4.478  1.00 20.00    -0.648 OA
HETATM    7  O10 UNL     1     -37.684  13.793  -4.478  1.00 20.00    -0.648 OA
ENDBRANCH   3   5
BRANCH   4   8
HETATM    8  C8  UNL     1     -33.979  16.579  -1.955  1.00 20.00    -0.019 C 
HETATM    9  C6  UNL     1     -32.844  17.606  -2.024  1.00 20.00     0.010 C 
HETATM   10  C7  UNL     1     -35.107  17.100  -1.059  1.00 20.00     0.010 C 
ENDBRANCH   4   8
TORSDOF 2
ENDMDL
MODEL 2
REMARK VINA RESULT:      -5.2      0.010      1.023
REMARK  2 active torsions:
REMARK  status: ('A' for Active; 'I' for Inactive)
REMARK    1  A    between atoms: C1_1  and  C4_4 
REMARK    2  A    between atoms: C5_5  and  C8_8 
ROOT
HETATM    1  C2  UNL     1     -34.251  14.793  -3.841  1.00 20.00     0.020 C 
HETATM    2  C3  UNL     1     -36.009  15.935  -3.461  1.00 20.00     0.020 C 
HETATM    3  C4  UNL     1     -35.637  14.873  -4.525  1.00 20.00     0.087 C 
HETATM    4  C5  UNL     1     -34.494  16.238  -3.336  1.00 20.00    -0.010 C 
ENDROOT
BRANCH   3   5
HETATM    5  C1  UNL     1     -36.442  13.625  -4.494  1.00 20.00     0.177 C 
HETATM    6  O9  UNL     1     -37.693  13.789  -4.477  1.00 20.00    -0.648 OA
HETATM    7  O10 UNL     1     -35.765  12.559  -4.487  1.00 20.00    -0.648 OA
ENDBRANCH   3   5
BRANCH   4   8
HETATM    8  C8  UNL     1     -33.981  16.569  -1.951  1.00 20.00    -0.019 C 
HETATM    9  C6  UNL     1     -32.843  17.593  -2.016  1.00 20.00     0.010 C 
HETATM   10  C7  UNL     1     -35.109  17.091  -1.056  1.00 20.00     0.010 C 
ENDBRANCH   4   8
TORSDOF 2
ENDMDL
MODEL 3
REMARK VINA RESULT:      -4.9      1.254      1.749
REMARK  2 active torsions:
REMARK  status: ('A' for Active; 'I' for Inactive)
REMARK    1  A    between atoms: C1_1  and  C4_4 
REMARK    2  A    between atoms: C5_5  and  C8_8 
ROOT
HETATM    1  C2  UNL     1     -35.531  15.582  -3.159  1.00 20.00     0.020 C 
HETATM    2  C3  UNL     1     -33.998  14.559  -4.229  1.00 20.00     0.020 C 
HETATM    3  C4  UNL     1     -35.420  14.162  -3.764  1.00 20.00     0.087 C 
HETATM    4  C5  UNL     1     -33.983  15.589  -3.069  1.00 20.00    -0.010 C 
ENDROOT
BRANCH   3   5
HETATM    5  C1  UNL     1     -36.385  13.850  -4.850  1.00 20.00     0.177 C 
HETATM    6  O9  UNL     1     -35.894  13.803  -6.011  1.00 20.00    -0.648 OA
HETATM    7  O10 UNL     1     -37.575  13.672  -4.465  1.00 20.00    -0.648 OA
ENDBRANCH   3   5
BRANCH   4   8
HETATM    8  C8  UNL     1     -33.293  16.908  -3.342  1.00 20.00    -0.019 C 
HETATM    9  C6  UNL     1     -34.244  17.894  -4.027  1.00 20.00     0.010 C 
HETATM   10  C7  UNL     1     -32.742  17.518  -2.050  1.00 20.00     0.010 C 
ENDBRANCH   4   8
TORSDOF 2
ENDMDL
MODEL 4
REMARK VINA RESULT:      -4.8      1.257      1.916
REMARK  2 active torsions:
REMARK  status: ('A' for Active; 'I' for Inactive)
REMARK    1  A    between atoms: C1_1  and  C4_4 
REMARK    2  A    between atoms: C5_5  and  C8_8 
ROOT
HETATM    1  C2  UNL     1     -35.526  15.575  -3.150  1.00 20.00     0.020 C 
HETATM    2  C3  UNL     1     -33.996  14.564  -4.235  1.00 20.00     0.020 C 
HETATM    3  C4  UNL     1     -35.414  14.158  -3.764  1.00 20.00     0.087 C 
HETATM    4  C5  UNL     1     -33.979  15.587  -3.070  1.00 20.00    -0.010 C 
ENDROOT
BRANCH   3   5
HETATM    5  C1  UNL     1     -36.384  13.847  -4.845  1.00 20.00     0.177 C 
HETATM    6  O9  UNL     1     -37.574  13.669  -4.466  1.00 20.00    -0.648 OA
HETATM    7  O10 UNL     1     -35.887  13.802  -6.005  1.00 20.00    -0.648 OA
ENDBRANCH   3   5
BRANCH   4   8
HETATM    8  C8  UNL     1     -33.296  16.911  -3.340  1.00 20.00    -0.019 C 
HETATM    9  C6  UNL     1     -34.259  17.901  -4.003  1.00 20.00     0.010 C 
HETATM   10  C7  UNL     1     -32.729  17.511  -2.050  1.00 20.00     0.010 C 
ENDBRANCH   4   8
TORSDOF 2
ENDMDL
MODEL 5
REMARK VINA RESULT:      -4.7      1.442      2.249
REMARK  2 active torsions:
REMARK  status: ('A' for Active; 'I' for Inactive)
REMARK    1  A    between atoms: C1_1  and  C4_4 
REMARK    2  A    between atoms: C5_5  and  C8_8 
ROOT
HETATM    1  C2  UNL     1     -35.538  15.285  -3.309  1.00 20.00     0.020 C 
HETATM    2  C3  UNL     1     -33.464  15.387  -3.787  1.00 20.00     0.020 C 
HETATM    3  C4  UNL     1     -34.597  14.402  -4.163  1.00 20.00     0.087 C 
HETATM    4  C5  UNL     1     -34.283  15.734  -2.517  1.00 20.00    -0.010 C 
ENDROOT
BRANCH   3   5
HETATM    5  C1  UNL     1     -34.926  14.325  -5.610  1.00 20.00     0.177 C 
HETATM    6  O9  UNL     1     -36.083  13.899  -5.878  1.00 20.00    -0.648 OA
HETATM    7  O10 UNL     1     -34.000  14.697  -6.383  1.00 20.00    -0.648 OA
ENDBRANCH   3   5
BRANCH   4   8
HETATM    8  C8  UNL     1     -34.249  17.177  -2.061  1.00 20.00    -0.019 C 
HETATM    9  C6  UNL     1     -35.039  17.362  -0.761  1.00 20.00     0.010 C 
HETATM   10  C7  UNL     1     -32.808  17.661  -1.874  1.00 20.00     0.010 C 
ENDBRANCH   4   8
TORSDOF 2
ENDMDL
MODEL 6
REMARK VINA RESULT:      -4.7     10.449     11.174
REMARK  2 active torsions:
REMARK  status: ('A' for Active; 'I' for Inactive)
REMARK    1  A    between atoms: C1_1  and  C4_4 
REMARK    2  A    between atoms: C5_5  and  C8_8 
ROOT
HETATM    1  C2  UNL     1     -33.369   6.123   2.212  1.00 20.00     0.020 C 
HETATM    2  C3  UNL     1     -32.583   7.659   3.462  1.00 20.00     0.020 C 
HETATM    3  C4  UNL     1     -32.231   7.159   2.040  1.00 20.00     0.087 C 
HETATM    4  C5  UNL     1     -33.154   6.245   3.742  1.00 20.00    -0.010 C 
ENDROOT
BRANCH   3   5
HETATM    5  C1  UNL     1     -32.422   8.147   0.947  1.00 20.00     0.177 C 
HETATM    6  O9  UNL     1     -33.232   9.081   1.199  1.00 20.00    -0.648 OA
HETATM    7  O10 UNL     1     -31.745   7.920  -0.095  1.00 20.00    -0.648 OA
ENDBRANCH   3   5
BRANCH   4   8
HETATM    8  C8  UNL     1     -34.393   6.174   4.609  1.00 20.00    -0.019 C 
HETATM    9  C6  UNL     1     -34.977   4.757   4.616  1.00 20.00     0.010 C 
HETATM   10  C7  UNL     1     -34.089   6.625   6.040  1.00 20.00     0.010 C 
ENDBRANCH   4   8
TORSDOF 2
ENDMDL
MODEL 7
REMARK VINA RESULT:      -4.6      1.200      1.421
REMARK  2 active torsions:
REMARK  status: ('A' for Active; 'I' for Inactive)
REMARK    1  A    between atoms: C1_1  and  C4_4 
REMARK    2  A    between atoms: C5_5  and  C8_8 
ROOT
HETATM    1  C2  UNL     1     -33.772  15.914  -4.080  1.00 20.00     0.020 C 
HETATM    2  C3  UNL     1     -35.138  15.500  -2.498  1.00 20.00     0.020 C 
HETATM    3  C4  UNL     1     -35.038  15.030  -3.970  1.00 20.00     0.087 C 
HETATM    4  C5  UNL     1     -34.351  16.767  -2.923  1.00 20.00    -0.010 C 
ENDROOT
BRANCH   3   5
HETATM    5  C1  UNL     1     -34.824  13.573  -4.165  1.00 20.00     0.177 C 
HETATM    6  O9  UNL     1     -33.630  13.183  -4.049  1.00 20.00    -0.648 OA
HETATM    7  O10 UNL     1     -35.871  12.915  -4.421  1.00 20.00    -0.648 OA
ENDBRANCH   3   5
BRANCH   4   8
HETATM    8  C8  UNL     1     -33.357  17.316  -1.922  1.00 20.00    -0.019 C 
HETATM    9  C6  UNL     1     -32.506  18.427  -2.545  1.00 20.00     0.010 C 
HETATM   10  C7  UNL     1     -34.069  17.838  -0.670  1.00 20.00     0.010 C 
ENDBRANCH   4   8
TORSDOF 2
ENDMDL
MODEL 8
REMARK VINA RESULT:      -4.4     17.141     18.165
REMARK  2 active torsions:
REMARK  status: ('A' for Active; 'I' for Inactive)
REMARK    1  A    between atoms: C1_1  and  C4_4 
REMARK    2  A    between atoms: C5_5  and  C8_8 
ROOT
HETATM    1  C2  UNL     1     -22.675  17.938  10.750  1.00 20.00     0.020 C 
HETATM    2  C3  UNL     1     -24.469  17.949   9.600  1.00 20.00     0.020 C 
HETATM    3  C4  UNL     1     -23.007  18.356   9.297  1.00 20.00     0.087 C 
HETATM    4  C5  UNL     1     -24.160  18.219  11.095  1.00 20.00    -0.010 C 
ENDROOT
BRANCH   3   5
HETATM    5  C1  UNL     1     -22.330  17.572   8.232  1.00 20.00     0.177 C 
HETATM    6  O9  UNL     1     -22.487  18.007   7.059  1.00 20.00    -0.648 OA
HETATM    7  O10 UNL     1     -21.684  16.567   8.645  1.00 20.00    -0.648 OA
ENDBRANCH   3   5
BRANCH   4   8
HETATM    8  C8  UNL     1     -24.810  17.292  12.100  1.00 20.00    -0.019 C 
HETATM    9  C6  UNL     1     -26.276  17.674  12.332  1.00 20.00     0.010 C 
HETATM   10  C7  UNL     1     -24.713  15.832  11.645  1.00 20.00     0.010 C 
ENDBRANCH   4   8
TORSDOF 2
ENDMDL
MODEL 9
REMARK VINA RESULT:      -4.3      4.047      5.615
REMARK  2 active torsions:
REMARK  status: ('A' for Active; 'I' for Inactive)
REMARK    1  A    between atoms: C1_1  and  C4_4 
REMARK    2  A    between atoms: C5_5  and  C8_8 
ROOT
HETATM    1  C2  UNL     1     -34.121  17.399  -1.017  1.00 20.00     0.020 C 
HETATM    2  C3  UNL     1     -32.580  17.402  -2.488  1.00 20.00     0.020 C 
HETATM    3  C4  UNL     1     -32.913  18.328  -1.292  1.00 20.00     0.087 C 
HETATM    4  C5  UNL     1     -34.082  17.018  -2.518  1.00 20.00    -0.010 C 
ENDROOT
BRANCH   3   5
HETATM    5  C1  UNL     1     -31.888  18.383  -0.219  1.00 20.00     0.177 C 
HETATM    6  O9  UNL     1     -32.336  18.325   0.959  1.00 20.00    -0.648 OA
HETATM    7  O10 UNL     1     -30.697  18.481  -0.630  1.00 20.00    -0.648 OA
ENDBRANCH   3   5
BRANCH   4   8
HETATM    8  C8  UNL     1     -34.407  15.580  -2.862  1.00 20.00    -0.019 C 
HETATM    9  C6  UNL     1     -35.872  15.434  -3.286  1.00 20.00     0.010 C 
HETATM   10  C7  UNL     1     -33.484  15.057  -3.967  1.00 20.00     0.010 C 
ENDBRANCH   4   8
TORSDOF 2
ENDMDL
