MODEL 1
REMARK VINA RESULT:      -3.9      0.000      0.000
REMARK  3 active torsions:
REMARK  status: ('A' for Active; 'I' for Inactive)
REMARK    1  A    between atoms: C2_2  and  C6_6 
REMARK    2  A    between atoms: C6_6  and  O9_9 
REMARK    3  A    between atoms: C7_7  and  O9_9 
ROOT
HETATM    1  O9  UNL     1     -24.302  17.810  10.246  1.00 20.00    -0.379 OA
ENDROOT
BRANCH   1   2
HETATM    2  C6  UNL     1     -22.960  18.049   9.853  1.00 20.00     0.202 C 
BRANCH   2   3
HETATM    3  C2  UNL     1     -22.637  17.186   8.650  1.00 20.00     0.169 A 
HETATM    4  C1  UNL     1     -21.310  17.290   7.954  1.00 20.00     0.202 A 
HETATM    5  O8  UNL     1     -22.494  17.908   7.423  1.00 20.00    -0.379 OA
ENDBRANCH   2   3
ENDBRANCH   1   2
BRANCH   1   6
HETATM    6  C7  UNL     1     -24.380  17.433  11.621  1.00 20.00     0.050 C 
HETATM    7  C3  UNL     1     -24.610  15.925  11.699  1.00 20.00     0.045 C 
HETATM    8  C4  UNL     1     -23.052  17.809  12.277  1.00 20.00     0.045 C 
HETATM    9  C5  UNL     1     -25.534  18.196  12.271  1.00 20.00     0.045 C 
ENDBRANCH   1   6
TORSDOF 3
ENDMDL
MODEL 2
REMARK VINA RESULT:      -3.9      1.720      2.366
REMARK  3 active torsions:
REMARK  status: ('A' for Active; 'I' for Inactive)
REMARK    1  A    between atoms: C2_2  and  C6_6 
REMARK    2  A    between atoms: C6_6  and  O9_9 
REMARK    3  A    between atoms: C7_7  and  O9_9 
ROOT
HETATM    1  O9  UNL     1     -23.425  18.291  10.241  1.00 20.00    -0.379 OA
ENDROOT
BRANCH   1   2
HETATM    2  C6  UNL     1     -24.584  18.413   9.432  1.00 20.00     0.202 C 
BRANCH   2   3
HETATM    3  C2  UNL     1     -24.256  19.263   8.223  1.00 20.00     0.169 A 
HETATM    4  C1  UNL     1     -25.055  19.152   6.955  1.00 20.00     0.202 A 
HETATM    5  O8  UNL     1     -23.768  18.529   7.095  1.00 20.00    -0.379 OA
ENDBRANCH   2   3
ENDBRANCH   1   2
BRANCH   1   6
HETATM    6  C7  UNL     1     -23.723  17.652  11.482  1.00 20.00     0.050 C 
HETATM    7  C3  UNL     1     -22.454  17.623  12.332  1.00 20.00     0.045 C 
HETATM    8  C4  UNL     1     -24.813  18.472  12.171  1.00 20.00     0.045 C 
HETATM    9  C5  UNL     1     -24.220  16.236  11.193  1.00 20.00     0.045 C 
ENDBRANCH   1   6
TORSDOF 3
ENDMDL
MODEL 3
REMARK VINA RESULT:      -3.5     17.398     18.301
REMARK  3 active torsions:
REMARK  status: ('A' for Active; 'I' for Inactive)
REMARK    1  A    between atoms: C2_2  and  C6_6 
REMARK    2  A    between atoms: C6_6  and  O9_9 
REMARK    3  A    between atoms: C7_7  and  O9_9 
ROOT
HETATM    1  O9  UNL     1     -33.890  15.814  -4.012  1.00 20.00    -0.379 OA
ENDROOT
BRANCH   1   2
HETATM    2  C6  UNL     1     -34.453  14.552  -3.691  1.00 20.00     0.202 C 
BRANCH   2   3
HETATM    3  C2  UNL     1     -35.410  14.143  -4.790  1.00 20.00     0.169 A 
HETATM    4  C1  UNL     1     -36.885  14.018  -4.530  1.00 20.00     0.202 A 
HETATM    5  O8  UNL     1     -36.028  12.866  -4.596  1.00 20.00    -0.379 OA
ENDBRANCH   2   3
ENDBRANCH   1   2
BRANCH   1   6
HETATM    6  C7  UNL     1     -34.182  16.784  -3.006  1.00 20.00     0.050 C 
HETATM    7  C3  UNL     1     -32.864  17.298  -2.428  1.00 20.00     0.045 C 
HETATM    8  C4  UNL     1     -34.956  17.920  -3.674  1.00 20.00     0.045 C 
HETATM    9  C5  UNL     1     -35.031  16.120  -1.923  1.00 20.00     0.045 C 
ENDBRANCH   1   6
TORSDOF 3
ENDMDL
MODEL 4
REMARK VINA RESULT:      -3.5     17.401     18.269
REMARK  3 active torsions:
REMARK  status: ('A' for Active; 'I' for Inactive)
REMARK    1  A    between atoms: C2_2  and  C6_6 
REMARK    2  A    between atoms: C6_6  and  O9_9 
REMARK    3  A    between atoms: C7_7  and  O9_9 
ROOT
HETATM    1  O9  UNL     1     -33.888  15.817  -4.012  1.00 20.00    -0.379 OA
ENDROOT
BRANCH   1   2
HETATM    2  C6  UNL     1     -34.450  14.554  -3.692  1.00 20.00     0.202 C 
BRANCH   2   3
HETATM    3  C2  UNL     1     -35.410  14.148  -4.791  1.00 20.00     0.169 A 
HETATM    4  C1  UNL     1     -36.885  14.026  -4.528  1.00 20.00     0.202 A 
HETATM    5  O8  UNL     1     -36.031  12.873  -4.597  1.00 20.00    -0.379 OA
ENDBRANCH   2   3
ENDBRANCH   1   2
BRANCH   1   6
HETATM    6  C7  UNL     1     -34.197  16.789  -3.013  1.00 20.00     0.050 C 
HETATM    7  C3  UNL     1     -35.030  16.118  -1.922  1.00 20.00     0.045 C 
HETATM    8  C4  UNL     1     -32.874  17.298  -2.442  1.00 20.00     0.045 C 
HETATM    9  C5  UNL     1     -34.974  17.930  -3.668  1.00 20.00     0.045 C 
ENDBRANCH   1   6
TORSDOF 3
ENDMDL
MODEL 5
REMARK VINA RESULT:      -3.5     18.407     19.314
REMARK  3 active torsions:
REMARK  status: ('A' for Active; 'I' for Inactive)
REMARK    1  A    between atoms: C2_2  and  C6_6 
REMARK    2  A    between atoms: C6_6  and  O9_9 
REMARK    3  A    between atoms: C7_7  and  O9_9 
ROOT
HETATM    1  O9  UNL     1     -35.543  16.203  -4.421  1.00 20.00    -0.379 OA
ENDROOT
BRANCH   1   2
HETATM    2  C6  UNL     1     -36.838  16.153  -3.845  1.00 20.00     0.202 C 
BRANCH   2   3
HETATM    3  C2  UNL     1     -37.746  15.337  -4.741  1.00 20.00     0.169 A 
HETATM    4  C1  UNL     1     -39.060  14.806  -4.241  1.00 20.00     0.202 A 
HETATM    5  O8  UNL     1     -37.897  13.969  -4.347  1.00 20.00    -0.379 OA
ENDBRANCH   2   3
ENDBRANCH   1   2
BRANCH   1   6
HETATM    6  C7  UNL     1     -34.556  15.691  -3.525  1.00 20.00     0.050 C 
HETATM    7  C3  UNL     1     -33.257  16.466  -3.738  1.00 20.00     0.045 C 
HETATM    8  C4  UNL     1     -35.077  15.896  -2.103  1.00 20.00     0.045 C 
HETATM    9  C5  UNL     1     -34.359  14.204  -3.816  1.00 20.00     0.045 C 
ENDBRANCH   1   6
TORSDOF 3
ENDMDL
MODEL 6
REMARK VINA RESULT:      -3.5     18.447     19.352
REMARK  3 active torsions:
REMARK  status: ('A' for Active; 'I' for Inactive)
REMARK    1  A    between atoms: C2_2  and  C6_6 
REMARK    2  A    between atoms: C6_6  and  O9_9 
REMARK    3  A    between atoms: C7_7  and  O9_9 
ROOT
HETATM    1  O9  UNL     1     -35.526  16.094  -4.513  1.00 20.00    -0.379 OA
ENDROOT
BRANCH   1   2
HETATM    2  C6  UNL     1     -36.820  16.178  -3.938  1.00 20.00     0.202 C 
BRANCH   2   3
HETATM    3  C2  UNL     1     -37.788  15.371  -4.778  1.00 20.00     0.169 A 
HETATM    4  C1  UNL     1     -39.074  14.853  -4.200  1.00 20.00     0.202 A 
HETATM    5  O8  UNL     1     -37.927  14.005  -4.376  1.00 20.00    -0.379 OA
ENDBRANCH   2   3
ENDBRANCH   1   2
BRANCH   1   6
HETATM    6  C7  UNL     1     -34.571  15.605  -3.571  1.00 20.00     0.050 C 
HETATM    7  C3  UNL     1     -35.097  15.872  -2.161  1.00 20.00     0.045 C 
HETATM    8  C4  UNL     1     -34.415  14.104  -3.811  1.00 20.00     0.045 C 
HETATM    9  C5  UNL     1     -33.244  16.327  -3.804  1.00 20.00     0.045 C 
ENDBRANCH   1   6
TORSDOF 3
ENDMDL
MODEL 7
REMARK VINA RESULT:      -3.5     18.448     19.309
REMARK  3 active torsions:
REMARK  status: ('A' for Active; 'I' for Inactive)
REMARK    1  A    between atoms: C2_2  and  C6_6 
REMARK    2  A    between atoms: C6_6  and  O9_9 
REMARK    3  A    between atoms: C7_7  and  O9_9 
ROOT
HETATM    1  O9  UNL     1     -35.546  16.141  -4.490  1.00 20.00    -0.379 OA
ENDROOT
BRANCH   1   2
HETATM    2  C6  UNL     1     -36.842  16.179  -3.913  1.00 20.00     0.202 C 
BRANCH   2   3
HETATM    3  C2  UNL     1     -37.787  15.362  -4.769  1.00 20.00     0.169 A 
HETATM    4  C1  UNL     1     -39.086  14.846  -4.216  1.00 20.00     0.202 A 
HETATM    5  O8  UNL     1     -37.933  13.999  -4.358  1.00 20.00    -0.379 OA
ENDBRANCH   2   3
ENDBRANCH   1   2
BRANCH   1   6
HETATM    6  C7  UNL     1     -34.582  15.632  -3.567  1.00 20.00     0.050 C 
HETATM    7  C3  UNL     1     -34.404  14.136  -3.825  1.00 20.00     0.045 C 
HETATM    8  C4  UNL     1     -33.272  16.379  -3.812  1.00 20.00     0.045 C 
HETATM    9  C5  UNL     1     -35.087  15.885  -2.148  1.00 20.00     0.045 C 
ENDBRANCH   1   6
TORSDOF 3
ENDMDL
MODEL 8
REMARK VINA RESULT:      -3.4      1.768      4.105
REMARK  3 active torsions:
REMARK  status: ('A' for Active; 'I' for Inactive)
REMARK    1  A    between atoms: C2_2  and  C6_6 
REMARK    2  A    between atoms: C6_6  and  O9_9 
REMARK    3  A    between atoms: C7_7  and  O9_9 
ROOT
HETATM    1  O9  UNL     1     -24.580  18.291  11.019  1.00 20.00    -0.379 OA
ENDROOT
BRANCH   1   2
HETATM    2  C6  UNL     1     -25.556  18.213  12.045  1.00 20.00     0.202 C 
BRANCH   2   3
HETATM    3  C2  UNL     1     -26.620  19.262  11.797  1.00 20.00     0.169 A 
HETATM    4  C1  UNL     1     -28.046  18.874  11.527  1.00 20.00     0.202 A 
HETATM    5  O8  UNL     1     -27.154  19.263  10.469  1.00 20.00    -0.379 OA
ENDBRANCH   2   3
ENDBRANCH   1   2
BRANCH   1   6
HETATM    6  C7  UNL     1     -23.654  17.208  11.100  1.00 20.00     0.050 C 
HETATM    7  C3  UNL     1     -23.013  17.010   9.727  1.00 20.00     0.045 C 
HETATM    8  C4  UNL     1     -22.597  17.583  12.137  1.00 20.00     0.045 C 
HETATM    9  C5  UNL     1     -24.410  15.953  11.535  1.00 20.00     0.045 C 
ENDBRANCH   1   6
TORSDOF 3
ENDMDL
MODEL 9
REMARK VINA RESULT:      -3.4     17.766     18.699
REMARK  3 active torsions:
REMARK  status: ('A' for Active; 'I' for Inactive)
REMARK    1  A    between atoms: C2_2  and  C6_6 
REMARK    2  A    between atoms: C6_6  and  O9_9 
REMARK    3  A    between atoms: C7_7  and  O9_9 
ROOT
HETATM    1  O9  UNL     1     -34.692  16.741  -4.509  1.00 20.00    -0.379 OA
ENDROOT
BRANCH   1   2
HETATM    2  C6  UNL     1     -34.664  15.724  -5.498  1.00 20.00     0.202 C 
BRANCH   2   3
HETATM    3  C2  UNL     1     -36.028  15.070  -5.574  1.00 20.00     0.169 A 
HETATM    4  C1  UNL     1     -36.324  13.802  -4.824  1.00 20.00     0.202 A 
HETATM    5  O8  UNL     1     -36.042  13.800  -6.233  1.00 20.00    -0.379 OA
ENDBRANCH   2   3
ENDBRANCH   1   2
BRANCH   1   6
HETATM    6  C7  UNL     1     -33.836  16.420  -3.412  1.00 20.00     0.050 C 
HETATM    7  C3  UNL     1     -34.704  16.015  -2.221  1.00 20.00     0.045 C 
HETATM    8  C4  UNL     1     -32.945  15.258  -3.848  1.00 20.00     0.045 C 
HETATM    9  C5  UNL     1     -32.991  17.649  -3.079  1.00 20.00     0.045 C 
ENDBRANCH   1   6
TORSDOF 3
ENDMDL
