MODEL 1
REMARK VINA RESULT:      -3.5      0.000      0.000
REMARK  1 active torsions:
REMARK  status: ('A' for Active; 'I' for Inactive)
REMARK    1  A    between atoms: C4_4  and  C5_5 
ROOT
HETATM    1  C1  UNL     1     -35.975   5.656   3.940  1.00 20.00     0.015 C 
HETATM    2  C2  UNL     1     -34.019   4.101   3.928  1.00 20.00     0.015 C 
HETATM    3  C3  UNL     1     -34.667   5.299   6.038  1.00 20.00     0.015 C 
HETATM    4  C5  UNL     1     -34.563   5.419   4.508  1.00 20.00    -0.039 C 
ENDROOT
BRANCH   4   5
HETATM    5  C4  UNL     1     -33.677   6.618   4.099  1.00 20.00     0.122 C 
HETATM    6 CL6  UNL     1     -32.800   6.387   2.565  1.00 20.00    -0.130 Cl
ENDBRANCH   4   5
TORSDOF 1
ENDMDL
MODEL 2
REMARK VINA RESULT:      -3.5      0.046      1.766
REMARK  1 active torsions:
REMARK  status: ('A' for Active; 'I' for Inactive)
REMARK    1  A    between atoms: C4_4  and  C5_5 
ROOT
HETATM    1  C1  UNL     1     -34.027   4.146   3.881  1.00 20.00     0.015 C 
HETATM    2  C2  UNL     1     -34.692   5.275   6.009  1.00 20.00     0.015 C 
HETATM    3  C3  UNL     1     -36.004   5.672   3.905  1.00 20.00     0.015 C 
HETATM    4  C5  UNL     1     -34.597   5.445   4.483  1.00 20.00    -0.039 C 
ENDROOT
BRANCH   4   5
HETATM    5  C4  UNL     1     -33.644   6.602   4.107  1.00 20.00     0.122 C 
HETATM    6 CL6  UNL     1     -32.789   6.371   2.560  1.00 20.00    -0.130 Cl
ENDBRANCH   4   5
TORSDOF 1
ENDMDL
MODEL 3
REMARK VINA RESULT:      -3.5      0.059      1.761
REMARK  1 active torsions:
REMARK  status: ('A' for Active; 'I' for Inactive)
REMARK    1  A    between atoms: C4_4  and  C5_5 
ROOT
HETATM    1  C1  UNL     1     -34.693   5.352   6.019  1.00 20.00     0.015 C 
HETATM    2  C2  UNL     1     -35.989   5.681   3.907  1.00 20.00     0.015 C 
HETATM    3  C3  UNL     1     -34.020   4.123   3.951  1.00 20.00     0.015 C 
HETATM    4  C5  UNL     1     -34.580   5.451   4.485  1.00 20.00    -0.039 C 
ENDROOT
BRANCH   4   5
HETATM    5  C4  UNL     1     -33.640   6.632   4.152  1.00 20.00     0.122 C 
HETATM    6 CL6  UNL     1     -32.791   6.470   2.593  1.00 20.00    -0.130 Cl
ENDBRANCH   4   5
TORSDOF 1
ENDMDL
MODEL 4
REMARK VINA RESULT:      -3.4      0.750      1.884
REMARK  1 active torsions:
REMARK  status: ('A' for Active; 'I' for Inactive)
REMARK    1  A    between atoms: C4_4  and  C5_5 
ROOT
HETATM    1  C1  UNL     1     -36.000   5.700   3.952  1.00 20.00     0.015 C 
HETATM    2  C2  UNL     1     -34.744   5.209   6.055  1.00 20.00     0.015 C 
HETATM    3  C3  UNL     1     -33.744   6.711   4.309  1.00 20.00     0.015 C 
HETATM    4  C5  UNL     1     -34.598   5.455   4.542  1.00 20.00    -0.039 C 
ENDROOT
BRANCH   4   5
HETATM    5  C4  UNL     1     -33.991   4.224   3.831  1.00 20.00     0.122 C 
HETATM    6 CL6  UNL     1     -33.083   4.613   2.347  1.00 20.00    -0.130 Cl
ENDBRANCH   4   5
TORSDOF 1
ENDMDL
MODEL 5
REMARK VINA RESULT:      -3.4      0.750      1.912
REMARK  1 active torsions:
REMARK  status: ('A' for Active; 'I' for Inactive)
REMARK    1  A    between atoms: C4_4  and  C5_5 
ROOT
HETATM    1  C1  UNL     1     -33.754   6.663   4.252  1.00 20.00     0.015 C 
HETATM    2  C2  UNL     1     -36.038   5.700   3.932  1.00 20.00     0.015 C 
HETATM    3  C3  UNL     1     -34.753   5.230   6.038  1.00 20.00     0.015 C 
HETATM    4  C5  UNL     1     -34.640   5.430   4.518  1.00 20.00    -0.039 C 
ENDROOT
BRANCH   4   5
HETATM    5  C4  UNL     1     -33.975   4.211   3.839  1.00 20.00     0.122 C 
HETATM    6 CL6  UNL     1     -33.075   4.605   2.351  1.00 20.00    -0.130 Cl
ENDBRANCH   4   5
TORSDOF 1
ENDMDL
MODEL 6
REMARK VINA RESULT:      -3.2      8.113      9.281
REMARK  1 active torsions:
REMARK  status: ('A' for Active; 'I' for Inactive)
REMARK    1  A    between atoms: C4_4  and  C5_5 
ROOT
HETATM    1  C1  UNL     1     -43.368   7.570   0.853  1.00 20.00     0.015 C 
HETATM    2  C2  UNL     1     -41.513   9.164   0.341  1.00 20.00     0.015 C 
HETATM    3  C3  UNL     1     -42.503   7.751  -1.483  1.00 20.00     0.015 C 
HETATM    4  C5  UNL     1     -42.102   7.783   0.001  1.00 20.00    -0.039 C 
ENDROOT
BRANCH   4   5
HETATM    5  C4  UNL     1     -41.105   6.651   0.337  1.00 20.00     0.122 C 
HETATM    6 CL6  UNL     1     -40.851   5.485  -0.988  1.00 20.00    -0.130 Cl
ENDBRANCH   4   5
TORSDOF 1
ENDMDL
MODEL 7
REMARK VINA RESULT:      -3.2     16.355     17.298
REMARK  1 active torsions:
REMARK  status: ('A' for Active; 'I' for Inactive)
REMARK    1  A    between atoms: C4_4  and  C5_5 
ROOT
HETATM    1  C1  UNL     1     -23.130  16.882   9.735  1.00 20.00     0.015 C 
HETATM    2  C2  UNL     1     -22.860  17.645  12.099  1.00 20.00     0.015 C 
HETATM    3  C3  UNL     1     -24.574  15.903  11.523  1.00 20.00     0.015 C 
HETATM    4  C5  UNL     1     -23.883  17.190  11.043  1.00 20.00    -0.039 C 
ENDROOT
BRANCH   4   5
HETATM    5  C4  UNL     1     -24.914  18.303  10.748  1.00 20.00     0.122 C 
HETATM    6 CL6  UNL     1     -25.772  18.905  12.191  1.00 20.00    -0.130 Cl
ENDBRANCH   4   5
TORSDOF 1
ENDMDL
MODEL 8
REMARK VINA RESULT:      -3.2     16.366     17.334
REMARK  1 active torsions:
REMARK  status: ('A' for Active; 'I' for Inactive)
REMARK    1  A    between atoms: C4_4  and  C5_5 
ROOT
HETATM    1  C1  UNL     1     -22.947  17.718  12.111  1.00 20.00     0.015 C 
HETATM    2  C2  UNL     1     -24.576  15.918  11.521  1.00 20.00     0.015 C 
HETATM    3  C3  UNL     1     -23.088  16.902   9.754  1.00 20.00     0.015 C 
HETATM    4  C5  UNL     1     -23.907  17.210  11.018  1.00 20.00    -0.039 C 
ENDROOT
BRANCH   4   5
HETATM    5  C4  UNL     1     -24.954  18.315  10.753  1.00 20.00     0.122 C 
HETATM    6 CL6  UNL     1     -25.768  18.917  12.221  1.00 20.00    -0.130 Cl
ENDBRANCH   4   5
TORSDOF 1
ENDMDL
MODEL 9
REMARK VINA RESULT:      -3.1      8.352      9.091
REMARK  1 active torsions:
REMARK  status: ('A' for Active; 'I' for Inactive)
REMARK    1  A    between atoms: C4_4  and  C5_5 
ROOT
HETATM    1  C1  UNL     1     -42.680   5.526   0.871  1.00 20.00     0.015 C 
HETATM    2  C2  UNL     1     -43.007   7.035  -1.094  1.00 20.00     0.015 C 
HETATM    3  C3  UNL     1     -40.955   5.597  -0.934  1.00 20.00     0.015 C 
HETATM    4  C5  UNL     1     -41.958   6.444  -0.134  1.00 20.00    -0.039 C 
ENDROOT
BRANCH   4   5
HETATM    5  C4  UNL     1     -41.242   7.556   0.666  1.00 20.00     0.122 C 
HETATM    6 CL6  UNL     1     -41.602   9.208   0.101  1.00 20.00    -0.130 Cl
ENDBRANCH   4   5
TORSDOF 1
ENDMDL
