MODEL 1
REMARK VINA RESULT:      -5.3      0.000      0.000
REMARK  3 active torsions:
REMARK  status: ('A' for Active; 'I' for Inactive)
REMARK    1  A    between atoms: C1_1  and  C3_3 
REMARK    2  A    between atoms: C3_3  and  C6_6 
REMARK    3  A    between atoms: C6_6  and  C7_7 
ROOT
HETATM    1  C3  UNL     1     -34.217   4.610   3.677  1.00 20.00     0.149 C 
HETATM    2  O8  UNL     1     -34.024   3.411   3.860  1.00 20.00    -0.293 OA
ENDROOT
BRANCH   1   3
HETATM    3  C1  UNL     1     -33.491   5.369   2.618  1.00 20.00     0.045 C 
HETATM    4  C2  UNL     1     -33.052   6.614   2.844  1.00 20.00    -0.027 C 
HETATM    5  C4  UNL     1     -32.319   7.423   1.824  1.00 20.00     0.036 C 
ENDBRANCH   1   3
BRANCH   1   6
HETATM    6  C6  UNL     1     -35.202   5.422   4.500  1.00 20.00     0.082 C 
BRANCH   6   7
HETATM    7  C7  UNL     1     -34.762   5.569   5.955  1.00 20.00     0.003 C 
HETATM    8  C5  UNL     1     -33.948   6.834   6.167  1.00 20.00     0.005 C 
ENDBRANCH   6   7
ENDBRANCH   1   6
TORSDOF 3
ENDMDL
MODEL 2
REMARK VINA RESULT:      -4.9      1.374      2.059
REMARK  3 active torsions:
REMARK  status: ('A' for Active; 'I' for Inactive)
REMARK    1  A    between atoms: C1_1  and  C3_3 
REMARK    2  A    between atoms: C3_3  and  C6_6 
REMARK    3  A    between atoms: C6_6  and  C7_7 
ROOT
HETATM    1  C3  UNL     1     -33.072   6.181   2.837  1.00 20.00     0.149 C 
HETATM    2  O8  UNL     1     -32.927   5.015   2.480  1.00 20.00    -0.293 OA
ENDROOT
BRANCH   1   3
HETATM    3  C1  UNL     1     -32.472   7.315   2.076  1.00 20.00     0.045 C 
HETATM    4  C2  UNL     1     -33.220   8.062   1.254  1.00 20.00    -0.027 C 
HETATM    5  C4  UNL     1     -32.677   9.210   0.467  1.00 20.00     0.036 C 
ENDBRANCH   1   3
BRANCH   1   6
HETATM    6  C6  UNL     1     -33.867   6.574   4.071  1.00 20.00     0.082 C 
BRANCH   6   7
HETATM    7  C7  UNL     1     -34.860   5.494   4.491  1.00 20.00     0.003 C 
HETATM    8  C5  UNL     1     -34.777   5.209   5.981  1.00 20.00     0.005 C 
ENDBRANCH   6   7
ENDBRANCH   1   6
TORSDOF 3
ENDMDL
MODEL 3
REMARK VINA RESULT:      -4.6      1.456      4.208
REMARK  3 active torsions:
REMARK  status: ('A' for Active; 'I' for Inactive)
REMARK    1  A    between atoms: C1_1  and  C3_3 
REMARK    2  A    between atoms: C3_3  and  C6_6 
REMARK    3  A    between atoms: C6_6  and  C7_7 
ROOT
HETATM    1  C3  UNL     1     -33.068   6.306   2.849  1.00 20.00     0.149 C 
HETATM    2  O8  UNL     1     -33.117   5.273   2.187  1.00 20.00    -0.293 OA
ENDROOT
BRANCH   1   3
HETATM    3  C1  UNL     1     -33.726   6.415   4.183  1.00 20.00     0.045 C 
HETATM    4  C2  UNL     1     -34.390   5.377   4.708  1.00 20.00    -0.027 C 
HETATM    5  C4  UNL     1     -35.068   5.426   6.039  1.00 20.00     0.036 C 
ENDBRANCH   1   3
BRANCH   1   6
HETATM    6  C6  UNL     1     -32.339   7.553   2.379  1.00 20.00     0.082 C 
BRANCH   6   7
HETATM    7  C7  UNL     1     -32.569   7.837   0.897  1.00 20.00     0.003 C 
HETATM    8  C5  UNL     1     -32.990   9.279   0.664  1.00 20.00     0.005 C 
ENDBRANCH   6   7
ENDBRANCH   1   6
TORSDOF 3
ENDMDL
MODEL 4
REMARK VINA RESULT:      -4.5      2.157      4.562
REMARK  3 active torsions:
REMARK  status: ('A' for Active; 'I' for Inactive)
REMARK    1  A    between atoms: C1_1  and  C3_3 
REMARK    2  A    between atoms: C3_3  and  C6_6 
REMARK    3  A    between atoms: C6_6  and  C7_7 
ROOT
HETATM    1  C3  UNL     1     -32.420   7.088   2.891  1.00 20.00     0.149 C 
HETATM    2  O8  UNL     1     -31.714   7.648   3.725  1.00 20.00    -0.293 OA
ENDROOT
BRANCH   1   3
HETATM    3  C1  UNL     1     -33.432   6.064   3.280  1.00 20.00     0.045 C 
HETATM    4  C2  UNL     1     -34.160   6.207   4.396  1.00 20.00    -0.027 C 
HETATM    5  C4  UNL     1     -35.189   5.217   4.836  1.00 20.00     0.036 C 
ENDBRANCH   1   3
BRANCH   1   6
HETATM    6  C6  UNL     1     -32.331   7.382   1.403  1.00 20.00     0.082 C 
BRANCH   6   7
HETATM    7  C7  UNL     1     -32.851   8.774   1.054  1.00 20.00     0.003 C 
HETATM    8  C5  UNL     1     -33.431   8.816  -0.350  1.00 20.00     0.005 C 
ENDBRANCH   6   7
ENDBRANCH   1   6
TORSDOF 3
ENDMDL
MODEL 5
REMARK VINA RESULT:      -3.9     11.782     12.873
REMARK  3 active torsions:
REMARK  status: ('A' for Active; 'I' for Inactive)
REMARK    1  A    between atoms: C1_1  and  C3_3 
REMARK    2  A    between atoms: C3_3  and  C6_6 
REMARK    3  A    between atoms: C6_6  and  C7_7 
ROOT
HETATM    1  C3  UNL     1     -36.037  14.045  -4.845  1.00 20.00     0.149 C 
HETATM    2  O8  UNL     1     -37.141  13.590  -4.560  1.00 20.00    -0.293 OA
ENDROOT
BRANCH   1   3
HETATM    3  C1  UNL     1     -35.726  14.552  -6.212  1.00 20.00     0.045 C 
HETATM    4  C2  UNL     1     -34.491  14.961  -6.529  1.00 20.00    -0.027 C 
HETATM    5  C4  UNL     1     -34.119  15.477  -7.881  1.00 20.00     0.036 C 
ENDBRANCH   1   3
BRANCH   1   6
HETATM    6  C6  UNL     1     -34.899  14.136  -3.843  1.00 20.00     0.082 C 
BRANCH   6   7
HETATM    7  C7  UNL     1     -35.014  15.362  -2.941  1.00 20.00     0.003 C 
HETATM    8  C5  UNL     1     -33.688  16.095  -2.824  1.00 20.00     0.005 C 
ENDBRANCH   6   7
ENDBRANCH   1   6
TORSDOF 3
ENDMDL
MODEL 6
REMARK VINA RESULT:      -3.9      1.872      2.569
REMARK  3 active torsions:
REMARK  status: ('A' for Active; 'I' for Inactive)
REMARK    1  A    between atoms: C1_1  and  C3_3 
REMARK    2  A    between atoms: C3_3  and  C6_6 
REMARK    3  A    between atoms: C6_6  and  C7_7 
ROOT
HETATM    1  C3  UNL     1     -33.805   6.702   5.345  1.00 20.00     0.149 C 
HETATM    2  O8  UNL     1     -33.161   7.298   6.203  1.00 20.00    -0.293 OA
ENDROOT
BRANCH   1   3
HETATM    3  C1  UNL     1     -33.727   7.077   3.904  1.00 20.00     0.045 C 
HETATM    4  C2  UNL     1     -32.549   7.125   3.269  1.00 20.00    -0.027 C 
HETATM    5  C4  UNL     1     -32.408   7.493   1.827  1.00 20.00     0.036 C 
ENDBRANCH   1   3
BRANCH   1   6
HETATM    6  C6  UNL     1     -34.728   5.538   5.666  1.00 20.00     0.082 C 
BRANCH   6   7
HETATM    7  C7  UNL     1     -35.195   4.803   4.412  1.00 20.00     0.003 C 
HETATM    8  C5  UNL     1     -34.118   3.875   3.876  1.00 20.00     0.005 C 
ENDBRANCH   6   7
ENDBRANCH   1   6
TORSDOF 3
ENDMDL
MODEL 7
REMARK VINA RESULT:      -3.9     11.789     12.511
REMARK  3 active torsions:
REMARK  status: ('A' for Active; 'I' for Inactive)
REMARK    1  A    between atoms: C1_1  and  C3_3 
REMARK    2  A    between atoms: C3_3  and  C6_6 
REMARK    3  A    between atoms: C6_6  and  C7_7 
ROOT
HETATM    1  C3  UNL     1     -35.795  13.845  -4.341  1.00 20.00     0.149 C 
HETATM    2  O8  UNL     1     -35.909  12.638  -4.537  1.00 20.00    -0.293 OA
ENDROOT
BRANCH   1   3
HETATM    3  C1  UNL     1     -36.910  14.795  -4.620  1.00 20.00     0.045 C 
HETATM    4  C2  UNL     1     -38.162  14.517  -4.232  1.00 20.00    -0.027 C 
HETATM    5  C4  UNL     1     -39.319  15.428  -4.481  1.00 20.00     0.036 C 
ENDBRANCH   1   3
BRANCH   1   6
HETATM    6  C6  UNL     1     -34.522  14.476  -3.803  1.00 20.00     0.082 C 
BRANCH   6   7
HETATM    7  C7  UNL     1     -34.804  15.564  -2.770  1.00 20.00     0.003 C 
HETATM    8  C5  UNL     1     -33.598  16.467  -2.567  1.00 20.00     0.005 C 
ENDBRANCH   6   7
ENDBRANCH   1   6
TORSDOF 3
ENDMDL
MODEL 8
REMARK VINA RESULT:      -3.8     11.927     13.095
REMARK  3 active torsions:
REMARK  status: ('A' for Active; 'I' for Inactive)
REMARK    1  A    between atoms: C1_1  and  C3_3 
REMARK    2  A    between atoms: C3_3  and  C6_6 
REMARK    3  A    between atoms: C6_6  and  C7_7 
ROOT
HETATM    1  C3  UNL     1     -35.902  13.922  -4.767  1.00 20.00     0.149 C 
HETATM    2  O8  UNL     1     -35.880  12.717  -4.530  1.00 20.00    -0.293 OA
ENDROOT
BRANCH   1   3
HETATM    3  C1  UNL     1     -35.973  14.935  -3.675  1.00 20.00     0.045 C 
HETATM    4  C2  UNL     1     -34.877  15.284  -2.989  1.00 20.00    -0.027 C 
HETATM    5  C4  UNL     1     -34.885  16.293  -1.887  1.00 20.00     0.036 C 
ENDBRANCH   1   3
BRANCH   1   6
HETATM    6  C6  UNL     1     -35.858  14.486  -6.177  1.00 20.00     0.082 C 
BRANCH   6   7
HETATM    7  C7  UNL     1     -34.473  15.007  -6.552  1.00 20.00     0.003 C 
HETATM    8  C5  UNL     1     -34.466  16.519  -6.698  1.00 20.00     0.005 C 
ENDBRANCH   6   7
ENDBRANCH   1   6
TORSDOF 3
ENDMDL
MODEL 9
REMARK VINA RESULT:      -3.7     11.737     12.589
REMARK  3 active torsions:
REMARK  status: ('A' for Active; 'I' for Inactive)
REMARK    1  A    between atoms: C1_1  and  C3_3 
REMARK    2  A    between atoms: C3_3  and  C6_6 
REMARK    3  A    between atoms: C6_6  and  C7_7 
ROOT
HETATM    1  C3  UNL     1     -33.901  14.661  -4.548  1.00 20.00     0.149 C 
HETATM    2  O8  UNL     1     -33.599  14.558  -5.733  1.00 20.00    -0.293 OA
ENDROOT
BRANCH   1   3
HETATM    3  C1  UNL     1     -33.300  15.709  -3.673  1.00 20.00     0.045 C 
HETATM    4  C2  UNL     1     -34.006  16.260  -2.677  1.00 20.00    -0.027 C 
HETATM    5  C4  UNL     1     -33.459  17.312  -1.768  1.00 20.00     0.036 C 
ENDBRANCH   1   3
BRANCH   1   6
HETATM    6  C6  UNL     1     -34.905  13.744  -3.869  1.00 20.00     0.082 C 
BRANCH   6   7
HETATM    7  C7  UNL     1     -36.215  13.639  -4.646  1.00 20.00     0.003 C 
HETATM    8  C5  UNL     1     -37.200  14.718  -4.226  1.00 20.00     0.005 C 
ENDBRANCH   6   7
ENDBRANCH   1   6
TORSDOF 3
ENDMDL
