MODEL 1
REMARK VINA RESULT:      -3.6      0.000      0.000
REMARK  2 active torsions:
REMARK  status: ('A' for Active; 'I' for Inactive)
REMARK    1  A    between atoms: C1_1  and  C5_5 
REMARK    2  A    between atoms: C1_1  and  C6_6 
ROOT
HETATM    1  C1  UNL     1     -24.793  18.326  10.206  1.00 20.00     0.167 C 
HETATM    2  O7  UNL     1     -25.597  19.260  10.136  1.00 20.00    -0.294 OA
ENDROOT
BRANCH   1   3
HETATM    3  C5  UNL     1     -23.924  17.970   9.015  1.00 20.00     0.248 C 
HETATM    4 CL8  UNL     1     -22.321  18.675   9.272  1.00 20.00    -0.100 Cl
HETATM    5 CL9  UNL     1     -24.689  18.624   7.559  1.00 20.00    -0.100 Cl
ENDBRANCH   1   3
BRANCH   1   6
HETATM    6  C6  UNL     1     -24.645  17.492  11.496  1.00 20.00     0.012 C 
HETATM    7  C2  UNL     1     -25.933  17.601  12.332  1.00 20.00     0.022 C 
HETATM    8  C3  UNL     1     -24.418  16.018  11.138  1.00 20.00     0.022 C 
HETATM    9  C4  UNL     1     -23.476  18.030  12.331  1.00 20.00     0.022 C 
ENDBRANCH   1   6
TORSDOF 2
ENDMDL
MODEL 2
REMARK VINA RESULT:      -3.6      2.546      3.366
REMARK  2 active torsions:
REMARK  status: ('A' for Active; 'I' for Inactive)
REMARK    1  A    between atoms: C1_1  and  C5_5 
REMARK    2  A    between atoms: C1_1  and  C6_6 
ROOT
HETATM    1  C1  UNL     1     -24.598  18.375  10.450  1.00 20.00     0.167 C 
HETATM    2  O7  UNL     1     -25.257  18.897   9.546  1.00 20.00    -0.294 OA
ENDROOT
BRANCH   1   3
HETATM    3  C5  UNL     1     -25.192  18.209  11.835  1.00 20.00     0.248 C 
HETATM    4 CL8  UNL     1     -25.635  16.508  12.045  1.00 20.00    -0.100 Cl
HETATM    5 CL9  UNL     1     -26.609  19.263  11.957  1.00 20.00    -0.100 Cl
ENDBRANCH   1   3
BRANCH   1   6
HETATM    6  C6  UNL     1     -23.158  17.878  10.207  1.00 20.00     0.012 C 
HETATM    7  C2  UNL     1     -22.410  18.881   9.308  1.00 20.00     0.022 C 
HETATM    8  C3  UNL     1     -22.412  17.772  11.543  1.00 20.00     0.022 C 
HETATM    9  C4  UNL     1     -23.189  16.519   9.497  1.00 20.00     0.022 C 
ENDBRANCH   1   6
TORSDOF 2
ENDMDL
MODEL 3
REMARK VINA RESULT:      -3.5     17.562     18.457
REMARK  2 active torsions:
REMARK  status: ('A' for Active; 'I' for Inactive)
REMARK    1  A    between atoms: C1_1  and  C5_5 
REMARK    2  A    between atoms: C1_1  and  C6_6 
ROOT
HETATM    1  C1  UNL     1     -35.084  14.851  -4.104  1.00 20.00     0.167 C 
HETATM    2  O7  UNL     1     -34.642  13.709  -3.948  1.00 20.00    -0.294 OA
ENDROOT
BRANCH   1   3
HETATM    3  C5  UNL     1     -36.237  15.105  -5.056  1.00 20.00     0.248 C 
HETATM    4 CL8  UNL     1     -37.685  14.343  -4.384  1.00 20.00    -0.100 Cl
HETATM    5 CL9  UNL     1     -35.815  14.412  -6.630  1.00 20.00    -0.100 Cl
ENDBRANCH   1   3
BRANCH   1   6
HETATM    6  C6  UNL     1     -34.483  16.052  -3.345  1.00 20.00     0.012 C 
HETATM    7  C2  UNL     1     -34.890  17.362  -4.045  1.00 20.00     0.022 C 
HETATM    8  C3  UNL     1     -35.022  16.080  -1.908  1.00 20.00     0.022 C 
HETATM    9  C4  UNL     1     -32.952  15.956  -3.345  1.00 20.00     0.022 C 
ENDBRANCH   1   6
TORSDOF 2
ENDMDL
MODEL 4
REMARK VINA RESULT:      -3.5     17.562     18.460
REMARK  2 active torsions:
REMARK  status: ('A' for Active; 'I' for Inactive)
REMARK    1  A    between atoms: C1_1  and  C5_5 
REMARK    2  A    between atoms: C1_1  and  C6_6 
ROOT
HETATM    1  C1  UNL     1     -35.088  14.861  -4.117  1.00 20.00     0.167 C 
HETATM    2  O7  UNL     1     -34.644  13.721  -3.952  1.00 20.00    -0.294 OA
ENDROOT
BRANCH   1   3
HETATM    3  C5  UNL     1     -36.239  15.107  -5.073  1.00 20.00     0.248 C 
HETATM    4 CL8  UNL     1     -37.689  14.348  -4.398  1.00 20.00    -0.100 Cl
HETATM    5 CL9  UNL     1     -35.813  14.402  -6.640  1.00 20.00    -0.100 Cl
ENDBRANCH   1   3
BRANCH   1   6
HETATM    6  C6  UNL     1     -34.492  16.069  -3.363  1.00 20.00     0.012 C 
HETATM    7  C2  UNL     1     -35.012  16.079  -1.913  1.00 20.00     0.022 C 
HETATM    8  C3  UNL     1     -32.963  15.959  -3.332  1.00 20.00     0.022 C 
HETATM    9  C4  UNL     1     -34.927  17.373  -4.044  1.00 20.00     0.022 C 
ENDBRANCH   1   6
TORSDOF 2
ENDMDL
MODEL 5
REMARK VINA RESULT:      -3.5     16.957     18.071
REMARK  2 active torsions:
REMARK  status: ('A' for Active; 'I' for Inactive)
REMARK    1  A    between atoms: C1_1  and  C5_5 
REMARK    2  A    between atoms: C1_1  and  C6_6 
ROOT
HETATM    1  C1  UNL     1     -33.855  15.362  -4.469  1.00 20.00     0.167 C 
HETATM    2  O7  UNL     1     -32.934  14.552  -4.329  1.00 20.00    -0.294 OA
ENDROOT
BRANCH   1   3
HETATM    3  C5  UNL     1     -34.705  15.348  -5.725  1.00 20.00     0.248 C 
HETATM    4 CL8  UNL     1     -35.972  14.129  -5.520  1.00 20.00    -0.100 Cl
HETATM    5 CL9  UNL     1     -33.655  14.961  -7.097  1.00 20.00    -0.100 Cl
ENDBRANCH   1   3
BRANCH   1   6
HETATM    6  C6  UNL     1     -34.172  16.410  -3.383  1.00 20.00     0.012 C 
HETATM    7  C2  UNL     1     -34.904  17.607  -4.018  1.00 20.00     0.022 C 
HETATM    8  C3  UNL     1     -35.084  15.792  -2.315  1.00 20.00     0.022 C 
HETATM    9  C4  UNL     1     -32.869  16.917  -2.752  1.00 20.00     0.022 C 
ENDBRANCH   1   6
TORSDOF 2
ENDMDL
MODEL 6
REMARK VINA RESULT:      -3.5     16.954     18.091
REMARK  2 active torsions:
REMARK  status: ('A' for Active; 'I' for Inactive)
REMARK    1  A    between atoms: C1_1  and  C5_5 
REMARK    2  A    between atoms: C1_1  and  C6_6 
ROOT
HETATM    1  C1  UNL     1     -33.895  15.360  -4.450  1.00 20.00     0.167 C 
HETATM    2  O7  UNL     1     -32.980  14.545  -4.298  1.00 20.00    -0.294 OA
ENDROOT
BRANCH   1   3
HETATM    3  C5  UNL     1     -34.748  15.333  -5.703  1.00 20.00     0.248 C 
HETATM    4 CL8  UNL     1     -36.002  14.102  -5.491  1.00 20.00    -0.100 Cl
HETATM    5 CL9  UNL     1     -33.698  14.952  -7.076  1.00 20.00    -0.100 Cl
ENDBRANCH   1   3
BRANCH   1   6
HETATM    6  C6  UNL     1     -34.202  16.428  -3.379  1.00 20.00     0.012 C 
HETATM    7  C2  UNL     1     -35.103  15.820  -2.287  1.00 20.00     0.022 C 
HETATM    8  C3  UNL     1     -32.896  16.899  -2.726  1.00 20.00     0.022 C 
HETATM    9  C4  UNL     1     -34.942  17.609  -4.019  1.00 20.00     0.022 C 
ENDBRANCH   1   6
TORSDOF 2
ENDMDL
MODEL 7
REMARK VINA RESULT:      -3.4     16.302     17.568
REMARK  2 active torsions:
REMARK  status: ('A' for Active; 'I' for Inactive)
REMARK    1  A    between atoms: C1_1  and  C5_5 
REMARK    2  A    between atoms: C1_1  and  C6_6 
ROOT
HETATM    1  C1  UNL     1     -34.205  16.317  -3.886  1.00 20.00     0.167 C 
HETATM    2  O7  UNL     1     -34.625  17.333  -4.446  1.00 20.00    -0.294 OA
ENDROOT
BRANCH   1   3
HETATM    3  C5  UNL     1     -33.747  16.369  -2.442  1.00 20.00     0.248 C 
HETATM    4 CL8  UNL     1     -35.181  16.500  -1.413  1.00 20.00    -0.100 Cl
HETATM    5 CL9  UNL     1     -32.687  17.774  -2.250  1.00 20.00    -0.100 Cl
ENDBRANCH   1   3
BRANCH   1   6
HETATM    6  C6  UNL     1     -34.131  14.966  -4.629  1.00 20.00     0.012 C 
HETATM    7  C2  UNL     1     -34.330  15.196  -6.138  1.00 20.00     0.022 C 
HETATM    8  C3  UNL     1     -32.753  14.329  -4.411  1.00 20.00     0.022 C 
HETATM    9  C4  UNL     1     -35.242  14.035  -4.127  1.00 20.00     0.022 C 
ENDBRANCH   1   6
TORSDOF 2
ENDMDL
MODEL 8
REMARK VINA RESULT:      -3.4     17.649     18.741
REMARK  2 active torsions:
REMARK  status: ('A' for Active; 'I' for Inactive)
REMARK    1  A    between atoms: C1_1  and  C5_5 
REMARK    2  A    between atoms: C1_1  and  C6_6 
ROOT
HETATM    1  C1  UNL     1     -34.503  15.941  -5.223  1.00 20.00     0.167 C 
HETATM    2  O7  UNL     1     -34.421  17.172  -5.176  1.00 20.00    -0.294 OA
ENDROOT
BRANCH   1   3
HETATM    3  C5  UNL     1     -35.058  15.255  -6.456  1.00 20.00     0.248 C 
HETATM    4 CL8  UNL     1     -33.791  15.229  -7.691  1.00 20.00    -0.100 Cl
HETATM    5 CL9  UNL     1     -36.473  16.167  -7.003  1.00 20.00    -0.100 Cl
ENDBRANCH   1   3
BRANCH   1   6
HETATM    6  C6  UNL     1     -34.047  15.062  -4.040  1.00 20.00     0.012 C 
HETATM    7  C2  UNL     1     -34.991  13.854  -3.900  1.00 20.00     0.022 C 
HETATM    8  C3  UNL     1     -32.626  14.543  -4.295  1.00 20.00     0.022 C 
HETATM    9  C4  UNL     1     -34.099  15.873  -2.739  1.00 20.00     0.022 C 
ENDBRANCH   1   6
TORSDOF 2
ENDMDL
MODEL 9
REMARK VINA RESULT:      -3.4     17.680     18.841
REMARK  2 active torsions:
REMARK  status: ('A' for Active; 'I' for Inactive)
REMARK    1  A    between atoms: C1_1  and  C5_5 
REMARK    2  A    between atoms: C1_1  and  C6_6 
ROOT
HETATM    1  C1  UNL     1     -34.557  15.952  -5.239  1.00 20.00     0.167 C 
HETATM    2  O7  UNL     1     -34.449  17.180  -5.181  1.00 20.00    -0.294 OA
ENDROOT
BRANCH   1   3
HETATM    3  C5  UNL     1     -35.112  15.287  -6.484  1.00 20.00     0.248 C 
HETATM    4 CL8  UNL     1     -33.831  15.248  -7.706  1.00 20.00    -0.100 Cl
HETATM    5 CL9  UNL     1     -36.502  16.232  -7.039  1.00 20.00    -0.100 Cl
ENDBRANCH   1   3
BRANCH   1   6
HETATM    6  C6  UNL     1     -34.136  15.054  -4.057  1.00 20.00     0.012 C 
HETATM    7  C2  UNL     1     -32.715  14.512  -4.300  1.00 20.00     0.022 C 
HETATM    8  C3  UNL     1     -34.129  15.872  -2.759  1.00 20.00     0.022 C 
HETATM    9  C4  UNL     1     -35.096  13.864  -3.939  1.00 20.00     0.022 C 
ENDBRANCH   1   6
TORSDOF 2
ENDMDL
