MODEL 1
REMARK VINA RESULT:      -5.3      0.000      0.000
REMARK  2 active torsions:
REMARK  status: ('A' for Active; 'I' for Inactive)
REMARK    1  A    between atoms: C1_1  and  C2_2 
REMARK    2  A    between atoms: C1_1  and  C3_3 
ROOT
HETATM    1  C1  UNL     1     -33.766   6.191   4.007  1.00 20.00     0.234 C 
ENDROOT
BRANCH   1   2
HETATM    2  C2  UNL     1     -34.812   5.255   4.568  1.00 20.00     0.396 C 
HETATM    3  F4  UNL     1     -34.515   3.965   4.301  1.00 20.00    -0.171 F 
HETATM    4  F5  UNL     1     -34.893   5.386   5.910  1.00 20.00    -0.171 F 
HETATM    5  F6  UNL     1     -36.034   5.516   4.058  1.00 20.00    -0.171 F 
ENDBRANCH   1   2
BRANCH   1   6
HETATM    6  C3  UNL     1     -33.224   5.724   2.674  1.00 20.00     0.396 C 
HETATM    7  F7  UNL     1     -32.488   6.698   2.095  1.00 20.00    -0.171 F 
HETATM    8  F8  UNL     1     -34.220   5.402   1.823  1.00 20.00    -0.171 F 
HETATM    9  F9  UNL     1     -32.429   4.642   2.817  1.00 20.00    -0.171 F 
ENDBRANCH   1   6
TORSDOF 2
ENDMDL
MODEL 2
REMARK VINA RESULT:      -5.3      0.006      3.399
REMARK  2 active torsions:
REMARK  status: ('A' for Active; 'I' for Inactive)
REMARK    1  A    between atoms: C1_1  and  C2_2 
REMARK    2  A    between atoms: C1_1  and  C3_3 
ROOT
HETATM    1  C1  UNL     1     -33.765   6.191   4.009  1.00 20.00     0.234 C 
ENDROOT
BRANCH   1   2
HETATM    2  C2  UNL     1     -33.228   5.725   2.675  1.00 20.00     0.396 C 
HETATM    3  F4  UNL     1     -34.225   5.401   1.826  1.00 20.00    -0.171 F 
HETATM    4  F5  UNL     1     -32.495   6.699   2.093  1.00 20.00    -0.171 F 
HETATM    5  F6  UNL     1     -32.430   4.644   2.814  1.00 20.00    -0.171 F 
ENDBRANCH   1   2
BRANCH   1   6
HETATM    6  C3  UNL     1     -34.812   5.256   4.572  1.00 20.00     0.396 C 
HETATM    7  F7  UNL     1     -34.898   5.393   5.914  1.00 20.00    -0.171 F 
HETATM    8  F8  UNL     1     -34.512   3.966   4.311  1.00 20.00    -0.171 F 
HETATM    9  F9  UNL     1     -36.033   5.514   4.057  1.00 20.00    -0.171 F 
ENDBRANCH   1   6
TORSDOF 2
ENDMDL
MODEL 3
REMARK VINA RESULT:      -5.3      0.016      3.336
REMARK  2 active torsions:
REMARK  status: ('A' for Active; 'I' for Inactive)
REMARK    1  A    between atoms: C1_1  and  C2_2 
REMARK    2  A    between atoms: C1_1  and  C3_3 
ROOT
HETATM    1  C1  UNL     1     -33.770   6.201   4.018  1.00 20.00     0.234 C 
ENDROOT
BRANCH   1   2
HETATM    2  C2  UNL     1     -33.228   5.737   2.685  1.00 20.00     0.396 C 
HETATM    3  F4  UNL     1     -34.222   5.410   1.833  1.00 20.00    -0.171 F 
HETATM    4  F5  UNL     1     -32.497   6.715   2.105  1.00 20.00    -0.171 F 
HETATM    5  F6  UNL     1     -32.427   4.659   2.825  1.00 20.00    -0.171 F 
ENDBRANCH   1   2
BRANCH   1   6
HETATM    6  C3  UNL     1     -34.809   5.256   4.582  1.00 20.00     0.396 C 
HETATM    7  F7  UNL     1     -36.025   5.524   4.057  1.00 20.00    -0.171 F 
HETATM    8  F8  UNL     1     -34.907   5.375   5.922  1.00 20.00    -0.171 F 
HETATM    9  F9  UNL     1     -34.515   3.971   4.295  1.00 20.00    -0.171 F 
ENDBRANCH   1   6
TORSDOF 2
ENDMDL
MODEL 4
REMARK VINA RESULT:      -5.3      0.014      1.259
REMARK  2 active torsions:
REMARK  status: ('A' for Active; 'I' for Inactive)
REMARK    1  A    between atoms: C1_1  and  C2_2 
REMARK    2  A    between atoms: C1_1  and  C3_3 
ROOT
HETATM    1  C1  UNL     1     -33.771   6.191   4.018  1.00 20.00     0.234 C 
ENDROOT
BRANCH   1   2
HETATM    2  C2  UNL     1     -34.811   5.250   4.582  1.00 20.00     0.396 C 
HETATM    3  F4  UNL     1     -34.911   5.370   5.923  1.00 20.00    -0.171 F 
HETATM    4  F5  UNL     1     -36.027   5.518   4.056  1.00 20.00    -0.171 F 
HETATM    5  F6  UNL     1     -34.519   3.963   4.298  1.00 20.00    -0.171 F 
ENDBRANCH   1   2
BRANCH   1   6
HETATM    6  C3  UNL     1     -33.232   5.727   2.682  1.00 20.00     0.396 C 
HETATM    7  F7  UNL     1     -32.498   6.703   2.104  1.00 20.00    -0.171 F 
HETATM    8  F8  UNL     1     -34.230   5.408   1.832  1.00 20.00    -0.171 F 
HETATM    9  F9  UNL     1     -32.437   4.645   2.820  1.00 20.00    -0.171 F 
ENDBRANCH   1   6
TORSDOF 2
ENDMDL
MODEL 5
REMARK VINA RESULT:      -5.2      0.025      1.263
REMARK  2 active torsions:
REMARK  status: ('A' for Active; 'I' for Inactive)
REMARK    1  A    between atoms: C1_1  and  C2_2 
REMARK    2  A    between atoms: C1_1  and  C3_3 
ROOT
HETATM    1  C1  UNL     1     -33.782   6.214   4.017  1.00 20.00     0.234 C 
ENDROOT
BRANCH   1   2
HETATM    2  C2  UNL     1     -34.817   5.260   4.570  1.00 20.00     0.396 C 
HETATM    3  F4  UNL     1     -34.503   3.977   4.296  1.00 20.00    -0.171 F 
HETATM    4  F5  UNL     1     -34.904   5.383   5.912  1.00 20.00    -0.171 F 
HETATM    5  F6  UNL     1     -36.042   5.509   4.058  1.00 20.00    -0.171 F 
ENDBRANCH   1   2
BRANCH   1   6
HETATM    6  C3  UNL     1     -33.220   5.754   2.690  1.00 20.00     0.396 C 
HETATM    7  F7  UNL     1     -34.219   5.416   1.845  1.00 20.00    -0.171 F 
HETATM    8  F8  UNL     1     -32.426   4.673   2.839  1.00 20.00    -0.171 F 
HETATM    9  F9  UNL     1     -32.496   6.727   2.097  1.00 20.00    -0.171 F 
ENDBRANCH   1   6
TORSDOF 2
ENDMDL
MODEL 6
REMARK VINA RESULT:      -5.2      0.030      3.255
REMARK  2 active torsions:
REMARK  status: ('A' for Active; 'I' for Inactive)
REMARK    1  A    between atoms: C1_1  and  C2_2 
REMARK    2  A    between atoms: C1_1  and  C3_3 
ROOT
HETATM    1  C1  UNL     1     -33.781   6.209   4.020  1.00 20.00     0.234 C 
ENDROOT
BRANCH   1   2
HETATM    2  C2  UNL     1     -33.228   5.757   2.687  1.00 20.00     0.396 C 
HETATM    3  F4  UNL     1     -32.500   6.729   2.099  1.00 20.00    -0.171 F 
HETATM    4  F5  UNL     1     -32.424   4.683   2.848  1.00 20.00    -0.171 F 
HETATM    5  F6  UNL     1     -34.216   5.403   1.837  1.00 20.00    -0.171 F 
ENDBRANCH   1   2
BRANCH   1   6
HETATM    6  C3  UNL     1     -34.811   5.250   4.576  1.00 20.00     0.396 C 
HETATM    7  F7  UNL     1     -36.031   5.513   4.058  1.00 20.00    -0.171 F 
HETATM    8  F8  UNL     1     -34.906   5.353   5.918  1.00 20.00    -0.171 F 
HETATM    9  F9  UNL     1     -34.507   3.970   4.274  1.00 20.00    -0.171 F 
ENDBRANCH   1   6
TORSDOF 2
ENDMDL
MODEL 7
REMARK VINA RESULT:      -5.2      0.013      1.257
REMARK  2 active torsions:
REMARK  status: ('A' for Active; 'I' for Inactive)
REMARK    1  A    between atoms: C1_1  and  C2_2 
REMARK    2  A    between atoms: C1_1  and  C3_3 
ROOT
HETATM    1  C1  UNL     1     -33.759   6.190   4.019  1.00 20.00     0.234 C 
ENDROOT
BRANCH   1   2
HETATM    2  C2  UNL     1     -34.810   5.255   4.574  1.00 20.00     0.396 C 
HETATM    3  F4  UNL     1     -34.513   3.965   4.308  1.00 20.00    -0.171 F 
HETATM    4  F5  UNL     1     -34.900   5.386   5.915  1.00 20.00    -0.171 F 
HETATM    5  F6  UNL     1     -36.028   5.518   4.055  1.00 20.00    -0.171 F 
ENDBRANCH   1   2
BRANCH   1   6
HETATM    6  C3  UNL     1     -33.229   5.737   2.676  1.00 20.00     0.396 C 
HETATM    7  F7  UNL     1     -32.435   4.653   2.823  1.00 20.00    -0.171 F 
HETATM    8  F8  UNL     1     -32.496   6.703   2.084  1.00 20.00    -0.171 F 
HETATM    9  F9  UNL     1     -34.232   5.399   1.839  1.00 20.00    -0.171 F 
ENDBRANCH   1   6
TORSDOF 2
ENDMDL
MODEL 8
REMARK VINA RESULT:      -5.2      0.022      3.252
REMARK  2 active torsions:
REMARK  status: ('A' for Active; 'I' for Inactive)
REMARK    1  A    between atoms: C1_1  and  C2_2 
REMARK    2  A    between atoms: C1_1  and  C3_3 
ROOT
HETATM    1  C1  UNL     1     -33.782   6.212   4.011  1.00 20.00     0.234 C 
ENDROOT
BRANCH   1   2
HETATM    2  C2  UNL     1     -33.225   5.742   2.687  1.00 20.00     0.396 C 
HETATM    3  F4  UNL     1     -32.441   4.653   2.839  1.00 20.00    -0.171 F 
HETATM    4  F5  UNL     1     -34.226   5.411   1.843  1.00 20.00    -0.171 F 
HETATM    5  F6  UNL     1     -32.490   6.705   2.090  1.00 20.00    -0.171 F 
ENDBRANCH   1   2
BRANCH   1   6
HETATM    6  C3  UNL     1     -34.817   5.263   4.575  1.00 20.00     0.396 C 
HETATM    7  F7  UNL     1     -34.493   3.983   4.285  1.00 20.00    -0.171 F 
HETATM    8  F8  UNL     1     -36.040   5.503   4.057  1.00 20.00    -0.171 F 
HETATM    9  F9  UNL     1     -34.902   5.367   5.918  1.00 20.00    -0.171 F 
ENDBRANCH   1   6
TORSDOF 2
ENDMDL
MODEL 9
REMARK VINA RESULT:      -5.0      1.392      2.431
REMARK  2 active torsions:
REMARK  status: ('A' for Active; 'I' for Inactive)
REMARK    1  A    between atoms: C1_1  and  C2_2 
REMARK    2  A    between atoms: C1_1  and  C3_3 
ROOT
HETATM    1  C1  UNL     1     -33.988   6.410   4.471  1.00 20.00     0.234 C 
ENDROOT
BRANCH   1   2
HETATM    2  C2  UNL     1     -34.125   6.511   5.973  1.00 20.00     0.396 C 
HETATM    3  F4  UNL     1     -33.028   6.039   6.603  1.00 20.00    -0.171 F 
HETATM    4  F5  UNL     1     -34.289   7.799   6.348  1.00 20.00    -0.171 F 
HETATM    5  F6  UNL     1     -35.193   5.817   6.420  1.00 20.00    -0.171 F 
ENDBRANCH   1   2
BRANCH   1   6
HETATM    6  C3  UNL     1     -34.587   5.135   3.918  1.00 20.00     0.396 C 
HETATM    7  F7  UNL     1     -34.136   4.904   2.666  1.00 20.00    -0.171 F 
HETATM    8  F8  UNL     1     -35.934   5.208   3.861  1.00 20.00    -0.171 F 
HETATM    9  F9  UNL     1     -34.258   4.067   4.674  1.00 20.00    -0.171 F 
ENDBRANCH   1   6
TORSDOF 2
ENDMDL
