MODEL 1
REMARK VINA RESULT:      -5.0      0.000      0.000
REMARK  0 active torsions:
REMARK  status: ('A' for Active; 'I' for Inactive)
ROOT
HETATM    1  C1  UNL     1     -32.851   5.774   2.338  1.00 20.00     0.003 C 
HETATM    2  C2  UNL     1     -33.431   4.571   2.418  1.00 20.00    -0.025 C 
HETATM    3  C3  UNL     1     -32.818   6.686   3.471  1.00 20.00    -0.059 C 
HETATM    4  C4  UNL     1     -33.644   6.501   4.529  1.00 20.00    -0.070 C 
HETATM    5  C5  UNL     1     -34.094   4.117   3.680  1.00 20.00     0.040 C 
HETATM    6  C6  UNL     1     -34.604   5.288   4.575  1.00 20.00    -0.021 C 
HETATM    7  C7  UNL     1     -31.822   7.805   3.320  1.00 20.00     0.048 C 
HETATM    8  C8  UNL     1     -33.726   7.470   5.684  1.00 20.00     0.044 C 
HETATM    9  C9  UNL     1     -35.990   5.744   4.067  1.00 20.00     0.020 C 
HETATM   10  C10 UNL     1     -34.769   4.721   6.001  1.00 20.00     0.020 C 
ENDROOT
TORSDOF 0
ENDMDL
MODEL 2
REMARK VINA RESULT:      -4.1     12.075     13.081
REMARK  0 active torsions:
REMARK  status: ('A' for Active; 'I' for Inactive)
ROOT
HETATM    1  C1  UNL     1     -32.180  18.720   0.040  1.00 20.00     0.003 C 
HETATM    2  C2  UNL     1     -31.905  18.343  -1.214  1.00 20.00    -0.025 C 
HETATM    3  C3  UNL     1     -33.372  18.261   0.735  1.00 20.00    -0.059 C 
HETATM    4  C4  UNL     1     -34.403  17.713   0.047  1.00 20.00    -0.070 C 
HETATM    5  C5  UNL     1     -32.830  17.440  -1.968  1.00 20.00     0.040 C 
HETATM    6  C6  UNL     1     -34.311  17.519  -1.486  1.00 20.00    -0.021 C 
HETATM    7  C7  UNL     1     -33.326  18.475   2.225  1.00 20.00     0.048 C 
HETATM    8  C8  UNL     1     -35.703  17.313   0.701  1.00 20.00     0.044 C 
HETATM    9  C9  UNL     1     -35.001  18.720  -2.170  1.00 20.00     0.020 C 
HETATM   10  C10 UNL     1     -35.005  16.224  -1.958  1.00 20.00     0.020 C 
ENDROOT
TORSDOF 0
ENDMDL
MODEL 3
REMARK VINA RESULT:      -4.1     11.730     13.262
REMARK  0 active torsions:
REMARK  status: ('A' for Active; 'I' for Inactive)
ROOT
HETATM    1  C1  UNL     1     -36.660  14.587  -5.041  1.00 20.00     0.003 C 
HETATM    2  C2  UNL     1     -35.867  13.740  -4.375  1.00 20.00    -0.025 C 
HETATM    3  C3  UNL     1     -36.285  15.974  -5.264  1.00 20.00    -0.059 C 
HETATM    4  C4  UNL     1     -35.294  16.546  -4.538  1.00 20.00    -0.070 C 
HETATM    5  C5  UNL     1     -34.557  14.193  -3.810  1.00 20.00     0.040 C 
HETATM    6  C6  UNL     1     -34.508  15.719  -3.492  1.00 20.00    -0.021 C 
HETATM    7  C7  UNL     1     -37.101  16.658  -6.328  1.00 20.00     0.048 C 
HETATM    8  C8  UNL     1     -34.931  18.007  -4.655  1.00 20.00     0.044 C 
HETATM    9  C9  UNL     1     -35.140  15.966  -2.103  1.00 20.00     0.020 C 
HETATM   10  C10 UNL     1     -33.018  16.115  -3.427  1.00 20.00     0.020 C 
ENDROOT
TORSDOF 0
ENDMDL
MODEL 4
REMARK VINA RESULT:      -4.1     12.283     13.088
REMARK  0 active torsions:
REMARK  status: ('A' for Active; 'I' for Inactive)
ROOT
HETATM    1  C1  UNL     1     -33.451  16.150  -2.788  1.00 20.00     0.003 C 
HETATM    2  C2  UNL     1     -32.866  15.457  -3.772  1.00 20.00    -0.025 C 
HETATM    3  C3  UNL     1     -34.897  16.260  -2.681  1.00 20.00    -0.059 C 
HETATM    4  C4  UNL     1     -35.691  15.953  -3.736  1.00 20.00    -0.070 C 
HETATM    5  C5  UNL     1     -33.683  14.775  -4.825  1.00 20.00     0.040 C 
HETATM    6  C6  UNL     1     -35.077  15.433  -5.058  1.00 20.00    -0.021 C 
HETATM    7  C7  UNL     1     -35.371  16.746  -1.338  1.00 20.00     0.048 C 
HETATM    8  C8  UNL     1     -37.188  16.145  -3.717  1.00 20.00     0.044 C 
HETATM    9  C9  UNL     1     -34.916  16.628  -6.024  1.00 20.00     0.020 C 
HETATM   10  C10 UNL     1     -35.964  14.370  -5.741  1.00 20.00     0.020 C 
ENDROOT
TORSDOF 0
ENDMDL
MODEL 5
REMARK VINA RESULT:      -4.0     11.590     12.698
REMARK  0 active torsions:
REMARK  status: ('A' for Active; 'I' for Inactive)
ROOT
HETATM    1  C1  UNL     1     -34.314  14.803  -3.440  1.00 20.00     0.003 C 
HETATM    2  C2  UNL     1     -34.853  13.796  -4.138  1.00 20.00    -0.025 C 
HETATM    3  C3  UNL     1     -35.121  15.899  -2.928  1.00 20.00    -0.059 C 
HETATM    4  C4  UNL     1     -36.370  16.118  -3.407  1.00 20.00    -0.070 C 
HETATM    5  C5  UNL     1     -36.318  13.765  -4.440  1.00 20.00     0.040 C 
HETATM    6  C6  UNL     1     -36.980  15.176  -4.473  1.00 20.00    -0.021 C 
HETATM    7  C7  UNL     1     -34.428  16.721  -1.874  1.00 20.00     0.048 C 
HETATM    8  C8  UNL     1     -37.213  17.298  -2.987  1.00 20.00     0.044 C 
HETATM    9  C9  UNL     1     -36.755  15.807  -5.865  1.00 20.00     0.020 C 
HETATM   10  C10 UNL     1     -38.496  14.964  -4.273  1.00 20.00     0.020 C 
ENDROOT
TORSDOF 0
ENDMDL
MODEL 6
REMARK VINA RESULT:      -4.0     12.171     12.928
REMARK  0 active torsions:
REMARK  status: ('A' for Active; 'I' for Inactive)
ROOT
HETATM    1  C1  UNL     1     -32.798  17.417  -2.047  1.00 20.00     0.003 C 
HETATM    2  C2  UNL     1     -33.926  16.756  -2.331  1.00 20.00    -0.025 C 
HETATM    3  C3  UNL     1     -32.593  18.069  -0.763  1.00 20.00    -0.059 C 
HETATM    4  C4  UNL     1     -33.641  18.315   0.060  1.00 20.00    -0.070 C 
HETATM    5  C5  UNL     1     -35.042  16.674  -1.337  1.00 20.00     0.040 C 
HETATM    6  C6  UNL     1     -35.069  17.863  -0.328  1.00 20.00    -0.021 C 
HETATM    7  C7  UNL     1     -31.157  18.430  -0.489  1.00 20.00     0.048 C 
HETATM    8  C8  UNL     1     -33.503  19.077   1.356  1.00 20.00     0.044 C 
HETATM    9  C9  UNL     1     -35.799  19.060  -0.978  1.00 20.00     0.020 C 
HETATM   10  C10 UNL     1     -35.891  17.395   0.892  1.00 20.00     0.020 C 
ENDROOT
TORSDOF 0
ENDMDL
MODEL 7
REMARK VINA RESULT:      -4.0     12.137     12.775
REMARK  0 active torsions:
REMARK  status: ('A' for Active; 'I' for Inactive)
ROOT
HETATM    1  C1  UNL     1     -33.002  15.847  -3.395  1.00 20.00     0.003 C 
HETATM    2  C2  UNL     1     -33.234  14.801  -4.195  1.00 20.00    -0.025 C 
HETATM    3  C3  UNL     1     -34.082  16.552  -2.722  1.00 20.00    -0.059 C 
HETATM    4  C4  UNL     1     -35.365  16.396  -3.129  1.00 20.00    -0.070 C 
HETATM    5  C5  UNL     1     -34.627  14.319  -4.451  1.00 20.00     0.040 C 
HETATM    6  C6  UNL     1     -35.712  15.427  -4.284  1.00 20.00    -0.021 C 
HETATM    7  C7  UNL     1     -33.619  17.438  -1.596  1.00 20.00     0.048 C 
HETATM    8  C8  UNL     1     -36.513  17.178  -2.536  1.00 20.00     0.044 C 
HETATM    9  C9  UNL     1     -35.805  16.244  -5.593  1.00 20.00     0.020 C 
HETATM   10  C10 UNL     1     -37.059  14.705  -4.063  1.00 20.00     0.020 C 
ENDROOT
TORSDOF 0
ENDMDL
MODEL 8
REMARK VINA RESULT:      -4.0     11.884     13.006
REMARK  0 active torsions:
REMARK  status: ('A' for Active; 'I' for Inactive)
ROOT
HETATM    1  C1  UNL     1     -34.038  14.382  -4.074  1.00 20.00     0.003 C 
HETATM    2  C2  UNL     1     -33.071  15.262  -3.789  1.00 20.00    -0.025 C 
HETATM    3  C3  UNL     1     -35.435  14.780  -4.162  1.00 20.00    -0.059 C 
HETATM    4  C4  UNL     1     -35.849  15.962  -3.644  1.00 20.00    -0.070 C 
HETATM    5  C5  UNL     1     -33.390  16.700  -3.528  1.00 20.00     0.040 C 
HETATM    6  C6  UNL     1     -34.836  16.933  -2.992  1.00 20.00    -0.021 C 
HETATM    7  C7  UNL     1     -36.312  13.765  -4.845  1.00 20.00     0.048 C 
HETATM    8  C8  UNL     1     -37.300  16.380  -3.615  1.00 20.00     0.044 C 
HETATM    9  C9  UNL     1     -34.852  16.701  -1.465  1.00 20.00     0.020 C 
HETATM   10  C10 UNL     1     -35.181  18.413  -3.265  1.00 20.00     0.020 C 
ENDROOT
TORSDOF 0
ENDMDL
MODEL 9
REMARK VINA RESULT:      -4.0     11.912     13.092
REMARK  0 active torsions:
REMARK  status: ('A' for Active; 'I' for Inactive)
ROOT
HETATM    1  C1  UNL     1     -35.924  16.770  -2.778  1.00 20.00     0.003 C 
HETATM    2  C2  UNL     1     -36.939  16.715  -3.647  1.00 20.00    -0.025 C 
HETATM    3  C3  UNL     1     -34.615  16.217  -3.090  1.00 20.00    -0.059 C 
HETATM    4  C4  UNL     1     -34.462  15.347  -4.117  1.00 20.00    -0.070 C 
HETATM    5  C5  UNL     1     -36.775  16.059  -4.982  1.00 20.00     0.040 C 
HETATM    6  C6  UNL     1     -35.667  14.962  -5.009  1.00 20.00    -0.021 C 
HETATM    7  C7  UNL     1     -33.522  16.693  -2.171  1.00 20.00     0.048 C 
HETATM    8  C8  UNL     1     -33.151  14.664  -4.423  1.00 20.00     0.044 C 
HETATM    9  C9  UNL     1     -36.258  13.635  -4.482  1.00 20.00     0.020 C 
HETATM   10  C10 UNL     1     -35.267  14.765  -6.487  1.00 20.00     0.020 C 
ENDROOT
TORSDOF 0
ENDMDL
