MODEL 1
REMARK VINA RESULT:      -4.4      0.000      0.000
REMARK  3 active torsions:
REMARK  status: ('A' for Active; 'I' for Inactive)
REMARK    1  A    between atoms: C2_2  and  C7_7 
REMARK    2  A    between atoms: C5_5  and  C6_6 
REMARK    3  A    between atoms: C6_6  and  C7_7 
ROOT
HETATM    1  C4  UNL     1     -33.228   4.806   2.317  1.00 20.00     0.012 C 
HETATM    2  C7  UNL     1     -33.247   5.780   3.496  1.00 20.00     0.012 C 
ENDROOT
BRANCH   2   3
HETATM    3  C2  UNL     1     -34.621   5.746   4.171  1.00 20.00     0.149 A 
HETATM    4  C1  UNL     1     -34.770   5.344   5.611  1.00 20.00     0.200 A 
HETATM    5  O8  UNL     1     -35.071   4.438   4.537  1.00 20.00    -0.381 OA
ENDBRANCH   2   3
BRANCH   2   6
HETATM    6  C6  UNL     1     -32.910   7.222   3.072  1.00 20.00     0.006 C 
BRANCH   6   7
HETATM    7  C5  UNL     1     -32.391   7.330   1.636  1.00 20.00    -0.004 C 
HETATM    8  C3  UNL     1     -32.852   8.621   0.977  1.00 20.00     0.005 C 
ENDBRANCH   6   7
ENDBRANCH   2   6
TORSDOF 3
ENDMDL
MODEL 2
REMARK VINA RESULT:      -4.1      2.044      4.148
REMARK  3 active torsions:
REMARK  status: ('A' for Active; 'I' for Inactive)
REMARK    1  A    between atoms: C2_2  and  C7_7 
REMARK    2  A    between atoms: C5_5  and  C6_6 
REMARK    3  A    between atoms: C6_6  and  C7_7 
ROOT
HETATM    1  C4  UNL     1     -32.993   4.892   2.464  1.00 20.00     0.012 C 
HETATM    2  C7  UNL     1     -33.535   6.300   2.712  1.00 20.00     0.012 C 
ENDROOT
BRANCH   2   3
HETATM    3  C2  UNL     1     -32.472   7.335   2.334  1.00 20.00     0.149 A 
HETATM    4  C1  UNL     1     -32.774   8.441   1.362  1.00 20.00     0.200 A 
HETATM    5  O8  UNL     1     -32.036   7.270   0.973  1.00 20.00    -0.381 OA
ENDBRANCH   2   3
BRANCH   2   6
HETATM    6  C6  UNL     1     -33.974   6.512   4.172  1.00 20.00     0.006 C 
BRANCH   6   7
HETATM    7  C5  UNL     1     -35.003   5.486   4.654  1.00 20.00    -0.004 C 
HETATM    8  C3  UNL     1     -34.775   5.115   6.111  1.00 20.00     0.005 C 
ENDBRANCH   6   7
ENDBRANCH   2   6
TORSDOF 3
ENDMDL
MODEL 3
REMARK VINA RESULT:      -3.8      1.046      1.612
REMARK  3 active torsions:
REMARK  status: ('A' for Active; 'I' for Inactive)
REMARK    1  A    between atoms: C2_2  and  C7_7 
REMARK    2  A    between atoms: C5_5  and  C6_6 
REMARK    3  A    between atoms: C6_6  and  C7_7 
ROOT
HETATM    1  C4  UNL     1     -33.392   7.120   5.353  1.00 20.00     0.012 C 
HETATM    2  C7  UNL     1     -34.155   6.613   4.128  1.00 20.00     0.012 C 
ENDROOT
BRANCH   2   3
HETATM    3  C2  UNL     1     -35.091   5.473   4.539  1.00 20.00     0.149 A 
HETATM    4  C1  UNL     1     -34.818   4.646   5.764  1.00 20.00     0.200 A 
HETATM    5  O8  UNL     1     -34.515   4.167   4.444  1.00 20.00    -0.381 OA
ENDBRANCH   2   3
BRANCH   2   6
HETATM    6  C6  UNL     1     -33.214   6.137   3.006  1.00 20.00     0.006 C 
BRANCH   6   7
HETATM    7  C5  UNL     1     -32.169   7.180   2.604  1.00 20.00    -0.004 C 
HETATM    8  C3  UNL     1     -32.603   7.952   1.367  1.00 20.00     0.005 C 
ENDBRANCH   6   7
ENDBRANCH   2   6
TORSDOF 3
ENDMDL
MODEL 4
REMARK VINA RESULT:      -3.7     11.269     11.773
REMARK  3 active torsions:
REMARK  status: ('A' for Active; 'I' for Inactive)
REMARK    1  A    between atoms: C2_2  and  C7_7 
REMARK    2  A    between atoms: C5_5  and  C6_6 
REMARK    3  A    between atoms: C6_6  and  C7_7 
ROOT
HETATM    1  C4  UNL     1     -33.225  14.432  -4.479  1.00 20.00     0.012 C 
HETATM    2  C7  UNL     1     -34.533  14.605  -3.707  1.00 20.00     0.012 C 
ENDROOT
BRANCH   2   3
HETATM    3  C2  UNL     1     -35.683  14.848  -4.689  1.00 20.00     0.149 A 
HETATM    4  C1  UNL     1     -37.005  14.153  -4.526  1.00 20.00     0.200 A 
HETATM    5  O8  UNL     1     -36.032  13.714  -5.488  1.00 20.00    -0.381 OA
ENDBRANCH   2   3
BRANCH   2   6
HETATM    6  C6  UNL     1     -34.466  15.756  -2.687  1.00 20.00     0.006 C 
BRANCH   6   7
HETATM    7  C5  UNL     1     -33.204  16.613  -2.817  1.00 20.00    -0.004 C 
HETATM    8  C3  UNL     1     -33.104  17.625  -1.686  1.00 20.00     0.005 C 
ENDBRANCH   6   7
ENDBRANCH   2   6
TORSDOF 3
ENDMDL
MODEL 5
REMARK VINA RESULT:      -3.7     16.086     17.085
REMARK  3 active torsions:
REMARK  status: ('A' for Active; 'I' for Inactive)
REMARK    1  A    between atoms: C2_2  and  C7_7 
REMARK    2  A    between atoms: C5_5  and  C6_6 
REMARK    3  A    between atoms: C6_6  and  C7_7 
ROOT
HETATM    1  C4  UNL     1     -24.310  19.263   8.908  1.00 20.00     0.012 C 
HETATM    2  C7  UNL     1     -23.140  18.439   9.447  1.00 20.00     0.012 C 
ENDROOT
BRANCH   2   3
HETATM    3  C2  UNL     1     -22.719  17.399   8.406  1.00 20.00     0.149 A 
HETATM    4  C1  UNL     1     -21.293  17.292   7.945  1.00 20.00     0.200 A 
HETATM    5  O8  UNL     1     -22.298  17.947   7.154  1.00 20.00    -0.381 OA
ENDBRANCH   2   3
BRANCH   2   6
HETATM    6  C6  UNL     1     -23.477  17.740  10.777  1.00 20.00     0.006 C 
BRANCH   6   7
HETATM    7  C5  UNL     1     -24.188  16.397  10.597  1.00 20.00    -0.004 C 
HETATM    8  C3  UNL     1     -24.677  15.846  11.928  1.00 20.00     0.005 C 
ENDBRANCH   6   7
ENDBRANCH   2   6
TORSDOF 3
ENDMDL
MODEL 6
REMARK VINA RESULT:      -3.6      1.169      1.799
REMARK  3 active torsions:
REMARK  status: ('A' for Active; 'I' for Inactive)
REMARK    1  A    between atoms: C2_2  and  C7_7 
REMARK    2  A    between atoms: C5_5  and  C6_6 
REMARK    3  A    between atoms: C6_6  and  C7_7 
ROOT
HETATM    1  C4  UNL     1     -33.584   6.992   5.967  1.00 20.00     0.012 C 
HETATM    2  C7  UNL     1     -33.784   6.918   4.452  1.00 20.00     0.012 C 
ENDROOT
BRANCH   2   3
HETATM    3  C2  UNL     1     -34.234   5.509   4.060  1.00 20.00     0.149 A 
HETATM    4  C1  UNL     1     -35.670   5.084   4.198  1.00 20.00     0.200 A 
HETATM    5  O8  UNL     1     -34.670   4.697   5.155  1.00 20.00    -0.381 OA
ENDBRANCH   2   3
BRANCH   2   6
HETATM    6  C6  UNL     1     -32.511   7.296   3.673  1.00 20.00     0.006 C 
BRANCH   6   7
HETATM    7  C5  UNL     1     -32.558   6.891   2.197  1.00 20.00    -0.004 C 
HETATM    8  C3  UNL     1     -32.602   8.112   1.290  1.00 20.00     0.005 C 
ENDBRANCH   6   7
ENDBRANCH   2   6
TORSDOF 3
ENDMDL
MODEL 7
REMARK VINA RESULT:      -3.6     11.312     11.706
REMARK  3 active torsions:
REMARK  status: ('A' for Active; 'I' for Inactive)
REMARK    1  A    between atoms: C2_2  and  C7_7 
REMARK    2  A    between atoms: C5_5  and  C6_6 
REMARK    3  A    between atoms: C6_6  and  C7_7 
ROOT
HETATM    1  C4  UNL     1     -32.977  14.424  -4.487  1.00 20.00     0.012 C 
HETATM    2  C7  UNL     1     -34.227  14.719  -3.657  1.00 20.00     0.012 C 
ENDROOT
BRANCH   2   3
HETATM    3  C2  UNL     1     -35.431  14.903  -4.584  1.00 20.00     0.149 A 
HETATM    4  C1  UNL     1     -36.600  13.959  -4.538  1.00 20.00     0.200 A 
HETATM    5  O8  UNL     1     -35.593  13.869  -5.560  1.00 20.00    -0.381 OA
ENDBRANCH   2   3
BRANCH   2   6
HETATM    6  C6  UNL     1     -34.060  15.964  -2.765  1.00 20.00     0.006 C 
BRANCH   6   7
HETATM    7  C5  UNL     1     -35.251  16.213  -1.837  1.00 20.00    -0.004 C 
HETATM    8  C3  UNL     1     -34.912  17.238  -0.765  1.00 20.00     0.005 C 
ENDBRANCH   6   7
ENDBRANCH   2   6
TORSDOF 3
ENDMDL
MODEL 8
REMARK VINA RESULT:      -3.6     15.881     16.821
REMARK  3 active torsions:
REMARK  status: ('A' for Active; 'I' for Inactive)
REMARK    1  A    between atoms: C2_2  and  C7_7 
REMARK    2  A    between atoms: C5_5  and  C6_6 
REMARK    3  A    between atoms: C6_6  and  C7_7 
ROOT
HETATM    1  C4  UNL     1     -22.240  17.174   8.754  1.00 20.00     0.012 C 
HETATM    2  C7  UNL     1     -23.636  17.681   9.116  1.00 20.00     0.012 C 
ENDROOT
BRANCH   2   3
HETATM    3  C2  UNL     1     -23.955  18.939   8.303  1.00 20.00     0.149 A 
HETATM    4  C1  UNL     1     -25.126  18.981   7.362  1.00 20.00     0.200 A 
HETATM    5  O8  UNL     1     -23.781  18.794   6.891  1.00 20.00    -0.381 OA
ENDBRANCH   2   3
BRANCH   2   6
HETATM    6  C6  UNL     1     -23.781  17.980  10.619  1.00 20.00     0.006 C 
BRANCH   6   7
HETATM    7  C5  UNL     1     -23.449  16.783  11.514  1.00 20.00    -0.004 C 
HETATM    8  C3  UNL     1     -24.645  15.855  11.664  1.00 20.00     0.005 C 
ENDBRANCH   6   7
ENDBRANCH   2   6
TORSDOF 3
ENDMDL
MODEL 9
REMARK VINA RESULT:      -3.5      2.418      4.423
REMARK  3 active torsions:
REMARK  status: ('A' for Active; 'I' for Inactive)
REMARK    1  A    between atoms: C2_2  and  C7_7 
REMARK    2  A    between atoms: C5_5  and  C6_6 
REMARK    3  A    between atoms: C6_6  and  C7_7 
ROOT
HETATM    1  C4  UNL     1     -31.775   7.695   3.421  1.00 20.00     0.012 C 
HETATM    2  C7  UNL     1     -32.437   6.995   2.233  1.00 20.00     0.012 C 
ENDROOT
BRANCH   2   3
HETATM    3  C2  UNL     1     -33.279   8.002   1.445  1.00 20.00     0.149 A 
HETATM    4  C1  UNL     1     -32.931   8.366   0.029  1.00 20.00     0.200 A 
HETATM    5  O8  UNL     1     -32.605   9.226   1.134  1.00 20.00    -0.381 OA
ENDBRANCH   2   3
BRANCH   2   6
HETATM    6  C6  UNL     1     -33.315   5.807   2.666  1.00 20.00     0.006 C 
BRANCH   6   7
HETATM    7  C5  UNL     1     -34.088   6.061   3.963  1.00 20.00    -0.004 C 
HETATM    8  C3  UNL     1     -34.831   4.813   4.418  1.00 20.00     0.005 C 
ENDBRANCH   6   7
ENDBRANCH   2   6
TORSDOF 3
ENDMDL
