MODEL 1
REMARK VINA RESULT:      -4.7      0.000      0.000
REMARK  0 active torsions:
REMARK  status: ('A' for Active; 'I' for Inactive)
ROOT
HETATM    1  C1  UNL     1     -34.869  15.283  -3.523  1.00 20.00    -0.011 C 
HETATM    2  C2  UNL     1     -35.319  13.965  -4.062  1.00 20.00     0.155 C 
HETATM    3  C3  UNL     1     -33.562  15.573  -3.572  1.00 20.00    -0.078 C 
HETATM    4  C4  UNL     1     -35.917  16.211  -2.988  1.00 20.00     0.042 C 
HETATM    5  C5  UNL     1     -36.656  13.937  -4.772  1.00 20.00     0.083 C 
HETATM    6  C6  UNL     1     -37.155  16.241  -3.879  1.00 20.00     0.005 C 
HETATM    7  C7  UNL     1     -37.693  14.832  -4.105  1.00 20.00     0.008 C 
HETATM    8  C8  UNL     1     -33.015  16.872  -3.055  1.00 20.00     0.043 C 
HETATM    9  C9  UNL     1     -32.557  14.617  -4.147  1.00 20.00     0.043 C 
HETATM   10  O10 UNL     1     -34.605  12.966  -4.000  1.00 20.00    -0.293 OA
ENDROOT
TORSDOF 0
ENDMDL
MODEL 2
REMARK VINA RESULT:      -4.4      1.631      2.253
REMARK  0 active torsions:
REMARK  status: ('A' for Active; 'I' for Inactive)
ROOT
HETATM    1  C1  UNL     1     -34.795  15.462  -3.496  1.00 20.00    -0.011 C 
HETATM    2  C2  UNL     1     -33.807  15.083  -4.550  1.00 20.00     0.155 C 
HETATM    3  C3  UNL     1     -34.382  16.249  -2.495  1.00 20.00    -0.078 C 
HETATM    4  C4  UNL     1     -36.198  14.958  -3.646  1.00 20.00     0.042 C 
HETATM    5  C5  UNL     1     -34.326  14.975  -5.967  1.00 20.00     0.083 C 
HETATM    6  C6  UNL     1     -36.687  15.060  -5.088  1.00 20.00     0.005 C 
HETATM    7  C7  UNL     1     -35.718  14.362  -6.037  1.00 20.00     0.008 C 
HETATM    8  C8  UNL     1     -35.302  16.682  -1.391  1.00 20.00     0.043 C 
HETATM    9  C9  UNL     1     -32.969  16.751  -2.410  1.00 20.00     0.043 C 
HETATM   10  O10 UNL     1     -32.613  14.941  -4.292  1.00 20.00    -0.293 OA
ENDROOT
TORSDOF 0
ENDMDL
MODEL 3
REMARK VINA RESULT:      -4.4     16.319     18.028
REMARK  0 active torsions:
REMARK  status: ('A' for Active; 'I' for Inactive)
ROOT
HETATM    1  C1  UNL     1     -23.817  18.102  10.194  1.00 20.00    -0.011 C 
HETATM    2  C2  UNL     1     -23.910  18.298   8.717  1.00 20.00     0.155 C 
HETATM    3  C3  UNL     1     -22.604  17.927  10.734  1.00 20.00    -0.078 C 
HETATM    4  C4  UNL     1     -25.091  18.141  10.983  1.00 20.00     0.042 C 
HETATM    5  C5  UNL     1     -24.969  19.259   8.220  1.00 20.00     0.083 C 
HETATM    6  C6  UNL     1     -26.013  19.263  10.515  1.00 20.00     0.005 C 
HETATM    7  C7  UNL     1     -26.265  19.165   9.014  1.00 20.00     0.008 C 
HETATM    8  C8  UNL     1     -22.411  17.723  12.209  1.00 20.00     0.043 C 
HETATM    9  C9  UNL     1     -21.356  17.927   9.900  1.00 20.00     0.043 C 
HETATM   10  O10 UNL     1     -23.115  17.765   7.945  1.00 20.00    -0.293 OA
ENDROOT
TORSDOF 0
ENDMDL
MODEL 4
REMARK VINA RESULT:      -4.4      3.740      5.787
REMARK  0 active torsions:
REMARK  status: ('A' for Active; 'I' for Inactive)
ROOT
HETATM    1  C1  UNL     1     -33.453  17.828  -0.991  1.00 20.00    -0.011 C 
HETATM    2  C2  UNL     1     -32.173  18.574  -1.177  1.00 20.00     0.155 C 
HETATM    3  C3  UNL     1     -33.833  16.973  -1.948  1.00 20.00    -0.078 C 
HETATM    4  C4  UNL     1     -34.218  18.066   0.276  1.00 20.00     0.042 C 
HETATM    5  C5  UNL     1     -31.342  18.828   0.062  1.00 20.00     0.083 C 
HETATM    6  C6  UNL     1     -33.297  18.128   1.491  1.00 20.00     0.005 C 
HETATM    7  C7  UNL     1     -32.193  19.159   1.281  1.00 20.00     0.008 C 
HETATM    8  C8  UNL     1     -35.103  16.179  -1.849  1.00 20.00     0.043 C 
HETATM    9  C9  UNL     1     -33.011  16.750  -3.185  1.00 20.00     0.043 C 
HETATM   10  O10 UNL     1     -31.774  18.899  -2.294  1.00 20.00    -0.293 OA
ENDROOT
TORSDOF 0
ENDMDL
MODEL 5
REMARK VINA RESULT:      -4.4      3.098      4.661
REMARK  0 active torsions:
REMARK  status: ('A' for Active; 'I' for Inactive)
ROOT
HETATM    1  C1  UNL     1     -34.336  16.982  -1.693  1.00 20.00    -0.011 C 
HETATM    2  C2  UNL     1     -33.170  17.873  -1.421  1.00 20.00     0.155 C 
HETATM    3  C3  UNL     1     -34.222  16.070  -2.667  1.00 20.00    -0.078 C 
HETATM    4  C4  UNL     1     -35.554  17.147  -0.835  1.00 20.00     0.042 C 
HETATM    5  C5  UNL     1     -32.919  18.248   0.024  1.00 20.00     0.083 C 
HETATM    6  C6  UNL     1     -35.191  17.342   0.634  1.00 20.00     0.005 C 
HETATM    7  C7  UNL     1     -34.206  18.496   0.799  1.00 20.00     0.008 C 
HETATM    8  C8  UNL     1     -35.340  15.130  -3.013  1.00 20.00     0.043 C 
HETATM    9  C9  UNL     1     -32.966  15.926  -3.477  1.00 20.00     0.043 C 
HETATM   10  O10 UNL     1     -32.405  18.224  -2.317  1.00 20.00    -0.293 OA
ENDROOT
TORSDOF 0
ENDMDL
MODEL 6
REMARK VINA RESULT:      -4.4     11.677     12.380
REMARK  0 active torsions:
REMARK  status: ('A' for Active; 'I' for Inactive)
ROOT
HETATM    1  C1  UNL     1     -33.434   5.985   3.816  1.00 20.00    -0.011 C 
HETATM    2  C2  UNL     1     -34.210   4.772   4.212  1.00 20.00     0.155 C 
HETATM    3  C3  UNL     1     -33.133   6.149   2.522  1.00 20.00    -0.078 C 
HETATM    4  C4  UNL     1     -33.067   6.959   4.895  1.00 20.00     0.042 C 
HETATM    5  C5  UNL     1     -35.220   4.939   5.327  1.00 20.00     0.083 C 
HETATM    6  C6  UNL     1     -34.221   7.191   5.866  1.00 20.00     0.005 C 
HETATM    7  C7  UNL     1     -34.727   5.867   6.430  1.00 20.00     0.008 C 
HETATM    8  C8  UNL     1     -32.358   7.336   2.029  1.00 20.00     0.043 C 
HETATM    9  C9  UNL     1     -33.552   5.156   1.477  1.00 20.00     0.043 C 
HETATM   10  O10 UNL     1     -34.089   3.706   3.611  1.00 20.00    -0.293 OA
ENDROOT
TORSDOF 0
ENDMDL
MODEL 7
REMARK VINA RESULT:      -4.3      2.814      4.215
REMARK  0 active torsions:
REMARK  status: ('A' for Active; 'I' for Inactive)
ROOT
HETATM    1  C1  UNL     1     -33.515  17.539  -1.592  1.00 20.00    -0.011 C 
HETATM    2  C2  UNL     1     -34.923  17.060  -1.463  1.00 20.00     0.155 C 
HETATM    3  C3  UNL     1     -32.947  18.127  -0.531  1.00 20.00    -0.078 C 
HETATM    4  C4  UNL     1     -32.816  17.301  -2.896  1.00 20.00     0.042 C 
HETATM    5  C5  UNL     1     -35.278  15.777  -2.182  1.00 20.00     0.083 C 
HETATM    6  C6  UNL     1     -33.101  15.908  -3.447  1.00 20.00     0.005 C 
HETATM    7  C7  UNL     1     -34.603  15.661  -3.543  1.00 20.00     0.008 C 
HETATM    8  C8  UNL     1     -31.537  18.639  -0.565  1.00 20.00     0.043 C 
HETATM    9  C9  UNL     1     -33.684  18.312   0.764  1.00 20.00     0.043 C 
HETATM   10  O10 UNL     1     -35.737  17.639  -0.745  1.00 20.00    -0.293 OA
ENDROOT
TORSDOF 0
ENDMDL
MODEL 8
REMARK VINA RESULT:      -4.3     11.638     12.436
REMARK  0 active torsions:
REMARK  status: ('A' for Active; 'I' for Inactive)
ROOT
HETATM    1  C1  UNL     1     -33.942   6.280   4.364  1.00 20.00    -0.011 C 
HETATM    2  C2  UNL     1     -34.215   5.028   3.598  1.00 20.00     0.155 C 
HETATM    3  C3  UNL     1     -34.189   6.283   5.680  1.00 20.00    -0.078 C 
HETATM    4  C4  UNL     1     -33.378   7.447   3.612  1.00 20.00     0.042 C 
HETATM    5  C5  UNL     1     -33.261   4.694   2.471  1.00 20.00     0.083 C 
HETATM    6  C6  UNL     1     -32.296   7.018   2.626  1.00 20.00     0.005 C 
HETATM    7  C7  UNL     1     -32.815   5.926   1.695  1.00 20.00     0.008 C 
HETATM    8  C8  UNL     1     -33.946   7.494   6.534  1.00 20.00     0.043 C 
HETATM    9  C9  UNL     1     -34.726   5.074   6.390  1.00 20.00     0.043 C 
HETATM   10  O10 UNL     1     -35.125   4.265   3.915  1.00 20.00    -0.293 OA
ENDROOT
TORSDOF 0
ENDMDL
MODEL 9
REMARK VINA RESULT:      -4.1      2.062      3.377
REMARK  0 active torsions:
REMARK  status: ('A' for Active; 'I' for Inactive)
ROOT
HETATM    1  C1  UNL     1     -34.344  16.636  -2.540  1.00 20.00    -0.011 C 
HETATM    2  C2  UNL     1     -35.592  16.008  -3.066  1.00 20.00     0.155 C 
HETATM    3  C3  UNL     1     -34.399  17.261  -1.357  1.00 20.00    -0.078 C 
HETATM    4  C4  UNL     1     -33.097  16.500  -3.362  1.00 20.00     0.042 C 
HETATM    5  C5  UNL     1     -35.437  14.709  -3.826  1.00 20.00     0.083 C 
HETATM    6  C6  UNL     1     -32.948  15.095  -3.937  1.00 20.00     0.005 C 
HETATM    7  C7  UNL     1     -34.199  14.692  -4.712  1.00 20.00     0.008 C 
HETATM    8  C8  UNL     1     -33.196  17.920  -0.748  1.00 20.00     0.043 C 
HETATM    9  C9  UNL     1     -35.668  17.341  -0.560  1.00 20.00     0.043 C 
HETATM   10  O10 UNL     1     -36.701  16.483  -2.827  1.00 20.00    -0.293 OA
ENDROOT
TORSDOF 0
ENDMDL
