MODEL 1
REMARK VINA RESULT:      -4.6      0.000      0.000
REMARK  3 active torsions:
REMARK  status: ('A' for Active; 'I' for Inactive)
REMARK    1  A    between atoms: C3_3  and  C5_5 
REMARK    2  A    between atoms: C4_4  and  C6_6 
REMARK    3  A    between atoms: C5_5  and  C6_6 
ROOT
HETATM    1  C6  UNL     1     -33.487   6.302   2.704  1.00 20.00     0.082 C 
HETATM    2 CL7  UNL     1     -33.013   4.593   2.443  1.00 20.00    -0.125 Cl
ENDROOT
BRANCH   1   3
HETATM    3  C4  UNL     1     -32.321   7.239   2.354  1.00 20.00     0.016 C 
HETATM    4  C2  UNL     1     -32.618   8.172   1.187  1.00 20.00     0.006 C 
ENDBRANCH   1   3
BRANCH   1   5
HETATM    5  C5  UNL     1     -33.934   6.514   4.160  1.00 20.00     0.020 C 
BRANCH   5   6
HETATM    6  C3  UNL     1     -34.963   5.484   4.638  1.00 20.00    -0.003 C 
HETATM    7  C1  UNL     1     -34.769   5.152   6.110  1.00 20.00     0.005 C 
ENDBRANCH   5   6
ENDBRANCH   1   5
TORSDOF 3
ENDMDL
MODEL 2
REMARK VINA RESULT:      -4.6      1.520      4.221
REMARK  3 active torsions:
REMARK  status: ('A' for Active; 'I' for Inactive)
REMARK    1  A    between atoms: C3_3  and  C5_5 
REMARK    2  A    between atoms: C4_4  and  C6_6 
REMARK    3  A    between atoms: C5_5  and  C6_6 
ROOT
HETATM    1  C6  UNL     1     -34.145   6.399   4.039  1.00 20.00     0.082 C 
HETATM    2 CL7  UNL     1     -33.280   7.214   5.380  1.00 20.00    -0.125 Cl
ENDROOT
BRANCH   1   3
HETATM    3  C4  UNL     1     -34.835   5.123   4.545  1.00 20.00     0.016 C 
HETATM    4  C2  UNL     1     -34.812   4.979   6.062  1.00 20.00     0.006 C 
ENDBRANCH   1   3
BRANCH   1   5
HETATM    5  C5  UNL     1     -33.167   6.069   2.898  1.00 20.00     0.020 C 
BRANCH   5   6
HETATM    6  C3  UNL     1     -32.188   7.206   2.587  1.00 20.00    -0.003 C 
HETATM    7  C1  UNL     1     -32.613   7.976   1.345  1.00 20.00     0.005 C 
ENDBRANCH   5   6
ENDBRANCH   1   5
TORSDOF 3
ENDMDL
MODEL 3
REMARK VINA RESULT:      -4.3      1.775      4.095
REMARK  3 active torsions:
REMARK  status: ('A' for Active; 'I' for Inactive)
REMARK    1  A    between atoms: C3_3  and  C5_5 
REMARK    2  A    between atoms: C4_4  and  C6_6 
REMARK    3  A    between atoms: C5_5  and  C6_6 
ROOT
HETATM    1  C6  UNL     1     -33.664   6.756   3.748  1.00 20.00     0.082 C 
HETATM    2 CL7  UNL     1     -33.586   6.984   5.524  1.00 20.00    -0.125 Cl
ENDROOT
BRANCH   1   3
HETATM    3  C4  UNL     1     -33.941   5.283   3.409  1.00 20.00     0.016 C 
HETATM    4  C2  UNL     1     -34.813   4.575   4.438  1.00 20.00     0.006 C 
ENDBRANCH   1   3
BRANCH   1   5
HETATM    5  C5  UNL     1     -32.353   7.224   3.094  1.00 20.00     0.020 C 
BRANCH   5   6
HETATM    6  C3  UNL     1     -32.427   7.300   1.565  1.00 20.00    -0.003 C 
HETATM    7  C1  UNL     1     -32.841   8.688   1.100  1.00 20.00     0.005 C 
ENDBRANCH   5   6
ENDBRANCH   1   5
TORSDOF 3
ENDMDL
MODEL 4
REMARK VINA RESULT:      -4.2      0.677      3.867
REMARK  3 active torsions:
REMARK  status: ('A' for Active; 'I' for Inactive)
REMARK    1  A    between atoms: C3_3  and  C5_5 
REMARK    2  A    between atoms: C4_4  and  C6_6 
REMARK    3  A    between atoms: C5_5  and  C6_6 
ROOT
HETATM    1  C6  UNL     1     -33.564   5.374   3.712  1.00 20.00     0.082 C 
HETATM    2 CL7  UNL     1     -33.449   4.465   2.171  1.00 20.00    -0.125 Cl
ENDROOT
BRANCH   1   3
HETATM    3  C4  UNL     1     -34.911   5.096   4.397  1.00 20.00     0.016 C 
HETATM    4  C2  UNL     1     -34.884   5.308   5.905  1.00 20.00     0.006 C 
ENDBRANCH   1   3
BRANCH   1   5
HETATM    5  C5  UNL     1     -33.387   6.880   3.456  1.00 20.00     0.020 C 
BRANCH   5   6
HETATM    6  C3  UNL     1     -32.209   7.207   2.532  1.00 20.00    -0.003 C 
HETATM    7  C1  UNL     1     -32.658   8.028   1.333  1.00 20.00     0.005 C 
ENDBRANCH   5   6
ENDBRANCH   1   5
TORSDOF 3
ENDMDL
MODEL 5
REMARK VINA RESULT:      -4.0      1.781      2.502
REMARK  3 active torsions:
REMARK  status: ('A' for Active; 'I' for Inactive)
REMARK    1  A    between atoms: C3_3  and  C5_5 
REMARK    2  A    between atoms: C4_4  and  C6_6 
REMARK    3  A    between atoms: C5_5  and  C6_6 
ROOT
HETATM    1  C6  UNL     1     -32.877   6.351   3.105  1.00 20.00     0.082 C 
HETATM    2 CL7  UNL     1     -32.488   7.598   1.877  1.00 20.00    -0.125 Cl
ENDROOT
BRANCH   1   3
HETATM    3  C4  UNL     1     -33.189   5.010   2.423  1.00 20.00     0.016 C 
HETATM    4  C2  UNL     1     -33.960   4.040   3.310  1.00 20.00     0.006 C 
ENDBRANCH   1   3
BRANCH   1   5
HETATM    5  C5  UNL     1     -34.064   6.808   3.970  1.00 20.00     0.020 C 
BRANCH   5   6
HETATM    6  C3  UNL     1     -33.755   6.821   5.470  1.00 20.00    -0.003 C 
HETATM    7  C1  UNL     1     -34.601   5.800   6.217  1.00 20.00     0.005 C 
ENDBRANCH   5   6
ENDBRANCH   1   5
TORSDOF 3
ENDMDL
MODEL 6
REMARK VINA RESULT:      -3.7      1.578      1.884
REMARK  3 active torsions:
REMARK  status: ('A' for Active; 'I' for Inactive)
REMARK    1  A    between atoms: C3_3  and  C5_5 
REMARK    2  A    between atoms: C4_4  and  C6_6 
REMARK    3  A    between atoms: C5_5  and  C6_6 
ROOT
HETATM    1  C6  UNL     1     -32.429   6.990   2.346  1.00 20.00     0.082 C 
HETATM    2 CL7  UNL     1     -31.600   7.686   3.775  1.00 20.00    -0.125 Cl
ENDROOT
BRANCH   1   3
HETATM    3  C4  UNL     1     -33.233   8.075   1.613  1.00 20.00     0.016 C 
HETATM    4  C2  UNL     1     -32.570   8.565   0.332  1.00 20.00     0.006 C 
ENDBRANCH   1   3
BRANCH   1   5
HETATM    5  C5  UNL     1     -33.347   5.833   2.775  1.00 20.00     0.020 C 
BRANCH   5   6
HETATM    6  C3  UNL     1     -34.119   6.115   4.068  1.00 20.00    -0.003 C 
HETATM    7  C1  UNL     1     -34.924   4.901   4.507  1.00 20.00     0.005 C 
ENDBRANCH   5   6
ENDBRANCH   1   5
TORSDOF 3
ENDMDL
MODEL 7
REMARK VINA RESULT:      -3.5      2.089      3.880
REMARK  3 active torsions:
REMARK  status: ('A' for Active; 'I' for Inactive)
REMARK    1  A    between atoms: C3_3  and  C5_5 
REMARK    2  A    between atoms: C4_4  and  C6_6 
REMARK    3  A    between atoms: C5_5  and  C6_6 
ROOT
HETATM    1  C6  UNL     1     -34.174   6.738   4.433  1.00 20.00     0.082 C 
HETATM    2 CL7  UNL     1     -33.450   7.194   6.009  1.00 20.00    -0.125 Cl
ENDROOT
BRANCH   1   3
HETATM    3  C4  UNL     1     -35.022   5.466   4.583  1.00 20.00     0.016 C 
HETATM    4  C2  UNL     1     -34.843   4.768   5.925  1.00 20.00     0.006 C 
ENDBRANCH   1   3
BRANCH   1   5
HETATM    5  C5  UNL     1     -33.071   6.533   3.381  1.00 20.00     0.020 C 
BRANCH   5   6
HETATM    6  C3  UNL     1     -33.502   5.641   2.212  1.00 20.00    -0.003 C 
HETATM    7  C1  UNL     1     -32.940   4.234   2.354  1.00 20.00     0.005 C 
ENDBRANCH   5   6
ENDBRANCH   1   5
TORSDOF 3
ENDMDL
MODEL 8
REMARK VINA RESULT:      -3.4     16.150     17.120
REMARK  3 active torsions:
REMARK  status: ('A' for Active; 'I' for Inactive)
REMARK    1  A    between atoms: C3_3  and  C5_5 
REMARK    2  A    between atoms: C4_4  and  C6_6 
REMARK    3  A    between atoms: C5_5  and  C6_6 
ROOT
HETATM    1  C6  UNL     1     -23.448  17.915  10.797  1.00 20.00     0.082 C 
HETATM    2 CL7  UNL     1     -22.349  17.759  12.204  1.00 20.00    -0.125 Cl
ENDROOT
BRANCH   1   3
HETATM    3  C4  UNL     1     -24.068  16.554  10.449  1.00 20.00     0.016 C 
HETATM    4  C2  UNL     1     -24.607  15.802  11.659  1.00 20.00     0.006 C 
ENDBRANCH   1   3
BRANCH   1   5
HETATM    5  C5  UNL     1     -22.687  18.488   9.589  1.00 20.00     0.020 C 
BRANCH   5   6
HETATM    6  C3  UNL     1     -23.334  18.146   8.243  1.00 20.00    -0.003 C 
HETATM    7  C1  UNL     1     -24.381  19.178   7.855  1.00 20.00     0.005 C 
ENDBRANCH   5   6
ENDBRANCH   1   5
TORSDOF 3
ENDMDL
MODEL 9
REMARK VINA RESULT:      -3.3      8.968      9.557
REMARK  3 active torsions:
REMARK  status: ('A' for Active; 'I' for Inactive)
REMARK    1  A    between atoms: C3_3  and  C5_5 
REMARK    2  A    between atoms: C4_4  and  C6_6 
REMARK    3  A    between atoms: C5_5  and  C6_6 
ROOT
HETATM    1  C6  UNL     1     -41.983   6.365   0.019  1.00 20.00     0.082 C 
HETATM    2 CL7  UNL     1     -42.634   5.273   1.283  1.00 20.00    -0.125 Cl
ENDROOT
BRANCH   1   3
HETATM    3  C4  UNL     1     -41.040   5.595  -0.919  1.00 20.00     0.016 C 
HETATM    4  C2  UNL     1     -41.750   4.561  -1.783  1.00 20.00     0.006 C 
ENDBRANCH   1   3
BRANCH   1   5
HETATM    5  C5  UNL     1     -41.251   7.552   0.667  1.00 20.00     0.020 C 
BRANCH   5   6
HETATM    6  C3  UNL     1     -41.808   8.916   0.246  1.00 20.00    -0.003 C 
HETATM    7  C1  UNL     1     -43.186   8.778  -0.384  1.00 20.00     0.005 C 
ENDBRANCH   5   6
ENDBRANCH   1   5
TORSDOF 3
ENDMDL
