MODEL 1
REMARK VINA RESULT:      -5.1      0.000      0.000
REMARK  2 active torsions:
REMARK  status: ('A' for Active; 'I' for Inactive)
REMARK    1  A    between atoms: C2_2  and  C3_3 
REMARK    2  A    between atoms: C3_3  and  O4_4 
ROOT
HETATM    1  C3  UNL     1     -34.794   5.212   4.409  1.00 20.00     0.398 C 
HETATM    2  F6  UNL     1     -36.068   5.387   3.984  1.00 20.00    -0.171 F 
HETATM    3  F7  UNL     1     -34.504   3.890   4.304  1.00 20.00    -0.171 F 
ENDROOT
BRANCH   1   4
HETATM    4  C2  UNL     1     -34.652   5.638   5.853  1.00 20.00     0.367 C 
HETATM    5  F5  UNL     1     -34.043   4.638   6.543  1.00 20.00    -0.223 F 
HETATM    6 CL8  UNL     1     -33.668   7.110   6.006  1.00 20.00    -0.080 Cl
ENDBRANCH   1   4
BRANCH   1   7
HETATM    7  O4  UNL     1     -33.904   5.941   3.570  1.00 20.00    -0.328 OA
HETATM    8  C1  UNL     1     -33.292   5.125   2.582  1.00 20.00     0.208 C 
ENDBRANCH   1   7
TORSDOF 2
ENDMDL
MODEL 2
REMARK VINA RESULT:      -4.5      1.361      1.807
REMARK  2 active torsions:
REMARK  status: ('A' for Active; 'I' for Inactive)
REMARK    1  A    between atoms: C2_2  and  C3_3 
REMARK    2  A    between atoms: C3_3  and  O4_4 
ROOT
HETATM    1  C3  UNL     1     -34.901   5.180   4.605  1.00 20.00     0.398 C 
HETATM    2  F6  UNL     1     -36.081   5.540   4.046  1.00 20.00    -0.171 F 
HETATM    3  F7  UNL     1     -35.146   4.827   5.892  1.00 20.00    -0.171 F 
ENDROOT
BRANCH   1   4
HETATM    4  C2  UNL     1     -33.927   6.337   4.585  1.00 20.00     0.367 C 
HETATM    5  F5  UNL     1     -34.396   7.284   3.730  1.00 20.00    -0.223 F 
HETATM    6 CL8  UNL     1     -33.748   7.067   6.195  1.00 20.00    -0.080 Cl
ENDBRANCH   1   4
BRANCH   1   7
HETATM    7  O4  UNL     1     -34.369   4.053   3.917  1.00 20.00    -0.328 OA
HETATM    8  C1  UNL     1     -33.558   4.420   2.811  1.00 20.00     0.208 C 
ENDBRANCH   1   7
TORSDOF 2
ENDMDL
MODEL 3
REMARK VINA RESULT:      -4.3      1.808      2.227
REMARK  2 active torsions:
REMARK  status: ('A' for Active; 'I' for Inactive)
REMARK    1  A    between atoms: C2_2  and  C3_3 
REMARK    2  A    between atoms: C3_3  and  O4_4 
ROOT
HETATM    1  C3  UNL     1     -33.562   5.370   2.864  1.00 20.00     0.398 C 
HETATM    2  F6  UNL     1     -34.195   5.494   1.673  1.00 20.00    -0.171 F 
HETATM    3  F7  UNL     1     -32.557   4.472   2.704  1.00 20.00    -0.171 F 
ENDROOT
BRANCH   1   4
HETATM    4  C2  UNL     1     -34.515   4.865   3.924  1.00 20.00     0.367 C 
HETATM    5  F5  UNL     1     -34.131   3.615   4.293  1.00 20.00    -0.223 F 
HETATM    6 CL8  UNL     1     -34.506   5.908   5.363  1.00 20.00    -0.080 Cl
ENDBRANCH   1   4
BRANCH   1   7
HETATM    7  O4  UNL     1     -32.997   6.622   3.239  1.00 20.00    -0.328 OA
HETATM    8  C1  UNL     1     -32.475   7.340   2.131  1.00 20.00     0.208 C 
ENDBRANCH   1   7
TORSDOF 2
ENDMDL
MODEL 4
REMARK VINA RESULT:      -4.2      1.753      2.714
REMARK  2 active torsions:
REMARK  status: ('A' for Active; 'I' for Inactive)
REMARK    1  A    between atoms: C2_2  and  C3_3 
REMARK    2  A    between atoms: C3_3  and  O4_4 
ROOT
HETATM    1  C3  UNL     1     -34.849   5.449   4.716  1.00 20.00     0.398 C 
HETATM    2  F6  UNL     1     -35.085   4.922   5.942  1.00 20.00    -0.171 F 
HETATM    3  F7  UNL     1     -36.023   5.443   4.034  1.00 20.00    -0.171 F 
ENDROOT
BRANCH   1   4
HETATM    4  C2  UNL     1     -33.835   4.615   3.965  1.00 20.00     0.367 C 
HETATM    5  F5  UNL     1     -34.421   3.446   3.596  1.00 20.00    -0.223 F 
HETATM    6 CL8  UNL     1     -33.260   5.446   2.503  1.00 20.00    -0.080 Cl
ENDBRANCH   1   4
BRANCH   1   7
HETATM    7  O4  UNL     1     -34.406   6.795   4.849  1.00 20.00    -0.328 OA
HETATM    8  C1  UNL     1     -33.654   7.007   6.036  1.00 20.00     0.208 C 
ENDBRANCH   1   7
TORSDOF 2
ENDMDL
MODEL 5
REMARK VINA RESULT:      -4.2      1.942      2.513
REMARK  2 active torsions:
REMARK  status: ('A' for Active; 'I' for Inactive)
REMARK    1  A    between atoms: C2_2  and  C3_3 
REMARK    2  A    between atoms: C3_3  and  O4_4 
ROOT
HETATM    1  C3  UNL     1     -33.800   6.469   4.000  1.00 20.00     0.398 C 
HETATM    2  F6  UNL     1     -33.102   6.885   5.084  1.00 20.00    -0.171 F 
HETATM    3  F7  UNL     1     -34.561   7.510   3.577  1.00 20.00    -0.171 F 
ENDROOT
BRANCH   1   4
HETATM    4  C2  UNL     1     -34.703   5.310   4.362  1.00 20.00     0.367 C 
HETATM    5  F5  UNL     1     -34.177   4.170   3.842  1.00 20.00    -0.223 F 
HETATM    6 CL8  UNL     1     -34.842   5.116   6.124  1.00 20.00    -0.080 Cl
ENDBRANCH   1   4
BRANCH   1   7
HETATM    7  O4  UNL     1     -32.899   6.109   2.959  1.00 20.00    -0.328 OA
HETATM    8  C1  UNL     1     -32.477   7.227   2.191  1.00 20.00     0.208 C 
ENDBRANCH   1   7
TORSDOF 2
ENDMDL
MODEL 6
REMARK VINA RESULT:      -4.1      1.745      3.033
REMARK  2 active torsions:
REMARK  status: ('A' for Active; 'I' for Inactive)
REMARK    1  A    between atoms: C2_2  and  C3_3 
REMARK    2  A    between atoms: C3_3  and  O4_4 
ROOT
HETATM    1  C3  UNL     1     -34.357   5.352   4.052  1.00 20.00     0.398 C 
HETATM    2  F6  UNL     1     -34.309   4.229   4.808  1.00 20.00    -0.171 F 
HETATM    3  F7  UNL     1     -35.616   5.459   3.554  1.00 20.00    -0.171 F 
ENDROOT
BRANCH   1   4
HETATM    4  C2  UNL     1     -33.376   5.263   2.905  1.00 20.00     0.367 C 
HETATM    5  F5  UNL     1     -34.041   4.849   1.794  1.00 20.00    -0.223 F 
HETATM    6 CL8  UNL     1     -32.628   6.838   2.560  1.00 20.00    -0.080 Cl
ENDBRANCH   1   4
BRANCH   1   7
HETATM    7  O4  UNL     1     -34.091   6.489   4.865  1.00 20.00    -0.328 OA
HETATM    8  C1  UNL     1     -34.356   6.251   6.240  1.00 20.00     0.208 C 
ENDBRANCH   1   7
TORSDOF 2
ENDMDL
MODEL 7
REMARK VINA RESULT:      -3.9      2.371      3.254
REMARK  2 active torsions:
REMARK  status: ('A' for Active; 'I' for Inactive)
REMARK    1  A    between atoms: C2_2  and  C3_3 
REMARK    2  A    between atoms: C3_3  and  O4_4 
ROOT
HETATM    1  C3  UNL     1     -33.823   6.452   4.094  1.00 20.00     0.398 C 
HETATM    2  F6  UNL     1     -34.693   7.408   3.688  1.00 20.00    -0.171 F 
HETATM    3  F7  UNL     1     -33.124   6.951   5.145  1.00 20.00    -0.171 F 
ENDROOT
BRANCH   1   4
HETATM    4  C2  UNL     1     -32.862   6.101   2.980  1.00 20.00     0.367 C 
HETATM    5  F5  UNL     1     -33.409   5.108   2.230  1.00 20.00    -0.223 F 
HETATM    6 CL8  UNL     1     -32.545   7.496   1.926  1.00 20.00    -0.080 Cl
ENDBRANCH   1   4
BRANCH   1   7
HETATM    7  O4  UNL     1     -34.543   5.303   4.529  1.00 20.00    -0.328 OA
HETATM    8  C1  UNL     1     -34.763   5.296   5.932  1.00 20.00     0.208 C 
ENDBRANCH   1   7
TORSDOF 2
ENDMDL
MODEL 8
REMARK VINA RESULT:      -3.9      2.111      2.111
REMARK  2 active torsions:
REMARK  status: ('A' for Active; 'I' for Inactive)
REMARK    1  A    between atoms: C2_2  and  C3_3 
REMARK    2  A    between atoms: C3_3  and  O4_4 
ROOT
HETATM    1  C3  UNL     1     -33.716   6.491   4.039  1.00 20.00     0.398 C 
HETATM    2  F6  UNL     1     -34.737   7.276   3.620  1.00 20.00    -0.171 F 
HETATM    3  F7  UNL     1     -33.888   5.263   3.486  1.00 20.00    -0.171 F 
ENDROOT
BRANCH   1   4
HETATM    4  C2  UNL     1     -33.728   6.363   5.546  1.00 20.00     0.367 C 
HETATM    5  F5  UNL     1     -34.128   7.546   6.080  1.00 20.00    -0.223 F 
HETATM    6 CL8  UNL     1     -34.848   5.092   6.084  1.00 20.00    -0.080 Cl
ENDBRANCH   1   4
BRANCH   1   7
HETATM    7  O4  UNL     1     -32.480   7.027   3.581  1.00 20.00    -0.328 OA
HETATM    8  C1  UNL     1     -32.480   7.284   2.184  1.00 20.00     0.208 C 
ENDBRANCH   1   7
TORSDOF 2
ENDMDL
MODEL 9
REMARK VINA RESULT:      -3.9      2.557      2.946
REMARK  2 active torsions:
REMARK  status: ('A' for Active; 'I' for Inactive)
REMARK    1  A    between atoms: C2_2  and  C3_3 
REMARK    2  A    between atoms: C3_3  and  O4_4 
ROOT
HETATM    1  C3  UNL     1     -32.928   6.713   3.059  1.00 20.00     0.398 C 
HETATM    2  F6  UNL     1     -32.430   5.565   2.539  1.00 20.00    -0.171 F 
HETATM    3  F7  UNL     1     -31.925   7.325   3.739  1.00 20.00    -0.171 F 
ENDROOT
BRANCH   1   4
HETATM    4  C2  UNL     1     -34.064   6.415   4.012  1.00 20.00     0.367 C 
HETATM    5  F5  UNL     1     -34.288   5.075   4.017  1.00 20.00    -0.223 F 
HETATM    6 CL8  UNL     1     -33.679   6.930   5.669  1.00 20.00    -0.080 Cl
ENDBRANCH   1   4
BRANCH   1   7
HETATM    7  O4  UNL     1     -33.354   7.571   2.007  1.00 20.00    -0.328 OA
HETATM    8  C1  UNL     1     -32.282   7.990   1.175  1.00 20.00     0.208 C 
ENDBRANCH   1   7
TORSDOF 2
ENDMDL
