MODEL 1
REMARK VINA RESULT:      -4.0      0.000      0.000
REMARK  0 active torsions:
REMARK  status: ('A' for Active; 'I' for Inactive)
ROOT
HETATM    1  C1  UNL     1     -34.164  17.016  -1.729  1.00 20.00     0.002 C 
HETATM    2  C2  UNL     1     -32.929  16.885  -2.624  1.00 20.00     0.002 C 
HETATM    3  C3  UNL     1     -35.142  15.933  -2.191  1.00 20.00     0.032 C 
HETATM    4  C4  UNL     1     -33.220  15.731  -3.586  1.00 20.00     0.032 C 
HETATM    5  C5  UNL     1     -35.854  14.452  -5.819  1.00 20.00     0.086 C 
HETATM    6  C6  UNL     1     -36.544  15.794  -5.699  1.00 20.00     0.086 C 
HETATM    7  C7  UNL     1     -34.748  15.638  -3.639  1.00 20.00     0.056 C 
HETATM    8  S8  UNL     1     -35.303  13.982  -4.162  1.00 20.00    -0.147 SA
HETATM    9  S9  UNL     1     -35.439  16.899  -4.786  1.00 20.00    -0.147 SA
ENDROOT
TORSDOF 0
ENDMDL
MODEL 2
REMARK VINA RESULT:      -3.8     17.944     18.798
REMARK  0 active torsions:
REMARK  status: ('A' for Active; 'I' for Inactive)
ROOT
HETATM    1  C1  UNL     1     -26.576  16.961  12.300  1.00 20.00     0.002 C 
HETATM    2  C2  UNL     1     -26.524  18.489  12.246  1.00 20.00     0.002 C 
HETATM    3  C3  UNL     1     -25.122  16.484  12.310  1.00 20.00     0.032 C 
HETATM    4  C4  UNL     1     -25.040  18.864  12.221  1.00 20.00     0.032 C 
HETATM    5  C5  UNL     1     -21.885  17.983  10.538  1.00 20.00     0.086 C 
HETATM    6  C6  UNL     1     -22.699  17.231   9.507  1.00 20.00     0.086 C 
HETATM    7  C7  UNL     1     -24.329  17.625  11.670  1.00 20.00     0.056 C 
HETATM    8  S8  UNL     1     -22.574  17.581  12.162  1.00 20.00    -0.147 SA
HETATM    9  S9  UNL     1     -24.447  17.567   9.835  1.00 20.00    -0.147 SA
ENDROOT
TORSDOF 0
ENDMDL
MODEL 3
REMARK VINA RESULT:      -3.8      1.041      1.133
REMARK  0 active torsions:
REMARK  status: ('A' for Active; 'I' for Inactive)
ROOT
HETATM    1  C1  UNL     1     -34.767  16.970  -1.342  1.00 20.00     0.002 C 
HETATM    2  C2  UNL     1     -33.428  17.557  -1.793  1.00 20.00     0.002 C 
HETATM    3  C3  UNL     1     -35.028  15.761  -2.243  1.00 20.00     0.032 C 
HETATM    4  C4  UNL     1     -32.944  16.678  -2.948  1.00 20.00     0.032 C 
HETATM    5  C5  UNL     1     -34.132  15.136  -6.074  1.00 20.00     0.086 C 
HETATM    6  C6  UNL     1     -35.349  16.034  -6.000  1.00 20.00     0.086 C 
HETATM    7  C7  UNL     1     -34.213  16.031  -3.510  1.00 20.00     0.056 C 
HETATM    8  S8  UNL     1     -33.841  14.489  -4.410  1.00 20.00    -0.147 SA
HETATM    9  S9  UNL     1     -35.095  17.191  -4.632  1.00 20.00    -0.147 SA
ENDROOT
TORSDOF 0
ENDMDL
MODEL 4
REMARK VINA RESULT:      -3.7     17.882     18.681
REMARK  0 active torsions:
REMARK  status: ('A' for Active; 'I' for Inactive)
ROOT
HETATM    1  C1  UNL     1     -25.690  17.963  12.306  1.00 20.00     0.002 C 
HETATM    2  C2  UNL     1     -25.431  16.455  12.329  1.00 20.00     0.002 C 
HETATM    3  C3  UNL     1     -25.029  18.489  11.030  1.00 20.00     0.032 C 
HETATM    4  C4  UNL     1     -24.622  16.141  11.069  1.00 20.00     0.032 C 
HETATM    5  C5  UNL     1     -21.708  17.333   9.158  1.00 20.00     0.086 C 
HETATM    6  C6  UNL     1     -21.323  18.171  10.358  1.00 20.00     0.086 C 
HETATM    7  C7  UNL     1     -23.944  17.463  10.696  1.00 20.00     0.056 C 
HETATM    8  S8  UNL     1     -23.494  17.514   8.930  1.00 20.00    -0.147 SA
HETATM    9  S9  UNL     1     -22.438  17.734  11.714  1.00 20.00    -0.147 SA
ENDROOT
TORSDOF 0
ENDMDL
MODEL 5
REMARK VINA RESULT:      -3.5      1.264      2.196
REMARK  0 active torsions:
REMARK  status: ('A' for Active; 'I' for Inactive)
ROOT
HETATM    1  C1  UNL     1     -33.218  17.153  -3.399  1.00 20.00     0.002 C 
HETATM    2  C2  UNL     1     -33.691  16.728  -2.007  1.00 20.00     0.002 C 
HETATM    3  C3  UNL     1     -34.435  17.035  -4.318  1.00 20.00     0.032 C 
HETATM    4  C4  UNL     1     -35.171  16.369  -2.151  1.00 20.00     0.032 C 
HETATM    5  C5  UNL     1     -37.462  14.446  -4.299  1.00 20.00     0.086 C 
HETATM    6  C6  UNL     1     -36.251  13.773  -4.909  1.00 20.00     0.086 C 
HETATM    7  C7  UNL     1     -35.350  16.019  -3.631  1.00 20.00     0.056 C 
HETATM    8  S8  UNL     1     -37.084  16.209  -4.163  1.00 20.00    -0.147 SA
HETATM    9  S9  UNL     1     -34.799  14.297  -3.966  1.00 20.00    -0.147 SA
ENDROOT
TORSDOF 0
ENDMDL
MODEL 6
REMARK VINA RESULT:      -3.5      1.997      3.763
REMARK  0 active torsions:
REMARK  status: ('A' for Active; 'I' for Inactive)
ROOT
HETATM    1  C1  UNL     1     -34.013  14.489  -4.176  1.00 20.00     0.002 C 
HETATM    2  C2  UNL     1     -35.263  14.725  -3.325  1.00 20.00     0.002 C 
HETATM    3  C3  UNL     1     -32.982  15.521  -3.715  1.00 20.00     0.032 C 
HETATM    4  C4  UNL     1     -34.930  15.892  -2.392  1.00 20.00     0.032 C 
HETATM    5  C5  UNL     1     -33.447  19.263  -2.429  1.00 20.00     0.086 C 
HETATM    6  C6  UNL     1     -33.568  19.249  -3.938  1.00 20.00     0.086 C 
HETATM    7  C7  UNL     1     -33.806  16.655  -3.101  1.00 20.00     0.056 C 
HETATM    8  S8  UNL     1     -32.819  17.642  -1.927  1.00 20.00    -0.147 SA
HETATM    9  S9  UNL     1     -34.487  17.761  -4.402  1.00 20.00    -0.147 SA
ENDROOT
TORSDOF 0
ENDMDL
MODEL 7
REMARK VINA RESULT:      -3.4      1.383      2.375
REMARK  0 active torsions:
REMARK  status: ('A' for Active; 'I' for Inactive)
ROOT
HETATM    1  C1  UNL     1     -33.497  16.859  -2.242  1.00 20.00     0.002 C 
HETATM    2  C2  UNL     1     -34.808  16.116  -1.974  1.00 20.00     0.002 C 
HETATM    3  C3  UNL     1     -33.567  17.339  -3.693  1.00 20.00     0.032 C 
HETATM    4  C4  UNL     1     -35.608  16.179  -3.278  1.00 20.00     0.032 C 
HETATM    5  C5  UNL     1     -35.228  15.667  -6.905  1.00 20.00     0.086 C 
HETATM    6  C6  UNL     1     -33.912  14.974  -6.623  1.00 20.00     0.086 C 
HETATM    7  C7  UNL     1     -34.559  16.393  -4.374  1.00 20.00     0.056 C 
HETATM    8  S8  UNL     1     -35.290  17.146  -5.865  1.00 20.00    -0.147 SA
HETATM    9  S9  UNL     1     -33.756  14.803  -4.828  1.00 20.00    -0.147 SA
ENDROOT
TORSDOF 0
ENDMDL
MODEL 8
REMARK VINA RESULT:      -3.4      1.177      1.346
REMARK  0 active torsions:
REMARK  status: ('A' for Active; 'I' for Inactive)
ROOT
HETATM    1  C1  UNL     1     -33.807  16.538  -2.133  1.00 20.00     0.002 C 
HETATM    2  C2  UNL     1     -33.086  16.030  -3.383  1.00 20.00     0.002 C 
HETATM    3  C3  UNL     1     -35.274  16.131  -2.291  1.00 20.00     0.032 C 
HETATM    4  C4  UNL     1     -34.151  15.343  -4.240  1.00 20.00     0.032 C 
HETATM    5  C5  UNL     1     -37.557  15.855  -5.544  1.00 20.00     0.086 C 
HETATM    6  C6  UNL     1     -37.435  17.314  -5.158  1.00 20.00     0.086 C 
HETATM    7  C7  UNL     1     -35.477  15.969  -3.799  1.00 20.00     0.056 C 
HETATM    8  S8  UNL     1     -36.892  14.881  -4.172  1.00 20.00    -0.147 SA
HETATM    9  S9  UNL     1     -35.733  17.597  -4.613  1.00 20.00    -0.147 SA
ENDROOT
TORSDOF 0
ENDMDL
MODEL 9
REMARK VINA RESULT:      -3.3      2.744      4.122
REMARK  0 active torsions:
REMARK  status: ('A' for Active; 'I' for Inactive)
ROOT
HETATM    1  C1  UNL     1     -32.908  17.237  -2.564  1.00 20.00     0.002 C 
HETATM    2  C2  UNL     1     -33.849  16.110  -2.995  1.00 20.00     0.002 C 
HETATM    3  C3  UNL     1     -33.455  17.766  -1.236  1.00 20.00     0.032 C 
HETATM    4  C4  UNL     1     -34.923  16.013  -1.909  1.00 20.00     0.032 C 
HETATM    5  C5  UNL     1     -37.201  18.122   0.072  1.00 20.00     0.086 C 
HETATM    6  C6  UNL     1     -36.912  19.255  -0.888  1.00 20.00     0.086 C 
HETATM    7  C7  UNL     1     -34.939  17.393  -1.245  1.00 20.00     0.056 C 
HETATM    8  S8  UNL     1     -35.623  17.319   0.444  1.00 20.00    -0.147 SA
HETATM    9  S9  UNL     1     -35.918  18.586  -2.245  1.00 20.00    -0.147 SA
ENDROOT
TORSDOF 0
ENDMDL
