MODEL 1
REMARK VINA RESULT:      -3.9      0.000      0.000
REMARK  3 active torsions:
REMARK  status: ('A' for Active; 'I' for Inactive)
REMARK    1  A    between atoms: C6_6  and  C9_9 
REMARK    2  A    between atoms: C7_7  and  C8_8 
REMARK    3  A    between atoms: C7_7  and  C9_9 
ROOT
HETATM    1  C4  UNL     1     -34.444  15.095  -6.126  1.00 20.00     0.015 C 
HETATM    2  C5  UNL     1     -32.793  14.403  -4.401  1.00 20.00     0.015 C 
HETATM    3  C9  UNL     1     -34.232  14.927  -4.610  1.00 20.00    -0.048 C 
ENDROOT
BRANCH   3   4
HETATM    4  C6  UNL     1     -35.250  13.867  -4.100  1.00 20.00     0.004 C 
HETATM    5  C1  UNL     1     -36.711  14.124  -4.452  1.00 20.00     0.006 C 
ENDBRANCH   3   4
BRANCH   3   6
HETATM    6  C7  UNL     1     -34.347  16.294  -3.869  1.00 20.00     0.012 C 
BRANCH   6   7
HETATM    7  C8  UNL     1     -33.943  16.323  -2.377  1.00 20.00    -0.022 C 
HETATM    8  C2  UNL     1     -32.912  17.434  -2.135  1.00 20.00     0.009 C 
HETATM    9  C3  UNL     1     -35.146  16.567  -1.461  1.00 20.00     0.009 C 
ENDBRANCH   6   7
ENDBRANCH   3   6
TORSDOF 3
ENDMDL
MODEL 2
REMARK VINA RESULT:      -3.7     10.680     11.583
REMARK  3 active torsions:
REMARK  status: ('A' for Active; 'I' for Inactive)
REMARK    1  A    between atoms: C6_6  and  C9_9 
REMARK    2  A    between atoms: C7_7  and  C8_8 
REMARK    3  A    between atoms: C7_7  and  C9_9 
ROOT
HETATM    1  C4  UNL     1     -31.655   7.428   3.188  1.00 20.00     0.015 C 
HETATM    2  C5  UNL     1     -32.662   5.301   2.386  1.00 20.00     0.015 C 
HETATM    3  C9  UNL     1     -32.941   6.804   2.612  1.00 20.00    -0.048 C 
ENDROOT
BRANCH   3   4
HETATM    4  C6  UNL     1     -33.235   7.491   1.248  1.00 20.00     0.004 C 
HETATM    5  C1  UNL     1     -32.785   8.942   1.122  1.00 20.00     0.006 C 
ENDBRANCH   3   4
BRANCH   3   6
HETATM    6  C7  UNL     1     -34.123   6.917   3.623  1.00 20.00     0.012 C 
BRANCH   6   7
HETATM    7  C8  UNL     1     -34.083   5.992   4.860  1.00 20.00    -0.022 C 
HETATM    8  C2  UNL     1     -34.074   6.832   6.143  1.00 20.00     0.009 C 
HETATM    9  C3  UNL     1     -35.286   5.044   4.907  1.00 20.00     0.009 C 
ENDBRANCH   6   7
ENDBRANCH   3   6
TORSDOF 3
ENDMDL
MODEL 3
REMARK VINA RESULT:      -3.6      0.893      1.472
REMARK  3 active torsions:
REMARK  status: ('A' for Active; 'I' for Inactive)
REMARK    1  A    between atoms: C6_6  and  C9_9 
REMARK    2  A    between atoms: C7_7  and  C8_8 
REMARK    3  A    between atoms: C7_7  and  C9_9 
ROOT
HETATM    1  C4  UNL     1     -34.837  16.265  -4.985  1.00 20.00     0.015 C 
HETATM    2  C5  UNL     1     -33.135  14.568  -4.346  1.00 20.00     0.015 C 
HETATM    3  C9  UNL     1     -34.552  15.094  -4.025  1.00 20.00    -0.048 C 
ENDROOT
BRANCH   3   4
HETATM    4  C6  UNL     1     -35.598  13.979  -4.310  1.00 20.00     0.004 C 
HETATM    5  C1  UNL     1     -37.058  14.418  -4.310  1.00 20.00     0.006 C 
ENDBRANCH   3   4
BRANCH   3   6
HETATM    6  C7  UNL     1     -34.553  15.570  -2.540  1.00 20.00     0.012 C 
BRANCH   6   7
HETATM    7  C8  UNL     1     -34.385  17.086  -2.286  1.00 20.00    -0.022 C 
HETATM    8  C2  UNL     1     -35.237  17.513  -1.084  1.00 20.00     0.009 C 
HETATM    9  C3  UNL     1     -32.926  17.463  -2.009  1.00 20.00     0.009 C 
ENDBRANCH   6   7
ENDBRANCH   3   6
TORSDOF 3
ENDMDL
MODEL 4
REMARK VINA RESULT:      -3.6      0.536      1.967
REMARK  3 active torsions:
REMARK  status: ('A' for Active; 'I' for Inactive)
REMARK    1  A    between atoms: C6_6  and  C9_9 
REMARK    2  A    between atoms: C7_7  and  C8_8 
REMARK    3  A    between atoms: C7_7  and  C9_9 
ROOT
HETATM    1  C4  UNL     1     -32.868  14.384  -4.436  1.00 20.00     0.015 C 
HETATM    2  C5  UNL     1     -35.291  13.923  -4.118  1.00 20.00     0.015 C 
HETATM    3  C9  UNL     1     -34.280  14.959  -4.658  1.00 20.00    -0.048 C 
ENDROOT
BRANCH   3   4
HETATM    4  C6  UNL     1     -34.486  15.139  -6.189  1.00 20.00     0.004 C 
HETATM    5  C1  UNL     1     -34.523  16.577  -6.693  1.00 20.00     0.006 C 
ENDBRANCH   3   4
BRANCH   3   6
HETATM    6  C7  UNL     1     -34.484  16.279  -3.854  1.00 20.00     0.012 C 
BRANCH   6   7
HETATM    7  C8  UNL     1     -33.995  16.294  -2.387  1.00 20.00    -0.022 C 
HETATM    8  C2  UNL     1     -32.921  17.373  -2.203  1.00 20.00     0.009 C 
HETATM    9  C3  UNL     1     -35.137  16.570  -1.404  1.00 20.00     0.009 C 
ENDBRANCH   6   7
ENDBRANCH   3   6
TORSDOF 3
ENDMDL
MODEL 5
REMARK VINA RESULT:      -3.6      0.989      2.575
REMARK  3 active torsions:
REMARK  status: ('A' for Active; 'I' for Inactive)
REMARK    1  A    between atoms: C6_6  and  C9_9 
REMARK    2  A    between atoms: C7_7  and  C8_8 
REMARK    3  A    between atoms: C7_7  and  C9_9 
ROOT
HETATM    1  C4  UNL     1     -36.422  14.270  -4.216  1.00 20.00     0.015 C 
HETATM    2  C5  UNL     1     -36.013  16.710  -4.469  1.00 20.00     0.015 C 
HETATM    3  C9  UNL     1     -35.354  15.370  -4.068  1.00 20.00    -0.048 C 
ENDROOT
BRANCH   3   4
HETATM    4  C6  UNL     1     -34.195  15.045  -5.053  1.00 20.00     0.004 C 
HETATM    5  C1  UNL     1     -32.929  14.472  -4.427  1.00 20.00     0.006 C 
ENDBRANCH   3   4
BRANCH   3   6
HETATM    6  C7  UNL     1     -34.882  15.502  -2.588  1.00 20.00     0.012 C 
BRANCH   6   7
HETATM    7  C8  UNL     1     -34.677  16.932  -2.038  1.00 20.00    -0.022 C 
HETATM    8  C2  UNL     1     -35.246  17.034  -0.617  1.00 20.00     0.009 C 
HETATM    9  C3  UNL     1     -33.197  17.325  -1.999  1.00 20.00     0.009 C 
ENDBRANCH   6   7
ENDBRANCH   3   6
TORSDOF 3
ENDMDL
MODEL 6
REMARK VINA RESULT:      -3.5     11.283     12.276
REMARK  3 active torsions:
REMARK  status: ('A' for Active; 'I' for Inactive)
REMARK    1  A    between atoms: C6_6  and  C9_9 
REMARK    2  A    between atoms: C7_7  and  C8_8 
REMARK    3  A    between atoms: C7_7  and  C9_9 
ROOT
HETATM    1  C4  UNL     1     -35.991   5.335   3.953  1.00 20.00     0.015 C 
HETATM    2  C5  UNL     1     -33.745   4.382   3.471  1.00 20.00     0.015 C 
HETATM    3  C9  UNL     1     -34.479   5.568   4.136  1.00 20.00    -0.048 C 
ENDROOT
BRANCH   3   4
HETATM    4  C6  UNL     1     -34.180   5.577   5.662  1.00 20.00     0.004 C 
HETATM    5  C1  UNL     1     -34.002   6.950   6.300  1.00 20.00     0.006 C 
ENDBRANCH   3   4
BRANCH   3   6
HETATM    6  C7  UNL     1     -34.018   6.871   3.414  1.00 20.00     0.012 C 
BRANCH   6   7
HETATM    7  C8  UNL     1     -32.601   6.871   2.796  1.00 20.00    -0.022 C 
HETATM    8  C2  UNL     1     -32.619   7.594   1.443  1.00 20.00     0.009 C 
HETATM    9  C3  UNL     1     -31.579   7.563   3.705  1.00 20.00     0.009 C 
ENDBRANCH   6   7
ENDBRANCH   3   6
TORSDOF 3
ENDMDL
MODEL 7
REMARK VINA RESULT:      -3.5      1.041      4.179
REMARK  3 active torsions:
REMARK  status: ('A' for Active; 'I' for Inactive)
REMARK    1  A    between atoms: C6_6  and  C9_9 
REMARK    2  A    between atoms: C7_7  and  C8_8 
REMARK    3  A    between atoms: C7_7  and  C9_9 
ROOT
HETATM    1  C4  UNL     1     -35.100  17.940  -3.215  1.00 20.00     0.015 C 
HETATM    2  C5  UNL     1     -34.916  17.307  -0.818  1.00 20.00     0.015 C 
HETATM    3  C9  UNL     1     -34.359  17.017  -2.230  1.00 20.00    -0.048 C 
ENDROOT
BRANCH   3   4
HETATM    4  C6  UNL     1     -32.848  17.383  -2.279  1.00 20.00     0.004 C 
HETATM    5  C1  UNL     1     -32.315  18.174  -1.090  1.00 20.00     0.006 C 
ENDBRANCH   3   4
BRANCH   3   6
HETATM    6  C7  UNL     1     -34.637  15.516  -2.547  1.00 20.00     0.012 C 
BRANCH   6   7
HETATM    7  C8  UNL     1     -34.628  15.096  -4.035  1.00 20.00    -0.022 C 
HETATM    8  C2  UNL     1     -33.249  14.541  -4.415  1.00 20.00     0.009 C 
HETATM    9  C3  UNL     1     -35.683  14.026  -4.336  1.00 20.00     0.009 C 
ENDBRANCH   6   7
ENDBRANCH   3   6
TORSDOF 3
ENDMDL
MODEL 8
REMARK VINA RESULT:      -3.5      1.120      3.968
REMARK  3 active torsions:
REMARK  status: ('A' for Active; 'I' for Inactive)
REMARK    1  A    between atoms: C6_6  and  C9_9 
REMARK    2  A    between atoms: C7_7  and  C8_8 
REMARK    3  A    between atoms: C7_7  and  C9_9 
ROOT
HETATM    1  C4  UNL     1     -35.176  13.846  -4.017  1.00 20.00     0.015 C 
HETATM    2  C5  UNL     1     -32.789  14.466  -4.335  1.00 20.00     0.015 C 
HETATM    3  C9  UNL     1     -34.208  15.040  -4.117  1.00 20.00    -0.048 C 
ENDROOT
BRANCH   3   4
HETATM    4  C6  UNL     1     -34.257  15.808  -2.766  1.00 20.00     0.004 C 
HETATM    5  C1  UNL     1     -33.161  16.845  -2.547  1.00 20.00     0.006 C 
ENDBRANCH   3   4
BRANCH   3   6
HETATM    6  C7  UNL     1     -34.546  15.939  -5.345  1.00 20.00     0.012 C 
BRANCH   6   7
HETATM    7  C8  UNL     1     -34.974  15.222  -6.647  1.00 20.00    -0.022 C 
HETATM    8  C2  UNL     1     -36.317  15.780  -7.136  1.00 20.00     0.009 C 
HETATM    9  C3  UNL     1     -33.939  15.395  -7.763  1.00 20.00     0.009 C 
ENDBRANCH   6   7
ENDBRANCH   3   6
TORSDOF 3
ENDMDL
MODEL 9
REMARK VINA RESULT:      -3.3      1.252      3.792
REMARK  3 active torsions:
REMARK  status: ('A' for Active; 'I' for Inactive)
REMARK    1  A    between atoms: C6_6  and  C9_9 
REMARK    2  A    between atoms: C7_7  and  C8_8 
REMARK    3  A    between atoms: C7_7  and  C9_9 
ROOT
HETATM    1  C4  UNL     1     -35.169  16.653  -1.191  1.00 20.00     0.015 C 
HETATM    2  C5  UNL     1     -33.052  17.058  -2.432  1.00 20.00     0.015 C 
HETATM    3  C9  UNL     1     -34.527  16.624  -2.591  1.00 20.00    -0.048 C 
ENDROOT
BRANCH   3   4
HETATM    4  C6  UNL     1     -35.279  17.653  -3.482  1.00 20.00     0.004 C 
HETATM    5  C1  UNL     1     -36.503  18.309  -2.854  1.00 20.00     0.006 C 
ENDBRANCH   3   4
BRANCH   3   6
HETATM    6  C7  UNL     1     -34.531  15.181  -3.183  1.00 20.00     0.012 C 
BRANCH   6   7
HETATM    7  C8  UNL     1     -35.248  14.978  -4.538  1.00 20.00    -0.022 C 
HETATM    8  C2  UNL     1     -34.215  14.868  -5.667  1.00 20.00     0.009 C 
HETATM    9  C3  UNL     1     -36.114  13.714  -4.545  1.00 20.00     0.009 C 
ENDBRANCH   6   7
ENDBRANCH   3   6
TORSDOF 3
ENDMDL
