MODEL 1
REMARK VINA RESULT:      -5.1      0.000      0.000
REMARK  0 active torsions:
REMARK  status: ('A' for Active; 'I' for Inactive)
ROOT
HETATM    1  C1  UNL     1     -33.548   6.701   4.732  1.00 20.00    -0.013 A 
HETATM    2  C2  UNL     1     -34.175   5.817   3.944  1.00 20.00    -0.070 A 
HETATM    3  C3  UNL     1     -32.464   7.278   3.913  1.00 20.00     0.160 A 
HETATM    4  C4  UNL     1     -33.593   5.685   2.553  1.00 20.00     0.022 A 
HETATM    5  C5  UNL     1     -32.445   6.708   2.518  1.00 20.00     0.064 A 
HETATM    6  C6  UNL     1     -33.783   7.126   6.132  1.00 20.00     0.052 C 
HETATM    7  C7  UNL     1     -35.376   5.005   4.305  1.00 20.00     0.044 C 
HETATM    8  C8  UNL     1     -33.082   4.273   2.267  1.00 20.00     0.015 C 
HETATM    9  C9  UNL     1     -32.667   7.807   1.490  1.00 20.00     0.019 C 
HETATM   10  O10 UNL     1     -31.688   8.126   4.329  1.00 20.00    -0.292 OA
ENDROOT
TORSDOF 0
ENDMDL
MODEL 2
REMARK VINA RESULT:      -4.6      1.640      2.980
REMARK  0 active torsions:
REMARK  status: ('A' for Active; 'I' for Inactive)
ROOT
HETATM    1  C1  UNL     1     -33.760   6.490   4.751  1.00 20.00    -0.013 A 
HETATM    2  C2  UNL     1     -32.800   7.097   4.040  1.00 20.00    -0.070 A 
HETATM    3  C3  UNL     1     -34.332   5.459   3.864  1.00 20.00     0.160 A 
HETATM    4  C4  UNL     1     -32.631   6.575   2.629  1.00 20.00     0.022 A 
HETATM    5  C5  UNL     1     -33.654   5.431   2.518  1.00 20.00     0.064 A 
HETATM    6  C6  UNL     1     -34.247   6.689   6.136  1.00 20.00     0.052 C 
HETATM    7  C7  UNL     1     -31.896   8.185   4.521  1.00 20.00     0.044 C 
HETATM    8  C8  UNL     1     -32.891   7.650   1.575  1.00 20.00     0.015 C 
HETATM    9  C9  UNL     1     -33.001   4.078   2.278  1.00 20.00     0.019 C 
HETATM   10  O10 UNL     1     -35.242   4.714   4.200  1.00 20.00    -0.292 OA
ENDROOT
TORSDOF 0
ENDMDL
MODEL 3
REMARK VINA RESULT:      -4.4     11.145     12.063
REMARK  0 active torsions:
REMARK  status: ('A' for Active; 'I' for Inactive)
ROOT
HETATM    1  C1  UNL     1     -33.653  15.031  -3.817  1.00 20.00    -0.013 A 
HETATM    2  C2  UNL     1     -33.834  16.211  -3.207  1.00 20.00    -0.070 A 
HETATM    3  C3  UNL     1     -34.973  14.372  -3.827  1.00 20.00     0.160 A 
HETATM    4  C4  UNL     1     -35.248  16.468  -2.734  1.00 20.00     0.022 A 
HETATM    5  C5  UNL     1     -36.037  15.227  -3.187  1.00 20.00     0.064 A 
HETATM    6  C6  UNL     1     -32.455  14.394  -4.414  1.00 20.00     0.052 C 
HETATM    7  C7  UNL     1     -32.797  17.266  -2.995  1.00 20.00     0.044 C 
HETATM    8  C8  UNL     1     -35.331  16.650  -1.219  1.00 20.00     0.015 C 
HETATM    9  C9  UNL     1     -37.130  15.558  -4.192  1.00 20.00     0.019 C 
HETATM   10  O10 UNL     1     -35.168  13.266  -4.311  1.00 20.00    -0.292 OA
ENDROOT
TORSDOF 0
ENDMDL
MODEL 4
REMARK VINA RESULT:      -4.3     11.618     12.423
REMARK  0 active torsions:
REMARK  status: ('A' for Active; 'I' for Inactive)
ROOT
HETATM    1  C1  UNL     1     -32.952  18.154   0.127  1.00 20.00    -0.013 A 
HETATM    2  C2  UNL     1     -34.106  17.759  -0.427  1.00 20.00    -0.070 A 
HETATM    3  C3  UNL     1     -31.983  18.258  -0.981  1.00 20.00     0.160 A 
HETATM    4  C4  UNL     1     -34.046  17.538  -1.923  1.00 20.00     0.022 A 
HETATM    5  C5  UNL     1     -32.604  17.912  -2.310  1.00 20.00     0.064 A 
HETATM    6  C6  UNL     1     -32.578  18.471   1.526  1.00 20.00     0.052 C 
HETATM    7  C7  UNL     1     -35.405  17.556   0.282  1.00 20.00     0.044 C 
HETATM    8  C8  UNL     1     -34.363  16.094  -2.313  1.00 20.00     0.015 C 
HETATM    9  C9  UNL     1     -32.538  19.102  -3.255  1.00 20.00     0.019 C 
HETATM   10  O10 UNL     1     -30.818  18.596  -0.825  1.00 20.00    -0.292 OA
ENDROOT
TORSDOF 0
ENDMDL
MODEL 5
REMARK VINA RESULT:      -4.3     11.229     11.967
REMARK  0 active torsions:
REMARK  status: ('A' for Active; 'I' for Inactive)
ROOT
HETATM    1  C1  UNL     1     -34.015  15.081  -3.763  1.00 20.00    -0.013 A 
HETATM    2  C2  UNL     1     -35.333  14.843  -3.803  1.00 20.00    -0.070 A 
HETATM    3  C3  UNL     1     -33.846  16.289  -2.932  1.00 20.00     0.160 A 
HETATM    4  C4  UNL     1     -36.181  15.841  -3.045  1.00 20.00     0.022 A 
HETATM    5  C5  UNL     1     -35.163  16.812  -2.419  1.00 20.00     0.064 A 
HETATM    6  C6  UNL     1     -32.858  14.372  -4.358  1.00 20.00     0.052 C 
HETATM    7  C7  UNL     1     -36.005  13.696  -4.486  1.00 20.00     0.044 C 
HETATM    8  C8  UNL     1     -37.161  16.582  -3.953  1.00 20.00     0.015 C 
HETATM    9  C9  UNL     1     -35.189  16.792  -0.898  1.00 20.00     0.019 C 
HETATM   10  O10 UNL     1     -32.757  16.789  -2.688  1.00 20.00    -0.292 OA
ENDROOT
TORSDOF 0
ENDMDL
MODEL 6
REMARK VINA RESULT:      -4.0     11.686     12.521
REMARK  0 active torsions:
REMARK  status: ('A' for Active; 'I' for Inactive)
ROOT
HETATM    1  C1  UNL     1     -35.887  16.637  -3.226  1.00 20.00    -0.013 A 
HETATM    2  C2  UNL     1     -35.057  16.667  -2.175  1.00 20.00    -0.070 A 
HETATM    3  C3  UNL     1     -35.057  16.268  -4.389  1.00 20.00     0.160 A 
HETATM    4  C4  UNL     1     -33.613  16.351  -2.498  1.00 20.00     0.022 A 
HETATM    5  C5  UNL     1     -33.616  16.043  -4.006  1.00 20.00     0.064 A 
HETATM    6  C6  UNL     1     -37.343  16.883  -3.350  1.00 20.00     0.052 C 
HETATM    7  C7  UNL     1     -35.435  16.947  -0.756  1.00 20.00     0.044 C 
HETATM    8  C8  UNL     1     -32.674  17.513  -2.176  1.00 20.00     0.015 C 
HETATM    9  C9  UNL     1     -33.199  14.613  -4.317  1.00 20.00     0.019 C 
HETATM   10  O10 UNL     1     -35.502  16.151  -5.521  1.00 20.00    -0.292 OA
ENDROOT
TORSDOF 0
ENDMDL
MODEL 7
REMARK VINA RESULT:      -4.0     11.454     12.558
REMARK  0 active torsions:
REMARK  status: ('A' for Active; 'I' for Inactive)
ROOT
HETATM    1  C1  UNL     1     -33.611  18.000   0.146  1.00 20.00    -0.013 A 
HETATM    2  C2  UNL     1     -32.548  18.148  -0.656  1.00 20.00    -0.070 A 
HETATM    3  C3  UNL     1     -34.696  17.482  -0.711  1.00 20.00     0.160 A 
HETATM    4  C4  UNL     1     -32.789  17.779  -2.103  1.00 20.00     0.022 A 
HETATM    5  C5  UNL     1     -34.248  17.290  -2.137  1.00 20.00     0.064 A 
HETATM    6  C6  UNL     1     -33.807  18.245   1.594  1.00 20.00     0.052 C 
HETATM    7  C7  UNL     1     -31.185  18.603  -0.244  1.00 20.00     0.044 C 
HETATM    8  C8  UNL     1     -32.583  18.961  -3.050  1.00 20.00     0.015 C 
HETATM    9  C9  UNL     1     -34.370  15.828  -2.541  1.00 20.00     0.019 C 
HETATM   10  O10 UNL     1     -35.819  17.233  -0.295  1.00 20.00    -0.292 OA
ENDROOT
TORSDOF 0
ENDMDL
MODEL 8
REMARK VINA RESULT:      -4.0     11.499     12.446
REMARK  0 active torsions:
REMARK  status: ('A' for Active; 'I' for Inactive)
ROOT
HETATM    1  C1  UNL     1     -36.538  16.804  -3.091  1.00 20.00    -0.013 A 
HETATM    2  C2  UNL     1     -35.450  16.396  -2.423  1.00 20.00    -0.070 A 
HETATM    3  C3  UNL     1     -36.582  15.998  -4.326  1.00 20.00     0.160 A 
HETATM    4  C4  UNL     1     -34.649  15.316  -3.117  1.00 20.00     0.022 A 
HETATM    5  C5  UNL     1     -35.441  15.017  -4.403  1.00 20.00     0.064 A 
HETATM    6  C6  UNL     1     -37.572  17.820  -2.781  1.00 20.00     0.052 C 
HETATM    7  C7  UNL     1     -34.999  16.883  -1.084  1.00 20.00     0.044 C 
HETATM    8  C8  UNL     1     -33.224  15.762  -3.440  1.00 20.00     0.015 C 
HETATM    9  C9  UNL     1     -35.967  13.590  -4.452  1.00 20.00     0.019 C 
HETATM   10  O10 UNL     1     -37.456  16.116  -5.174  1.00 20.00    -0.292 OA
ENDROOT
TORSDOF 0
ENDMDL
MODEL 9
REMARK VINA RESULT:      -4.0     10.704     12.527
REMARK  0 active torsions:
REMARK  status: ('A' for Active; 'I' for Inactive)
ROOT
HETATM    1  C1  UNL     1     -35.525  14.521  -3.827  1.00 20.00    -0.013 A 
HETATM    2  C2  UNL     1     -35.027  15.702  -3.433  1.00 20.00    -0.070 A 
HETATM    3  C3  UNL     1     -36.958  14.752  -4.089  1.00 20.00     0.160 A 
HETATM    4  C4  UNL     1     -36.039  16.825  -3.368  1.00 20.00     0.022 A 
HETATM    5  C5  UNL     1     -37.354  16.186  -3.850  1.00 20.00     0.064 A 
HETATM    6  C6  UNL     1     -34.897  13.192  -4.018  1.00 20.00     0.052 C 
HETATM    7  C7  UNL     1     -33.601  15.993  -3.097  1.00 20.00     0.044 C 
HETATM    8  C8  UNL     1     -36.188  17.395  -1.958  1.00 20.00     0.015 C 
HETATM    9  C9  UNL     1     -37.879  16.815  -5.132  1.00 20.00     0.019 C 
HETATM   10  O10 UNL     1     -37.721  13.874  -4.467  1.00 20.00    -0.292 OA
ENDROOT
TORSDOF 0
ENDMDL
