MODEL 1
REMARK VINA RESULT:      -4.3      0.000      0.000
REMARK  5 active torsions:
REMARK  status: ('A' for Active; 'I' for Inactive)
REMARK    1  A    between atoms: C3_3  and  C7_7 
REMARK    2  A    between atoms: C4_4  and  C8_8 
REMARK    3  A    between atoms: C7_7  and  C9_9 
REMARK    4  A    between atoms: C8_8  and  C10_10 
REMARK    5  A    between atoms: C9_9  and  C10_10 
ROOT
HETATM    1  C1  UNL     1     -34.166   6.677   5.883  1.00 20.00    -0.111 C 
HETATM    2  C3  UNL     1     -34.566   5.747   5.236  1.00 20.00    -0.107 C 
HETATM    3  C5  UNL     1     -33.680   7.811   6.667  1.00 20.00     0.112 C 
ENDROOT
BRANCH   2   4
HETATM    4  C7  UNL     1     -35.053   4.608   4.447  1.00 20.00     0.094 C 
BRANCH   4   5
HETATM    5  C9  UNL     1     -33.961   4.010   3.556  1.00 20.00     0.013 C 
BRANCH   5   6
HETATM    6  C10 UNL     1     -33.603   4.913   2.368  1.00 20.00     0.013 C 
BRANCH   6   7
HETATM    7  C8  UNL     1     -32.500   5.920   2.701  1.00 20.00     0.094 C 
BRANCH   7   8
HETATM    8  C4  UNL     1     -32.632   7.165   1.933  1.00 20.00    -0.107 C 
HETATM    9  C2  UNL     1     -32.740   8.183   1.304  1.00 20.00    -0.111 C 
HETATM   10  C6  UNL     1     -32.872   9.423   0.542  1.00 20.00     0.112 C 
ENDBRANCH   7   8
ENDBRANCH   6   7
ENDBRANCH   5   6
ENDBRANCH   4   5
ENDBRANCH   2   4
TORSDOF 5
ENDMDL
MODEL 2
REMARK VINA RESULT:      -4.3      0.031      4.371
REMARK  5 active torsions:
REMARK  status: ('A' for Active; 'I' for Inactive)
REMARK    1  A    between atoms: C3_3  and  C7_7 
REMARK    2  A    between atoms: C4_4  and  C8_8 
REMARK    3  A    between atoms: C7_7  and  C9_9 
REMARK    4  A    between atoms: C8_8  and  C10_10 
REMARK    5  A    between atoms: C9_9  and  C10_10 
ROOT
HETATM    1  C1  UNL     1     -32.746   8.158   1.307  1.00 20.00    -0.111 C 
HETATM    2  C3  UNL     1     -32.637   7.141   1.938  1.00 20.00    -0.107 C 
HETATM    3  C5  UNL     1     -32.878   9.396   0.542  1.00 20.00     0.112 C 
ENDROOT
BRANCH   2   4
HETATM    4  C7  UNL     1     -32.505   5.898   2.708  1.00 20.00     0.094 C 
BRANCH   4   5
HETATM    5  C9  UNL     1     -33.600   4.885   2.367  1.00 20.00     0.013 C 
BRANCH   5   6
HETATM    6  C10 UNL     1     -33.979   3.995   3.560  1.00 20.00     0.013 C 
BRANCH   6   7
HETATM    7  C8  UNL     1     -35.062   4.618   4.442  1.00 20.00     0.094 C 
BRANCH   7   8
HETATM    8  C4  UNL     1     -34.560   5.760   5.218  1.00 20.00    -0.107 C 
HETATM    9  C2  UNL     1     -34.149   6.694   5.852  1.00 20.00    -0.111 C 
HETATM   10  C6  UNL     1     -33.650   7.832   6.623  1.00 20.00     0.112 C 
ENDBRANCH   7   8
ENDBRANCH   6   7
ENDBRANCH   5   6
ENDBRANCH   4   5
ENDBRANCH   2   4
TORSDOF 5
ENDMDL
MODEL 3
REMARK VINA RESULT:      -4.1     10.803     11.948
REMARK  5 active torsions:
REMARK  status: ('A' for Active; 'I' for Inactive)
REMARK    1  A    between atoms: C3_3  and  C7_7 
REMARK    2  A    between atoms: C4_4  and  C8_8 
REMARK    3  A    between atoms: C7_7  and  C9_9 
REMARK    4  A    between atoms: C8_8  and  C10_10 
REMARK    5  A    between atoms: C9_9  and  C10_10 
ROOT
HETATM    1  C1  UNL     1     -34.648  16.606  -1.658  1.00 20.00    -0.111 C 
HETATM    2  C3  UNL     1     -33.957  16.174  -2.541  1.00 20.00    -0.107 C 
HETATM    3  C5  UNL     1     -35.488  17.133  -0.584  1.00 20.00     0.112 C 
ENDROOT
BRANCH   2   4
HETATM    4  C7  UNL     1     -33.112  15.645  -3.619  1.00 20.00     0.094 C 
BRANCH   4   5
HETATM    5  C9  UNL     1     -33.914  14.832  -4.638  1.00 20.00     0.013 C 
BRANCH   5   6
HETATM    6  C10 UNL     1     -34.786  13.752  -3.983  1.00 20.00     0.013 C 
BRANCH   6   7
HETATM    7  C8  UNL     1     -36.221  13.747  -4.514  1.00 20.00     0.094 C 
BRANCH   7   8
HETATM    8  C4  UNL     1     -36.929  15.000  -4.217  1.00 20.00    -0.107 C 
HETATM    9  C2  UNL     1     -37.508  16.024  -3.975  1.00 20.00    -0.111 C 
HETATM   10  C6  UNL     1     -38.213  17.270  -3.676  1.00 20.00     0.112 C 
ENDBRANCH   7   8
ENDBRANCH   6   7
ENDBRANCH   5   6
ENDBRANCH   4   5
ENDBRANCH   2   4
TORSDOF 5
ENDMDL
MODEL 4
REMARK VINA RESULT:      -4.1     11.371     12.471
REMARK  5 active torsions:
REMARK  status: ('A' for Active; 'I' for Inactive)
REMARK    1  A    between atoms: C3_3  and  C7_7 
REMARK    2  A    between atoms: C4_4  and  C8_8 
REMARK    3  A    between atoms: C7_7  and  C9_9 
REMARK    4  A    between atoms: C8_8  and  C10_10 
REMARK    5  A    between atoms: C9_9  and  C10_10 
ROOT
HETATM    1  C1  UNL     1     -30.650  18.869   1.023  1.00 20.00    -0.111 C 
HETATM    2  C3  UNL     1     -31.166  18.544  -0.013  1.00 20.00    -0.107 C 
HETATM    3  C5  UNL     1     -30.024  19.263   2.284  1.00 20.00     0.112 C 
ENDROOT
BRANCH   2   4
HETATM    4  C7  UNL     1     -31.796  18.147  -1.279  1.00 20.00     0.094 C 
BRANCH   4   5
HETATM    5  C9  UNL     1     -33.275  18.539  -1.338  1.00 20.00     0.013 C 
BRANCH   5   6
HETATM    6  C10 UNL     1     -34.133  17.775  -0.320  1.00 20.00     0.013 C 
BRANCH   6   7
HETATM    7  C8  UNL     1     -35.223  16.929  -0.981  1.00 20.00     0.094 C 
BRANCH   7   8
HETATM    8  C4  UNL     1     -34.709  16.141  -2.110  1.00 20.00    -0.107 C 
HETATM    9  C2  UNL     1     -34.289  15.498  -3.032  1.00 20.00    -0.111 C 
HETATM   10  C6  UNL     1     -33.774  14.714  -4.155  1.00 20.00     0.112 C 
ENDBRANCH   7   8
ENDBRANCH   6   7
ENDBRANCH   5   6
ENDBRANCH   4   5
ENDBRANCH   2   4
TORSDOF 5
ENDMDL
MODEL 5
REMARK VINA RESULT:      -4.1     15.632     16.741
REMARK  5 active torsions:
REMARK  status: ('A' for Active; 'I' for Inactive)
REMARK    1  A    between atoms: C3_3  and  C7_7 
REMARK    2  A    between atoms: C4_4  and  C8_8 
REMARK    3  A    between atoms: C7_7  and  C9_9 
REMARK    4  A    between atoms: C8_8  and  C10_10 
REMARK    5  A    between atoms: C9_9  and  C10_10 
ROOT
HETATM    1  C1  UNL     1     -23.920  16.667  11.472  1.00 20.00    -0.111 C 
HETATM    2  C3  UNL     1     -23.011  17.204  10.899  1.00 20.00    -0.107 C 
HETATM    3  C5  UNL     1     -25.028  16.014  12.168  1.00 20.00     0.112 C 
ENDROOT
BRANCH   2   4
HETATM    4  C7  UNL     1     -21.900  17.862  10.200  1.00 20.00     0.094 C 
BRANCH   4   5
HETATM    5  C9  UNL     1     -22.386  18.895   9.181  1.00 20.00     0.013 C 
BRANCH   5   6
HETATM    6  C10 UNL     1     -23.343  18.298   8.139  1.00 20.00     0.013 C 
BRANCH   6   7
HETATM    7  C8  UNL     1     -24.622  19.120   7.972  1.00 20.00     0.094 C 
BRANCH   7   8
HETATM    8  C4  UNL     1     -25.417  19.171   9.207  1.00 20.00    -0.107 C 
HETATM    9  C2  UNL     1     -26.067  19.214  10.215  1.00 20.00    -0.111 C 
HETATM   10  C6  UNL     1     -26.860  19.263  11.443  1.00 20.00     0.112 C 
ENDBRANCH   7   8
ENDBRANCH   6   7
ENDBRANCH   5   6
ENDBRANCH   4   5
ENDBRANCH   2   4
TORSDOF 5
ENDMDL
MODEL 6
REMARK VINA RESULT:      -4.1     11.279     12.624
REMARK  5 active torsions:
REMARK  status: ('A' for Active; 'I' for Inactive)
REMARK    1  A    between atoms: C3_3  and  C7_7 
REMARK    2  A    between atoms: C4_4  and  C8_8 
REMARK    3  A    between atoms: C7_7  and  C9_9 
REMARK    4  A    between atoms: C8_8  and  C10_10 
REMARK    5  A    between atoms: C9_9  and  C10_10 
ROOT
HETATM    1  C1  UNL     1     -34.572  15.545  -2.803  1.00 20.00    -0.111 C 
HETATM    2  C3  UNL     1     -34.889  16.262  -1.893  1.00 20.00    -0.107 C 
HETATM    3  C5  UNL     1     -34.186  14.676  -3.913  1.00 20.00     0.112 C 
ENDROOT
BRANCH   2   4
HETATM    4  C7  UNL     1     -35.278  17.138  -0.779  1.00 20.00     0.094 C 
BRANCH   4   5
HETATM    5  C9  UNL     1     -34.079  17.870  -0.172  1.00 20.00     0.013 C 
BRANCH   5   6
HETATM    6  C10 UNL     1     -33.220  18.580  -1.228  1.00 20.00     0.013 C 
BRANCH   6   7
HETATM    7  C8  UNL     1     -31.755  18.141  -1.190  1.00 20.00     0.094 C 
BRANCH   7   8
HETATM    8  C4  UNL     1     -31.086  18.539   0.057  1.00 20.00    -0.107 C 
HETATM    9  C2  UNL     1     -30.539  18.864   1.075  1.00 20.00    -0.111 C 
HETATM   10  C6  UNL     1     -29.874  19.263   2.315  1.00 20.00     0.112 C 
ENDBRANCH   7   8
ENDBRANCH   6   7
ENDBRANCH   5   6
ENDBRANCH   4   5
ENDBRANCH   2   4
TORSDOF 5
ENDMDL
MODEL 7
REMARK VINA RESULT:      -4.1     10.836     12.074
REMARK  5 active torsions:
REMARK  status: ('A' for Active; 'I' for Inactive)
REMARK    1  A    between atoms: C3_3  and  C7_7 
REMARK    2  A    between atoms: C4_4  and  C8_8 
REMARK    3  A    between atoms: C7_7  and  C9_9 
REMARK    4  A    between atoms: C8_8  and  C10_10 
REMARK    5  A    between atoms: C9_9  and  C10_10 
ROOT
HETATM    1  C1  UNL     1     -37.470  16.043  -4.022  1.00 20.00    -0.111 C 
HETATM    2  C3  UNL     1     -36.876  15.020  -4.232  1.00 20.00    -0.107 C 
HETATM    3  C5  UNL     1     -38.195  17.286  -3.765  1.00 20.00     0.112 C 
ENDROOT
BRANCH   2   4
HETATM    4  C7  UNL     1     -36.149  13.770  -4.491  1.00 20.00     0.094 C 
BRANCH   4   5
HETATM    5  C9  UNL     1     -34.707  13.822  -3.980  1.00 20.00     0.013 C 
BRANCH   5   6
HETATM    6  C10 UNL     1     -33.913  14.998  -4.562  1.00 20.00     0.013 C 
BRANCH   6   7
HETATM    7  C8  UNL     1     -33.132  15.771  -3.497  1.00 20.00     0.094 C 
BRANCH   7   8
HETATM    8  C4  UNL     1     -34.002  16.275  -2.425  1.00 20.00    -0.107 C 
HETATM    9  C2  UNL     1     -34.713  16.687  -1.550  1.00 20.00    -0.111 C 
HETATM   10  C6  UNL     1     -35.580  17.186  -0.483  1.00 20.00     0.112 C 
ENDBRANCH   7   8
ENDBRANCH   6   7
ENDBRANCH   5   6
ENDBRANCH   4   5
ENDBRANCH   2   4
TORSDOF 5
ENDMDL
MODEL 8
REMARK VINA RESULT:      -4.1     11.288     12.359
REMARK  5 active torsions:
REMARK  status: ('A' for Active; 'I' for Inactive)
REMARK    1  A    between atoms: C3_3  and  C7_7 
REMARK    2  A    between atoms: C4_4  and  C8_8 
REMARK    3  A    between atoms: C7_7  and  C9_9 
REMARK    4  A    between atoms: C8_8  and  C10_10 
REMARK    5  A    between atoms: C9_9  and  C10_10 
ROOT
HETATM    1  C1  UNL     1     -34.480  17.912   1.431  1.00 20.00    -0.111 C 
HETATM    2  C3  UNL     1     -33.330  18.151   1.683  1.00 20.00    -0.107 C 
HETATM    3  C5  UNL     1     -35.879  17.619   1.125  1.00 20.00     0.112 C 
ENDROOT
BRANCH   2   4
HETATM    4  C7  UNL     1     -31.924  18.444   1.989  1.00 20.00     0.094 C 
BRANCH   4   5
HETATM    5  C9  UNL     1     -31.200  19.105   0.813  1.00 20.00     0.013 C 
BRANCH   5   6
HETATM    6  C10 UNL     1     -31.099  18.187  -0.414  1.00 20.00     0.013 C 
BRANCH   6   7
HETATM    7  C8  UNL     1     -32.023  18.621  -1.554  1.00 20.00     0.094 C 
BRANCH   7   8
HETATM    8  C4  UNL     1     -32.967  17.563  -1.938  1.00 20.00    -0.107 C 
HETATM    9  C2  UNL     1     -33.739  16.698  -2.253  1.00 20.00    -0.111 C 
HETATM   10  C6  UNL     1     -34.677  15.643  -2.635  1.00 20.00     0.112 C 
ENDBRANCH   7   8
ENDBRANCH   6   7
ENDBRANCH   5   6
ENDBRANCH   4   5
ENDBRANCH   2   4
TORSDOF 5
ENDMDL
MODEL 9
REMARK VINA RESULT:      -4.0     11.270     12.785
REMARK  5 active torsions:
REMARK  status: ('A' for Active; 'I' for Inactive)
REMARK    1  A    between atoms: C3_3  and  C7_7 
REMARK    2  A    between atoms: C4_4  and  C8_8 
REMARK    3  A    between atoms: C7_7  and  C9_9 
REMARK    4  A    between atoms: C8_8  and  C10_10 
REMARK    5  A    between atoms: C9_9  and  C10_10 
ROOT
HETATM    1  C1  UNL     1     -33.779  16.655  -2.280  1.00 20.00    -0.111 C 
HETATM    2  C3  UNL     1     -33.012  17.527  -1.973  1.00 20.00    -0.107 C 
HETATM    3  C5  UNL     1     -34.714  15.595  -2.654  1.00 20.00     0.112 C 
ENDROOT
BRANCH   2   4
HETATM    4  C7  UNL     1     -32.074  18.593  -1.597  1.00 20.00     0.094 C 
BRANCH   4   5
HETATM    5  C9  UNL     1     -31.152  18.175  -0.448  1.00 20.00     0.013 C 
BRANCH   5   6
HETATM    6  C10 UNL     1     -31.276  19.093   0.776  1.00 20.00     0.013 C 
BRANCH   6   7
HETATM    7  C8  UNL     1     -32.001  18.423   1.946  1.00 20.00     0.094 C 
BRANCH   7   8
HETATM    8  C4  UNL     1     -33.406  18.128   1.635  1.00 20.00    -0.107 C 
HETATM    9  C2  UNL     1     -34.555  17.887   1.381  1.00 20.00    -0.111 C 
HETATM   10  C6  UNL     1     -35.952  17.590   1.070  1.00 20.00     0.112 C 
ENDBRANCH   7   8
ENDBRANCH   6   7
ENDBRANCH   5   6
ENDBRANCH   4   5
ENDBRANCH   2   4
TORSDOF 5
ENDMDL
