MODEL 1
REMARK VINA RESULT:      -4.2      0.000      0.000
REMARK  2 active torsions:
REMARK  status: ('A' for Active; 'I' for Inactive)
REMARK    1  A    between atoms: C1_1  and  C3_3 
REMARK    2  A    between atoms: C2_2  and  C3_3 
ROOT
HETATM    1  C3  UNL     1     -33.983   6.481   4.110  1.00 20.00     0.187 C 
HETATM    2 BR7  UNL     1     -32.574   7.089   2.892  1.00 20.00    -0.077 Br
ENDROOT
BRANCH   1   3
HETATM    3  C1  UNL     1     -34.220   5.011   3.754  1.00 20.00     0.190 C 
HETATM    4  O4  UNL     1     -33.540   4.588   2.774  1.00 20.00    -0.647 OA
HETATM    5  O5  UNL     1     -35.069   4.396   4.457  1.00 20.00    -0.647 OA
ENDBRANCH   1   3
BRANCH   1   6
HETATM    6  C2  UNL     1     -33.571   6.783   5.536  1.00 20.00     0.248 C 
HETATM    7  F6  UNL     1     -34.626   6.615   6.379  1.00 20.00    -0.254 F 
ENDBRANCH   1   6
TORSDOF 2
ENDMDL
MODEL 2
REMARK VINA RESULT:      -4.0     12.027     12.307
REMARK  2 active torsions:
REMARK  status: ('A' for Active; 'I' for Inactive)
REMARK    1  A    between atoms: C1_1  and  C3_3 
REMARK    2  A    between atoms: C2_2  and  C3_3 
ROOT
HETATM    1  C3  UNL     1     -35.507  14.866  -4.646  1.00 20.00     0.187 C 
HETATM    2 BR7  UNL     1     -35.121  15.030  -6.559  1.00 20.00    -0.077 Br
ENDROOT
BRANCH   1   3
HETATM    3  C1  UNL     1     -36.386  13.620  -4.515  1.00 20.00     0.190 C 
HETATM    4  O4  UNL     1     -35.749  12.528  -4.450  1.00 20.00    -0.647 OA
HETATM    5  O5  UNL     1     -37.633  13.814  -4.503  1.00 20.00    -0.647 OA
ENDBRANCH   1   3
BRANCH   1   6
HETATM    6  C2  UNL     1     -34.203  14.869  -3.875  1.00 20.00     0.248 C 
HETATM    7  F6  UNL     1     -34.417  15.251  -2.586  1.00 20.00    -0.254 F 
ENDBRANCH   1   6
TORSDOF 2
ENDMDL
MODEL 3
REMARK VINA RESULT:      -4.0     12.027     12.340
REMARK  2 active torsions:
REMARK  status: ('A' for Active; 'I' for Inactive)
REMARK    1  A    between atoms: C1_1  and  C3_3 
REMARK    2  A    between atoms: C2_2  and  C3_3 
ROOT
HETATM    1  C3  UNL     1     -35.519  14.871  -4.659  1.00 20.00     0.187 C 
HETATM    2 BR7  UNL     1     -35.122  15.026  -6.571  1.00 20.00    -0.077 Br
ENDROOT
BRANCH   1   3
HETATM    3  C1  UNL     1     -36.374  13.608  -4.524  1.00 20.00     0.190 C 
HETATM    4  O4  UNL     1     -37.623  13.816  -4.493  1.00 20.00    -0.647 OA
HETATM    5  O5  UNL     1     -35.748  12.515  -4.441  1.00 20.00    -0.647 OA
ENDBRANCH   1   3
BRANCH   1   6
HETATM    6  C2  UNL     1     -34.222  14.907  -3.878  1.00 20.00     0.248 C 
HETATM    7  F6  UNL     1     -34.459  15.254  -2.584  1.00 20.00    -0.254 F 
ENDBRANCH   1   6
TORSDOF 2
ENDMDL
MODEL 4
REMARK VINA RESULT:      -3.9      1.931      2.376
REMARK  2 active torsions:
REMARK  status: ('A' for Active; 'I' for Inactive)
REMARK    1  A    between atoms: C1_1  and  C3_3 
REMARK    2  A    between atoms: C2_2  and  C3_3 
ROOT
HETATM    1  C3  UNL     1     -34.322   6.174   4.122  1.00 20.00     0.187 C 
HETATM    2 BR7  UNL     1     -33.591   7.011   5.736  1.00 20.00    -0.077 Br
ENDROOT
BRANCH   1   3
HETATM    3  C1  UNL     1     -33.148   6.086   3.144  1.00 20.00     0.190 C 
HETATM    4  O4  UNL     1     -33.095   5.011   2.477  1.00 20.00    -0.647 OA
HETATM    5  O5  UNL     1     -32.363   7.074   3.121  1.00 20.00    -0.647 OA
ENDBRANCH   1   3
BRANCH   1   6
HETATM    6  C2  UNL     1     -34.997   4.872   4.501  1.00 20.00     0.248 C 
HETATM    7  F6  UNL     1     -35.019   4.726   5.854  1.00 20.00    -0.254 F 
ENDBRANCH   1   6
TORSDOF 2
ENDMDL
MODEL 5
REMARK VINA RESULT:      -3.9      1.916      2.321
REMARK  2 active torsions:
REMARK  status: ('A' for Active; 'I' for Inactive)
REMARK    1  A    between atoms: C1_1  and  C3_3 
REMARK    2  A    between atoms: C2_2  and  C3_3 
ROOT
HETATM    1  C3  UNL     1     -34.322   6.133   4.119  1.00 20.00     0.187 C 
HETATM    2 BR7  UNL     1     -33.569   7.031   5.688  1.00 20.00    -0.077 Br
ENDROOT
BRANCH   1   3
HETATM    3  C1  UNL     1     -33.168   6.028   3.118  1.00 20.00     0.190 C 
HETATM    4  O4  UNL     1     -32.422   7.049   3.064  1.00 20.00    -0.647 OA
HETATM    5  O5  UNL     1     -33.099   4.957   2.455  1.00 20.00    -0.647 OA
ENDBRANCH   1   3
BRANCH   1   6
HETATM    6  C2  UNL     1     -34.972   4.836   4.553  1.00 20.00     0.248 C 
HETATM    7  F6  UNL     1     -35.050   4.776   5.910  1.00 20.00    -0.254 F 
ENDBRANCH   1   6
TORSDOF 2
ENDMDL
MODEL 6
REMARK VINA RESULT:      -3.7      1.039      1.578
REMARK  2 active torsions:
REMARK  status: ('A' for Active; 'I' for Inactive)
REMARK    1  A    between atoms: C1_1  and  C3_3 
REMARK    2  A    between atoms: C2_2  and  C3_3 
ROOT
HETATM    1  C3  UNL     1     -34.198   6.238   4.302  1.00 20.00     0.187 C 
HETATM    2 BR7  UNL     1     -33.107   5.939   2.703  1.00 20.00    -0.077 Br
ENDROOT
BRANCH   1   3
HETATM    3  C1  UNL     1     -34.637   4.845   4.761  1.00 20.00     0.190 C 
HETATM    4  O4  UNL     1     -35.162   4.809   5.912  1.00 20.00    -0.647 OA
HETATM    5  O5  UNL     1     -34.415   3.897   3.958  1.00 20.00    -0.647 OA
ENDBRANCH   1   3
BRANCH   1   6
HETATM    6  C2  UNL     1     -33.409   7.069   5.293  1.00 20.00     0.248 C 
HETATM    7  F6  UNL     1     -34.191   7.410   6.353  1.00 20.00    -0.254 F 
ENDBRANCH   1   6
TORSDOF 2
ENDMDL
MODEL 7
REMARK VINA RESULT:      -3.6      1.876      2.034
REMARK  2 active torsions:
REMARK  status: ('A' for Active; 'I' for Inactive)
REMARK    1  A    between atoms: C1_1  and  C3_3 
REMARK    2  A    between atoms: C2_2  and  C3_3 
ROOT
HETATM    1  C3  UNL     1     -34.076   6.349   4.120  1.00 20.00     0.187 C 
HETATM    2 BR7  UNL     1     -33.240   5.405   2.622  1.00 20.00    -0.077 Br
ENDROOT
BRANCH   1   3
HETATM    3  C1  UNL     1     -34.713   5.257   4.983  1.00 20.00     0.190 C 
HETATM    4  O4  UNL     1     -34.997   4.191   4.362  1.00 20.00    -0.647 OA
HETATM    5  O5  UNL     1     -34.899   5.542   6.198  1.00 20.00    -0.647 OA
ENDBRANCH   1   3
BRANCH   1   6
HETATM    6  C2  UNL     1     -33.044   7.235   4.788  1.00 20.00     0.248 C 
HETATM    7  F6  UNL     1     -32.013   7.485   3.936  1.00 20.00    -0.254 F 
ENDBRANCH   1   6
TORSDOF 2
ENDMDL
MODEL 8
REMARK VINA RESULT:      -3.6     12.403     12.745
REMARK  2 active torsions:
REMARK  status: ('A' for Active; 'I' for Inactive)
REMARK    1  A    between atoms: C1_1  and  C3_3 
REMARK    2  A    between atoms: C2_2  and  C3_3 
ROOT
HETATM    1  C3  UNL     1     -35.875  15.078  -4.809  1.00 20.00     0.187 C 
HETATM    2 BR7  UNL     1     -34.604  15.259  -3.329  1.00 20.00    -0.077 Br
ENDROOT
BRANCH   1   3
HETATM    3  C1  UNL     1     -36.592  13.747  -4.568  1.00 20.00     0.190 C 
HETATM    4  O4  UNL     1     -35.834  12.733  -4.560  1.00 20.00    -0.647 OA
HETATM    5  O5  UNL     1     -37.844  13.805  -4.422  1.00 20.00    -0.647 OA
ENDBRANCH   1   3
BRANCH   1   6
HETATM    6  C2  UNL     1     -36.740  16.320  -4.875  1.00 20.00     0.248 C 
HETATM    7  F6  UNL     1     -36.956  16.813  -3.626  1.00 20.00    -0.254 F 
ENDBRANCH   1   6
TORSDOF 2
ENDMDL
MODEL 9
REMARK VINA RESULT:      -3.6     11.844     12.231
REMARK  2 active torsions:
REMARK  status: ('A' for Active; 'I' for Inactive)
REMARK    1  A    between atoms: C1_1  and  C3_3 
REMARK    2  A    between atoms: C2_2  and  C3_3 
ROOT
HETATM    1  C3  UNL     1     -34.495  14.329  -3.739  1.00 20.00     0.187 C 
HETATM    2 BR7  UNL     1     -34.894  15.863  -2.587  1.00 20.00    -0.077 Br
ENDROOT
BRANCH   1   3
HETATM    3  C1  UNL     1     -35.852  13.853  -4.264  1.00 20.00     0.190 C 
HETATM    4  O4  UNL     1     -36.758  14.737  -4.266  1.00 20.00    -0.647 OA
HETATM    5  O5  UNL     1     -35.921  12.643  -4.617  1.00 20.00    -0.647 OA
ENDBRANCH   1   3
BRANCH   1   6
HETATM    6  C2  UNL     1     -33.466  14.738  -4.772  1.00 20.00     0.248 C 
HETATM    7  F6  UNL     1     -32.208  14.570  -4.280  1.00 20.00    -0.254 F 
ENDBRANCH   1   6
TORSDOF 2
ENDMDL
