MODEL 1
REMARK VINA RESULT:      -5.2      0.000      0.000
REMARK  5 active torsions:
REMARK  status: ('A' for Active; 'I' for Inactive)
REMARK    1  A    between atoms: C1_1  and  C5_5 
REMARK    2  A    between atoms: C1_1  and  C9_9 
REMARK    3  A    between atoms: C5_5  and  C6_6 
REMARK    4  A    between atoms: C7_7  and  C9_9 
REMARK    5  A    between atoms: C8_8  and  C9_9 
ROOT
HETATM    1  C1  UNL     1     -32.564   7.195   3.183  1.00 20.00     0.131 C 
HETATM    2  O10 UNL     1     -31.583   7.465   3.877  1.00 20.00    -0.298 OA
ENDROOT
BRANCH   1   3
HETATM    3  C5  UNL     1     -32.546   7.309   1.666  1.00 20.00     0.078 C 
BRANCH   3   4
HETATM    4  C6  UNL     1     -32.873   8.709   1.150  1.00 20.00     0.003 C 
HETATM    5  C2  UNL     1     -33.352   8.701  -0.295  1.00 20.00     0.005 C 
ENDBRANCH   3   4
ENDBRANCH   1   3
BRANCH   1   6
HETATM    6  C9  UNL     1     -33.868   6.696   3.807  1.00 20.00     0.054 C 
BRANCH   6   7
HETATM    7  C7  UNL     1     -33.769   6.760   5.340  1.00 20.00     0.007 C 
HETATM    8  C3  UNL     1     -34.607   5.692   6.031  1.00 20.00     0.006 C 
ENDBRANCH   6   7
BRANCH   6   9
HETATM    9  C8  UNL     1     -34.158   5.258   3.345  1.00 20.00     0.007 C 
HETATM   10  C4  UNL     1     -33.009   4.651   2.551  1.00 20.00     0.006 C 
ENDBRANCH   6   9
ENDBRANCH   1   6
TORSDOF 5
ENDMDL
MODEL 2
REMARK VINA RESULT:      -4.8      1.393      1.839
REMARK  5 active torsions:
REMARK  status: ('A' for Active; 'I' for Inactive)
REMARK    1  A    between atoms: C1_1  and  C5_5 
REMARK    2  A    between atoms: C1_1  and  C9_9 
REMARK    3  A    between atoms: C5_5  and  C6_6 
REMARK    4  A    between atoms: C7_7  and  C9_9 
REMARK    5  A    between atoms: C8_8  and  C9_9 
ROOT
HETATM    1  C1  UNL     1     -33.153   6.202   2.904  1.00 20.00     0.131 C 
HETATM    2  O10 UNL     1     -33.134   5.089   2.377  1.00 20.00    -0.298 OA
ENDROOT
BRANCH   1   3
HETATM    3  C5  UNL     1     -32.281   7.350   2.418  1.00 20.00     0.078 C 
BRANCH   3   4
HETATM    4  C6  UNL     1     -32.487   7.699   0.946  1.00 20.00     0.003 C 
HETATM    5  C2  UNL     1     -32.957   9.133   0.746  1.00 20.00     0.005 C 
ENDBRANCH   3   4
ENDBRANCH   1   3
BRANCH   1   6
HETATM    6  C9  UNL     1     -34.085   6.512   4.077  1.00 20.00     0.054 C 
BRANCH   6   7
HETATM    7  C7  UNL     1     -33.256   6.809   5.337  1.00 20.00     0.007 C 
HETATM    8  C3  UNL     1     -34.044   7.564   6.399  1.00 20.00     0.006 C 
ENDBRANCH   6   7
BRANCH   6   9
HETATM    9  C8  UNL     1     -35.034   5.327   4.324  1.00 20.00     0.007 C 
HETATM   10  C4  UNL     1     -34.773   4.628   5.651  1.00 20.00     0.006 C 
ENDBRANCH   6   9
ENDBRANCH   1   6
TORSDOF 5
ENDMDL
MODEL 3
REMARK VINA RESULT:      -4.8      0.621      2.187
REMARK  5 active torsions:
REMARK  status: ('A' for Active; 'I' for Inactive)
REMARK    1  A    between atoms: C1_1  and  C5_5 
REMARK    2  A    between atoms: C1_1  and  C9_9 
REMARK    3  A    between atoms: C5_5  and  C6_6 
REMARK    4  A    between atoms: C7_7  and  C9_9 
REMARK    5  A    between atoms: C8_8  and  C9_9 
ROOT
HETATM    1  C1  UNL     1     -32.350   7.192   3.149  1.00 20.00     0.131 C 
HETATM    2  O10 UNL     1     -31.705   7.911   3.913  1.00 20.00    -0.298 OA
ENDROOT
BRANCH   1   3
HETATM    3  C5  UNL     1     -32.344   7.391   1.641  1.00 20.00     0.078 C 
BRANCH   3   4
HETATM    4  C6  UNL     1     -32.885   8.747   1.197  1.00 20.00     0.003 C 
HETATM    5  C2  UNL     1     -33.362   8.741  -0.249  1.00 20.00     0.005 C 
ENDBRANCH   3   4
ENDBRANCH   1   3
BRANCH   1   6
HETATM    6  C9  UNL     1     -33.185   6.022   3.673  1.00 20.00     0.054 C 
BRANCH   6   7
HETATM    7  C7  UNL     1     -33.807   5.257   2.493  1.00 20.00     0.007 C 
HETATM    8  C3  UNL     1     -33.108   3.934   2.211  1.00 20.00     0.006 C 
ENDBRANCH   6   7
BRANCH   6   9
HETATM    9  C8  UNL     1     -34.283   6.539   4.619  1.00 20.00     0.007 C 
HETATM   10  C4  UNL     1     -34.783   5.471   5.582  1.00 20.00     0.006 C 
ENDBRANCH   6   9
ENDBRANCH   1   6
TORSDOF 5
ENDMDL
MODEL 4
REMARK VINA RESULT:      -4.7     10.603     11.457
REMARK  5 active torsions:
REMARK  status: ('A' for Active; 'I' for Inactive)
REMARK    1  A    between atoms: C1_1  and  C5_5 
REMARK    2  A    between atoms: C1_1  and  C9_9 
REMARK    3  A    between atoms: C5_5  and  C6_6 
REMARK    4  A    between atoms: C7_7  and  C9_9 
REMARK    5  A    between atoms: C8_8  and  C9_9 
ROOT
HETATM    1  C1  UNL     1     -35.627  14.116  -4.556  1.00 20.00     0.131 C 
HETATM    2  O10 UNL     1     -35.883  12.912  -4.591  1.00 20.00    -0.298 OA
ENDROOT
BRANCH   1   3
HETATM    3  C5  UNL     1     -36.092  15.081  -5.637  1.00 20.00     0.078 C 
BRANCH   3   4
HETATM    4  C6  UNL     1     -35.627  14.703  -7.041  1.00 20.00     0.003 C 
HETATM    5  C2  UNL     1     -34.377  15.461  -7.466  1.00 20.00     0.005 C 
ENDBRANCH   3   4
ENDBRANCH   1   3
BRANCH   1   6
HETATM    6  C9  UNL     1     -34.839  14.729  -3.397  1.00 20.00     0.054 C 
BRANCH   6   7
HETATM    7  C7  UNL     1     -35.676  15.828  -2.722  1.00 20.00     0.007 C 
HETATM    8  C3  UNL     1     -34.907  16.578  -1.643  1.00 20.00     0.006 C 
ENDBRANCH   6   7
BRANCH   6   9
HETATM    9  C8  UNL     1     -33.507  15.304  -3.909  1.00 20.00     0.007 C 
HETATM   10  C4  UNL     1     -32.569  14.232  -4.446  1.00 20.00     0.006 C 
ENDBRANCH   6   9
ENDBRANCH   1   6
TORSDOF 5
ENDMDL
MODEL 5
REMARK VINA RESULT:      -4.6     10.596     12.581
REMARK  5 active torsions:
REMARK  status: ('A' for Active; 'I' for Inactive)
REMARK    1  A    between atoms: C1_1  and  C5_5 
REMARK    2  A    between atoms: C1_1  and  C9_9 
REMARK    3  A    between atoms: C5_5  and  C6_6 
REMARK    4  A    between atoms: C7_7  and  C9_9 
REMARK    5  A    between atoms: C8_8  and  C9_9 
ROOT
HETATM    1  C1  UNL     1     -36.017  14.095  -4.843  1.00 20.00     0.131 C 
HETATM    2  O10 UNL     1     -37.088  13.568  -4.541  1.00 20.00    -0.298 OA
ENDROOT
BRANCH   1   3
HETATM    3  C5  UNL     1     -34.839  14.159  -3.883  1.00 20.00     0.078 C 
BRANCH   3   4
HETATM    4  C6  UNL     1     -34.933  15.295  -2.867  1.00 20.00     0.003 C 
HETATM    5  C2  UNL     1     -33.671  16.146  -2.824  1.00 20.00     0.005 C 
ENDBRANCH   3   4
ENDBRANCH   1   3
BRANCH   1   6
HETATM    6  C9  UNL     1     -35.793  14.702  -6.230  1.00 20.00     0.054 C 
BRANCH   6   7
HETATM    7  C7  UNL     1     -34.316  15.097  -6.392  1.00 20.00     0.007 C 
HETATM    8  C3  UNL     1     -33.902  15.255  -7.849  1.00 20.00     0.006 C 
ENDBRANCH   6   7
BRANCH   6   9
HETATM    9  C8  UNL     1     -36.702  15.928  -6.423  1.00 20.00     0.007 C 
HETATM   10  C4  UNL     1     -36.168  17.174  -5.730  1.00 20.00     0.006 C 
ENDBRANCH   6   9
ENDBRANCH   1   6
TORSDOF 5
ENDMDL
MODEL 6
REMARK VINA RESULT:      -4.6     10.750     12.067
REMARK  5 active torsions:
REMARK  status: ('A' for Active; 'I' for Inactive)
REMARK    1  A    between atoms: C1_1  and  C5_5 
REMARK    2  A    between atoms: C1_1  and  C9_9 
REMARK    3  A    between atoms: C5_5  and  C6_6 
REMARK    4  A    between atoms: C7_7  and  C9_9 
REMARK    5  A    between atoms: C8_8  and  C9_9 
ROOT
HETATM    1  C1  UNL     1     -36.208  13.977  -4.503  1.00 20.00     0.131 C 
HETATM    2  O10 UNL     1     -35.885  12.789  -4.530  1.00 20.00    -0.298 OA
ENDROOT
BRANCH   1   3
HETATM    3  C5  UNL     1     -37.653  14.427  -4.345  1.00 20.00     0.078 C 
BRANCH   3   4
HETATM    4  C6  UNL     1     -37.910  15.852  -4.829  1.00 20.00     0.003 C 
HETATM    5  C2  UNL     1     -38.344  16.781  -3.703  1.00 20.00     0.005 C 
ENDBRANCH   3   4
ENDBRANCH   1   3
BRANCH   1   6
HETATM    6  C9  UNL     1     -35.161  15.088  -4.602  1.00 20.00     0.054 C 
BRANCH   6   7
HETATM    7  C7  UNL     1     -34.272  14.859  -5.835  1.00 20.00     0.007 C 
HETATM    8  C3  UNL     1     -34.982  15.181  -7.143  1.00 20.00     0.006 C 
ENDBRANCH   6   7
BRANCH   6   9
HETATM    9  C8  UNL     1     -34.309  15.125  -3.322  1.00 20.00     0.007 C 
HETATM   10  C4  UNL     1     -34.941  15.958  -2.215  1.00 20.00     0.006 C 
ENDBRANCH   6   9
ENDBRANCH   1   6
TORSDOF 5
ENDMDL
MODEL 7
REMARK VINA RESULT:      -4.6      0.768      3.976
REMARK  5 active torsions:
REMARK  status: ('A' for Active; 'I' for Inactive)
REMARK    1  A    between atoms: C1_1  and  C5_5 
REMARK    2  A    between atoms: C1_1  and  C9_9 
REMARK    3  A    between atoms: C5_5  and  C6_6 
REMARK    4  A    between atoms: C7_7  and  C9_9 
REMARK    5  A    between atoms: C8_8  and  C9_9 
ROOT
HETATM    1  C1  UNL     1     -32.884   7.266   3.759  1.00 20.00     0.131 C 
HETATM    2  O10 UNL     1     -31.780   7.659   4.138  1.00 20.00    -0.298 OA
ENDROOT
BRANCH   1   3
HETATM    3  C5  UNL     1     -34.101   7.246   4.672  1.00 20.00     0.078 C 
BRANCH   3   4
HETATM    4  C6  UNL     1     -33.881   6.482   5.975  1.00 20.00     0.003 C 
HETATM    5  C2  UNL     1     -34.760   5.244   6.081  1.00 20.00     0.005 C 
ENDBRANCH   3   4
ENDBRANCH   1   3
BRANCH   1   6
HETATM    6  C9  UNL     1     -33.110   6.794   2.321  1.00 20.00     0.054 C 
BRANCH   6   7
HETATM    7  C7  UNL     1     -32.773   5.299   2.206  1.00 20.00     0.007 C 
HETATM    8  C3  UNL     1     -33.850   4.402   2.802  1.00 20.00     0.006 C 
ENDBRANCH   6   7
BRANCH   6   9
HETATM    9  C8  UNL     1     -32.243   7.618   1.353  1.00 20.00     0.007 C 
HETATM   10  C4  UNL     1     -32.977   8.826   0.787  1.00 20.00     0.006 C 
ENDBRANCH   6   9
ENDBRANCH   1   6
TORSDOF 5
ENDMDL
MODEL 8
REMARK VINA RESULT:      -4.6      1.437      4.492
REMARK  5 active torsions:
REMARK  status: ('A' for Active; 'I' for Inactive)
REMARK    1  A    between atoms: C1_1  and  C5_5 
REMARK    2  A    between atoms: C1_1  and  C9_9 
REMARK    3  A    between atoms: C5_5  and  C6_6 
REMARK    4  A    between atoms: C7_7  and  C9_9 
REMARK    5  A    between atoms: C8_8  and  C9_9 
ROOT
HETATM    1  C1  UNL     1     -33.449   5.675   2.775  1.00 20.00     0.131 C 
HETATM    2  O10 UNL     1     -32.795   4.725   2.344  1.00 20.00    -0.298 OA
ENDROOT
BRANCH   1   3
HETATM    3  C5  UNL     1     -34.758   5.491   3.529  1.00 20.00     0.078 C 
BRANCH   3   4
HETATM    4  C6  UNL     1     -34.619   4.677   4.813  1.00 20.00     0.003 C 
HETATM    5  C2  UNL     1     -34.747   5.535   6.064  1.00 20.00     0.005 C 
ENDBRANCH   3   4
ENDBRANCH   1   3
BRANCH   1   6
HETATM    6  C9  UNL     1     -32.965   7.117   2.604  1.00 20.00     0.054 C 
BRANCH   6   7
HETATM    7  C7  UNL     1     -32.477   7.334   1.162  1.00 20.00     0.007 C 
HETATM    8  C3  UNL     1     -32.850   8.704   0.612  1.00 20.00     0.006 C 
ENDBRANCH   6   7
BRANCH   6   9
HETATM    9  C8  UNL     1     -31.838   7.418   3.605  1.00 20.00     0.007 C 
HETATM   10  C4  UNL     1     -32.357   7.926   4.944  1.00 20.00     0.006 C 
ENDBRANCH   6   9
ENDBRANCH   1   6
TORSDOF 5
ENDMDL
MODEL 9
REMARK VINA RESULT:      -4.5     10.391     11.815
REMARK  5 active torsions:
REMARK  status: ('A' for Active; 'I' for Inactive)
REMARK    1  A    between atoms: C1_1  and  C5_5 
REMARK    2  A    between atoms: C1_1  and  C9_9 
REMARK    3  A    between atoms: C5_5  and  C6_6 
REMARK    4  A    between atoms: C7_7  and  C9_9 
REMARK    5  A    between atoms: C8_8  and  C9_9 
ROOT
HETATM    1  C1  UNL     1     -35.131  13.980  -3.976  1.00 20.00     0.131 C 
HETATM    2  O10 UNL     1     -34.513  12.916  -3.933  1.00 20.00    -0.298 OA
ENDROOT
BRANCH   1   3
HETATM    3  C5  UNL     1     -34.766  15.172  -3.103  1.00 20.00     0.078 C 
BRANCH   3   4
HETATM    4  C6  UNL     1     -33.401  15.776  -3.425  1.00 20.00     0.003 C 
HETATM    5  C2  UNL     1     -33.073  16.977  -2.549  1.00 20.00     0.005 C 
ENDBRANCH   3   4
ENDBRANCH   1   3
BRANCH   1   6
HETATM    6  C9  UNL     1     -36.301  14.183  -4.941  1.00 20.00     0.054 C 
BRANCH   6   7
HETATM    7  C7  UNL     1     -35.768  14.585  -6.326  1.00 20.00     0.007 C 
HETATM    8  C3  UNL     1     -35.815  16.089  -6.564  1.00 20.00     0.006 C 
ENDBRANCH   6   7
BRANCH   6   9
HETATM    9  C8  UNL     1     -37.254  15.260  -4.396  1.00 20.00     0.007 C 
HETATM   10  C4  UNL     1     -38.687  14.764  -4.256  1.00 20.00     0.006 C 
ENDBRANCH   6   9
ENDBRANCH   1   6
TORSDOF 5
ENDMDL
