MODEL 1
REMARK VINA RESULT:      -3.9      0.000      0.000
REMARK  2 active torsions:
REMARK  status: ('A' for Active; 'I' for Inactive)
REMARK    1  A    between atoms: C1_1  and  C6_6 
REMARK    2  A    between atoms: C6_6  and  O8_8 
ROOT
HETATM    1  C3  UNL     1     -35.489  16.215  -5.288  1.00 20.00     0.054 C 
HETATM    2  C4  UNL     1     -34.287  15.186  -3.342  1.00 20.00     0.054 C 
HETATM    3  C6  UNL     1     -34.960  14.914  -4.684  1.00 20.00     0.112 C 
ENDROOT
BRANCH   3   4
HETATM    4  C1  UNL     1     -36.088  13.890  -4.504  1.00 20.00     0.156 C 
HETATM    5  C2  UNL     1     -37.493  14.410  -4.321  1.00 20.00     0.094 C 
HETATM    6  O7  UNL     1     -35.876  12.676  -4.537  1.00 20.00    -0.295 OA
ENDBRANCH   3   4
BRANCH   3   7
HETATM    7  O8  UNL     1     -33.988  14.373  -5.568  1.00 20.00    -0.378 OA
HETATM    8  C5  UNL     1     -33.985  15.050  -6.818  1.00 20.00     0.203 C 
ENDBRANCH   3   7
TORSDOF 2
ENDMDL
MODEL 2
REMARK VINA RESULT:      -3.7      1.024      1.320
REMARK  2 active torsions:
REMARK  status: ('A' for Active; 'I' for Inactive)
REMARK    1  A    between atoms: C1_1  and  C6_6 
REMARK    2  A    between atoms: C6_6  and  O8_8 
ROOT
HETATM    1  C3  UNL     1     -35.008  15.591  -2.767  1.00 20.00     0.054 C 
HETATM    2  C4  UNL     1     -33.548  14.237  -4.291  1.00 20.00     0.054 C 
HETATM    3  C6  UNL     1     -34.902  14.925  -4.139  1.00 20.00     0.112 C 
ENDROOT
BRANCH   3   4
HETATM    4  C1  UNL     1     -36.030  13.908  -4.349  1.00 20.00     0.156 C 
HETATM    5  C2  UNL     1     -37.450  14.422  -4.370  1.00 20.00     0.094 C 
HETATM    6  O7  UNL     1     -35.803  12.710  -4.528  1.00 20.00    -0.295 OA
ENDBRANCH   3   4
BRANCH   3   7
HETATM    7  O8  UNL     1     -35.003  15.933  -5.134  1.00 20.00    -0.378 OA
HETATM    8  C5  UNL     1     -34.446  15.505  -6.370  1.00 20.00     0.203 C 
ENDBRANCH   3   7
TORSDOF 2
ENDMDL
MODEL 3
REMARK VINA RESULT:      -3.6      1.649      3.201
REMARK  2 active torsions:
REMARK  status: ('A' for Active; 'I' for Inactive)
REMARK    1  A    between atoms: C1_1  and  C6_6 
REMARK    2  A    between atoms: C6_6  and  O8_8 
ROOT
HETATM    1  C3  UNL     1     -36.798  15.911  -3.631  1.00 20.00     0.054 C 
HETATM    2  C4  UNL     1     -36.668  15.250  -6.047  1.00 20.00     0.054 C 
HETATM    3  C6  UNL     1     -36.783  14.740  -4.613  1.00 20.00     0.112 C 
ENDROOT
BRANCH   3   4
HETATM    4  C1  UNL     1     -35.629  13.777  -4.308  1.00 20.00     0.156 C 
HETATM    5  C2  UNL     1     -34.336  14.364  -3.795  1.00 20.00     0.094 C 
HETATM    6  O7  UNL     1     -35.745  12.557  -4.442  1.00 20.00    -0.295 OA
ENDBRANCH   3   4
BRANCH   3   7
HETATM    7  O8  UNL     1     -38.011  14.036  -4.488  1.00 20.00    -0.378 OA
HETATM    8  C5  UNL     1     -39.083  14.910  -4.161  1.00 20.00     0.203 C 
ENDBRANCH   3   7
TORSDOF 2
ENDMDL
MODEL 4
REMARK VINA RESULT:      -3.6      1.404      2.353
REMARK  2 active torsions:
REMARK  status: ('A' for Active; 'I' for Inactive)
REMARK    1  A    between atoms: C1_1  and  C6_6 
REMARK    2  A    between atoms: C6_6  and  O8_8 
ROOT
HETATM    1  C3  UNL     1     -33.476  14.321  -4.388  1.00 20.00     0.054 C 
HETATM    2  C4  UNL     1     -35.081  16.198  -4.820  1.00 20.00     0.054 C 
HETATM    3  C6  UNL     1     -34.840  14.913  -4.034  1.00 20.00     0.112 C 
ENDROOT
BRANCH   3   4
HETATM    4  C1  UNL     1     -35.967  13.911  -4.315  1.00 20.00     0.156 C 
HETATM    5  C2  UNL     1     -37.381  14.437  -4.379  1.00 20.00     0.094 C 
HETATM    6  O7  UNL     1     -35.741  12.716  -4.516  1.00 20.00    -0.295 OA
ENDBRANCH   3   4
BRANCH   3   7
HETATM    7  O8  UNL     1     -34.845  15.230  -2.650  1.00 20.00    -0.378 OA
HETATM    8  C5  UNL     1     -34.020  16.353  -2.368  1.00 20.00     0.203 C 
ENDBRANCH   3   7
TORSDOF 2
ENDMDL
MODEL 5
REMARK VINA RESULT:      -3.5      1.113      2.827
REMARK  2 active torsions:
REMARK  status: ('A' for Active; 'I' for Inactive)
REMARK    1  A    between atoms: C1_1  and  C6_6 
REMARK    2  A    between atoms: C6_6  and  O8_8 
ROOT
HETATM    1  C3  UNL     1     -35.421  16.221  -5.302  1.00 20.00     0.054 C 
HETATM    2  C4  UNL     1     -33.948  15.049  -6.960  1.00 20.00     0.054 C 
HETATM    3  C6  UNL     1     -34.662  14.931  -5.617  1.00 20.00     0.112 C 
ENDROOT
BRANCH   3   4
HETATM    4  C1  UNL     1     -33.649  14.603  -4.514  1.00 20.00     0.156 C 
HETATM    5  C2  UNL     1     -33.340  15.674  -3.495  1.00 20.00     0.094 C 
HETATM    6  O7  UNL     1     -33.116  13.494  -4.427  1.00 20.00    -0.295 OA
ENDBRANCH   3   4
BRANCH   3   7
HETATM    7  O8  UNL     1     -35.602  13.870  -5.704  1.00 20.00    -0.378 OA
HETATM    8  C5  UNL     1     -36.541  13.915  -4.638  1.00 20.00     0.203 C 
ENDBRANCH   3   7
TORSDOF 2
ENDMDL
MODEL 6
REMARK VINA RESULT:      -3.5     19.052     19.720
REMARK  2 active torsions:
REMARK  status: ('A' for Active; 'I' for Inactive)
REMARK    1  A    between atoms: C1_1  and  C6_6 
REMARK    2  A    between atoms: C6_6  and  O8_8 
ROOT
HETATM    1  C3  UNL     1     -22.956  17.757  12.194  1.00 20.00     0.054 C 
HETATM    2  C4  UNL     1     -24.567  15.944  11.557  1.00 20.00     0.054 C 
HETATM    3  C6  UNL     1     -23.954  17.277  11.139  1.00 20.00     0.112 C 
ENDROOT
BRANCH   3   4
HETATM    4  C1  UNL     1     -25.062  18.313  10.915  1.00 20.00     0.156 C 
HETATM    5  C2  UNL     1     -25.938  18.678  12.089  1.00 20.00     0.094 C 
HETATM    6  O7  UNL     1     -25.227  18.865   9.824  1.00 20.00    -0.295 OA
ENDBRANCH   3   4
BRANCH   3   7
HETATM    7  O8  UNL     1     -23.255  17.083   9.918  1.00 20.00    -0.378 OA
HETATM    8  C5  UNL     1     -21.993  17.737   9.929  1.00 20.00     0.203 C 
ENDBRANCH   3   7
TORSDOF 2
ENDMDL
MODEL 7
REMARK VINA RESULT:      -3.5     18.534     19.792
REMARK  2 active torsions:
REMARK  status: ('A' for Active; 'I' for Inactive)
REMARK    1  A    between atoms: C1_1  and  C6_6 
REMARK    2  A    between atoms: C6_6  and  O8_8 
ROOT
HETATM    1  C3  UNL     1     -22.739  17.841  12.071  1.00 20.00     0.054 C 
HETATM    2  C4  UNL     1     -25.061  18.434  11.335  1.00 20.00     0.054 C 
HETATM    3  C6  UNL     1     -23.741  17.792  10.918  1.00 20.00     0.112 C 
ENDROOT
BRANCH   3   4
HETATM    4  C1  UNL     1     -23.188  18.496   9.674  1.00 20.00     0.156 C 
HETATM    5  C2  UNL     1     -24.160  19.244   8.794  1.00 20.00     0.094 C 
HETATM    6  O7  UNL     1     -21.985  18.489   9.402  1.00 20.00    -0.295 OA
ENDBRANCH   3   4
BRANCH   3   7
HETATM    7  O8  UNL     1     -23.990  16.430  10.600  1.00 20.00    -0.378 OA
HETATM    8  C5  UNL     1     -24.622  15.749  11.676  1.00 20.00     0.203 C 
ENDBRANCH   3   7
TORSDOF 2
ENDMDL
MODEL 8
REMARK VINA RESULT:      -3.5      1.677      2.192
REMARK  2 active torsions:
REMARK  status: ('A' for Active; 'I' for Inactive)
REMARK    1  A    between atoms: C1_1  and  C6_6 
REMARK    2  A    between atoms: C6_6  and  O8_8 
ROOT
HETATM    1  C3  UNL     1     -34.972  15.838  -2.333  1.00 20.00     0.054 C 
HETATM    2  C4  UNL     1     -33.091  15.328  -3.911  1.00 20.00     0.054 C 
HETATM    3  C6  UNL     1     -34.606  15.379  -3.745  1.00 20.00     0.112 C 
ENDROOT
BRANCH   3   4
HETATM    4  C1  UNL     1     -35.212  14.005  -4.055  1.00 20.00     0.156 C 
HETATM    5  C2  UNL     1     -36.649  13.954  -4.517  1.00 20.00     0.094 C 
HETATM    6  O7  UNL     1     -34.553  12.967  -3.965  1.00 20.00    -0.295 OA
ENDBRANCH   3   4
BRANCH   3   7
HETATM    7  O8  UNL     1     -35.123  16.326  -4.670  1.00 20.00    -0.378 OA
HETATM    8  C5  UNL     1     -35.508  17.531  -4.024  1.00 20.00     0.203 C 
ENDBRANCH   3   7
TORSDOF 2
ENDMDL
MODEL 9
REMARK VINA RESULT:      -3.4     10.106     11.960
REMARK  2 active torsions:
REMARK  status: ('A' for Active; 'I' for Inactive)
REMARK    1  A    between atoms: C1_1  and  C6_6 
REMARK    2  A    between atoms: C6_6  and  O8_8 
ROOT
HETATM    1  C3  UNL     1     -43.412   5.394  -0.969  1.00 20.00     0.054 C 
HETATM    2  C4  UNL     1     -40.908   5.513  -0.980  1.00 20.00     0.054 C 
HETATM    3  C6  UNL     1     -42.190   6.181  -0.496  1.00 20.00     0.112 C 
ENDROOT
BRANCH   3   4
HETATM    4  C1  UNL     1     -42.241   7.632  -0.990  1.00 20.00     0.156 C 
HETATM    5  C2  UNL     1     -41.411   8.658  -0.256  1.00 20.00     0.094 C 
HETATM    6  O7  UNL     1     -42.909   7.963  -1.972  1.00 20.00    -0.295 OA
ENDBRANCH   3   4
BRANCH   3   7
HETATM    7  O8  UNL     1     -42.182   6.182   0.925  1.00 20.00    -0.378 OA
HETATM    8  C5  UNL     1     -43.151   5.286   1.453  1.00 20.00     0.203 C 
ENDBRANCH   3   7
TORSDOF 2
ENDMDL
