MODEL 1
REMARK VINA RESULT:      -3.8      0.000      0.000
REMARK  4 active torsions:
REMARK  status: ('A' for Active; 'I' for Inactive)
REMARK    1  A    between atoms: C2_2  and  C5_5 
REMARK    2  A    between atoms: C2_2  and  C6_6 
REMARK    3  A    between atoms: C5_5  and  O7_7 
REMARK    4  A    between atoms: C6_6  and  S8_8 
ROOT
HETATM    1  C1  UNL     1     -35.096  15.344  -2.906  1.00 20.00    -0.025 C 
HETATM    2  C2  UNL     1     -35.001  14.661  -4.065  1.00 20.00    -0.051 C 
HETATM    3  C3  UNL     1     -34.089  16.271  -2.304  1.00 20.00     0.036 C 
ENDROOT
BRANCH   2   4
HETATM    4  C5  UNL     1     -36.146  13.784  -4.512  1.00 20.00     0.198 C 
BRANCH   4   5
HETATM    5  O7  UNL     1     -35.845  12.424  -4.221  1.00 20.00    -0.397 OA
HETATM    6  H20 UNL     1     -34.969  12.245  -4.599  1.00 20.00     0.209 HD
ENDBRANCH   4   5
ENDBRANCH   2   4
BRANCH   2   7
HETATM    7  C6  UNL     1     -33.791  14.686  -4.965  1.00 20.00     0.109 C 
BRANCH   7   8
HETATM    8  S8  UNL     1     -34.253  15.165  -6.654  1.00 20.00    -0.169 SA
HETATM    9  C4  UNL     1     -34.738  16.873  -6.319  1.00 20.00     0.090 C 
ENDBRANCH   7   8
ENDBRANCH   2   7
TORSDOF 4
ENDMDL
MODEL 2
REMARK VINA RESULT:      -3.7      1.704      2.180
REMARK  4 active torsions:
REMARK  status: ('A' for Active; 'I' for Inactive)
REMARK    1  A    between atoms: C2_2  and  C5_5 
REMARK    2  A    between atoms: C2_2  and  C6_6 
REMARK    3  A    between atoms: C5_5  and  O7_7 
REMARK    4  A    between atoms: C6_6  and  S8_8 
ROOT
HETATM    1  C1  UNL     1     -34.067  15.914  -2.666  1.00 20.00    -0.025 C 
HETATM    2  C2  UNL     1     -34.125  14.992  -3.648  1.00 20.00    -0.051 C 
HETATM    3  C3  UNL     1     -35.169  16.351  -1.754  1.00 20.00     0.036 C 
ENDROOT
BRANCH   2   4
HETATM    4  C5  UNL     1     -32.886  14.676  -4.451  1.00 20.00     0.198 C 
BRANCH   4   5
HETATM    5  O7  UNL     1     -32.681  13.269  -4.475  1.00 20.00    -0.397 OA
HETATM    6  H20 UNL     1     -33.554  12.861  -4.589  1.00 20.00     0.209 HD
ENDBRANCH   4   5
ENDBRANCH   2   4
BRANCH   2   7
HETATM    7  C6  UNL     1     -35.378  14.246  -4.035  1.00 20.00     0.109 C 
BRANCH   7   8
HETATM    8  S8  UNL     1     -35.855  14.631  -5.744  1.00 20.00    -0.169 SA
HETATM    9  C4  UNL     1     -36.595  16.254  -5.450  1.00 20.00     0.090 C 
ENDBRANCH   7   8
ENDBRANCH   2   7
TORSDOF 4
ENDMDL
MODEL 3
REMARK VINA RESULT:      -3.5      1.209      1.380
REMARK  4 active torsions:
REMARK  status: ('A' for Active; 'I' for Inactive)
REMARK    1  A    between atoms: C2_2  and  C5_5 
REMARK    2  A    between atoms: C2_2  and  C6_6 
REMARK    3  A    between atoms: C5_5  and  O7_7 
REMARK    4  A    between atoms: C6_6  and  S8_8 
ROOT
HETATM    1  C1  UNL     1     -34.586  14.819  -3.483  1.00 20.00    -0.025 C 
HETATM    2  C2  UNL     1     -35.547  14.857  -4.428  1.00 20.00    -0.051 C 
HETATM    3  C3  UNL     1     -33.630  15.906  -3.106  1.00 20.00     0.036 C 
ENDROOT
BRANCH   2   4
HETATM    4  C5  UNL     1     -36.429  13.651  -4.646  1.00 20.00     0.198 C 
BRANCH   4   5
HETATM    5  O7  UNL     1     -35.715  12.471  -4.296  1.00 20.00    -0.397 OA
HETATM    6  H20 UNL     1     -36.170  11.731  -4.728  1.00 20.00     0.209 HD
ENDBRANCH   4   5
ENDBRANCH   2   4
BRANCH   2   7
HETATM    7  C6  UNL     1     -35.802  16.039  -5.329  1.00 20.00     0.109 C 
BRANCH   7   8
HETATM    8  S8  UNL     1     -35.726  15.547  -7.075  1.00 20.00    -0.169 SA
HETATM    9  C4  UNL     1     -33.964  15.156  -7.161  1.00 20.00     0.090 C 
ENDBRANCH   7   8
ENDBRANCH   2   7
TORSDOF 4
ENDMDL
MODEL 4
REMARK VINA RESULT:      -3.5     17.089     18.630
REMARK  4 active torsions:
REMARK  status: ('A' for Active; 'I' for Inactive)
REMARK    1  A    between atoms: C2_2  and  C5_5 
REMARK    2  A    between atoms: C2_2  and  C6_6 
REMARK    3  A    between atoms: C5_5  and  O7_7 
REMARK    4  A    between atoms: C6_6  and  S8_8 
ROOT
HETATM    1  C1  UNL     1     -23.882  18.602   8.055  1.00 20.00    -0.025 C 
HETATM    2  C2  UNL     1     -23.598  18.184   9.305  1.00 20.00    -0.051 C 
HETATM    3  C3  UNL     1     -25.162  19.191   7.555  1.00 20.00     0.036 C 
ENDROOT
BRANCH   2   4
HETATM    4  C5  UNL     1     -22.228  17.631   9.615  1.00 20.00     0.198 C 
BRANCH   4   5
HETATM    5  O7  UNL     1     -22.100  16.332   9.051  1.00 20.00    -0.397 OA
HETATM    6  H20 UNL     1     -22.997  16.033   8.830  1.00 20.00     0.209 HD
ENDBRANCH   4   5
ENDBRANCH   2   4
BRANCH   2   7
HETATM    7  C6  UNL     1     -24.583  18.201  10.447  1.00 20.00     0.109 C 
BRANCH   7   8
HETATM    8  S8  UNL     1     -23.860  17.450  11.933  1.00 20.00    -0.169 SA
HETATM    9  C4  UNL     1     -24.620  15.815  11.797  1.00 20.00     0.090 C 
ENDBRANCH   7   8
ENDBRANCH   2   7
TORSDOF 4
ENDMDL
MODEL 5
REMARK VINA RESULT:      -3.3      1.802      2.984
REMARK  4 active torsions:
REMARK  status: ('A' for Active; 'I' for Inactive)
REMARK    1  A    between atoms: C2_2  and  C5_5 
REMARK    2  A    between atoms: C2_2  and  C6_6 
REMARK    3  A    between atoms: C5_5  and  O7_7 
REMARK    4  A    between atoms: C6_6  and  S8_8 
ROOT
HETATM    1  C1  UNL     1     -35.169  14.819  -6.451  1.00 20.00    -0.025 C 
HETATM    2  C2  UNL     1     -35.118  14.492  -5.144  1.00 20.00    -0.051 C 
HETATM    3  C3  UNL     1     -34.113  15.491  -7.268  1.00 20.00     0.036 C 
ENDROOT
BRANCH   2   4
HETATM    4  C5  UNL     1     -36.293  13.793  -4.502  1.00 20.00     0.198 C 
BRANCH   4   5
HETATM    5  O7  UNL     1     -35.954  12.438  -4.237  1.00 20.00    -0.397 OA
HETATM    6  H20 UNL     1     -36.199  12.264  -3.314  1.00 20.00     0.209 HD
ENDBRANCH   4   5
ENDBRANCH   2   4
BRANCH   2   7
HETATM    7  C6  UNL     1     -33.952  14.802  -4.239  1.00 20.00     0.109 C 
BRANCH   7   8
HETATM    8  S8  UNL     1     -34.495  15.754  -2.791  1.00 20.00    -0.169 SA
HETATM    9  C4  UNL     1     -33.088  16.882  -2.676  1.00 20.00     0.090 C 
ENDBRANCH   7   8
ENDBRANCH   2   7
TORSDOF 4
ENDMDL
MODEL 6
REMARK VINA RESULT:      -3.3      2.353      3.130
REMARK  4 active torsions:
REMARK  status: ('A' for Active; 'I' for Inactive)
REMARK    1  A    between atoms: C2_2  and  C5_5 
REMARK    2  A    between atoms: C2_2  and  C6_6 
REMARK    3  A    between atoms: C5_5  and  O7_7 
REMARK    4  A    between atoms: C6_6  and  S8_8 
ROOT
HETATM    1  C1  UNL     1     -35.550  14.160  -4.577  1.00 20.00    -0.025 C 
HETATM    2  C2  UNL     1     -34.494  14.718  -3.949  1.00 20.00    -0.051 C 
HETATM    3  C3  UNL     1     -37.000  14.329  -4.254  1.00 20.00     0.036 C 
ENDROOT
BRANCH   2   4
HETATM    4  C5  UNL     1     -33.096  14.435  -4.445  1.00 20.00     0.198 C 
BRANCH   4   5
HETATM    5  O7  UNL     1     -33.068  14.519  -5.864  1.00 20.00    -0.397 OA
HETATM    6  H20 UNL     1     -32.556  13.758  -6.179  1.00 20.00     0.209 HD
ENDBRANCH   4   5
ENDBRANCH   2   4
BRANCH   2   7
HETATM    7  C6  UNL     1     -34.604  15.609  -2.738  1.00 20.00     0.109 C 
BRANCH   7   8
HETATM    8  S8  UNL     1     -33.276  16.846  -2.726  1.00 20.00    -0.169 SA
HETATM    9  C4  UNL     1     -33.965  17.984  -3.949  1.00 20.00     0.090 C 
ENDBRANCH   7   8
ENDBRANCH   2   7
TORSDOF 4
ENDMDL
MODEL 7
REMARK VINA RESULT:      -3.3      2.668      3.181
REMARK  4 active torsions:
REMARK  status: ('A' for Active; 'I' for Inactive)
REMARK    1  A    between atoms: C2_2  and  C5_5 
REMARK    2  A    between atoms: C2_2  and  C6_6 
REMARK    3  A    between atoms: C5_5  and  O7_7 
REMARK    4  A    between atoms: C6_6  and  S8_8 
ROOT
HETATM    1  C1  UNL     1     -35.027  15.070  -3.237  1.00 20.00    -0.025 C 
HETATM    2  C2  UNL     1     -36.128  14.957  -4.008  1.00 20.00    -0.051 C 
HETATM    3  C3  UNL     1     -34.760  16.076  -2.164  1.00 20.00     0.036 C 
ENDROOT
BRANCH   2   4
HETATM    4  C5  UNL     1     -36.213  13.851  -5.032  1.00 20.00     0.198 C 
BRANCH   4   5
HETATM    5  O7  UNL     1     -35.836  12.618  -4.433  1.00 20.00    -0.397 OA
HETATM    6  H20 UNL     1     -35.092  12.271  -4.952  1.00 20.00     0.209 HD
ENDBRANCH   4   5
ENDBRANCH   2   4
BRANCH   2   7
HETATM    7  C6  UNL     1     -37.307  15.895  -3.941  1.00 20.00     0.109 C 
BRANCH   7   8
HETATM    8  S8  UNL     1     -38.857  15.006  -4.259  1.00 20.00    -0.169 SA
HETATM    9  C4  UNL     1     -39.982  16.118  -3.385  1.00 20.00     0.090 C 
ENDBRANCH   7   8
ENDBRANCH   2   7
TORSDOF 4
ENDMDL
MODEL 8
REMARK VINA RESULT:      -3.2      1.845      2.130
REMARK  4 active torsions:
REMARK  status: ('A' for Active; 'I' for Inactive)
REMARK    1  A    between atoms: C2_2  and  C5_5 
REMARK    2  A    between atoms: C2_2  and  C6_6 
REMARK    3  A    between atoms: C5_5  and  O7_7 
REMARK    4  A    between atoms: C6_6  and  S8_8 
ROOT
HETATM    1  C1  UNL     1     -34.352  14.828  -3.794  1.00 20.00    -0.025 C 
HETATM    2  C2  UNL     1     -35.677  14.857  -4.043  1.00 20.00    -0.051 C 
HETATM    3  C3  UNL     1     -33.530  15.859  -3.089  1.00 20.00     0.036 C 
ENDROOT
BRANCH   2   4
HETATM    4  C5  UNL     1     -36.328  13.698  -4.759  1.00 20.00     0.198 C 
BRANCH   4   5
HETATM    5  O7  UNL     1     -35.861  12.474  -4.206  1.00 20.00    -0.397 OA
HETATM    6  H20 UNL     1     -35.050  12.242  -4.686  1.00 20.00     0.209 HD
ENDBRANCH   4   5
ENDBRANCH   2   4
BRANCH   2   7
HETATM    7  C6  UNL     1     -36.582  16.005  -3.673  1.00 20.00     0.109 C 
BRANCH   7   8
HETATM    8  S8  UNL     1     -36.653  17.228  -5.013  1.00 20.00    -0.169 SA
HETATM    9  C4  UNL     1     -35.885  18.615  -4.144  1.00 20.00     0.090 C 
ENDBRANCH   7   8
ENDBRANCH   2   7
TORSDOF 4
ENDMDL
MODEL 9
REMARK VINA RESULT:      -3.1      2.255      3.426
REMARK  4 active torsions:
REMARK  status: ('A' for Active; 'I' for Inactive)
REMARK    1  A    between atoms: C2_2  and  C5_5 
REMARK    2  A    between atoms: C2_2  and  C6_6 
REMARK    3  A    between atoms: C5_5  and  O7_7 
REMARK    4  A    between atoms: C6_6  and  S8_8 
ROOT
HETATM    1  C1  UNL     1     -35.925  14.330  -5.585  1.00 20.00    -0.025 C 
HETATM    2  C2  UNL     1     -35.033  15.322  -5.778  1.00 20.00    -0.051 C 
HETATM    3  C3  UNL     1     -36.859  14.150  -4.430  1.00 20.00     0.036 C 
ENDROOT
BRANCH   2   4
HETATM    4  C5  UNL     1     -34.188  15.335  -7.030  1.00 20.00     0.198 C 
BRANCH   4   5
HETATM    5  O7  UNL     1     -33.074  14.468  -6.859  1.00 20.00    -0.397 OA
HETATM    6  H20 UNL     1     -32.418  14.720  -7.529  1.00 20.00     0.209 HD
ENDBRANCH   4   5
ENDBRANCH   2   4
BRANCH   2   7
HETATM    7  C6  UNL     1     -34.789  16.443  -4.799  1.00 20.00     0.109 C 
BRANCH   7   8
HETATM    8  S8  UNL     1     -33.632  15.923  -3.500  1.00 20.00    -0.169 SA
HETATM    9  C4  UNL     1     -34.725  16.130  -2.076  1.00 20.00     0.090 C 
ENDBRANCH   7   8
ENDBRANCH   2   7
TORSDOF 4
ENDMDL
