MODEL 1
REMARK VINA RESULT:      -5.9      0.000      0.000
REMARK  2 active torsions:
REMARK  status: ('A' for Active; 'I' for Inactive)
REMARK    1  A    between atoms: C5_5  and  C7_7 
REMARK    2  A    between atoms: C7_7  and  C8_8 
ROOT
HETATM    1  C1  UNL     1     -34.150   6.415   6.071  1.00 20.00    -0.030 C 
HETATM    2  C2  UNL     1     -33.800   6.928   4.888  1.00 20.00    -0.026 C 
HETATM    3  C3  UNL     1     -34.876   5.121   5.924  1.00 20.00     0.027 C 
HETATM    4  C4  UNL     1     -34.603   4.746   4.467  1.00 20.00     0.012 C 
HETATM    5  C5  UNL     1     -34.243   6.057   3.752  1.00 20.00     0.008 C 
ENDROOT
BRANCH   5   6
HETATM    6  C7  UNL     1     -33.168   5.862   2.693  1.00 20.00     0.008 C 
BRANCH   6   7
HETATM    7  C8  UNL     1     -32.258   7.084   2.590  1.00 20.00    -0.004 C 
HETATM    8  C6  UNL     1     -32.594   7.926   1.370  1.00 20.00     0.005 C 
ENDBRANCH   6   7
ENDBRANCH   5   6
TORSDOF 2
ENDMDL
MODEL 2
REMARK VINA RESULT:      -5.1      0.594      1.495
REMARK  2 active torsions:
REMARK  status: ('A' for Active; 'I' for Inactive)
REMARK    1  A    between atoms: C5_5  and  C7_7 
REMARK    2  A    between atoms: C7_7  and  C8_8 
ROOT
HETATM    1  C1  UNL     1     -35.121   5.059   5.193  1.00 20.00    -0.030 C 
HETATM    2  C2  UNL     1     -34.538   4.797   4.020  1.00 20.00    -0.026 C 
HETATM    3  C3  UNL     1     -34.451   6.183   5.907  1.00 20.00     0.027 C 
HETATM    4  C4  UNL     1     -33.576   6.801   4.816  1.00 20.00     0.012 C 
HETATM    5  C5  UNL     1     -33.373   5.703   3.763  1.00 20.00     0.008 C 
ENDROOT
BRANCH   5   6
HETATM    6  C7  UNL     1     -33.349   6.259   2.347  1.00 20.00     0.008 C 
BRANCH   6   7
HETATM    7  C8  UNL     1     -32.409   7.458   2.233  1.00 20.00    -0.004 C 
HETATM    8  C6  UNL     1     -32.732   8.305   1.014  1.00 20.00     0.005 C 
ENDBRANCH   6   7
ENDBRANCH   5   6
TORSDOF 2
ENDMDL
MODEL 3
REMARK VINA RESULT:      -4.2      1.007      1.580
REMARK  2 active torsions:
REMARK  status: ('A' for Active; 'I' for Inactive)
REMARK    1  A    between atoms: C5_5  and  C7_7 
REMARK    2  A    between atoms: C7_7  and  C8_8 
ROOT
HETATM    1  C1  UNL     1     -34.210   6.183   6.437  1.00 20.00    -0.030 C 
HETATM    2  C2  UNL     1     -33.621   6.986   5.546  1.00 20.00    -0.026 C 
HETATM    3  C3  UNL     1     -35.126   5.206   5.783  1.00 20.00     0.027 C 
HETATM    4  C4  UNL     1     -34.732   5.308   4.309  1.00 20.00     0.012 C 
HETATM    5  C5  UNL     1     -34.055   6.677   4.146  1.00 20.00     0.008 C 
ENDROOT
BRANCH   5   6
HETATM    6  C7  UNL     1     -32.901   6.636   3.156  1.00 20.00     0.008 C 
BRANCH   6   7
HETATM    7  C8  UNL     1     -33.217   5.730   1.967  1.00 20.00    -0.004 C 
HETATM    8  C6  UNL     1     -32.911   4.275   2.280  1.00 20.00     0.005 C 
ENDBRANCH   6   7
ENDBRANCH   5   6
TORSDOF 2
ENDMDL
MODEL 4
REMARK VINA RESULT:      -4.0      1.134      3.634
REMARK  2 active torsions:
REMARK  status: ('A' for Active; 'I' for Inactive)
REMARK    1  A    between atoms: C5_5  and  C7_7 
REMARK    2  A    between atoms: C7_7  and  C8_8 
ROOT
HETATM    1  C1  UNL     1     -33.015   4.636   2.487  1.00 20.00    -0.030 C 
HETATM    2  C2  UNL     1     -34.063   4.235   3.213  1.00 20.00    -0.026 C 
HETATM    3  C3  UNL     1     -32.879   6.121   2.482  1.00 20.00     0.027 C 
HETATM    4  C4  UNL     1     -33.810   6.548   3.617  1.00 20.00     0.012 C 
HETATM    5  C5  UNL     1     -34.804   5.393   3.808  1.00 20.00     0.008 C 
ENDROOT
BRANCH   5   6
HETATM    6  C7  UNL     1     -35.170   5.182   5.269  1.00 20.00     0.008 C 
BRANCH   6   7
HETATM    7  C8  UNL     1     -34.026   5.590   6.196  1.00 20.00    -0.004 C 
HETATM    8  C6  UNL     1     -33.899   7.101   6.291  1.00 20.00     0.005 C 
ENDBRANCH   6   7
ENDBRANCH   5   6
TORSDOF 2
ENDMDL
MODEL 5
REMARK VINA RESULT:      -4.0     11.188     12.165
REMARK  2 active torsions:
REMARK  status: ('A' for Active; 'I' for Inactive)
REMARK    1  A    between atoms: C5_5  and  C7_7 
REMARK    2  A    between atoms: C7_7  and  C8_8 
ROOT
HETATM    1  C1  UNL     1     -32.934  16.783  -2.649  1.00 20.00    -0.030 C 
HETATM    2  C2  UNL     1     -33.236  15.928  -3.631  1.00 20.00    -0.026 C 
HETATM    3  C3  UNL     1     -34.107  17.056  -1.771  1.00 20.00     0.027 C 
HETATM    4  C4  UNL     1     -35.089  15.953  -2.167  1.00 20.00     0.012 C 
HETATM    5  C5  UNL     1     -34.669  15.495  -3.571  1.00 20.00     0.008 C 
ENDROOT
BRANCH   5   6
HETATM    6  C7  UNL     1     -34.850  13.998  -3.770  1.00 20.00     0.008 C 
BRANCH   6   7
HETATM    7  C8  UNL     1     -36.035  13.696  -4.686  1.00 20.00    -0.004 C 
HETATM    8  C6  UNL     1     -35.946  14.476  -5.987  1.00 20.00     0.005 C 
ENDBRANCH   6   7
ENDBRANCH   5   6
TORSDOF 2
ENDMDL
MODEL 6
REMARK VINA RESULT:      -3.9     11.537     12.584
REMARK  2 active torsions:
REMARK  status: ('A' for Active; 'I' for Inactive)
REMARK    1  A    between atoms: C5_5  and  C7_7 
REMARK    2  A    between atoms: C7_7  and  C8_8 
ROOT
HETATM    1  C1  UNL     1     -34.965  15.469  -2.562  1.00 20.00    -0.030 C 
HETATM    2  C2  UNL     1     -35.018  16.522  -1.741  1.00 20.00    -0.026 C 
HETATM    3  C3  UNL     1     -33.813  15.556  -3.503  1.00 20.00     0.027 C 
HETATM    4  C4  UNL     1     -32.959  16.666  -2.890  1.00 20.00     0.012 C 
HETATM    5  C5  UNL     1     -33.907  17.491  -2.008  1.00 20.00     0.008 C 
ENDROOT
BRANCH   5   6
HETATM    6  C7  UNL     1     -33.231  17.990  -0.741  1.00 20.00     0.008 C 
BRANCH   6   7
HETATM    7  C8  UNL     1     -31.762  18.329  -0.988  1.00 20.00    -0.004 C 
HETATM    8  C6  UNL     1     -30.964  18.325   0.305  1.00 20.00     0.005 C 
ENDBRANCH   6   7
ENDBRANCH   5   6
TORSDOF 2
ENDMDL
MODEL 7
REMARK VINA RESULT:      -3.9     11.324     12.362
REMARK  2 active torsions:
REMARK  status: ('A' for Active; 'I' for Inactive)
REMARK    1  A    between atoms: C5_5  and  C7_7 
REMARK    2  A    between atoms: C7_7  and  C8_8 
ROOT
HETATM    1  C1  UNL     1     -34.183  16.273  -2.646  1.00 20.00    -0.030 C 
HETATM    2  C2  UNL     1     -35.204  15.421  -2.776  1.00 20.00    -0.026 C 
HETATM    3  C3  UNL     1     -32.999  15.846  -3.445  1.00 20.00     0.027 C 
HETATM    4  C4  UNL     1     -33.583  14.776  -4.368  1.00 20.00     0.012 C 
HETATM    5  C5  UNL     1     -34.863  14.278  -3.682  1.00 20.00     0.008 C 
ENDROOT
BRANCH   5   6
HETATM    6  C7  UNL     1     -35.965  13.956  -4.680  1.00 20.00     0.008 C 
BRANCH   6   7
HETATM    7  C8  UNL     1     -35.708  14.623  -6.030  1.00 20.00    -0.004 C 
HETATM    8  C6  UNL     1     -36.624  15.817  -6.244  1.00 20.00     0.005 C 
ENDBRANCH   6   7
ENDBRANCH   5   6
TORSDOF 2
ENDMDL
MODEL 8
REMARK VINA RESULT:      -3.9      9.144      9.914
REMARK  2 active torsions:
REMARK  status: ('A' for Active; 'I' for Inactive)
REMARK    1  A    between atoms: C5_5  and  C7_7 
REMARK    2  A    between atoms: C7_7  and  C8_8 
ROOT
HETATM    1  C1  UNL     1     -42.983   7.894   0.741  1.00 20.00    -0.030 C 
HETATM    2  C2  UNL     1     -42.470   6.661   0.698  1.00 20.00    -0.026 C 
HETATM    3  C3  UNL     1     -42.163   8.864  -0.040  1.00 20.00     0.027 C 
HETATM    4  C4  UNL     1     -41.254   7.951  -0.862  1.00 20.00     0.012 C 
HETATM    5  C5  UNL     1     -41.215   6.609  -0.117  1.00 20.00     0.008 C 
ENDROOT
BRANCH   5   6
HETATM    6  C7  UNL     1     -41.167   5.422  -1.067  1.00 20.00     0.008 C 
BRANCH   6   7
HETATM    7  C8  UNL     1     -42.571   4.939  -1.428  1.00 20.00    -0.004 C 
HETATM    8  C6  UNL     1     -42.525   3.773  -2.402  1.00 20.00     0.005 C 
ENDBRANCH   6   7
ENDBRANCH   5   6
TORSDOF 2
ENDMDL
MODEL 9
REMARK VINA RESULT:      -3.8     11.556     12.428
REMARK  2 active torsions:
REMARK  status: ('A' for Active; 'I' for Inactive)
REMARK    1  A    between atoms: C5_5  and  C7_7 
REMARK    2  A    between atoms: C7_7  and  C8_8 
ROOT
HETATM    1  C1  UNL     1     -33.581  14.892  -4.280  1.00 20.00    -0.030 C 
HETATM    2  C2  UNL     1     -33.031  15.830  -3.503  1.00 20.00    -0.026 C 
HETATM    3  C3  UNL     1     -34.931  14.490  -3.793  1.00 20.00     0.027 C 
HETATM    4  C4  UNL     1     -35.269  15.591  -2.788  1.00 20.00     0.012 C 
HETATM    5  C5  UNL     1     -33.927  16.203  -2.362  1.00 20.00     0.008 C 
ENDROOT
BRANCH   5   6
HETATM    6  C7  UNL     1     -34.021  17.705  -2.141  1.00 20.00     0.008 C 
BRANCH   6   7
HETATM    7  C8  UNL     1     -33.340  18.121  -0.838  1.00 20.00    -0.004 C 
HETATM    8  C6  UNL     1     -31.841  18.290  -1.023  1.00 20.00     0.005 C 
ENDBRANCH   6   7
ENDBRANCH   5   6
TORSDOF 2
ENDMDL
