MODEL 1
REMARK VINA RESULT:      -5.1      0.000      0.000
REMARK  2 active torsions:
REMARK  status: ('A' for Active; 'I' for Inactive)
REMARK    1  A    between atoms: C1_1  and  C2_2 
REMARK    2  A    between atoms: C2_2  and  C3_3 
ROOT
HETATM    1  C2  UNL     1     -34.118   6.420   4.140  1.00 20.00     0.203 C 
HETATM    2 CL8  UNL     1     -33.363   7.056   5.634  1.00 20.00    -0.115 Cl
ENDROOT
BRANCH   1   3
HETATM    3  C1  UNL     1     -33.050   6.024   3.120  1.00 20.00     0.143 C 
HETATM    4 CL7  UNL     1     -32.511   7.417   2.147  1.00 20.00    -0.129 Cl
ENDBRANCH   1   3
BRANCH   1   5
HETATM    5  C3  UNL     1     -34.998   5.236   4.500  1.00 20.00     0.405 C 
HETATM    6  F4  UNL     1     -35.114   5.083   5.837  1.00 20.00    -0.169 F 
HETATM    7  F5  UNL     1     -36.243   5.393   3.996  1.00 20.00    -0.169 F 
HETATM    8  F6  UNL     1     -34.503   4.085   3.993  1.00 20.00    -0.169 F 
ENDBRANCH   1   5
TORSDOF 2
ENDMDL
MODEL 2
REMARK VINA RESULT:      -4.5      3.004      3.743
REMARK  2 active torsions:
REMARK  status: ('A' for Active; 'I' for Inactive)
REMARK    1  A    between atoms: C1_1  and  C2_2 
REMARK    2  A    between atoms: C2_2  and  C3_3 
ROOT
HETATM    1  C2  UNL     1     -33.946   6.490   3.748  1.00 20.00     0.203 C 
HETATM    2 CL8  UNL     1     -34.271   4.749   3.481  1.00 20.00    -0.115 Cl
ENDROOT
BRANCH   1   3
HETATM    3  C1  UNL     1     -33.775   6.787   5.237  1.00 20.00     0.143 C 
HETATM    4 CL7  UNL     1     -34.636   5.604   6.255  1.00 20.00    -0.129 Cl
ENDBRANCH   1   3
BRANCH   1   5
HETATM    5  C3  UNL     1     -32.706   6.884   2.964  1.00 20.00     0.405 C 
HETATM    6  F4  UNL     1     -31.766   7.444   3.756  1.00 20.00    -0.169 F 
HETATM    7  F5  UNL     1     -32.150   5.803   2.370  1.00 20.00    -0.169 F 
HETATM    8  F6  UNL     1     -33.005   7.768   1.987  1.00 20.00    -0.169 F 
ENDBRANCH   1   5
TORSDOF 2
ENDMDL
MODEL 3
REMARK VINA RESULT:      -4.5      3.004      3.739
REMARK  2 active torsions:
REMARK  status: ('A' for Active; 'I' for Inactive)
REMARK    1  A    between atoms: C1_1  and  C2_2 
REMARK    2  A    between atoms: C2_2  and  C3_3 
ROOT
HETATM    1  C2  UNL     1     -33.941   6.515   3.762  1.00 20.00     0.203 C 
HETATM    2 CL8  UNL     1     -34.313   4.784   3.492  1.00 20.00    -0.115 Cl
ENDROOT
BRANCH   1   3
HETATM    3  C1  UNL     1     -33.750   6.802   5.251  1.00 20.00     0.143 C 
HETATM    4 CL7  UNL     1     -34.619   5.628   6.272  1.00 20.00    -0.129 Cl
ENDBRANCH   1   3
BRANCH   1   5
HETATM    5  C3  UNL     1     -32.697   6.879   2.969  1.00 20.00     0.405 C 
HETATM    6  F4  UNL     1     -32.144   5.799   2.377  1.00 20.00    -0.169 F 
HETATM    7  F5  UNL     1     -32.993   7.772   1.997  1.00 20.00    -0.169 F 
HETATM    8  F6  UNL     1     -31.760   7.444   3.761  1.00 20.00    -0.169 F 
ENDBRANCH   1   5
TORSDOF 2
ENDMDL
MODEL 4
REMARK VINA RESULT:      -4.5      3.002      3.761
REMARK  2 active torsions:
REMARK  status: ('A' for Active; 'I' for Inactive)
REMARK    1  A    between atoms: C1_1  and  C2_2 
REMARK    2  A    between atoms: C2_2  and  C3_3 
ROOT
HETATM    1  C2  UNL     1     -33.954   6.462   3.743  1.00 20.00     0.203 C 
HETATM    2 CL8  UNL     1     -34.245   4.713   3.494  1.00 20.00    -0.115 Cl
ENDROOT
BRANCH   1   3
HETATM    3  C1  UNL     1     -33.794   6.779   5.229  1.00 20.00     0.143 C 
HETATM    4 CL7  UNL     1     -34.650   5.601   6.256  1.00 20.00    -0.129 Cl
ENDBRANCH   1   3
BRANCH   1   5
HETATM    5  C3  UNL     1     -32.719   6.871   2.958  1.00 20.00     0.405 C 
HETATM    6  F4  UNL     1     -33.010   7.775   1.998  1.00 20.00    -0.169 F 
HETATM    7  F5  UNL     1     -31.793   7.423   3.774  1.00 20.00    -0.169 F 
HETATM    8  F6  UNL     1     -32.142   5.804   2.363  1.00 20.00    -0.169 F 
ENDBRANCH   1   5
TORSDOF 2
ENDMDL
MODEL 5
REMARK VINA RESULT:      -4.5      1.819      2.429
REMARK  2 active torsions:
REMARK  status: ('A' for Active; 'I' for Inactive)
REMARK    1  A    between atoms: C1_1  and  C2_2 
REMARK    2  A    between atoms: C2_2  and  C3_3 
ROOT
HETATM    1  C2  UNL     1     -34.557   5.789   4.416  1.00 20.00     0.203 C 
HETATM    2 CL8  UNL     1     -33.368   6.972   3.788  1.00 20.00    -0.115 Cl
ENDROOT
BRANCH   1   3
HETATM    3  C1  UNL     1     -34.347   4.418   3.775  1.00 20.00     0.143 C 
HETATM    4 CL7  UNL     1     -33.177   4.484   2.432  1.00 20.00    -0.129 Cl
ENDBRANCH   1   3
BRANCH   1   5
HETATM    5  C3  UNL     1     -34.424   5.715   5.927  1.00 20.00     0.405 C 
HETATM    6  F4  UNL     1     -33.789   4.590   6.322  1.00 20.00    -0.169 F 
HETATM    7  F5  UNL     1     -33.723   6.769   6.400  1.00 20.00    -0.169 F 
HETATM    8  F6  UNL     1     -35.635   5.738   6.527  1.00 20.00    -0.169 F 
ENDBRANCH   1   5
TORSDOF 2
ENDMDL
MODEL 6
REMARK VINA RESULT:      -4.2      1.562      2.138
REMARK  2 active torsions:
REMARK  status: ('A' for Active; 'I' for Inactive)
REMARK    1  A    between atoms: C1_1  and  C2_2 
REMARK    2  A    between atoms: C2_2  and  C3_3 
ROOT
HETATM    1  C2  UNL     1     -33.471   5.674   3.965  1.00 20.00     0.203 C 
HETATM    2 CL8  UNL     1     -33.634   4.670   2.490  1.00 20.00    -0.115 Cl
ENDROOT
BRANCH   1   3
HETATM    3  C1  UNL     1     -33.284   7.146   3.599  1.00 20.00     0.143 C 
HETATM    4 CL7  UNL     1     -32.480   7.343   2.021  1.00 20.00    -0.129 Cl
ENDBRANCH   1   3
BRANCH   1   5
HETATM    5  C3  UNL     1     -34.701   5.475   4.832  1.00 20.00     0.405 C 
HETATM    6  F4  UNL     1     -35.843   5.598   4.122  1.00 20.00    -0.169 F 
HETATM    7  F5  UNL     1     -34.698   4.246   5.394  1.00 20.00    -0.169 F 
HETATM    8  F6  UNL     1     -34.740   6.376   5.839  1.00 20.00    -0.169 F 
ENDBRANCH   1   5
TORSDOF 2
ENDMDL
MODEL 7
REMARK VINA RESULT:      -4.2      1.562      1.678
REMARK  2 active torsions:
REMARK  status: ('A' for Active; 'I' for Inactive)
REMARK    1  A    between atoms: C1_1  and  C2_2 
REMARK    2  A    between atoms: C2_2  and  C3_3 
ROOT
HETATM    1  C2  UNL     1     -33.467   5.680   3.978  1.00 20.00     0.203 C 
HETATM    2 CL8  UNL     1     -33.640   4.674   2.507  1.00 20.00    -0.115 Cl
ENDROOT
BRANCH   1   3
HETATM    3  C1  UNL     1     -33.282   7.152   3.610  1.00 20.00     0.143 C 
HETATM    4 CL7  UNL     1     -32.481   7.347   2.030  1.00 20.00    -0.129 Cl
ENDBRANCH   1   3
BRANCH   1   5
HETATM    5  C3  UNL     1     -34.691   5.483   4.855  1.00 20.00     0.405 C 
HETATM    6  F4  UNL     1     -34.741   6.385   5.859  1.00 20.00    -0.169 F 
HETATM    7  F5  UNL     1     -35.825   5.611   4.131  1.00 20.00    -0.169 F 
HETATM    8  F6  UNL     1     -34.704   4.249   5.406  1.00 20.00    -0.169 F 
ENDBRANCH   1   5
TORSDOF 2
ENDMDL
MODEL 8
REMARK VINA RESULT:      -4.0      1.460      1.875
REMARK  2 active torsions:
REMARK  status: ('A' for Active; 'I' for Inactive)
REMARK    1  A    between atoms: C1_1  and  C2_2 
REMARK    2  A    between atoms: C2_2  and  C3_3 
ROOT
HETATM    1  C2  UNL     1     -33.652   6.509   3.457  1.00 20.00     0.203 C 
HETATM    2 CL8  UNL     1     -33.856   6.533   5.236  1.00 20.00    -0.115 Cl
ENDROOT
BRANCH   1   3
HETATM    3  C1  UNL     1     -32.348   7.196   3.053  1.00 20.00     0.143 C 
HETATM    4 CL7  UNL     1     -32.430   7.858   1.400  1.00 20.00    -0.129 Cl
ENDBRANCH   1   3
BRANCH   1   5
HETATM    5  C3  UNL     1     -33.684   5.068   2.979  1.00 20.00     0.405 C 
HETATM    6  F4  UNL     1     -34.366   4.271   3.830  1.00 20.00    -0.169 F 
HETATM    7  F5  UNL     1     -34.279   4.978   1.768  1.00 20.00    -0.169 F 
HETATM    8  F6  UNL     1     -32.436   4.567   2.850  1.00 20.00    -0.169 F 
ENDBRANCH   1   5
TORSDOF 2
ENDMDL
MODEL 9
REMARK VINA RESULT:      -4.0      1.342      2.598
REMARK  2 active torsions:
REMARK  status: ('A' for Active; 'I' for Inactive)
REMARK    1  A    between atoms: C1_1  and  C2_2 
REMARK    2  A    between atoms: C2_2  and  C3_3 
ROOT
HETATM    1  C2  UNL     1     -33.240   6.055   3.951  1.00 20.00     0.203 C 
HETATM    2 CL8  UNL     1     -32.664   7.132   2.641  1.00 20.00    -0.115 Cl
ENDROOT
BRANCH   1   3
HETATM    3  C1  UNL     1     -33.933   6.860   5.049  1.00 20.00     0.143 C 
HETATM    4 CL7  UNL     1     -34.604   5.809   6.322  1.00 20.00    -0.129 Cl
ENDBRANCH   1   3
BRANCH   1   5
HETATM    5  C3  UNL     1     -34.175   5.016   3.357  1.00 20.00     0.405 C 
HETATM    6  F4  UNL     1     -34.027   3.810   3.946  1.00 20.00    -0.169 F 
HETATM    7  F5  UNL     1     -35.466   5.391   3.508  1.00 20.00    -0.169 F 
HETATM    8  F6  UNL     1     -33.956   4.861   2.032  1.00 20.00    -0.169 F 
ENDBRANCH   1   5
TORSDOF 2
ENDMDL
