MODEL 1
REMARK VINA RESULT:      -4.3      0.000      0.000
REMARK  0 active torsions:
REMARK  status: ('A' for Active; 'I' for Inactive)
ROOT
HETATM    1  C1  UNL     1     -33.402  17.223  -2.754  1.00 20.00    -0.007 C 
HETATM    2  C2  UNL     1     -33.676  17.660  -4.174  1.00 20.00     0.056 C 
HETATM    3  C3  UNL     1     -35.633  16.424  -2.325  1.00 20.00     0.011 C 
HETATM    4  C4  UNL     1     -35.997  16.811  -3.776  1.00 20.00     0.011 C 
HETATM    5  C5  UNL     1     -34.172  15.949  -2.447  1.00 20.00     0.034 C 
HETATM    6  C6  UNL     1     -34.682  16.532  -4.561  1.00 20.00    -0.032 C 
HETATM    7  C7  UNL     1     -34.120  15.265  -3.838  1.00 20.00    -0.032 C 
HETATM    8  C8  UNL     1     -34.892  16.428  -6.059  1.00 20.00     0.016 C 
HETATM    9  C9  UNL     1     -35.004  14.006  -3.942  1.00 20.00     0.016 C 
HETATM   10  C10 UNL     1     -32.701  14.833  -4.260  1.00 20.00     0.016 C 
HETATM   11  S11 UNL     1     -32.418  18.030  -1.686  1.00 20.00    -0.089 SA
ENDROOT
TORSDOF 0
ENDMDL
MODEL 2
REMARK VINA RESULT:      -4.2      1.058      2.700
REMARK  0 active torsions:
REMARK  status: ('A' for Active; 'I' for Inactive)
ROOT
HETATM    1  C1  UNL     1     -33.976  16.546  -2.888  1.00 20.00    -0.007 C 
HETATM    2  C2  UNL     1     -35.259  15.825  -2.545  1.00 20.00     0.056 C 
HETATM    3  C3  UNL     1     -33.058  14.759  -4.217  1.00 20.00     0.011 C 
HETATM    4  C4  UNL     1     -34.352  13.958  -3.944  1.00 20.00     0.011 C 
HETATM    5  C5  UNL     1     -33.561  16.213  -4.312  1.00 20.00     0.034 C 
HETATM    6  C6  UNL     1     -35.449  15.061  -3.891  1.00 20.00    -0.032 C 
HETATM    7  C7  UNL     1     -34.959  16.078  -4.972  1.00 20.00    -0.032 C 
HETATM    8  C8  UNL     1     -36.854  14.513  -4.057  1.00 20.00     0.016 C 
HETATM    9  C9  UNL     1     -34.912  15.531  -6.413  1.00 20.00     0.016 C 
HETATM   10  C10 UNL     1     -35.739  17.407  -5.038  1.00 20.00     0.016 C 
HETATM   11  S11 UNL     1     -33.140  17.538  -1.852  1.00 20.00    -0.089 SA
ENDROOT
TORSDOF 0
ENDMDL
MODEL 3
REMARK VINA RESULT:      -4.2      2.404      3.564
REMARK  0 active torsions:
REMARK  status: ('A' for Active; 'I' for Inactive)
ROOT
HETATM    1  C1  UNL     1     -35.991  15.844  -5.912  1.00 20.00    -0.007 C 
HETATM    2  C2  UNL     1     -34.671  15.138  -6.111  1.00 20.00     0.056 C 
HETATM    3  C3  UNL     1     -36.722  14.454  -4.086  1.00 20.00     0.011 C 
HETATM    4  C4  UNL     1     -35.381  13.693  -4.195  1.00 20.00     0.011 C 
HETATM    5  C5  UNL     1     -36.328  15.904  -4.432  1.00 20.00     0.034 C 
HETATM    6  C6  UNL     1     -34.374  14.802  -4.618  1.00 20.00    -0.032 C 
HETATM    7  C7  UNL     1     -34.901  16.052  -3.840  1.00 20.00    -0.032 C 
HETATM    8  C8  UNL     1     -32.927  14.413  -4.384  1.00 20.00     0.016 C 
HETATM    9  C9  UNL     1     -34.854  15.935  -2.304  1.00 20.00     0.016 C 
HETATM   10  C10 UNL     1     -34.223  17.390  -4.194  1.00 20.00     0.016 C 
HETATM   11  S11 UNL     1     -36.938  16.447  -7.137  1.00 20.00    -0.089 SA
ENDROOT
TORSDOF 0
ENDMDL
MODEL 4
REMARK VINA RESULT:      -4.1      1.788      2.692
REMARK  0 active torsions:
REMARK  status: ('A' for Active; 'I' for Inactive)
ROOT
HETATM    1  C1  UNL     1     -35.318  17.287  -4.810  1.00 20.00    -0.007 C 
HETATM    2  C2  UNL     1     -36.357  16.193  -4.742  1.00 20.00     0.056 C 
HETATM    3  C3  UNL     1     -34.117  16.586  -2.844  1.00 20.00     0.011 C 
HETATM    4  C4  UNL     1     -35.117  15.414  -2.712  1.00 20.00     0.011 C 
HETATM    5  C5  UNL     1     -33.968  16.747  -4.370  1.00 20.00     0.034 C 
HETATM    6  C6  UNL     1     -35.443  15.055  -4.192  1.00 20.00    -0.032 C 
HETATM    7  C7  UNL     1     -34.074  15.295  -4.908  1.00 20.00    -0.032 C 
HETATM    8  C8  UNL     1     -36.064  13.681  -4.348  1.00 20.00     0.016 C 
HETATM    9  C9  UNL     1     -32.924  14.379  -4.445  1.00 20.00     0.016 C 
HETATM   10  C10 UNL     1     -34.105  15.209  -6.447  1.00 20.00     0.016 C 
HETATM   11  S11 UNL     1     -35.619  18.852  -5.280  1.00 20.00    -0.089 SA
ENDROOT
TORSDOF 0
ENDMDL
MODEL 5
REMARK VINA RESULT:      -4.1      2.250      3.525
REMARK  0 active torsions:
REMARK  status: ('A' for Active; 'I' for Inactive)
ROOT
HETATM    1  C1  UNL     1     -36.682  15.263  -4.126  1.00 20.00    -0.007 C 
HETATM    2  C2  UNL     1     -35.527  14.289  -4.139  1.00 20.00     0.056 C 
HETATM    3  C3  UNL     1     -35.721  16.736  -2.480  1.00 20.00     0.011 C 
HETATM    4  C4  UNL     1     -34.482  15.812  -2.450  1.00 20.00     0.011 C 
HETATM    5  C5  UNL     1     -36.161  16.681  -3.956  1.00 20.00     0.034 C 
HETATM    6  C6  UNL     1     -34.372  15.315  -3.921  1.00 20.00    -0.032 C 
HETATM    7  C7  UNL     1     -34.824  16.569  -4.737  1.00 20.00    -0.032 C 
HETATM    8  C8  UNL     1     -33.010  14.737  -4.254  1.00 20.00     0.016 C 
HETATM    9  C9  UNL     1     -33.918  17.807  -4.591  1.00 20.00     0.016 C 
HETATM   10  C10 UNL     1     -35.012  16.345  -6.251  1.00 20.00     0.016 C 
HETATM   11  S11 UNL     1     -38.282  14.839  -4.260  1.00 20.00    -0.089 SA
ENDROOT
TORSDOF 0
ENDMDL
MODEL 6
REMARK VINA RESULT:      -4.0      1.311      2.914
REMARK  0 active torsions:
REMARK  status: ('A' for Active; 'I' for Inactive)
ROOT
HETATM    1  C1  UNL     1     -35.144  17.459  -2.204  1.00 20.00    -0.007 C 
HETATM    2  C2  UNL     1     -35.161  15.953  -2.087  1.00 20.00     0.056 C 
HETATM    3  C3  UNL     1     -33.073  17.570  -3.429  1.00 20.00     0.011 C 
HETATM    4  C4  UNL     1     -33.023  16.026  -3.386  1.00 20.00     0.011 C 
HETATM    5  C5  UNL     1     -34.580  17.866  -3.556  1.00 20.00     0.034 C 
HETATM    6  C6  UNL     1     -34.522  15.617  -3.470  1.00 20.00    -0.032 C 
HETATM    7  C7  UNL     1     -35.115  16.700  -4.429  1.00 20.00    -0.032 C 
HETATM    8  C8  UNL     1     -34.724  14.168  -3.868  1.00 20.00     0.016 C 
HETATM    9  C9  UNL     1     -34.545  16.689  -5.861  1.00 20.00     0.016 C 
HETATM   10  C10 UNL     1     -36.650  16.692  -4.574  1.00 20.00     0.016 C 
HETATM   11  S11 UNL     1     -35.650  18.508  -1.020  1.00 20.00    -0.089 SA
ENDROOT
TORSDOF 0
ENDMDL
MODEL 7
REMARK VINA RESULT:      -4.0      2.236      3.211
REMARK  0 active torsions:
REMARK  status: ('A' for Active; 'I' for Inactive)
ROOT
HETATM    1  C1  UNL     1     -34.680  16.195  -6.480  1.00 20.00    -0.007 C 
HETATM    2  C2  UNL     1     -35.445  14.892  -6.463  1.00 20.00     0.056 C 
HETATM    3  C3  UNL     1     -36.015  17.267  -4.786  1.00 20.00     0.011 C 
HETATM    4  C4  UNL     1     -36.834  15.961  -4.676  1.00 20.00     0.011 C 
HETATM    5  C5  UNL     1     -34.588  16.760  -5.073  1.00 20.00     0.034 C 
HETATM    6  C6  UNL     1     -35.775  14.851  -4.939  1.00 20.00    -0.032 C 
HETATM    7  C7  UNL     1     -34.494  15.440  -4.262  1.00 20.00    -0.032 C 
HETATM    8  C8  UNL     1     -36.222  13.478  -4.476  1.00 20.00     0.016 C 
HETATM    9  C9  UNL     1     -34.594  15.643  -2.737  1.00 20.00     0.016 C 
HETATM   10  C10 UNL     1     -33.190  14.655  -4.511  1.00 20.00     0.016 C 
HETATM   11  S11 UNL     1     -34.053  16.908  -7.843  1.00 20.00    -0.089 SA
ENDROOT
TORSDOF 0
ENDMDL
MODEL 8
REMARK VINA RESULT:      -4.0      2.439      3.494
REMARK  0 active torsions:
REMARK  status: ('A' for Active; 'I' for Inactive)
ROOT
HETATM    1  C1  UNL     1     -36.990  15.492  -4.509  1.00 20.00    -0.007 C 
HETATM    2  C2  UNL     1     -36.524  16.919  -4.688  1.00 20.00     0.056 C 
HETATM    3  C3  UNL     1     -35.500  14.556  -6.154  1.00 20.00     0.011 C 
HETATM    4  C4  UNL     1     -34.939  15.979  -6.382  1.00 20.00     0.011 C 
HETATM    5  C5  UNL     1     -35.811  14.543  -4.645  1.00 20.00     0.034 C 
HETATM    6  C6  UNL     1     -35.018  16.625  -4.968  1.00 20.00    -0.032 C 
HETATM    7  C7  UNL     1     -34.690  15.420  -4.027  1.00 20.00    -0.032 C 
HETATM    8  C8  UNL     1     -34.148  17.859  -4.827  1.00 20.00     0.016 C 
HETATM    9  C9  UNL     1     -33.277  14.825  -4.194  1.00 20.00     0.016 C 
HETATM   10  C10 UNL     1     -34.874  15.685  -2.519  1.00 20.00     0.016 C 
HETATM   11  S11 UNL     1     -38.561  15.037  -4.225  1.00 20.00    -0.089 SA
ENDROOT
TORSDOF 0
ENDMDL
MODEL 9
REMARK VINA RESULT:      -4.0      2.051      3.399
REMARK  0 active torsions:
REMARK  status: ('A' for Active; 'I' for Inactive)
ROOT
HETATM    1  C1  UNL     1     -34.596  16.982  -5.780  1.00 20.00    -0.007 C 
HETATM    2  C2  UNL     1     -34.410  17.298  -4.314  1.00 20.00     0.056 C 
HETATM    3  C3  UNL     1     -33.687  14.754  -5.650  1.00 20.00     0.011 C 
HETATM    4  C4  UNL     1     -33.489  14.977  -4.134  1.00 20.00     0.011 C 
HETATM    5  C5  UNL     1     -34.990  15.524  -5.948  1.00 20.00     0.034 C 
HETATM    6  C6  UNL     1     -34.700  15.876  -3.743  1.00 20.00    -0.032 C 
HETATM    7  C7  UNL     1     -35.838  15.327  -4.664  1.00 20.00    -0.032 C 
HETATM    8  C8  UNL     1     -34.974  15.891  -2.252  1.00 20.00     0.016 C 
HETATM    9  C9  UNL     1     -36.239  13.861  -4.406  1.00 20.00     0.016 C 
HETATM   10  C10 UNL     1     -37.147  16.142  -4.659  1.00 20.00     0.016 C 
HETATM   11  S11 UNL     1     -34.380  18.067  -7.018  1.00 20.00    -0.089 SA
ENDROOT
TORSDOF 0
ENDMDL
