MODEL 1
REMARK VINA RESULT:      -4.8      0.000      0.000
REMARK  4 active torsions:
REMARK  status: ('A' for Active; 'I' for Inactive)
REMARK    1  A    between atoms: C5_5  and  C6_6 
REMARK    2  A    between atoms: C6_6  and  C9_9 
REMARK    3  A    between atoms: C7_7  and  C8_8 
REMARK    4  A    between atoms: C7_7  and  C9_9 
ROOT
HETATM    1  C4  UNL     1     -31.717   7.577   3.728  1.00 20.00     0.010 C 
HETATM    2  C9  UNL     1     -32.806   6.625   3.221  1.00 20.00    -0.018 C 
ENDROOT
BRANCH   2   3
HETATM    3  C6  UNL     1     -33.033   6.886   1.714  1.00 20.00     0.004 C 
BRANCH   3   4
HETATM    4  C5  UNL     1     -32.514   8.245   1.237  1.00 20.00    -0.004 C 
HETATM    5  C1  UNL     1     -33.256   8.716  -0.005  1.00 20.00     0.005 C 
ENDBRANCH   3   4
ENDBRANCH   2   3
BRANCH   2   6
HETATM    6  C7  UNL     1     -34.116   6.770   4.027  1.00 20.00     0.008 C 
BRANCH   6   7
HETATM    7  C8  UNL     1     -34.799   5.455   4.458  1.00 20.00    -0.022 C 
HETATM    8  C2  UNL     1     -34.745   5.324   5.983  1.00 20.00     0.009 C 
HETATM    9  C3  UNL     1     -34.156   4.227   3.814  1.00 20.00     0.009 C 
ENDBRANCH   6   7
ENDBRANCH   2   6
TORSDOF 4
ENDMDL
MODEL 2
REMARK VINA RESULT:      -4.8      1.212      1.849
REMARK  4 active torsions:
REMARK  status: ('A' for Active; 'I' for Inactive)
REMARK    1  A    between atoms: C5_5  and  C6_6 
REMARK    2  A    between atoms: C6_6  and  C9_9 
REMARK    3  A    between atoms: C7_7  and  C8_8 
REMARK    4  A    between atoms: C7_7  and  C9_9 
ROOT
HETATM    1  C4  UNL     1     -33.015   4.711   2.566  1.00 20.00     0.010 C 
HETATM    2  C9  UNL     1     -33.636   6.114   2.555  1.00 20.00    -0.018 C 
ENDROOT
BRANCH   2   3
HETATM    3  C6  UNL     1     -32.500   7.159   2.471  1.00 20.00     0.004 C 
BRANCH   3   4
HETATM    4  C5  UNL     1     -32.274   7.716   1.063  1.00 20.00    -0.004 C 
HETATM    5  C1  UNL     1     -32.980   9.051   0.876  1.00 20.00     0.005 C 
ENDBRANCH   3   4
ENDBRANCH   2   3
BRANCH   2   6
HETATM    6  C7  UNL     1     -34.538   6.352   3.786  1.00 20.00     0.008 C 
BRANCH   6   7
HETATM    7  C8  UNL     1     -33.943   5.952   5.153  1.00 20.00    -0.022 C 
HETATM    8  C2  UNL     1     -34.891   4.980   5.862  1.00 20.00     0.009 C 
HETATM    9  C3  UNL     1     -33.681   7.162   6.050  1.00 20.00     0.009 C 
ENDBRANCH   6   7
ENDBRANCH   2   6
TORSDOF 4
ENDMDL
MODEL 3
REMARK VINA RESULT:      -4.7      0.990      4.391
REMARK  4 active torsions:
REMARK  status: ('A' for Active; 'I' for Inactive)
REMARK    1  A    between atoms: C5_5  and  C6_6 
REMARK    2  A    between atoms: C6_6  and  C9_9 
REMARK    3  A    between atoms: C7_7  and  C8_8 
REMARK    4  A    between atoms: C7_7  and  C9_9 
ROOT
HETATM    1  C4  UNL     1     -33.310   4.038   2.634  1.00 20.00     0.010 C 
HETATM    2  C9  UNL     1     -33.653   5.342   3.363  1.00 20.00    -0.018 C 
ENDROOT
BRANCH   2   3
HETATM    3  C6  UNL     1     -34.963   5.137   4.159  1.00 20.00     0.004 C 
BRANCH   3   4
HETATM    4  C5  UNL     1     -34.794   5.274   5.675  1.00 20.00    -0.004 C 
HETATM    5  C1  UNL     1     -34.101   6.579   6.039  1.00 20.00     0.005 C 
ENDBRANCH   3   4
ENDBRANCH   2   3
BRANCH   2   6
HETATM    6  C7  UNL     1     -33.763   6.534   2.386  1.00 20.00     0.008 C 
BRANCH   6   7
HETATM    7  C8  UNL     1     -32.441   7.251   2.037  1.00 20.00    -0.022 C 
HETATM    8  C2  UNL     1     -31.725   7.666   3.326  1.00 20.00     0.009 C 
HETATM    9  C3  UNL     1     -32.661   8.478   1.153  1.00 20.00     0.009 C 
ENDBRANCH   6   7
ENDBRANCH   2   6
TORSDOF 4
ENDMDL
MODEL 4
REMARK VINA RESULT:      -4.4      1.129      4.732
REMARK  4 active torsions:
REMARK  status: ('A' for Active; 'I' for Inactive)
REMARK    1  A    between atoms: C5_5  and  C6_6 
REMARK    2  A    between atoms: C6_6  and  C9_9 
REMARK    3  A    between atoms: C7_7  and  C8_8 
REMARK    4  A    between atoms: C7_7  and  C9_9 
ROOT
HETATM    1  C4  UNL     1     -33.299   5.264   2.357  1.00 20.00     0.010 C 
HETATM    2  C9  UNL     1     -32.847   6.370   3.318  1.00 20.00    -0.018 C 
ENDROOT
BRANCH   2   3
HETATM    3  C6  UNL     1     -34.071   6.859   4.125  1.00 20.00     0.004 C 
BRANCH   3   4
HETATM    4  C5  UNL     1     -33.995   6.538   5.621  1.00 20.00    -0.004 C 
HETATM    5  C1  UNL     1     -34.764   5.269   5.955  1.00 20.00     0.005 C 
ENDBRANCH   3   4
ENDBRANCH   2   3
BRANCH   2   6
HETATM    6  C7  UNL     1     -32.157   7.533   2.571  1.00 20.00     0.008 C 
BRANCH   6   7
HETATM    7  C8  UNL     1     -32.800   7.958   1.233  1.00 20.00    -0.022 C 
HETATM    8  C2  UNL     1     -31.826   7.683   0.084  1.00 20.00     0.009 C 
HETATM    9  C3  UNL     1     -33.202   9.433   1.224  1.00 20.00     0.009 C 
ENDBRANCH   6   7
ENDBRANCH   2   6
TORSDOF 4
ENDMDL
MODEL 5
REMARK VINA RESULT:      -4.0     10.478     11.483
REMARK  4 active torsions:
REMARK  status: ('A' for Active; 'I' for Inactive)
REMARK    1  A    between atoms: C5_5  and  C6_6 
REMARK    2  A    between atoms: C6_6  and  C9_9 
REMARK    3  A    between atoms: C7_7  and  C8_8 
REMARK    4  A    between atoms: C7_7  and  C9_9 
ROOT
HETATM    1  C4  UNL     1     -32.654  14.533  -4.408  1.00 20.00     0.010 C 
HETATM    2  C9  UNL     1     -34.035  15.075  -4.020  1.00 20.00    -0.018 C 
ENDROOT
BRANCH   2   3
HETATM    3  C6  UNL     1     -33.889  15.947  -2.752  1.00 20.00     0.004 C 
BRANCH   3   4
HETATM    4  C5  UNL     1     -35.194  16.127  -1.971  1.00 20.00    -0.004 C 
HETATM    5  C1  UNL     1     -35.022  17.113  -0.825  1.00 20.00     0.005 C 
ENDBRANCH   3   4
ENDBRANCH   2   3
BRANCH   2   6
HETATM    6  C7  UNL     1     -35.061  13.938  -3.813  1.00 20.00     0.008 C 
BRANCH   6   7
HETATM    7  C8  UNL     1     -36.215  13.869  -4.835  1.00 20.00    -0.022 C 
HETATM    8  C2  UNL     1     -35.785  14.540  -6.143  1.00 20.00     0.009 C 
HETATM    9  C3  UNL     1     -37.493  14.528  -4.315  1.00 20.00     0.009 C 
ENDBRANCH   6   7
ENDBRANCH   2   6
TORSDOF 4
ENDMDL
MODEL 6
REMARK VINA RESULT:      -3.9     15.620     16.590
REMARK  4 active torsions:
REMARK  status: ('A' for Active; 'I' for Inactive)
REMARK    1  A    between atoms: C5_5  and  C6_6 
REMARK    2  A    between atoms: C6_6  and  C9_9 
REMARK    3  A    between atoms: C7_7  and  C8_8 
REMARK    4  A    between atoms: C7_7  and  C9_9 
ROOT
HETATM    1  C4  UNL     1     -24.673  15.849  11.882  1.00 20.00     0.010 C 
HETATM    2  C9  UNL     1     -24.323  17.259  11.393  1.00 20.00    -0.018 C 
ENDROOT
BRANCH   2   3
HETATM    3  C6  UNL     1     -22.784  17.405  11.356  1.00 20.00     0.004 C 
BRANCH   3   4
HETATM    4  C5  UNL     1     -22.257  18.063  10.078  1.00 20.00    -0.004 C 
HETATM    5  C1  UNL     1     -22.783  17.360   8.835  1.00 20.00     0.005 C 
ENDBRANCH   3   4
ENDBRANCH   2   3
BRANCH   2   6
HETATM    6  C7  UNL     1     -24.976  18.350  12.272  1.00 20.00     0.008 C 
BRANCH   6   7
HETATM    7  C8  UNL     1     -26.163  19.110  11.643  1.00 20.00    -0.022 C 
HETATM    8  C2  UNL     1     -27.470  18.380  11.965  1.00 20.00     0.009 C 
HETATM    9  C3  UNL     1     -26.019  19.263  10.129  1.00 20.00     0.009 C 
ENDBRANCH   6   7
ENDBRANCH   2   6
TORSDOF 4
ENDMDL
MODEL 7
REMARK VINA RESULT:      -3.9     10.532     11.723
REMARK  4 active torsions:
REMARK  status: ('A' for Active; 'I' for Inactive)
REMARK    1  A    between atoms: C5_5  and  C6_6 
REMARK    2  A    between atoms: C6_6  and  C9_9 
REMARK    3  A    between atoms: C7_7  and  C8_8 
REMARK    4  A    between atoms: C7_7  and  C9_9 
ROOT
HETATM    1  C4  UNL     1     -34.056  14.968  -6.077  1.00 20.00     0.010 C 
HETATM    2  C9  UNL     1     -33.889  14.906  -4.554  1.00 20.00    -0.018 C 
ENDROOT
BRANCH   2   3
HETATM    3  C6  UNL     1     -34.900  13.886  -3.983  1.00 20.00     0.004 C 
BRANCH   3   4
HETATM    4  C5  UNL     1     -36.171  13.737  -4.824  1.00 20.00    -0.004 C 
HETATM    5  C1  UNL     1     -37.320  14.543  -4.237  1.00 20.00     0.005 C 
ENDBRANCH   3   4
ENDBRANCH   2   3
BRANCH   2   6
HETATM    6  C7  UNL     1     -34.055  16.297  -3.901  1.00 20.00     0.008 C 
BRANCH   6   7
HETATM    7  C8  UNL     1     -33.788  16.371  -2.382  1.00 20.00    -0.022 C 
HETATM    8  C2  UNL     1     -35.115  16.541  -1.635  1.00 20.00     0.009 C 
HETATM    9  C3  UNL     1     -32.840  17.512  -2.013  1.00 20.00     0.009 C 
ENDBRANCH   6   7
ENDBRANCH   2   6
TORSDOF 4
ENDMDL
MODEL 8
REMARK VINA RESULT:      -3.8     10.724     11.630
REMARK  4 active torsions:
REMARK  status: ('A' for Active; 'I' for Inactive)
REMARK    1  A    between atoms: C5_5  and  C6_6 
REMARK    2  A    between atoms: C6_6  and  C9_9 
REMARK    3  A    between atoms: C7_7  and  C8_8 
REMARK    4  A    between atoms: C7_7  and  C9_9 
ROOT
HETATM    1  C4  UNL     1     -35.275  17.004  -0.902  1.00 20.00     0.010 C 
HETATM    2  C9  UNL     1     -34.309  16.336  -1.888  1.00 20.00    -0.018 C 
ENDROOT
BRANCH   2   3
HETATM    3  C6  UNL     1     -33.155  17.318  -2.195  1.00 20.00     0.004 C 
BRANCH   3   4
HETATM    4  C5  UNL     1     -32.883  18.324  -1.073  1.00 20.00    -0.004 C 
HETATM    5  C1  UNL     1     -31.421  18.300  -0.651  1.00 20.00     0.005 C 
ENDBRANCH   3   4
ENDBRANCH   2   3
BRANCH   2   6
HETATM    6  C7  UNL     1     -35.028  15.882  -3.178  1.00 20.00     0.008 C 
BRANCH   6   7
HETATM    7  C8  UNL     1     -34.681  14.468  -3.688  1.00 20.00    -0.022 C 
HETATM    8  C2  UNL     1     -33.469  14.541  -4.623  1.00 20.00     0.009 C 
HETATM    9  C3  UNL     1     -35.852  13.807  -4.415  1.00 20.00     0.009 C 
ENDBRANCH   6   7
ENDBRANCH   2   6
TORSDOF 4
ENDMDL
MODEL 9
REMARK VINA RESULT:      -3.8     10.799     12.500
REMARK  4 active torsions:
REMARK  status: ('A' for Active; 'I' for Inactive)
REMARK    1  A    between atoms: C5_5  and  C6_6 
REMARK    2  A    between atoms: C6_6  and  C9_9 
REMARK    3  A    between atoms: C7_7  and  C8_8 
REMARK    4  A    between atoms: C7_7  and  C9_9 
ROOT
HETATM    1  C4  UNL     1     -36.076  14.066  -4.297  1.00 20.00     0.010 C 
HETATM    2  C9  UNL     1     -34.663  14.444  -3.835  1.00 20.00    -0.018 C 
ENDROOT
BRANCH   2   3
HETATM    3  C6  UNL     1     -34.772  15.524  -2.735  1.00 20.00     0.004 C 
BRANCH   3   4
HETATM    4  C5  UNL     1     -33.526  16.404  -2.606  1.00 20.00    -0.004 C 
HETATM    5  C1  UNL     1     -33.720  17.488  -1.555  1.00 20.00     0.005 C 
ENDBRANCH   3   4
ENDBRANCH   2   3
BRANCH   2   6
HETATM    6  C7  UNL     1     -33.782  14.918  -5.012  1.00 20.00     0.008 C 
BRANCH   6   7
HETATM    7  C8  UNL     1     -34.526  15.547  -6.209  1.00 20.00    -0.022 C 
HETATM    8  C2  UNL     1     -33.841  15.134  -7.515  1.00 20.00     0.009 C 
HETATM    9  C3  UNL     1     -34.586  17.072  -6.120  1.00 20.00     0.009 C 
ENDBRANCH   6   7
ENDBRANCH   2   6
TORSDOF 4
ENDMDL
