MODEL 1
REMARK VINA RESULT:      -4.5      0.000      0.000
REMARK  3 active torsions:
REMARK  status: ('A' for Active; 'I' for Inactive)
REMARK    1  A    between atoms: C1_1  and  C5_5 
REMARK    2  A    between atoms: C2_2  and  C6_6 
REMARK    3  A    between atoms: C6_6  and  C7_7 
ROOT
HETATM    1  C1  UNL     1     -32.376   7.287   1.917  1.00 20.00     0.150 A 
HETATM    2  C2  UNL     1     -32.837   6.377   3.029  1.00 20.00     0.151 A 
HETATM    3  O8  UNL     1     -31.778   7.325   3.220  1.00 20.00    -0.376 OA
ENDROOT
BRANCH   2   4
HETATM    4  C6  UNL     1     -34.085   6.638   3.857  1.00 20.00     0.034 C 
BRANCH   4   5
HETATM    5  C7  UNL     1     -34.739   5.334   4.309  1.00 20.00    -0.002 C 
HETATM    6  C4  UNL     1     -34.818   5.246   5.824  1.00 20.00     0.005 C 
ENDBRANCH   4   5
ENDBRANCH   2   4
BRANCH   1   7
HETATM    7  C5  UNL     1     -33.099   8.527   1.528  1.00 20.00     0.030 C 
HETATM    8  C3  UNL     1     -33.109   8.763   0.037  1.00 20.00     0.007 C 
ENDBRANCH   1   7
TORSDOF 3
ENDMDL
MODEL 2
REMARK VINA RESULT:      -4.3      1.447      4.427
REMARK  3 active torsions:
REMARK  status: ('A' for Active; 'I' for Inactive)
REMARK    1  A    between atoms: C1_1  and  C5_5 
REMARK    2  A    between atoms: C2_2  and  C6_6 
REMARK    3  A    between atoms: C6_6  and  C7_7 
ROOT
HETATM    1  C1  UNL     1     -33.916   4.797   3.552  1.00 20.00     0.150 A 
HETATM    2  C2  UNL     1     -32.910   5.601   2.766  1.00 20.00     0.151 A 
HETATM    3  O8  UNL     1     -34.032   4.971   2.133  1.00 20.00    -0.376 OA
ENDROOT
BRANCH   2   4
HETATM    4  C6  UNL     1     -32.917   7.120   2.711  1.00 20.00     0.034 C 
BRANCH   4   5
HETATM    5  C7  UNL     1     -32.238   7.637   1.444  1.00 20.00    -0.002 C 
HETATM    6  C4  UNL     1     -32.984   8.824   0.857  1.00 20.00     0.005 C 
ENDBRANCH   4   5
ENDBRANCH   2   4
BRANCH   1   7
HETATM    7  C5  UNL     1     -35.010   5.415   4.346  1.00 20.00     0.030 C 
HETATM    8  C3  UNL     1     -34.785   5.324   5.836  1.00 20.00     0.007 C 
ENDBRANCH   1   7
TORSDOF 3
ENDMDL
MODEL 3
REMARK VINA RESULT:      -4.2      1.539      2.131
REMARK  3 active torsions:
REMARK  status: ('A' for Active; 'I' for Inactive)
REMARK    1  A    between atoms: C1_1  and  C5_5 
REMARK    2  A    between atoms: C2_2  and  C6_6 
REMARK    3  A    between atoms: C6_6  and  C7_7 
ROOT
HETATM    1  C1  UNL     1     -33.222   5.403   2.565  1.00 20.00     0.150 A 
HETATM    2  C2  UNL     1     -34.414   4.752   3.224  1.00 20.00     0.151 A 
HETATM    3  O8  UNL     1     -33.072   4.467   3.641  1.00 20.00    -0.376 OA
ENDROOT
BRANCH   2   4
HETATM    4  C6  UNL     1     -35.273   5.448   4.268  1.00 20.00     0.034 C 
BRANCH   4   5
HETATM    5  C7  UNL     1     -34.699   5.271   5.672  1.00 20.00    -0.002 C 
HETATM    6  C4  UNL     1     -34.118   6.571   6.203  1.00 20.00     0.005 C 
ENDBRANCH   4   5
ENDBRANCH   2   4
BRANCH   1   7
HETATM    7  C5  UNL     1     -32.776   6.786   2.875  1.00 20.00     0.030 C 
HETATM    8  C3  UNL     1     -32.496   7.609   1.641  1.00 20.00     0.007 C 
ENDBRANCH   1   7
TORSDOF 3
ENDMDL
MODEL 4
REMARK VINA RESULT:      -4.1      2.207      4.298
REMARK  3 active torsions:
REMARK  status: ('A' for Active; 'I' for Inactive)
REMARK    1  A    between atoms: C1_1  and  C5_5 
REMARK    2  A    between atoms: C2_2  and  C6_6 
REMARK    3  A    between atoms: C6_6  and  C7_7 
ROOT
HETATM    1  C1  UNL     1     -34.974   4.824   5.077  1.00 20.00     0.150 A 
HETATM    2  C2  UNL     1     -34.544   4.543   3.658  1.00 20.00     0.151 A 
HETATM    3  O8  UNL     1     -35.331   5.693   3.994  1.00 20.00    -0.376 OA
ENDROOT
BRANCH   2   4
HETATM    4  C6  UNL     1     -33.152   4.854   3.132  1.00 20.00     0.034 C 
BRANCH   4   5
HETATM    5  C7  UNL     1     -33.137   6.147   2.320  1.00 20.00    -0.002 C 
HETATM    6  C4  UNL     1     -32.192   7.173   2.924  1.00 20.00     0.005 C 
ENDBRANCH   4   5
ENDBRANCH   2   4
BRANCH   1   7
HETATM    7  C5  UNL     1     -34.076   5.432   6.094  1.00 20.00     0.030 C 
HETATM    8  C3  UNL     1     -34.057   6.941   6.041  1.00 20.00     0.007 C 
ENDBRANCH   1   7
TORSDOF 3
ENDMDL
MODEL 5
REMARK VINA RESULT:      -3.8     10.285     11.247
REMARK  3 active torsions:
REMARK  status: ('A' for Active; 'I' for Inactive)
REMARK    1  A    between atoms: C1_1  and  C5_5 
REMARK    2  A    between atoms: C2_2  and  C6_6 
REMARK    3  A    between atoms: C6_6  and  C7_7 
ROOT
HETATM    1  C1  UNL     1     -36.322  14.026  -5.071  1.00 20.00     0.150 A 
HETATM    2  C2  UNL     1     -35.363  13.956  -3.909  1.00 20.00     0.151 A 
HETATM    3  O8  UNL     1     -35.768  12.781  -4.624  1.00 20.00    -0.376 OA
ENDROOT
BRANCH   2   4
HETATM    4  C6  UNL     1     -33.885  14.295  -4.026  1.00 20.00     0.034 C 
BRANCH   4   5
HETATM    5  C7  UNL     1     -33.565  15.633  -3.363  1.00 20.00    -0.002 C 
HETATM    6  C4  UNL     1     -34.619  16.012  -2.335  1.00 20.00     0.005 C 
ENDBRANCH   4   5
ENDBRANCH   2   4
BRANCH   1   7
HETATM    7  C5  UNL     1     -35.913  14.432  -6.441  1.00 20.00     0.030 C 
HETATM    8  C3  UNL     1     -36.325  15.842  -6.789  1.00 20.00     0.007 C 
ENDBRANCH   1   7
TORSDOF 3
ENDMDL
MODEL 6
REMARK VINA RESULT:      -3.7     10.587     11.843
REMARK  3 active torsions:
REMARK  status: ('A' for Active; 'I' for Inactive)
REMARK    1  A    between atoms: C1_1  and  C5_5 
REMARK    2  A    between atoms: C2_2  and  C6_6 
REMARK    3  A    between atoms: C6_6  and  C7_7 
ROOT
HETATM    1  C1  UNL     1     -35.550  14.974  -6.284  1.00 20.00     0.150 A 
HETATM    2  C2  UNL     1     -35.878  14.619  -4.855  1.00 20.00     0.151 A 
HETATM    3  O8  UNL     1     -35.962  13.653  -5.911  1.00 20.00    -0.376 OA
ENDROOT
BRANCH   2   4
HETATM    4  C6  UNL     1     -34.819  14.325  -3.804  1.00 20.00     0.034 C 
BRANCH   4   5
HETATM    5  C7  UNL     1     -34.637  15.503  -2.849  1.00 20.00    -0.002 C 
HETATM    6  C4  UNL     1     -33.309  16.205  -3.077  1.00 20.00     0.005 C 
ENDBRANCH   4   5
ENDBRANCH   2   4
BRANCH   1   7
HETATM    7  C5  UNL     1     -34.159  15.070  -6.800  1.00 20.00     0.030 C 
HETATM    8  C3  UNL     1     -34.009  16.074  -7.918  1.00 20.00     0.007 C 
ENDBRANCH   1   7
TORSDOF 3
ENDMDL
MODEL 7
REMARK VINA RESULT:      -3.6     15.820     16.346
REMARK  3 active torsions:
REMARK  status: ('A' for Active; 'I' for Inactive)
REMARK    1  A    between atoms: C1_1  and  C5_5 
REMARK    2  A    between atoms: C2_2  and  C6_6 
REMARK    3  A    between atoms: C6_6  and  C7_7 
ROOT
HETATM    1  C1  UNL     1     -23.100  18.266   8.506  1.00 20.00     0.150 A 
HETATM    2  C2  UNL     1     -22.429  17.633   9.700  1.00 20.00     0.151 A 
HETATM    3  O8  UNL     1     -21.825  18.717   8.982  1.00 20.00    -0.376 OA
ENDROOT
BRANCH   2   4
HETATM    4  C6  UNL     1     -22.809  17.953  11.137  1.00 20.00     0.034 C 
BRANCH   4   5
HETATM    5  C7  UNL     1     -23.317  16.714  11.870  1.00 20.00    -0.002 C 
HETATM    6  C4  UNL     1     -24.547  16.131  11.193  1.00 20.00     0.005 C 
ENDBRANCH   4   5
ENDBRANCH   2   4
BRANCH   1   7
HETATM    7  C5  UNL     1     -24.196  19.263   8.622  1.00 20.00     0.030 C 
HETATM    8  C3  UNL     1     -25.371  18.960   7.724  1.00 20.00     0.007 C 
ENDBRANCH   1   7
TORSDOF 3
ENDMDL
MODEL 8
REMARK VINA RESULT:      -3.5      9.147      9.764
REMARK  3 active torsions:
REMARK  status: ('A' for Active; 'I' for Inactive)
REMARK    1  A    between atoms: C1_1  and  C5_5 
REMARK    2  A    between atoms: C2_2  and  C6_6 
REMARK    3  A    between atoms: C6_6  and  C7_7 
ROOT
HETATM    1  C1  UNL     1     -41.303   5.324  -1.049  1.00 20.00     0.150 A 
HETATM    2  C2  UNL     1     -41.036   6.382  -0.007  1.00 20.00     0.151 A 
HETATM    3  O8  UNL     1     -40.903   6.654  -1.409  1.00 20.00    -0.376 OA
ENDROOT
BRANCH   2   4
HETATM    4  C6  UNL     1     -42.140   7.161   0.691  1.00 20.00     0.034 C 
BRANCH   4   5
HETATM    5  C7  UNL     1     -42.389   8.507   0.014  1.00 20.00    -0.002 C 
HETATM    6  C4  UNL     1     -41.313   9.519   0.373  1.00 20.00     0.005 C 
ENDBRANCH   4   5
ENDBRANCH   2   4
BRANCH   1   7
HETATM    7  C5  UNL     1     -42.670   4.944  -1.492  1.00 20.00     0.030 C 
HETATM    8  C3  UNL     1     -42.683   3.758  -2.425  1.00 20.00     0.007 C 
ENDBRANCH   1   7
TORSDOF 3
ENDMDL
MODEL 9
REMARK VINA RESULT:      -3.4     11.224     12.142
REMARK  3 active torsions:
REMARK  status: ('A' for Active; 'I' for Inactive)
REMARK    1  A    between atoms: C1_1  and  C5_5 
REMARK    2  A    between atoms: C2_2  and  C6_6 
REMARK    3  A    between atoms: C6_6  and  C7_7 
ROOT
HETATM    1  C1  UNL     1     -32.133  18.952  -1.056  1.00 20.00     0.150 A 
HETATM    2  C2  UNL     1     -33.067  18.340  -2.071  1.00 20.00     0.151 A 
HETATM    3  O8  UNL     1     -31.947  19.144  -2.465  1.00 20.00    -0.376 OA
ENDROOT
BRANCH   2   4
HETATM    4  C6  UNL     1     -32.990  16.883  -2.503  1.00 20.00     0.034 C 
BRANCH   4   5
HETATM    5  C7  UNL     1     -34.343  16.188  -2.368  1.00 20.00    -0.002 C 
HETATM    6  C4  UNL     1     -35.127  16.720  -1.179  1.00 20.00     0.005 C 
ENDBRANCH   4   5
ENDBRANCH   2   4
BRANCH   1   7
HETATM    7  C5  UNL     1     -31.049  18.190  -0.383  1.00 20.00     0.030 C 
HETATM    8  C3  UNL     1     -30.880  18.558   1.071  1.00 20.00     0.007 C 
ENDBRANCH   1   7
TORSDOF 3
ENDMDL
