MODEL 1
REMARK VINA RESULT:      -4.3      0.000      0.000
REMARK  1 active torsions:
REMARK  status: ('A' for Active; 'I' for Inactive)
REMARK    1  A    between atoms: C2_2  and  C3_3 
ROOT
HETATM    1  C1  UNL     1     -33.319   4.712   2.469  1.00 20.00     0.023 C 
HETATM    2  C2  UNL     1     -33.414   5.839   3.189  1.00 20.00    -0.009 C 
HETATM    3  C4  UNL     1     -32.591   7.051   2.864  1.00 20.00     0.052 C 
ENDROOT
BRANCH   2   4
HETATM    4  C3  UNL     1     -34.349   5.955   4.367  1.00 20.00     0.247 C 
HETATM    5  O5  UNL     1     -35.443   5.397   4.290  1.00 20.00    -0.274 OA
HETATM    6 CL6  UNL     1     -33.861   6.865   5.786  1.00 20.00    -0.039 Cl
ENDBRANCH   2   4
TORSDOF 1
ENDMDL
MODEL 2
REMARK VINA RESULT:      -4.3      1.949      2.594
REMARK  1 active torsions:
REMARK  status: ('A' for Active; 'I' for Inactive)
REMARK    1  A    between atoms: C2_2  and  C3_3 
ROOT
HETATM    1  C1  UNL     1     -35.301   5.148   4.521  1.00 20.00     0.023 C 
HETATM    2  C2  UNL     1     -34.215   5.931   4.438  1.00 20.00    -0.009 C 
HETATM    3  C4  UNL     1     -33.826   6.856   5.554  1.00 20.00     0.052 C 
ENDROOT
BRANCH   2   4
HETATM    4  C3  UNL     1     -33.325   5.931   3.221  1.00 20.00     0.247 C 
HETATM    5  O5  UNL     1     -33.401   4.971   2.453  1.00 20.00    -0.274 OA
HETATM    6 CL6  UNL     1     -32.227   7.270   2.939  1.00 20.00    -0.039 Cl
ENDBRANCH   2   4
TORSDOF 1
ENDMDL
MODEL 3
REMARK VINA RESULT:      -4.2      2.389      3.247
REMARK  1 active torsions:
REMARK  status: ('A' for Active; 'I' for Inactive)
REMARK    1  A    between atoms: C2_2  and  C3_3 
ROOT
HETATM    1  C1  UNL     1     -33.846   6.929   5.660  1.00 20.00     0.023 C 
HETATM    2  C2  UNL     1     -34.123   6.167   4.592  1.00 20.00    -0.009 C 
HETATM    3  C4  UNL     1     -35.333   5.279   4.553  1.00 20.00     0.052 C 
ENDROOT
BRANCH   2   4
HETATM    4  C3  UNL     1     -33.238   6.154   3.371  1.00 20.00     0.247 C 
HETATM    5  O5  UNL     1     -32.572   7.162   3.133  1.00 20.00    -0.274 OA
HETATM    6 CL6  UNL     1     -33.182   4.732   2.345  1.00 20.00    -0.039 Cl
ENDBRANCH   2   4
TORSDOF 1
ENDMDL
MODEL 4
REMARK VINA RESULT:      -4.2      1.937      2.931
REMARK  1 active torsions:
REMARK  status: ('A' for Active; 'I' for Inactive)
REMARK    1  A    between atoms: C2_2  and  C3_3 
ROOT
HETATM    1  C1  UNL     1     -33.808   6.907   5.575  1.00 20.00     0.023 C 
HETATM    2  C2  UNL     1     -34.122   6.085   4.564  1.00 20.00    -0.009 C 
HETATM    3  C4  UNL     1     -35.286   5.142   4.650  1.00 20.00     0.052 C 
ENDROOT
BRANCH   2   4
HETATM    4  C3  UNL     1     -33.325   6.056   3.283  1.00 20.00     0.247 C 
HETATM    5  O5  UNL     1     -33.541   5.137   2.493  1.00 20.00    -0.274 OA
HETATM    6 CL6  UNL     1     -32.138   7.307   2.962  1.00 20.00    -0.039 Cl
ENDBRANCH   2   4
TORSDOF 1
ENDMDL
MODEL 5
REMARK VINA RESULT:      -4.1      1.525      2.091
REMARK  1 active torsions:
REMARK  status: ('A' for Active; 'I' for Inactive)
REMARK    1  A    between atoms: C2_2  and  C3_3 
ROOT
HETATM    1  C1  UNL     1     -32.508   7.196   2.570  1.00 20.00     0.023 C 
HETATM    2  C2  UNL     1     -33.186   6.152   3.069  1.00 20.00    -0.009 C 
HETATM    3  C4  UNL     1     -33.184   4.816   2.386  1.00 20.00     0.052 C 
ENDROOT
BRANCH   2   4
HETATM    4  C3  UNL     1     -33.991   6.258   4.340  1.00 20.00     0.247 C 
HETATM    5  O5  UNL     1     -33.615   7.063   5.193  1.00 20.00    -0.274 OA
HETATM    6 CL6  UNL     1     -35.412   5.253   4.563  1.00 20.00    -0.039 Cl
ENDBRANCH   2   4
TORSDOF 1
ENDMDL
MODEL 6
REMARK VINA RESULT:      -3.8      2.692      3.070
REMARK  1 active torsions:
REMARK  status: ('A' for Active; 'I' for Inactive)
REMARK    1  A    between atoms: C2_2  and  C3_3 
ROOT
HETATM    1  C1  UNL     1     -33.343   4.861   2.483  1.00 20.00     0.023 C 
HETATM    2  C2  UNL     1     -33.347   6.015   3.164  1.00 20.00    -0.009 C 
HETATM    3  C4  UNL     1     -34.246   6.226   4.347  1.00 20.00     0.052 C 
ENDROOT
BRANCH   2   4
HETATM    4  C3  UNL     1     -32.452   7.168   2.783  1.00 20.00     0.247 C 
HETATM    5  O5  UNL     1     -31.618   7.545   3.607  1.00 20.00    -0.274 OA
HETATM    6 CL6  UNL     1     -32.622   7.926   1.210  1.00 20.00    -0.039 Cl
ENDBRANCH   2   4
TORSDOF 1
ENDMDL
MODEL 7
REMARK VINA RESULT:      -3.8      1.991      2.488
REMARK  1 active torsions:
REMARK  status: ('A' for Active; 'I' for Inactive)
REMARK    1  A    between atoms: C2_2  and  C3_3 
ROOT
HETATM    1  C1  UNL     1     -34.069   6.768   5.727  1.00 20.00     0.023 C 
HETATM    2  C2  UNL     1     -33.713   6.402   4.488  1.00 20.00    -0.009 C 
HETATM    3  C4  UNL     1     -32.800   7.249   3.650  1.00 20.00     0.052 C 
ENDROOT
BRANCH   2   4
HETATM    4  C3  UNL     1     -34.208   5.123   3.861  1.00 20.00     0.247 C 
HETATM    5  O5  UNL     1     -35.150   4.544   4.404  1.00 20.00    -0.274 OA
HETATM    6 CL6  UNL     1     -33.445   4.506   2.407  1.00 20.00    -0.039 Cl
ENDBRANCH   2   4
TORSDOF 1
ENDMDL
MODEL 8
REMARK VINA RESULT:      -3.8      1.914      2.387
REMARK  1 active torsions:
REMARK  status: ('A' for Active; 'I' for Inactive)
REMARK    1  A    between atoms: C2_2  and  C3_3 
ROOT
HETATM    1  C1  UNL     1     -35.192   5.024   4.495  1.00 20.00     0.023 C 
HETATM    2  C2  UNL     1     -34.114   5.460   3.828  1.00 20.00    -0.009 C 
HETATM    3  C4  UNL     1     -33.619   4.765   2.594  1.00 20.00     0.052 C 
ENDROOT
BRANCH   2   4
HETATM    4  C3  UNL     1     -33.334   6.670   4.279  1.00 20.00     0.247 C 
HETATM    5  O5  UNL     1     -33.583   7.133   5.392  1.00 20.00    -0.274 OA
HETATM    6 CL6  UNL     1     -32.118   7.371   3.226  1.00 20.00    -0.039 Cl
ENDBRANCH   2   4
TORSDOF 1
ENDMDL
MODEL 9
REMARK VINA RESULT:      -3.8      1.682      2.188
REMARK  1 active torsions:
REMARK  status: ('A' for Active; 'I' for Inactive)
REMARK    1  A    between atoms: C2_2  and  C3_3 
ROOT
HETATM    1  C1  UNL     1     -33.531   4.745   2.500  1.00 20.00     0.023 C 
HETATM    2  C2  UNL     1     -33.977   5.382   3.592  1.00 20.00    -0.009 C 
HETATM    3  C4  UNL     1     -35.189   4.908   4.338  1.00 20.00     0.052 C 
ENDROOT
BRANCH   2   4
HETATM    4  C3  UNL     1     -33.291   6.611   4.133  1.00 20.00     0.247 C 
HETATM    5  O5  UNL     1     -32.494   7.195   3.398  1.00 20.00    -0.274 OA
HETATM    6 CL6  UNL     1     -33.638   7.164   5.761  1.00 20.00    -0.039 Cl
ENDBRANCH   2   4
TORSDOF 1
ENDMDL
