MODEL 1
REMARK VINA RESULT:      -4.7      0.000      0.000
REMARK  3 active torsions:
REMARK  status: ('A' for Active; 'I' for Inactive)
REMARK    1  A    between atoms: C1_1  and  C5_5 
REMARK    2  A    between atoms: C2_2  and  C6_6 
REMARK    3  A    between atoms: C6_6  and  C7_7 
ROOT
HETATM    1  C1  UNL     1     -32.846   5.457   2.830  1.00 20.00     0.150 A 
HETATM    2  C2  UNL     1     -33.956   4.655   3.464  1.00 20.00     0.151 A 
HETATM    3  O8  UNL     1     -33.953   4.962   2.064  1.00 20.00    -0.376 OA
ENDROOT
BRANCH   2   4
HETATM    4  C6  UNL     1     -35.093   5.285   4.253  1.00 20.00     0.034 C 
BRANCH   4   5
HETATM    5  C7  UNL     1     -34.793   5.300   5.751  1.00 20.00    -0.002 C 
HETATM    6  C4  UNL     1     -34.137   6.605   6.175  1.00 20.00     0.005 C 
ENDBRANCH   4   5
ENDBRANCH   2   4
BRANCH   1   7
HETATM    7  C5  UNL     1     -32.761   6.938   2.915  1.00 20.00     0.030 C 
HETATM    8  C3  UNL     1     -32.481   7.594   1.585  1.00 20.00     0.007 C 
ENDBRANCH   1   7
TORSDOF 3
ENDMDL
MODEL 2
REMARK VINA RESULT:      -4.4      1.046      3.322
REMARK  3 active torsions:
REMARK  status: ('A' for Active; 'I' for Inactive)
REMARK    1  A    between atoms: C1_1  and  C5_5 
REMARK    2  A    between atoms: C2_2  and  C6_6 
REMARK    3  A    between atoms: C6_6  and  C7_7 
ROOT
HETATM    1  C1  UNL     1     -34.952   5.061   4.685  1.00 20.00     0.150 A 
HETATM    2  C2  UNL     1     -34.383   4.998   3.288  1.00 20.00     0.151 A 
HETATM    3  O8  UNL     1     -34.563   3.819   4.084  1.00 20.00    -0.376 OA
ENDROOT
BRANCH   2   4
HETATM    4  C6  UNL     1     -32.937   5.333   2.963  1.00 20.00     0.034 C 
BRANCH   4   5
HETATM    5  C7  UNL     1     -32.799   6.759   2.434  1.00 20.00    -0.002 C 
HETATM    6  C4  UNL     1     -31.833   7.576   3.278  1.00 20.00     0.005 C 
ENDBRANCH   4   5
ENDBRANCH   2   4
BRANCH   1   7
HETATM    7  C5  UNL     1     -34.152   5.456   5.873  1.00 20.00     0.030 C 
HETATM    8  C3  UNL     1     -34.090   6.949   6.078  1.00 20.00     0.007 C 
ENDBRANCH   1   7
TORSDOF 3
ENDMDL
MODEL 3
REMARK VINA RESULT:      -4.3      1.517      2.411
REMARK  3 active torsions:
REMARK  status: ('A' for Active; 'I' for Inactive)
REMARK    1  A    between atoms: C1_1  and  C5_5 
REMARK    2  A    between atoms: C2_2  and  C6_6 
REMARK    3  A    between atoms: C6_6  and  C7_7 
ROOT
HETATM    1  C1  UNL     1     -32.710   7.862   2.388  1.00 20.00     0.150 A 
HETATM    2  C2  UNL     1     -33.158   6.695   3.233  1.00 20.00     0.151 A 
HETATM    3  O8  UNL     1     -31.803   7.160   3.248  1.00 20.00    -0.376 OA
ENDROOT
BRANCH   2   4
HETATM    4  C6  UNL     1     -33.344   5.290   2.680  1.00 20.00     0.034 C 
BRANCH   4   5
HETATM    5  C7  UNL     1     -34.176   4.424   3.624  1.00 20.00    -0.002 C 
HETATM    6  C4  UNL     1     -34.960   5.272   4.613  1.00 20.00     0.005 C 
ENDBRANCH   4   5
ENDBRANCH   2   4
BRANCH   1   7
HETATM    7  C5  UNL     1     -32.406   7.749   0.938  1.00 20.00     0.030 C 
HETATM    8  C3  UNL     1     -33.141   8.763   0.096  1.00 20.00     0.007 C 
ENDBRANCH   1   7
TORSDOF 3
ENDMDL
MODEL 4
REMARK VINA RESULT:      -4.2      1.078      4.017
REMARK  3 active torsions:
REMARK  status: ('A' for Active; 'I' for Inactive)
REMARK    1  A    between atoms: C1_1  and  C5_5 
REMARK    2  A    between atoms: C2_2  and  C6_6 
REMARK    3  A    between atoms: C6_6  and  C7_7 
ROOT
HETATM    1  C1  UNL     1     -34.200   5.440   3.482  1.00 20.00     0.150 A 
HETATM    2  C2  UNL     1     -33.404   5.957   2.308  1.00 20.00     0.151 A 
HETATM    3  O8  UNL     1     -32.957   4.841   3.089  1.00 20.00    -0.376 OA
ENDROOT
BRANCH   2   4
HETATM    4  C6  UNL     1     -32.513   7.186   2.383  1.00 20.00     0.034 C 
BRANCH   4   5
HETATM    5  C7  UNL     1     -32.244   7.767   0.997  1.00 20.00    -0.002 C 
HETATM    6  C4  UNL     1     -32.993   9.073   0.784  1.00 20.00     0.005 C 
ENDBRANCH   4   5
ENDBRANCH   2   4
BRANCH   1   7
HETATM    7  C5  UNL     1     -34.186   6.082   4.822  1.00 20.00     0.030 C 
HETATM    8  C3  UNL     1     -34.830   5.236   5.892  1.00 20.00     0.007 C 
ENDBRANCH   1   7
TORSDOF 3
ENDMDL
MODEL 5
REMARK VINA RESULT:      -3.7     11.973     12.562
REMARK  3 active torsions:
REMARK  status: ('A' for Active; 'I' for Inactive)
REMARK    1  A    between atoms: C1_1  and  C5_5 
REMARK    2  A    between atoms: C2_2  and  C6_6 
REMARK    3  A    between atoms: C6_6  and  C7_7 
ROOT
HETATM    1  C1  UNL     1     -35.427  14.920  -5.623  1.00 20.00     0.150 A 
HETATM    2  C2  UNL     1     -34.127  15.528  -5.157  1.00 20.00     0.151 A 
HETATM    3  O8  UNL     1     -34.160  14.472  -6.125  1.00 20.00    -0.376 OA
ENDROOT
BRANCH   2   4
HETATM    4  C6  UNL     1     -33.464  15.164  -3.838  1.00 20.00     0.034 C 
BRANCH   4   5
HETATM    5  C7  UNL     1     -33.653  16.264  -2.795  1.00 20.00    -0.002 C 
HETATM    6  C4  UNL     1     -34.949  16.082  -2.022  1.00 20.00     0.005 C 
ENDBRANCH   4   5
ENDBRANCH   2   4
BRANCH   1   7
HETATM    7  C5  UNL     1     -36.180  13.907  -4.839  1.00 20.00     0.030 C 
HETATM    8  C3  UNL     1     -37.491  14.426  -4.302  1.00 20.00     0.007 C 
ENDBRANCH   1   7
TORSDOF 3
ENDMDL
MODEL 6
REMARK VINA RESULT:      -3.6     16.764     17.029
REMARK  3 active torsions:
REMARK  status: ('A' for Active; 'I' for Inactive)
REMARK    1  A    between atoms: C1_1  and  C5_5 
REMARK    2  A    between atoms: C2_2  and  C6_6 
REMARK    3  A    between atoms: C6_6  and  C7_7 
ROOT
HETATM    1  C1  UNL     1     -22.934  17.202  10.042  1.00 20.00     0.150 A 
HETATM    2  C2  UNL     1     -23.556  16.907  11.385  1.00 20.00     0.151 A 
HETATM    3  O8  UNL     1     -24.273  16.704  10.161  1.00 20.00    -0.376 OA
ENDROOT
BRANCH   2   4
HETATM    4  C6  UNL     1     -24.131  17.984  12.291  1.00 20.00     0.034 C 
BRANCH   4   5
HETATM    5  C7  UNL     1     -25.658  17.966  12.281  1.00 20.00    -0.002 C 
HETATM    6  C4  UNL     1     -26.229  19.261  11.726  1.00 20.00     0.005 C 
ENDBRANCH   4   5
ENDBRANCH   2   4
BRANCH   1   7
HETATM    7  C5  UNL     1     -22.827  18.573   9.477  1.00 20.00     0.030 C 
HETATM    8  C3  UNL     1     -24.001  18.950   8.608  1.00 20.00     0.007 C 
ENDBRANCH   1   7
TORSDOF 3
ENDMDL
MODEL 7
REMARK VINA RESULT:      -3.5     11.762     12.529
REMARK  3 active torsions:
REMARK  status: ('A' for Active; 'I' for Inactive)
REMARK    1  A    between atoms: C1_1  and  C5_5 
REMARK    2  A    between atoms: C2_2  and  C6_6 
REMARK    3  A    between atoms: C6_6  and  C7_7 
ROOT
HETATM    1  C1  UNL     1     -35.902  13.911  -5.525  1.00 20.00     0.150 A 
HETATM    2  C2  UNL     1     -36.035  14.177  -4.045  1.00 20.00     0.151 A 
HETATM    3  O8  UNL     1     -37.176  13.904  -4.869  1.00 20.00    -0.376 OA
ENDROOT
BRANCH   2   4
HETATM    4  C6  UNL     1     -36.002  15.572  -3.444  1.00 20.00     0.034 C 
BRANCH   4   5
HETATM    5  C7  UNL     1     -34.805  15.751  -2.511  1.00 20.00    -0.002 C 
HETATM    6  C4  UNL     1     -33.502  15.852  -3.289  1.00 20.00     0.005 C 
ENDBRANCH   4   5
ENDBRANCH   2   4
BRANCH   1   7
HETATM    7  C5  UNL     1     -35.726  14.988  -6.533  1.00 20.00     0.030 C 
HETATM    8  C3  UNL     1     -34.292  15.165  -6.969  1.00 20.00     0.007 C 
ENDBRANCH   1   7
TORSDOF 3
ENDMDL
MODEL 8
REMARK VINA RESULT:      -3.5     11.746     12.669
REMARK  3 active torsions:
REMARK  status: ('A' for Active; 'I' for Inactive)
REMARK    1  A    between atoms: C1_1  and  C5_5 
REMARK    2  A    between atoms: C2_2  and  C6_6 
REMARK    3  A    between atoms: C6_6  and  C7_7 
ROOT
HETATM    1  C1  UNL     1     -34.070  14.968  -5.645  1.00 20.00     0.150 A 
HETATM    2  C2  UNL     1     -33.690  15.222  -4.207  1.00 20.00     0.151 A 
HETATM    3  O8  UNL     1     -33.518  13.936  -4.817  1.00 20.00    -0.376 OA
ENDROOT
BRANCH   2   4
HETATM    4  C6  UNL     1     -34.701  15.261  -3.073  1.00 20.00     0.034 C 
BRANCH   4   5
HETATM    5  C7  UNL     1     -34.409  16.404  -2.102  1.00 20.00    -0.002 C 
HETATM    6  C4  UNL     1     -33.079  17.072  -2.412  1.00 20.00     0.005 C 
ENDBRANCH   4   5
ENDBRANCH   2   4
BRANCH   1   7
HETATM    7  C5  UNL     1     -35.469  14.730  -6.088  1.00 20.00     0.030 C 
HETATM    8  C3  UNL     1     -35.701  15.083  -7.537  1.00 20.00     0.007 C 
ENDBRANCH   1   7
TORSDOF 3
ENDMDL
MODEL 9
REMARK VINA RESULT:      -3.4      8.916      9.905
REMARK  3 active torsions:
REMARK  status: ('A' for Active; 'I' for Inactive)
REMARK    1  A    between atoms: C1_1  and  C5_5 
REMARK    2  A    between atoms: C2_2  and  C6_6 
REMARK    3  A    between atoms: C6_6  and  C7_7 
ROOT
HETATM    1  C1  UNL     1     -41.117   6.470   0.037  1.00 20.00     0.150 A 
HETATM    2  C2  UNL     1     -41.579   5.443  -0.968  1.00 20.00     0.151 A 
HETATM    3  O8  UNL     1     -40.825   6.598  -1.360  1.00 20.00    -0.376 OA
ENDROOT
BRANCH   2   4
HETATM    4  C6  UNL     1     -42.997   5.392  -1.513  1.00 20.00     0.034 C 
BRANCH   4   5
HETATM    5  C7  UNL     1     -43.410   3.963  -1.863  1.00 20.00    -0.002 C 
HETATM    6  C4  UNL     1     -42.434   3.324  -2.838  1.00 20.00     0.005 C 
ENDBRANCH   4   5
ENDBRANCH   2   4
BRANCH   1   7
HETATM    7  C5  UNL     1     -42.004   7.528   0.587  1.00 20.00     0.030 C 
HETATM    8  C3  UNL     1     -41.555   8.924   0.230  1.00 20.00     0.007 C 
ENDBRANCH   1   7
TORSDOF 3
ENDMDL
