MODEL 1
REMARK VINA RESULT:      -4.4      0.000      0.000
REMARK  3 active torsions:
REMARK  status: ('A' for Active; 'I' for Inactive)
REMARK    1  A    between atoms: C2_2  and  C7_7 
REMARK    2  A    between atoms: C5_5  and  C6_6 
REMARK    3  A    between atoms: C6_6  and  C7_7 
ROOT
HETATM    1  C4  UNL     1     -33.303   4.500   2.197  1.00 20.00     0.012 C 
HETATM    2  C7  UNL     1     -33.485   5.395   3.425  1.00 20.00     0.012 C 
ENDROOT
BRANCH   2   3
HETATM    3  C2  UNL     1     -33.248   6.857   3.036  1.00 20.00     0.149 A 
HETATM    4  C1  UNL     1     -31.921   7.521   3.274  1.00 20.00     0.200 A 
HETATM    5  O8  UNL     1     -32.306   7.044   1.975  1.00 20.00    -0.381 OA
ENDBRANCH   2   3
BRANCH   2   6
HETATM    6  C6  UNL     1     -34.878   5.244   4.064  1.00 20.00     0.006 C 
BRANCH   6   7
HETATM    7  C5  UNL     1     -34.845   5.194   5.593  1.00 20.00    -0.004 C 
HETATM    8  C3  UNL     1     -34.228   6.456   6.176  1.00 20.00     0.005 C 
ENDBRANCH   6   7
ENDBRANCH   2   6
TORSDOF 3
ENDMDL
MODEL 2
REMARK VINA RESULT:      -4.2      2.041      3.817
REMARK  3 active torsions:
REMARK  status: ('A' for Active; 'I' for Inactive)
REMARK    1  A    between atoms: C2_2  and  C7_7 
REMARK    2  A    between atoms: C5_5  and  C6_6 
REMARK    3  A    between atoms: C6_6  and  C7_7 
ROOT
HETATM    1  C4  UNL     1     -32.976   4.597   2.176  1.00 20.00     0.012 C 
HETATM    2  C7  UNL     1     -33.598   5.862   2.770  1.00 20.00     0.012 C 
ENDROOT
BRANCH   2   3
HETATM    3  C2  UNL     1     -34.064   5.584   4.201  1.00 20.00     0.149 A 
HETATM    4  C1  UNL     1     -35.512   5.330   4.513  1.00 20.00     0.200 A 
HETATM    5  O8  UNL     1     -34.560   4.258   4.418  1.00 20.00    -0.381 OA
ENDBRANCH   2   3
BRANCH   2   6
HETATM    6  C6  UNL     1     -32.626   7.057   2.761  1.00 20.00     0.006 C 
BRANCH   6   7
HETATM    7  C5  UNL     1     -32.263   7.536   1.353  1.00 20.00    -0.004 C 
HETATM    8  C3  UNL     1     -32.988   8.826   1.001  1.00 20.00     0.005 C 
ENDBRANCH   6   7
ENDBRANCH   2   6
TORSDOF 3
ENDMDL
MODEL 3
REMARK VINA RESULT:      -3.9      2.041      3.924
REMARK  3 active torsions:
REMARK  status: ('A' for Active; 'I' for Inactive)
REMARK    1  A    between atoms: C2_2  and  C7_7 
REMARK    2  A    between atoms: C5_5  and  C6_6 
REMARK    3  A    between atoms: C6_6  and  C7_7 
ROOT
HETATM    1  C4  UNL     1     -34.052   6.986   5.934  1.00 20.00     0.012 C 
HETATM    2  C7  UNL     1     -33.397   6.363   4.700  1.00 20.00     0.012 C 
ENDROOT
BRANCH   2   3
HETATM    3  C2  UNL     1     -34.429   5.532   3.933  1.00 20.00     0.149 A 
HETATM    4  C1  UNL     1     -34.242   4.056   3.726  1.00 20.00     0.200 A 
HETATM    5  O8  UNL     1     -35.130   4.572   4.730  1.00 20.00    -0.381 OA
ENDBRANCH   2   3
BRANCH   2   6
HETATM    6  C6  UNL     1     -32.778   7.419   3.765  1.00 20.00     0.006 C 
BRANCH   6   7
HETATM    7  C5  UNL     1     -32.566   6.916   2.335  1.00 20.00    -0.004 C 
HETATM    8  C3  UNL     1     -32.601   8.061   1.333  1.00 20.00     0.005 C 
ENDBRANCH   6   7
ENDBRANCH   2   6
TORSDOF 3
ENDMDL
MODEL 4
REMARK VINA RESULT:      -3.9     11.341     11.822
REMARK  3 active torsions:
REMARK  status: ('A' for Active; 'I' for Inactive)
REMARK    1  A    between atoms: C2_2  and  C7_7 
REMARK    2  A    between atoms: C5_5  and  C6_6 
REMARK    3  A    between atoms: C6_6  and  C7_7 
ROOT
HETATM    1  C4  UNL     1     -32.988  14.409  -4.431  1.00 20.00     0.012 C 
HETATM    2  C7  UNL     1     -34.219  15.191  -3.970  1.00 20.00     0.012 C 
ENDROOT
BRANCH   2   3
HETATM    3  C2  UNL     1     -35.362  14.218  -3.664  1.00 20.00     0.149 A 
HETATM    4  C1  UNL     1     -36.533  14.075  -4.594  1.00 20.00     0.200 A 
HETATM    5  O8  UNL     1     -35.464  13.116  -4.572  1.00 20.00    -0.381 OA
ENDBRANCH   2   3
BRANCH   2   6
HETATM    6  C6  UNL     1     -33.934  16.065  -2.735  1.00 20.00     0.006 C 
BRANCH   6   7
HETATM    7  C5  UNL     1     -35.142  16.223  -1.808  1.00 20.00    -0.004 C 
HETATM    8  C3  UNL     1     -34.876  17.253  -0.721  1.00 20.00     0.005 C 
ENDBRANCH   6   7
ENDBRANCH   2   6
TORSDOF 3
ENDMDL
MODEL 5
REMARK VINA RESULT:      -3.9      2.119      3.770
REMARK  3 active torsions:
REMARK  status: ('A' for Active; 'I' for Inactive)
REMARK    1  A    between atoms: C2_2  and  C7_7 
REMARK    2  A    between atoms: C5_5  and  C6_6 
REMARK    3  A    between atoms: C6_6  and  C7_7 
ROOT
HETATM    1  C4  UNL     1     -33.523   5.056   2.611  1.00 20.00     0.012 C 
HETATM    2  C7  UNL     1     -33.549   6.395   3.351  1.00 20.00     0.012 C 
ENDROOT
BRANCH   2   3
HETATM    3  C2  UNL     1     -33.420   6.154   4.857  1.00 20.00     0.149 A 
HETATM    4  C1  UNL     1     -34.274   6.903   5.841  1.00 20.00     0.200 A 
HETATM    5  O8  UNL     1     -34.568   5.548   5.462  1.00 20.00    -0.381 OA
ENDBRANCH   2   3
BRANCH   2   6
HETATM    6  C6  UNL     1     -32.437   7.350   2.878  1.00 20.00     0.006 C 
BRANCH   6   7
HETATM    7  C5  UNL     1     -32.383   7.517   1.358  1.00 20.00    -0.004 C 
HETATM    8  C3  UNL     1     -32.914   8.878   0.930  1.00 20.00     0.005 C 
ENDBRANCH   6   7
ENDBRANCH   2   6
TORSDOF 3
ENDMDL
MODEL 6
REMARK VINA RESULT:      -3.9     11.393     12.124
REMARK  3 active torsions:
REMARK  status: ('A' for Active; 'I' for Inactive)
REMARK    1  A    between atoms: C2_2  and  C7_7 
REMARK    2  A    between atoms: C5_5  and  C6_6 
REMARK    3  A    between atoms: C6_6  and  C7_7 
ROOT
HETATM    1  C4  UNL     1     -33.090  14.502  -4.430  1.00 20.00     0.012 C 
HETATM    2  C7  UNL     1     -34.415  15.106  -3.959  1.00 20.00     0.012 C 
ENDROOT
BRANCH   2   3
HETATM    3  C2  UNL     1     -35.473  14.005  -3.850  1.00 20.00     0.149 A 
HETATM    4  C1  UNL     1     -36.804  14.133  -4.534  1.00 20.00     0.200 A 
HETATM    5  O8  UNL     1     -35.750  13.323  -5.078  1.00 20.00    -0.381 OA
ENDBRANCH   2   3
BRANCH   2   6
HETATM    6  C6  UNL     1     -34.283  15.838  -2.611  1.00 20.00     0.006 C 
BRANCH   6   7
HETATM    7  C5  UNL     1     -33.149  16.866  -2.584  1.00 20.00    -0.004 C 
HETATM    8  C3  UNL     1     -33.253  17.776  -1.370  1.00 20.00     0.005 C 
ENDBRANCH   6   7
ENDBRANCH   2   6
TORSDOF 3
ENDMDL
MODEL 7
REMARK VINA RESULT:      -3.8     15.449     16.647
REMARK  3 active torsions:
REMARK  status: ('A' for Active; 'I' for Inactive)
REMARK    1  A    between atoms: C2_2  and  C7_7 
REMARK    2  A    between atoms: C5_5  and  C6_6 
REMARK    3  A    between atoms: C6_6  and  C7_7 
ROOT
HETATM    1  C4  UNL     1     -24.529  15.770  11.312  1.00 20.00     0.012 C 
HETATM    2  C7  UNL     1     -23.571  16.961  11.376  1.00 20.00     0.012 C 
ENDROOT
BRANCH   2   3
HETATM    3  C2  UNL     1     -23.274  17.460   9.960  1.00 20.00     0.149 A 
HETATM    4  C1  UNL     1     -21.862  17.601   9.464  1.00 20.00     0.200 A 
HETATM    5  O8  UNL     1     -22.683  16.481   9.097  1.00 20.00    -0.381 OA
ENDBRANCH   2   3
BRANCH   2   6
HETATM    6  C6  UNL     1     -24.125  18.117  12.231  1.00 20.00     0.006 C 
BRANCH   6   7
HETATM    7  C5  UNL     1     -25.652  18.123  12.331  1.00 20.00    -0.004 C 
HETATM    8  C3  UNL     1     -26.257  19.263  11.526  1.00 20.00     0.005 C 
ENDBRANCH   6   7
ENDBRANCH   2   6
TORSDOF 3
ENDMDL
MODEL 8
REMARK VINA RESULT:      -3.7     11.416     12.588
REMARK  3 active torsions:
REMARK  status: ('A' for Active; 'I' for Inactive)
REMARK    1  A    between atoms: C2_2  and  C7_7 
REMARK    2  A    between atoms: C5_5  and  C6_6 
REMARK    3  A    between atoms: C6_6  and  C7_7 
ROOT
HETATM    1  C4  UNL     1     -34.829  13.838  -3.849  1.00 20.00     0.012 C 
HETATM    2  C7  UNL     1     -33.776  14.749  -4.482  1.00 20.00     0.012 C 
ENDROOT
BRANCH   2   3
HETATM    3  C2  UNL     1     -34.353  15.409  -5.738  1.00 20.00     0.149 A 
HETATM    4  C1  UNL     1     -33.827  15.074  -7.105  1.00 20.00     0.200 A 
HETATM    5  O8  UNL     1     -35.054  14.515  -6.610  1.00 20.00    -0.381 OA
ENDBRANCH   2   3
BRANCH   2   6
HETATM    6  C6  UNL     1     -33.271  15.831  -3.510  1.00 20.00     0.006 C 
BRANCH   6   7
HETATM    7  C5  UNL     1     -34.244  16.123  -2.365  1.00 20.00    -0.004 C 
HETATM    8  C3  UNL     1     -33.835  17.368  -1.592  1.00 20.00     0.005 C 
ENDBRANCH   6   7
ENDBRANCH   2   6
TORSDOF 3
ENDMDL
MODEL 9
REMARK VINA RESULT:      -3.6     15.687     17.122
REMARK  3 active torsions:
REMARK  status: ('A' for Active; 'I' for Inactive)
REMARK    1  A    between atoms: C2_2  and  C7_7 
REMARK    2  A    between atoms: C5_5  and  C6_6 
REMARK    3  A    between atoms: C6_6  and  C7_7 
ROOT
HETATM    1  C4  UNL     1     -24.641  15.880  11.618  1.00 20.00     0.012 C 
HETATM    2  C7  UNL     1     -24.365  17.359  11.343  1.00 20.00     0.012 C 
ENDROOT
BRANCH   2   3
HETATM    3  C2  UNL     1     -25.177  18.223  12.310  1.00 20.00     0.149 A 
HETATM    4  C1  UNL     1     -26.190  19.214  11.808  1.00 20.00     0.200 A 
HETATM    5  O8  UNL     1     -26.579  17.934  12.332  1.00 20.00    -0.381 OA
ENDBRANCH   2   3
BRANCH   2   6
HETATM    6  C6  UNL     1     -22.870  17.711  11.458  1.00 20.00     0.006 C 
BRANCH   6   7
HETATM    7  C5  UNL     1     -22.195  17.955  10.106  1.00 20.00    -0.004 C 
HETATM    8  C3  UNL     1     -23.096  18.749   9.172  1.00 20.00     0.005 C 
ENDBRANCH   6   7
ENDBRANCH   2   6
TORSDOF 3
ENDMDL
