MODEL 1
REMARK VINA RESULT:      -3.2      0.000      0.000
REMARK  0 active torsions:
REMARK  status: ('A' for Active; 'I' for Inactive)
ROOT
HETATM    1  C1  UNL     1     -24.031  16.945  10.026  1.00 20.00     0.117 C 
HETATM    2  C2  UNL     1     -25.630  18.632  11.638  1.00 20.00     0.117 C 
HETATM    3  C3  UNL     1     -22.641  17.025   9.408  1.00 20.00     0.033 C 
HETATM    4  C4  UNL     1     -27.010  19.263  11.520  1.00 20.00     0.033 C 
HETATM    5  S5  UNL     1     -24.820  18.605   9.988  1.00 20.00    -0.137 SA
HETATM    6  S6  UNL     1     -23.923  16.320  11.721  1.00 20.00    -0.081 SA
HETATM    7  S7  UNL     1     -25.767  16.959  12.317  1.00 20.00    -0.081 SA
ENDROOT
TORSDOF 0
ENDMDL
MODEL 2
REMARK VINA RESULT:      -3.2      1.815      2.604
REMARK  0 active torsions:
REMARK  status: ('A' for Active; 'I' for Inactive)
ROOT
HETATM    1  C1  UNL     1     -22.560  18.520   9.339  1.00 20.00     0.117 C 
HETATM    2  C2  UNL     1     -24.903  18.075  10.862  1.00 20.00     0.117 C 
HETATM    3  C3  UNL     1     -21.459  17.646   8.753  1.00 20.00     0.033 C 
HETATM    4  C4  UNL     1     -25.437  18.555  12.205  1.00 20.00     0.033 C 
HETATM    5  S5  UNL     1     -23.081  17.846  10.969  1.00 20.00    -0.137 SA
HETATM    6  S6  UNL     1     -23.962  18.603   8.197  1.00 20.00    -0.081 SA
HETATM    7  S7  UNL     1     -25.329  19.261   9.562  1.00 20.00    -0.081 SA
ENDROOT
TORSDOF 0
ENDMDL
MODEL 3
REMARK VINA RESULT:      -3.2      1.812      4.089
REMARK  0 active torsions:
REMARK  status: ('A' for Active; 'I' for Inactive)
ROOT
HETATM    1  C1  UNL     1     -24.929  18.053  10.961  1.00 20.00     0.117 C 
HETATM    2  C2  UNL     1     -22.640  18.500   9.360  1.00 20.00     0.117 C 
HETATM    3  C3  UNL     1     -25.409  18.517  12.331  1.00 20.00     0.033 C 
HETATM    4  C4  UNL     1     -21.571  17.626   8.720  1.00 20.00     0.033 C 
HETATM    5  S5  UNL     1     -23.108  17.806  10.997  1.00 20.00    -0.137 SA
HETATM    6  S6  UNL     1     -25.392  19.263   9.697  1.00 20.00    -0.081 SA
HETATM    7  S7  UNL     1     -24.083  18.614   8.272  1.00 20.00    -0.081 SA
ENDROOT
TORSDOF 0
ENDMDL
MODEL 4
REMARK VINA RESULT:      -3.2      0.316      3.422
REMARK  0 active torsions:
REMARK  status: ('A' for Active; 'I' for Inactive)
ROOT
HETATM    1  C1  UNL     1     -25.527  18.773  11.383  1.00 20.00     0.117 C 
HETATM    2  C2  UNL     1     -23.815  16.989  10.007  1.00 20.00     0.117 C 
HETATM    3  C3  UNL     1     -26.958  19.263  11.208  1.00 20.00     0.033 C 
HETATM    4  C4  UNL     1     -22.448  17.084   9.344  1.00 20.00     0.033 C 
HETATM    5  S5  UNL     1     -24.744  18.552   9.734  1.00 20.00    -0.137 SA
HETATM    6  S6  UNL     1     -25.509  17.224  12.318  1.00 20.00    -0.081 SA
HETATM    7  S7  UNL     1     -23.627  16.652  11.776  1.00 20.00    -0.081 SA
ENDROOT
TORSDOF 0
ENDMDL
MODEL 5
REMARK VINA RESULT:      -2.9      1.843      2.237
REMARK  0 active torsions:
REMARK  status: ('A' for Active; 'I' for Inactive)
ROOT
HETATM    1  C1  UNL     1     -22.582  17.131   9.408  1.00 20.00     0.117 C 
HETATM    2  C2  UNL     1     -24.154  18.217  11.494  1.00 20.00     0.117 C 
HETATM    3  C3  UNL     1     -22.237  17.533   7.980  1.00 20.00     0.033 C 
HETATM    4  C4  UNL     1     -25.332  17.740  12.332  1.00 20.00     0.033 C 
HETATM    5  S5  UNL     1     -24.324  17.589   9.775  1.00 20.00    -0.137 SA
HETATM    6  S6  UNL     1     -21.447  17.927  10.570  1.00 20.00    -0.081 SA
HETATM    7  S7  UNL     1     -22.598  17.659  12.234  1.00 20.00    -0.081 SA
ENDROOT
TORSDOF 0
ENDMDL
MODEL 6
REMARK VINA RESULT:      -2.8     23.323     23.825
REMARK  0 active torsions:
REMARK  status: ('A' for Active; 'I' for Inactive)
ROOT
HETATM    1  C1  UNL     1     -41.740   7.591   0.416  1.00 20.00     0.117 C 
HETATM    2  C2  UNL     1     -42.777   5.596  -1.302  1.00 20.00     0.117 C 
HETATM    3  C3  UNL     1     -41.557   9.101   0.346  1.00 20.00     0.033 C 
HETATM    4  C4  UNL     1     -42.245   4.315  -1.929  1.00 20.00     0.033 C 
HETATM    5  S5  UNL     1     -41.440   6.856  -1.243  1.00 20.00    -0.137 SA
HETATM    6  S6  UNL     1     -43.403   7.192   1.007  1.00 20.00    -0.081 SA
HETATM    7  S7  UNL     1     -43.417   5.257   0.358  1.00 20.00    -0.081 SA
ENDROOT
TORSDOF 0
ENDMDL
MODEL 7
REMARK VINA RESULT:      -2.8      1.950      3.849
REMARK  0 active torsions:
REMARK  status: ('A' for Active; 'I' for Inactive)
ROOT
HETATM    1  C1  UNL     1     -24.236  17.975  11.480  1.00 20.00     0.117 C 
HETATM    2  C2  UNL     1     -22.485  17.034   9.467  1.00 20.00     0.117 C 
HETATM    3  C3  UNL     1     -25.344  17.368  12.332  1.00 20.00     0.033 C 
HETATM    4  C4  UNL     1     -22.181  17.412   8.024  1.00 20.00     0.033 C 
HETATM    5  S5  UNL     1     -24.282  17.242   9.795  1.00 20.00    -0.137 SA
HETATM    6  S6  UNL     1     -22.628  17.696  12.262  1.00 20.00    -0.081 SA
HETATM    7  S7  UNL     1     -21.502  18.052  10.597  1.00 20.00    -0.081 SA
ENDROOT
TORSDOF 0
ENDMDL
MODEL 8
REMARK VINA RESULT:      -2.7      2.250      3.045
REMARK  0 active torsions:
REMARK  status: ('A' for Active; 'I' for Inactive)
ROOT
HETATM    1  C1  UNL     1     -24.129  17.375  10.902  1.00 20.00     0.117 C 
HETATM    2  C2  UNL     1     -24.322  19.259   8.801  1.00 20.00     0.117 C 
HETATM    3  C3  UNL     1     -23.090  17.023  11.959  1.00 20.00     0.033 C 
HETATM    4  C4  UNL     1     -24.541  19.194   7.296  1.00 20.00     0.033 C 
HETATM    5  S5  UNL     1     -23.285  17.839   9.336  1.00 20.00    -0.137 SA
HETATM    6  S6  UNL     1     -25.182  18.724  11.491  1.00 20.00    -0.081 SA
HETATM    7  S7  UNL     1     -25.914  19.256   9.662  1.00 20.00    -0.081 SA
ENDROOT
TORSDOF 0
ENDMDL
MODEL 9
REMARK VINA RESULT:      -2.7     18.239     18.956
REMARK  0 active torsions:
REMARK  status: ('A' for Active; 'I' for Inactive)
ROOT
HETATM    1  C1  UNL     1     -34.962  15.232  -3.131  1.00 20.00     0.117 C 
HETATM    2  C2  UNL     1     -34.668  15.572  -5.924  1.00 20.00     0.117 C 
HETATM    3  C3  UNL     1     -34.980  16.151  -1.917  1.00 20.00     0.033 C 
HETATM    4  C4  UNL     1     -33.717  15.048  -6.991  1.00 20.00     0.033 C 
HETATM    5  S5  UNL     1     -33.745  15.855  -4.359  1.00 20.00    -0.137 SA
HETATM    6  S6  UNL     1     -36.617  15.129  -3.857  1.00 20.00    -0.081 SA
HETATM    7  S7  UNL     1     -36.025  14.401  -5.670  1.00 20.00    -0.081 SA
ENDROOT
TORSDOF 0
ENDMDL
