MODEL 1
REMARK VINA RESULT:      -3.7      0.000      0.000
REMARK  2 active torsions:
REMARK  status: ('A' for Active; 'I' for Inactive)
REMARK    1  A    between atoms: C1_1  and  C2_2 
REMARK    2  A    between atoms: C1_1  and  C3_3 
ROOT
HETATM    1  C1  UNL     1     -33.850   6.612   4.035  1.00 20.00     0.148 C 
HETATM    2 CL4  UNL     1     -33.129   7.321   5.536  1.00 20.00    -0.119 Cl
ENDROOT
BRANCH   1   3
HETATM    3  C2  UNL     1     -34.716   5.391   4.414  1.00 20.00     0.199 C 
HETATM    4 CL5  UNL     1     -34.818   5.183   6.193  1.00 20.00    -0.106 Cl
HETATM    5 CL6  UNL     1     -36.388   5.538   3.798  1.00 20.00    -0.106 Cl
ENDBRANCH   1   3
BRANCH   1   6
HETATM    6  C3  UNL     1     -32.743   6.316   2.999  1.00 20.00     0.199 C 
HETATM    7 CL7  UNL     1     -32.563   7.604   1.778  1.00 20.00    -0.106 Cl
HETATM    8 CL8  UNL     1     -33.009   4.749   2.175  1.00 20.00    -0.106 Cl
ENDBRANCH   1   6
TORSDOF 2
ENDMDL
MODEL 2
REMARK VINA RESULT:      -3.7      1.091      2.168
REMARK  2 active torsions:
REMARK  status: ('A' for Active; 'I' for Inactive)
REMARK    1  A    between atoms: C1_1  and  C2_2 
REMARK    2  A    between atoms: C1_1  and  C3_3 
ROOT
HETATM    1  C1  UNL     1     -33.890   6.739   3.830  1.00 20.00     0.148 C 
HETATM    2 CL4  UNL     1     -33.578   7.131   5.569  1.00 20.00    -0.119 Cl
ENDROOT
BRANCH   1   3
HETATM    3  C2  UNL     1     -34.515   5.332   3.730  1.00 20.00     0.199 C 
HETATM    4 CL5  UNL     1     -33.490   4.222   2.762  1.00 20.00    -0.106 Cl
HETATM    5 CL6  UNL     1     -34.739   4.582   5.338  1.00 20.00    -0.106 Cl
ENDBRANCH   1   3
BRANCH   1   6
HETATM    6  C3  UNL     1     -32.600   6.928   3.001  1.00 20.00     0.199 C 
HETATM    7 CL7  UNL     1     -31.305   7.763   3.898  1.00 20.00    -0.106 Cl
HETATM    8 CL8  UNL     1     -32.919   7.799   1.469  1.00 20.00    -0.106 Cl
ENDBRANCH   1   6
TORSDOF 2
ENDMDL
MODEL 3
REMARK VINA RESULT:      -3.6     15.895     16.852
REMARK  2 active torsions:
REMARK  status: ('A' for Active; 'I' for Inactive)
REMARK    1  A    between atoms: C1_1  and  C2_2 
REMARK    2  A    between atoms: C1_1  and  C3_3 
ROOT
HETATM    1  C1  UNL     1     -24.439  17.894  10.065  1.00 20.00     0.148 C 
HETATM    2 CL4  UNL     1     -25.486  18.905  11.140  1.00 20.00    -0.119 Cl
ENDROOT
BRANCH   1   3
HETATM    3  C2  UNL     1     -23.597  16.933  10.932  1.00 20.00     0.199 C 
HETATM    4 CL5  UNL     1     -22.860  17.783  12.331  1.00 20.00    -0.106 Cl
HETATM    5 CL6  UNL     1     -24.576  15.586  11.583  1.00 20.00    -0.106 Cl
ENDBRANCH   1   3
BRANCH   1   6
HETATM    6  C3  UNL     1     -23.613  18.796   9.122  1.00 20.00     0.199 C 
HETATM    7 CL7  UNL     1     -24.355  18.992   7.511  1.00 20.00    -0.106 Cl
HETATM    8 CL8  UNL     1     -21.936  18.199   8.934  1.00 20.00    -0.106 Cl
ENDBRANCH   1   6
TORSDOF 2
ENDMDL
MODEL 4
REMARK VINA RESULT:      -3.5     16.186     17.014
REMARK  2 active torsions:
REMARK  status: ('A' for Active; 'I' for Inactive)
REMARK    1  A    between atoms: C1_1  and  C2_2 
REMARK    2  A    between atoms: C1_1  and  C3_3 
ROOT
HETATM    1  C1  UNL     1     -24.328  17.969  10.253  1.00 20.00     0.148 C 
HETATM    2 CL4  UNL     1     -25.092  19.263   9.244  1.00 20.00    -0.119 Cl
ENDROOT
BRANCH   1   3
HETATM    3  C2  UNL     1     -24.915  18.023  11.680  1.00 20.00     0.199 C 
HETATM    4 CL5  UNL     1     -26.329  19.125  11.769  1.00 20.00    -0.106 Cl
HETATM    5 CL6  UNL     1     -25.457  16.415  12.243  1.00 20.00    -0.106 Cl
ENDBRANCH   1   3
BRANCH   1   6
HETATM    6  C3  UNL     1     -22.789  18.080  10.189  1.00 20.00     0.199 C 
HETATM    7 CL7  UNL     1     -22.059  17.013   8.960  1.00 20.00    -0.106 Cl
HETATM    8 CL8  UNL     1     -22.034  17.758  11.780  1.00 20.00    -0.106 Cl
ENDBRANCH   1   6
TORSDOF 2
ENDMDL
MODEL 5
REMARK VINA RESULT:      -3.4     16.076     17.037
REMARK  2 active torsions:
REMARK  status: ('A' for Active; 'I' for Inactive)
REMARK    1  A    between atoms: C1_1  and  C2_2 
REMARK    2  A    between atoms: C1_1  and  C3_3 
ROOT
HETATM    1  C1  UNL     1     -23.681  17.588   9.775  1.00 20.00     0.148 C 
HETATM    2 CL4  UNL     1     -21.948  17.417   9.282  1.00 20.00    -0.119 Cl
ENDROOT
BRANCH   1   3
HETATM    3  C2  UNL     1     -24.229  18.932   9.250  1.00 20.00     0.199 C 
HETATM    4 CL5  UNL     1     -24.295  18.961   7.456  1.00 20.00    -0.106 Cl
HETATM    5 CL6  UNL     1     -25.882  19.262   9.848  1.00 20.00    -0.106 Cl
ENDBRANCH   1   3
BRANCH   1   6
HETATM    6  C3  UNL     1     -23.825  17.390  11.300  1.00 20.00     0.199 C 
HETATM    7 CL7  UNL     1     -22.294  17.626  12.186  1.00 20.00    -0.106 Cl
HETATM    8 CL8  UNL     1     -24.500  15.781  11.699  1.00 20.00    -0.106 Cl
ENDBRANCH   1   6
TORSDOF 2
ENDMDL
MODEL 6
REMARK VINA RESULT:      -3.4     16.118     17.543
REMARK  2 active torsions:
REMARK  status: ('A' for Active; 'I' for Inactive)
REMARK    1  A    between atoms: C1_1  and  C2_2 
REMARK    2  A    between atoms: C1_1  and  C3_3 
ROOT
HETATM    1  C1  UNL     1     -23.807  18.341  10.673  1.00 20.00     0.148 C 
HETATM    2 CL4  UNL     1     -24.602  18.197   9.054  1.00 20.00    -0.119 Cl
ENDROOT
BRANCH   1   3
HETATM    3  C2  UNL     1     -22.420  17.666  10.621  1.00 20.00     0.199 C 
HETATM    4 CL5  UNL     1     -21.374  18.407   9.365  1.00 20.00    -0.106 Cl
HETATM    5 CL6  UNL     1     -21.553  17.795  12.180  1.00 20.00    -0.106 Cl
ENDBRANCH   1   3
BRANCH   1   6
HETATM    6  C3  UNL     1     -24.742  17.799  11.777  1.00 20.00     0.199 C 
HETATM    7 CL7  UNL     1     -25.035  16.044  11.650  1.00 20.00    -0.106 Cl
HETATM    8 CL8  UNL     1     -26.309  18.663  11.801  1.00 20.00    -0.106 Cl
ENDBRANCH   1   6
TORSDOF 2
ENDMDL
MODEL 7
REMARK VINA RESULT:      -3.2     11.578     12.472
REMARK  2 active torsions:
REMARK  status: ('A' for Active; 'I' for Inactive)
REMARK    1  A    between atoms: C1_1  and  C2_2 
REMARK    2  A    between atoms: C1_1  and  C3_3 
ROOT
HETATM    1  C1  UNL     1     -34.936  15.327  -2.890  1.00 20.00     0.148 C 
HETATM    2 CL4  UNL     1     -35.289  16.396  -1.473  1.00 20.00    -0.119 Cl
ENDROOT
BRANCH   1   3
HETATM    3  C2  UNL     1     -33.740  15.903  -3.677  1.00 20.00     0.199 C 
HETATM    4 CL5  UNL     1     -32.737  16.983  -2.652  1.00 20.00    -0.106 Cl
HETATM    5 CL6  UNL     1     -32.668  14.617  -4.303  1.00 20.00    -0.106 Cl
ENDBRANCH   1   3
BRANCH   1   6
HETATM    6  C3  UNL     1     -36.214  15.116  -3.731  1.00 20.00     0.199 C 
HETATM    7 CL7  UNL     1     -36.250  13.541  -4.570  1.00 20.00    -0.106 Cl
HETATM    8 CL8  UNL     1     -36.447  16.429  -4.925  1.00 20.00    -0.106 Cl
ENDBRANCH   1   6
TORSDOF 2
ENDMDL
MODEL 8
REMARK VINA RESULT:      -3.2      1.094      2.632
REMARK  2 active torsions:
REMARK  status: ('A' for Active; 'I' for Inactive)
REMARK    1  A    between atoms: C1_1  and  C2_2 
REMARK    2  A    between atoms: C1_1  and  C3_3 
ROOT
HETATM    1  C1  UNL     1     -33.030   5.888   3.448  1.00 20.00     0.148 C 
HETATM    2 CL4  UNL     1     -33.597   4.752   2.157  1.00 20.00    -0.119 Cl
ENDROOT
BRANCH   1   3
HETATM    3  C2  UNL     1     -34.248   6.405   4.241  1.00 20.00     0.199 C 
HETATM    4 CL5  UNL     1     -35.595   5.218   4.230  1.00 20.00    -0.106 Cl
HETATM    5 CL6  UNL     1     -33.843   6.734   5.952  1.00 20.00    -0.106 Cl
ENDBRANCH   1   3
BRANCH   1   6
HETATM    6  C3  UNL     1     -32.147   6.996   2.834  1.00 20.00     0.199 C 
HETATM    7 CL7  UNL     1     -31.574   8.183   4.036  1.00 20.00    -0.106 Cl
HETATM    8 CL8  UNL     1     -32.989   7.855   1.507  1.00 20.00    -0.106 Cl
ENDBRANCH   1   6
TORSDOF 2
ENDMDL
MODEL 9
REMARK VINA RESULT:      -3.2     11.555     12.937
REMARK  2 active torsions:
REMARK  status: ('A' for Active; 'I' for Inactive)
REMARK    1  A    between atoms: C1_1  and  C2_2 
REMARK    2  A    between atoms: C1_1  and  C3_3 
ROOT
HETATM    1  C1  UNL     1     -33.805  14.971  -4.440  1.00 20.00     0.148 C 
HETATM    2 CL4  UNL     1     -34.914  13.635  -3.929  1.00 20.00    -0.119 Cl
ENDROOT
BRANCH   1   3
HETATM    3  C2  UNL     1     -33.519  15.886  -3.231  1.00 20.00     0.199 C 
HETATM    4 CL5  UNL     1     -33.201  17.576  -3.744  1.00 20.00    -0.106 Cl
HETATM    5 CL6  UNL     1     -34.890  15.927  -2.083  1.00 20.00    -0.106 Cl
ENDBRANCH   1   3
BRANCH   1   6
HETATM    6  C3  UNL     1     -34.380  15.700  -5.674  1.00 20.00     0.199 C 
HETATM    7 CL7  UNL     1     -36.163  15.671  -5.738  1.00 20.00    -0.106 Cl
HETATM    8 CL8  UNL     1     -33.720  15.040  -7.202  1.00 20.00    -0.106 Cl
ENDBRANCH   1   6
TORSDOF 2
ENDMDL
