MODEL 1
REMARK VINA RESULT:      -4.3      0.000      0.000
REMARK  1 active torsions:
REMARK  status: ('A' for Active; 'I' for Inactive)
REMARK    1  A    between atoms: C4_4  and  C7_7 
ROOT
HETATM    1  C1  UNL     1     -24.201  18.962   7.622  1.00 20.00     0.135 A 
HETATM    2  C2  UNL     1     -25.030  19.073   8.716  1.00 20.00     0.136 A 
HETATM    3  C3  UNL     1     -22.868  17.508   8.780  1.00 20.00     0.143 A 
HETATM    4  C4  UNL     1     -23.698  17.620   9.873  1.00 20.00     0.055 A 
HETATM    5  N8  UNL     1     -23.104  18.177   7.634  1.00 20.00    -0.270 NA
HETATM    6  N9  UNL     1     -24.794  18.404   9.862  1.00 20.00    -0.262 NA
ENDROOT
BRANCH   4   7
HETATM    7  C7  UNL     1     -23.399  16.850  11.147  1.00 20.00     0.031 C 
HETATM    8  C5  UNL     1     -24.577  15.963  11.559  1.00 20.00     0.016 C 
HETATM    9  C6  UNL     1     -22.998  17.787  12.290  1.00 20.00     0.016 C 
ENDBRANCH   4   7
TORSDOF 1
ENDMDL
MODEL 2
REMARK VINA RESULT:      -4.1     15.987     16.957
REMARK  1 active torsions:
REMARK  status: ('A' for Active; 'I' for Inactive)
REMARK    1  A    between atoms: C4_4  and  C7_7 
ROOT
HETATM    1  C1  UNL     1     -34.831   5.693   6.371  1.00 20.00     0.135 A 
HETATM    2  C2  UNL     1     -34.042   6.751   5.979  1.00 20.00     0.136 A 
HETATM    3  C3  UNL     1     -34.727   4.832   4.255  1.00 20.00     0.143 A 
HETATM    4  C4  UNL     1     -33.938   5.891   3.863  1.00 20.00     0.055 A 
HETATM    5  N8  UNL     1     -35.188   4.714   5.515  1.00 20.00    -0.270 NA
HETATM    6  N9  UNL     1     -33.580   6.870   4.719  1.00 20.00    -0.262 NA
ENDROOT
BRANCH   4   7
HETATM    7  C7  UNL     1     -33.437   5.991   2.434  1.00 20.00     0.031 C 
HETATM    8  C5  UNL     1     -32.925   4.643   1.921  1.00 20.00     0.016 C 
HETATM    9  C6  UNL     1     -32.364   7.073   2.288  1.00 20.00     0.016 C 
ENDBRANCH   4   7
TORSDOF 1
ENDMDL
MODEL 3
REMARK VINA RESULT:      -4.1     17.223     18.641
REMARK  1 active torsions:
REMARK  status: ('A' for Active; 'I' for Inactive)
REMARK    1  A    between atoms: C4_4  and  C7_7 
ROOT
HETATM    1  C1  UNL     1     -38.412  15.141  -4.348  1.00 20.00     0.135 A 
HETATM    2  C2  UNL     1     -37.755  16.249  -3.861  1.00 20.00     0.136 A 
HETATM    3  C3  UNL     1     -36.467  13.942  -4.241  1.00 20.00     0.143 A 
HETATM    4  C4  UNL     1     -35.811  15.050  -3.755  1.00 20.00     0.055 A 
HETATM    5  N8  UNL     1     -37.779  13.966  -4.547  1.00 20.00    -0.270 NA
HETATM    6  N9  UNL     1     -36.443  16.224  -3.555  1.00 20.00    -0.262 NA
ENDROOT
BRANCH   4   7
HETATM    7  C7  UNL     1     -34.331  14.985  -3.422  1.00 20.00     0.031 C 
HETATM    8  C5  UNL     1     -33.864  16.241  -2.683  1.00 20.00     0.016 C 
HETATM    9  C6  UNL     1     -33.483  14.741  -4.673  1.00 20.00     0.016 C 
ENDBRANCH   4   7
TORSDOF 1
ENDMDL
MODEL 4
REMARK VINA RESULT:      -4.0     16.762     18.226
REMARK  1 active torsions:
REMARK  status: ('A' for Active; 'I' for Inactive)
REMARK    1  A    between atoms: C4_4  and  C7_7 
ROOT
HETATM    1  C1  UNL     1     -35.704  14.609  -6.596  1.00 20.00     0.135 A 
HETATM    2  C2  UNL     1     -34.901  15.717  -6.441  1.00 20.00     0.136 A 
HETATM    3  C3  UNL     1     -35.525  14.166  -4.360  1.00 20.00     0.143 A 
HETATM    4  C4  UNL     1     -34.721  15.274  -4.205  1.00 20.00     0.055 A 
HETATM    5  N8  UNL     1     -36.030  13.813  -5.558  1.00 20.00    -0.270 NA
HETATM    6  N9  UNL     1     -34.395  16.070  -5.243  1.00 20.00    -0.262 NA
ENDROOT
BRANCH   4   7
HETATM    7  C7  UNL     1     -34.169  15.640  -2.839  1.00 20.00     0.031 C 
HETATM    8  C5  UNL     1     -35.260  16.201  -1.923  1.00 20.00     0.016 C 
HETATM    9  C6  UNL     1     -32.995  16.616  -2.950  1.00 20.00     0.016 C 
ENDBRANCH   4   7
TORSDOF 1
ENDMDL
MODEL 5
REMARK VINA RESULT:      -4.0      1.718      3.567
REMARK  1 active torsions:
REMARK  status: ('A' for Active; 'I' for Inactive)
REMARK    1  A    between atoms: C4_4  and  C7_7 
ROOT
HETATM    1  C1  UNL     1     -25.463  16.606  12.173  1.00 20.00     0.135 A 
HETATM    2  C2  UNL     1     -25.744  17.920  11.873  1.00 20.00     0.136 A 
HETATM    3  C3  UNL     1     -24.019  16.510  10.401  1.00 20.00     0.143 A 
HETATM    4  C4  UNL     1     -24.301  17.824  10.101  1.00 20.00     0.055 A 
HETATM    5  N8  UNL     1     -24.595  15.877  11.442  1.00 20.00    -0.270 NA
HETATM    6  N9  UNL     1     -25.168  18.554  10.832  1.00 20.00    -0.262 NA
ENDROOT
BRANCH   4   7
HETATM    7  C7  UNL     1     -23.634  18.505   8.920  1.00 20.00     0.031 C 
HETATM    8  C5  UNL     1     -24.655  18.924   7.860  1.00 20.00     0.016 C 
HETATM    9  C6  UNL     1     -22.542  17.624   8.306  1.00 20.00     0.016 C 
ENDBRANCH   4   7
TORSDOF 1
ENDMDL
MODEL 6
REMARK VINA RESULT:      -3.9     15.904     16.873
REMARK  1 active torsions:
REMARK  status: ('A' for Active; 'I' for Inactive)
REMARK    1  A    between atoms: C4_4  and  C7_7 
ROOT
HETATM    1  C1  UNL     1     -34.734   5.862   6.404  1.00 20.00     0.135 A 
HETATM    2  C2  UNL     1     -35.117   4.897   5.499  1.00 20.00     0.136 A 
HETATM    3  C3  UNL     1     -33.518   6.908   4.774  1.00 20.00     0.143 A 
HETATM    4  C4  UNL     1     -33.902   5.943   3.869  1.00 20.00     0.055 A 
HETATM    5  N8  UNL     1     -33.927   6.885   6.057  1.00 20.00    -0.270 NA
HETATM    6  N9  UNL     1     -34.709   4.920   4.215  1.00 20.00    -0.262 NA
ENDROOT
BRANCH   4   7
HETATM    7  C7  UNL     1     -33.421   6.001   2.431  1.00 20.00     0.031 C 
HETATM    8  C5  UNL     1     -32.924   4.636   1.947  1.00 20.00     0.016 C 
HETATM    9  C6  UNL     1     -32.343   7.071   2.241  1.00 20.00     0.016 C 
ENDBRANCH   4   7
TORSDOF 1
ENDMDL
MODEL 7
REMARK VINA RESULT:      -3.9     16.320     17.735
REMARK  1 active torsions:
REMARK  status: ('A' for Active; 'I' for Inactive)
REMARK    1  A    between atoms: C4_4  and  C7_7 
ROOT
HETATM    1  C1  UNL     1     -36.707  13.908  -4.764  1.00 20.00     0.135 A 
HETATM    2  C2  UNL     1     -37.090  15.106  -4.202  1.00 20.00     0.136 A 
HETATM    3  C3  UNL     1     -34.641  14.119  -3.807  1.00 20.00     0.143 A 
HETATM    4  C4  UNL     1     -35.024  15.317  -3.245  1.00 20.00     0.055 A 
HETATM    5  N8  UNL     1     -35.475  13.393  -4.577  1.00 20.00    -0.270 NA
HETATM    6  N9  UNL     1     -36.256  15.832  -3.432  1.00 20.00    -0.262 NA
ENDROOT
BRANCH   4   7
HETATM    7  C7  UNL     1     -34.056  16.107  -2.383  1.00 20.00     0.031 C 
HETATM    8  C5  UNL     1     -34.792  16.967  -1.353  1.00 20.00     0.016 C 
HETATM    9  C6  UNL     1     -33.115  16.963  -3.235  1.00 20.00     0.016 C 
ENDBRANCH   4   7
TORSDOF 1
ENDMDL
MODEL 8
REMARK VINA RESULT:      -3.9      1.608      2.208
REMARK  1 active torsions:
REMARK  status: ('A' for Active; 'I' for Inactive)
REMARK    1  A    between atoms: C4_4  and  C7_7 
ROOT
HETATM    1  C1  UNL     1     -22.688  17.822   8.162  1.00 20.00     0.135 A 
HETATM    2  C2  UNL     1     -22.531  16.913   9.185  1.00 20.00     0.136 A 
HETATM    3  C3  UNL     1     -24.312  18.894   9.363  1.00 20.00     0.143 A 
HETATM    4  C4  UNL     1     -24.155  17.984  10.386  1.00 20.00     0.055 A 
HETATM    5  N8  UNL     1     -23.582  18.829   8.233  1.00 20.00    -0.270 NA
HETATM    6  N9  UNL     1     -23.261  16.978  10.316  1.00 20.00    -0.262 NA
ENDROOT
BRANCH   4   7
HETATM    7  C7  UNL     1     -24.997  18.089  11.645  1.00 20.00     0.031 C 
HETATM    8  C5  UNL     1     -25.536  16.723  12.076  1.00 20.00     0.016 C 
HETATM    9  C6  UNL     1     -26.136  19.097  11.478  1.00 20.00     0.016 C 
ENDBRANCH   4   7
TORSDOF 1
ENDMDL
MODEL 9
REMARK VINA RESULT:      -3.8     15.640     16.564
REMARK  1 active torsions:
REMARK  status: ('A' for Active; 'I' for Inactive)
REMARK    1  A    between atoms: C4_4  and  C7_7 
ROOT
HETATM    1  C1  UNL     1     -35.059   5.122   5.512  1.00 20.00     0.135 A 
HETATM    2  C2  UNL     1     -34.380   6.282   5.810  1.00 20.00     0.136 A 
HETATM    3  C3  UNL     1     -34.086   5.083   3.443  1.00 20.00     0.143 A 
HETATM    4  C4  UNL     1     -33.407   6.243   3.741  1.00 20.00     0.055 A 
HETATM    5  N8  UNL     1     -34.925   4.501   4.323  1.00 20.00    -0.270 NA
HETATM    6  N9  UNL     1     -33.541   6.864   4.930  1.00 20.00    -0.262 NA
ENDROOT
BRANCH   4   7
HETATM    7  C7  UNL     1     -32.471   6.870   2.724  1.00 20.00     0.031 C 
HETATM    8  C5  UNL     1     -31.412   7.745   3.398  1.00 20.00     0.016 C 
HETATM    9  C6  UNL     1     -33.240   7.663   1.665  1.00 20.00     0.016 C 
ENDBRANCH   4   7
TORSDOF 1
ENDMDL
