MODEL 1
REMARK VINA RESULT:      -4.0      0.000      0.000
REMARK  2 active torsions:
REMARK  status: ('A' for Active; 'I' for Inactive)
REMARK    1  A    between atoms: C7_7  and  O9_9 
REMARK    2  A    between atoms: C8_8  and  O9_9 
ROOT
HETATM    1  O9  UNL     1     -23.242  16.706   9.727  1.00 20.00    -0.371 OA
ENDROOT
BRANCH   1   2
HETATM    2  C7  UNL     1     -23.837  17.079  10.970  1.00 20.00     0.051 C 
HETATM    3  C1  UNL     1     -24.835  18.207  10.711  1.00 20.00     0.045 C 
HETATM    4  C2  UNL     1     -24.550  15.849  11.527  1.00 20.00     0.045 C 
HETATM    5  C3  UNL     1     -22.732  17.538  11.920  1.00 20.00     0.045 C 
ENDBRANCH   1   2
BRANCH   1   6
HETATM    6  C8  UNL     1     -22.460  17.762   9.192  1.00 20.00     0.051 C 
HETATM    7  C4  UNL     1     -21.293  18.032  10.141  1.00 20.00     0.045 C 
HETATM    8  C5  UNL     1     -21.949  17.310   7.826  1.00 20.00     0.045 C 
HETATM    9  C6  UNL     1     -23.346  19.000   9.052  1.00 20.00     0.045 C 
ENDBRANCH   1   6
TORSDOF 2
ENDMDL
MODEL 2
REMARK VINA RESULT:      -4.0      0.026      3.392
REMARK  2 active torsions:
REMARK  status: ('A' for Active; 'I' for Inactive)
REMARK    1  A    between atoms: C7_7  and  O9_9 
REMARK    2  A    between atoms: C8_8  and  O9_9 
ROOT
HETATM    1  O9  UNL     1     -23.273  16.698   9.727  1.00 20.00    -0.371 OA
ENDROOT
BRANCH   1   2
HETATM    2  C7  UNL     1     -22.471  17.752   9.192  1.00 20.00     0.051 C 
HETATM    3  C1  UNL     1     -21.297  17.998  10.138  1.00 20.00     0.045 C 
HETATM    4  C2  UNL     1     -21.972  17.300   7.821  1.00 20.00     0.045 C 
HETATM    5  C3  UNL     1     -23.338  19.004   9.062  1.00 20.00     0.045 C 
ENDBRANCH   1   2
BRANCH   1   6
HETATM    6  C8  UNL     1     -23.838  17.064  10.976  1.00 20.00     0.051 C 
HETATM    7  C4  UNL     1     -24.838  18.197  10.743  1.00 20.00     0.045 C 
HETATM    8  C5  UNL     1     -24.543  15.833  11.540  1.00 20.00     0.045 C 
HETATM    9  C6  UNL     1     -22.713  17.513  11.907  1.00 20.00     0.045 C 
ENDBRANCH   1   6
TORSDOF 2
ENDMDL
MODEL 3
REMARK VINA RESULT:      -3.9      0.023      3.292
REMARK  2 active torsions:
REMARK  status: ('A' for Active; 'I' for Inactive)
REMARK    1  A    between atoms: C7_7  and  O9_9 
REMARK    2  A    between atoms: C8_8  and  O9_9 
ROOT
HETATM    1  O9  UNL     1     -23.230  16.695   9.736  1.00 20.00    -0.371 OA
ENDROOT
BRANCH   1   2
HETATM    2  C7  UNL     1     -22.464  17.767   9.186  1.00 20.00     0.051 C 
HETATM    3  C1  UNL     1     -21.293  18.058  10.124  1.00 20.00     0.045 C 
HETATM    4  C2  UNL     1     -21.957  17.317   7.818  1.00 20.00     0.045 C 
HETATM    5  C3  UNL     1     -23.368  18.991   9.049  1.00 20.00     0.045 C 
ENDBRANCH   1   2
BRANCH   1   6
HETATM    6  C8  UNL     1     -23.842  17.072  10.960  1.00 20.00     0.051 C 
HETATM    7  C4  UNL     1     -24.576  15.859  11.531  1.00 20.00     0.045 C 
HETATM    8  C5  UNL     1     -22.734  17.525  11.908  1.00 20.00     0.045 C 
HETATM    9  C6  UNL     1     -24.815  18.218  10.684  1.00 20.00     0.045 C 
ENDBRANCH   1   6
TORSDOF 2
ENDMDL
MODEL 4
REMARK VINA RESULT:      -3.9      0.027      3.293
REMARK  2 active torsions:
REMARK  status: ('A' for Active; 'I' for Inactive)
REMARK    1  A    between atoms: C7_7  and  O9_9 
REMARK    2  A    between atoms: C8_8  and  O9_9 
ROOT
HETATM    1  O9  UNL     1     -23.230  16.705   9.727  1.00 20.00    -0.371 OA
ENDROOT
BRANCH   1   2
HETATM    2  C7  UNL     1     -22.456  17.769   9.170  1.00 20.00     0.051 C 
HETATM    3  C1  UNL     1     -23.348  19.004   9.047  1.00 20.00     0.045 C 
HETATM    4  C2  UNL     1     -21.293  18.039  10.121  1.00 20.00     0.045 C 
HETATM    5  C3  UNL     1     -21.941  17.330   7.800  1.00 20.00     0.045 C 
ENDBRANCH   1   2
BRANCH   1   6
HETATM    6  C8  UNL     1     -23.834  17.093  10.951  1.00 20.00     0.051 C 
HETATM    7  C4  UNL     1     -24.819  18.228  10.669  1.00 20.00     0.045 C 
HETATM    8  C5  UNL     1     -24.564  15.874  11.510  1.00 20.00     0.045 C 
HETATM    9  C6  UNL     1     -22.737  17.550  11.912  1.00 20.00     0.045 C 
ENDBRANCH   1   6
TORSDOF 2
ENDMDL
MODEL 5
REMARK VINA RESULT:      -3.8      0.044      3.197
REMARK  2 active torsions:
REMARK  status: ('A' for Active; 'I' for Inactive)
REMARK    1  A    between atoms: C7_7  and  O9_9 
REMARK    2  A    between atoms: C8_8  and  O9_9 
ROOT
HETATM    1  O9  UNL     1     -23.305  16.700   9.718  1.00 20.00    -0.371 OA
ENDROOT
BRANCH   1   2
HETATM    2  C7  UNL     1     -22.480  17.744   9.199  1.00 20.00     0.051 C 
HETATM    3  C1  UNL     1     -21.949  17.311   7.833  1.00 20.00     0.045 C 
HETATM    4  C2  UNL     1     -23.347  18.994   9.067  1.00 20.00     0.045 C 
HETATM    5  C3  UNL     1     -21.331  17.988  10.177  1.00 20.00     0.045 C 
ENDBRANCH   1   2
BRANCH   1   6
HETATM    6  C8  UNL     1     -23.849  17.052  10.980  1.00 20.00     0.051 C 
HETATM    7  C4  UNL     1     -22.710  17.513  11.890  1.00 20.00     0.045 C 
HETATM    8  C5  UNL     1     -24.846  18.185  10.752  1.00 20.00     0.045 C 
HETATM    9  C6  UNL     1     -24.551  15.827  11.566  1.00 20.00     0.045 C 
ENDBRANCH   1   6
TORSDOF 2
ENDMDL
MODEL 6
REMARK VINA RESULT:      -3.8      0.028      2.049
REMARK  2 active torsions:
REMARK  status: ('A' for Active; 'I' for Inactive)
REMARK    1  A    between atoms: C7_7  and  O9_9 
REMARK    2  A    between atoms: C8_8  and  O9_9 
ROOT
HETATM    1  O9  UNL     1     -23.244  16.692   9.717  1.00 20.00    -0.371 OA
ENDROOT
BRANCH   1   2
HETATM    2  C7  UNL     1     -23.838  17.067  10.961  1.00 20.00     0.051 C 
HETATM    3  C1  UNL     1     -24.560  15.852  11.541  1.00 20.00     0.045 C 
HETATM    4  C2  UNL     1     -22.712  17.517  11.890  1.00 20.00     0.045 C 
HETATM    5  C3  UNL     1     -24.817  18.212  10.707  1.00 20.00     0.045 C 
ENDBRANCH   1   2
BRANCH   1   6
HETATM    6  C8  UNL     1     -22.444  17.738   9.191  1.00 20.00     0.051 C 
HETATM    7  C4  UNL     1     -21.912  17.304   7.825  1.00 20.00     0.045 C 
HETATM    8  C5  UNL     1     -23.330  18.973   9.055  1.00 20.00     0.045 C 
HETATM    9  C6  UNL     1     -21.294  18.006  10.162  1.00 20.00     0.045 C 
ENDBRANCH   1   6
TORSDOF 2
ENDMDL
MODEL 7
REMARK VINA RESULT:      -3.6     22.849     24.010
REMARK  2 active torsions:
REMARK  status: ('A' for Active; 'I' for Inactive)
REMARK    1  A    between atoms: C7_7  and  O9_9 
REMARK    2  A    between atoms: C8_8  and  O9_9 
ROOT
HETATM    1  O9  UNL     1     -41.377   7.147   0.533  1.00 20.00    -0.371 OA
ENDROOT
BRANCH   1   2
HETATM    2  C7  UNL     1     -41.981   8.314  -0.027  1.00 20.00     0.051 C 
HETATM    3  C1  UNL     1     -43.417   8.411   0.486  1.00 20.00     0.045 C 
HETATM    4  C2  UNL     1     -41.164   9.520   0.432  1.00 20.00     0.045 C 
HETATM    5  C3  UNL     1     -41.953   8.192  -1.550  1.00 20.00     0.045 C 
ENDBRANCH   1   2
BRANCH   1   6
HETATM    6  C8  UNL     1     -41.923   5.964  -0.028  1.00 20.00     0.051 C 
HETATM    7  C4  UNL     1     -43.131   6.345  -0.884  1.00 20.00     0.045 C 
HETATM    8  C5  UNL     1     -40.839   5.318  -0.888  1.00 20.00     0.045 C 
HETATM    9  C6  UNL     1     -42.334   5.030   1.110  1.00 20.00     0.045 C 
ENDBRANCH   1   6
TORSDOF 2
ENDMDL
MODEL 8
REMARK VINA RESULT:      -3.6     22.827     23.932
REMARK  2 active torsions:
REMARK  status: ('A' for Active; 'I' for Inactive)
REMARK    1  A    between atoms: C7_7  and  O9_9 
REMARK    2  A    between atoms: C8_8  and  O9_9 
ROOT
HETATM    1  O9  UNL     1     -41.469   7.170   0.643  1.00 20.00    -0.371 OA
ENDROOT
BRANCH   1   2
HETATM    2  C7  UNL     1     -41.955   5.973   0.034  1.00 20.00     0.051 C 
HETATM    3  C1  UNL     1     -43.138   6.330  -0.866  1.00 20.00     0.045 C 
HETATM    4  C2  UNL     1     -40.814   5.379  -0.789  1.00 20.00     0.045 C 
HETATM    5  C3  UNL     1     -42.383   5.006   1.137  1.00 20.00     0.045 C 
ENDBRANCH   1   2
BRANCH   1   6
HETATM    6  C8  UNL     1     -41.938   8.322  -0.040  1.00 20.00     0.051 C 
HETATM    7  C4  UNL     1     -43.417   8.516   0.291  1.00 20.00     0.045 C 
HETATM    8  C5  UNL     1     -41.117   9.513   0.449  1.00 20.00     0.045 C 
HETATM    9  C6  UNL     1     -41.739   8.113  -1.541  1.00 20.00     0.045 C 
ENDBRANCH   1   6
TORSDOF 2
ENDMDL
MODEL 9
REMARK VINA RESULT:      -3.5     22.846     23.998
REMARK  2 active torsions:
REMARK  status: ('A' for Active; 'I' for Inactive)
REMARK    1  A    between atoms: C7_7  and  O9_9 
REMARK    2  A    between atoms: C8_8  and  O9_9 
ROOT
HETATM    1  O9  UNL     1     -41.488   7.173   0.621  1.00 20.00    -0.371 OA
ENDROOT
BRANCH   1   2
HETATM    2  C7  UNL     1     -41.965   8.327  -0.072  1.00 20.00     0.051 C 
HETATM    3  C1  UNL     1     -43.417   8.572   0.335  1.00 20.00     0.045 C 
HETATM    4  C2  UNL     1     -41.086   9.506   0.338  1.00 20.00     0.045 C 
HETATM    5  C3  UNL     1     -41.857   8.071  -1.575  1.00 20.00     0.045 C 
ENDBRANCH   1   2
BRANCH   1   6
HETATM    6  C8  UNL     1     -41.942   5.978   0.006  1.00 20.00     0.051 C 
HETATM    7  C4  UNL     1     -40.791   5.379  -0.802  1.00 20.00     0.045 C 
HETATM    8  C5  UNL     1     -42.372   5.023   1.117  1.00 20.00     0.045 C 
HETATM    9  C6  UNL     1     -43.125   6.316  -0.901  1.00 20.00     0.045 C 
ENDBRANCH   1   6
TORSDOF 2
ENDMDL
