MODEL 1
REMARK VINA RESULT:      -4.0      0.000      0.000
REMARK  0 active torsions:
REMARK  status: ('A' for Active; 'I' for Inactive)
ROOT
HETATM    1  C1  UNL     1     -34.203   4.146   3.839  1.00 20.00     0.051 C 
HETATM    2  C2  UNL     1     -33.900   6.625   4.120  1.00 20.00     0.051 C 
HETATM    3  C3  UNL     1     -34.745   5.237   6.037  1.00 20.00     0.051 C 
HETATM    4  C4  UNL     1     -34.717   5.405   4.524  1.00 20.00     0.092 C 
HETATM    5  F5  UNL     1     -36.001   5.610   4.106  1.00 20.00    -0.244 F 
ENDROOT
TORSDOF 0
ENDMDL
MODEL 2
REMARK VINA RESULT:      -4.0      0.019      1.947
REMARK  0 active torsions:
REMARK  status: ('A' for Active; 'I' for Inactive)
ROOT
HETATM    1  C1  UNL     1     -33.900   6.625   4.140  1.00 20.00     0.051 C 
HETATM    2  C2  UNL     1     -34.767   5.240   6.050  1.00 20.00     0.051 C 
HETATM    3  C3  UNL     1     -34.194   4.144   3.861  1.00 20.00     0.051 C 
HETATM    4  C4  UNL     1     -34.720   5.404   4.536  1.00 20.00     0.092 C 
HETATM    5  F5  UNL     1     -36.000   5.604   4.102  1.00 20.00    -0.244 F 
ENDROOT
TORSDOF 0
ENDMDL
MODEL 3
REMARK VINA RESULT:      -4.0      0.016      1.951
REMARK  0 active torsions:
REMARK  status: ('A' for Active; 'I' for Inactive)
ROOT
HETATM    1  C1  UNL     1     -34.751   5.256   6.041  1.00 20.00     0.051 C 
HETATM    2  C2  UNL     1     -34.191   4.146   3.856  1.00 20.00     0.051 C 
HETATM    3  C3  UNL     1     -33.910   6.631   4.111  1.00 20.00     0.051 C 
HETATM    4  C4  UNL     1     -34.718   5.408   4.526  1.00 20.00     0.092 C 
HETATM    5  F5  UNL     1     -36.003   5.596   4.100  1.00 20.00    -0.244 F 
ENDROOT
TORSDOF 0
ENDMDL
MODEL 4
REMARK VINA RESULT:      -3.0      8.396      8.761
REMARK  0 active torsions:
REMARK  status: ('A' for Active; 'I' for Inactive)
ROOT
HETATM    1  C1  UNL     1     -41.462   9.344   0.305  1.00 20.00     0.051 C 
HETATM    2  C2  UNL     1     -41.422   7.327  -1.194  1.00 20.00     0.051 C 
HETATM    3  C3  UNL     1     -42.979   7.395   0.778  1.00 20.00     0.051 C 
HETATM    4  C4  UNL     1     -41.627   7.831   0.228  1.00 20.00     0.092 C 
HETATM    5  F5  UNL     1     -40.660   7.268   1.010  1.00 20.00    -0.244 F 
ENDROOT
TORSDOF 0
ENDMDL
MODEL 5
REMARK VINA RESULT:      -3.0      8.407      8.768
REMARK  0 active torsions:
REMARK  status: ('A' for Active; 'I' for Inactive)
ROOT
HETATM    1  C1  UNL     1     -42.992   7.455   0.756  1.00 20.00     0.051 C 
HETATM    2  C2  UNL     1     -41.425   9.371   0.317  1.00 20.00     0.051 C 
HETATM    3  C3  UNL     1     -41.420   7.370  -1.204  1.00 20.00     0.051 C 
HETATM    4  C4  UNL     1     -41.625   7.864   0.222  1.00 20.00     0.092 C 
HETATM    5  F5  UNL     1     -40.678   7.270   1.007  1.00 20.00    -0.244 F 
ENDROOT
TORSDOF 0
ENDMDL
MODEL 6
REMARK VINA RESULT:      -3.0      8.389      8.741
REMARK  0 active torsions:
REMARK  status: ('A' for Active; 'I' for Inactive)
ROOT
HETATM    1  C1  UNL     1     -41.398   7.333  -1.184  1.00 20.00     0.051 C 
HETATM    2  C2  UNL     1     -42.982   7.439   0.764  1.00 20.00     0.051 C 
HETATM    3  C3  UNL     1     -41.426   9.359   0.304  1.00 20.00     0.051 C 
HETATM    4  C4  UNL     1     -41.615   7.849   0.232  1.00 20.00     0.092 C 
HETATM    5  F5  UNL     1     -40.670   7.274   1.034  1.00 20.00    -0.244 F 
ENDROOT
TORSDOF 0
ENDMDL
MODEL 7
REMARK VINA RESULT:      -2.8      8.728      9.123
REMARK  0 active torsions:
REMARK  status: ('A' for Active; 'I' for Inactive)
ROOT
HETATM    1  C1  UNL     1     -41.502   7.410   0.589  1.00 20.00     0.051 C 
HETATM    2  C2  UNL     1     -43.062   6.862  -1.304  1.00 20.00     0.051 C 
HETATM    3  C3  UNL     1     -40.969   5.510  -0.968  1.00 20.00     0.051 C 
HETATM    4  C4  UNL     1     -41.612   6.884  -0.836  1.00 20.00     0.092 C 
HETATM    5  F5  UNL     1     -40.928   7.742  -1.649  1.00 20.00    -0.244 F 
ENDROOT
TORSDOF 0
ENDMDL
MODEL 8
REMARK VINA RESULT:      -2.8      8.711      9.035
REMARK  0 active torsions:
REMARK  status: ('A' for Active; 'I' for Inactive)
ROOT
HETATM    1  C1  UNL     1     -43.038   6.879  -1.329  1.00 20.00     0.051 C 
HETATM    2  C2  UNL     1     -40.957   5.521  -0.953  1.00 20.00     0.051 C 
HETATM    3  C3  UNL     1     -41.544   7.385   0.628  1.00 20.00     0.051 C 
HETATM    4  C4  UNL     1     -41.606   6.892  -0.812  1.00 20.00     0.092 C 
HETATM    5  F5  UNL     1     -40.894   7.767  -1.581  1.00 20.00    -0.244 F 
ENDROOT
TORSDOF 0
ENDMDL
MODEL 9
REMARK VINA RESULT:      -2.7     16.901     17.553
REMARK  0 active torsions:
REMARK  status: ('A' for Active; 'I' for Inactive)
ROOT
HETATM    1  C1  UNL     1     -22.492  17.651  12.205  1.00 20.00     0.051 C 
HETATM    2  C2  UNL     1     -23.709  16.798  10.178  1.00 20.00     0.051 C 
HETATM    3  C3  UNL     1     -25.003  17.529  12.206  1.00 20.00     0.051 C 
HETATM    4  C4  UNL     1     -23.713  16.897  11.698  1.00 20.00     0.092 C 
HETATM    5  F5  UNL     1     -23.652  15.626  12.195  1.00 20.00    -0.244 F 
ENDROOT
TORSDOF 0
ENDMDL
