MODEL 1
REMARK VINA RESULT:      -4.4      0.000      0.000
REMARK  1 active torsions:
REMARK  status: ('A' for Active; 'I' for Inactive)
REMARK    1  A    between atoms: C4_4  and  C8_8 
ROOT
HETATM    1  C1  UNL     1     -33.656  17.712  -1.208  1.00 20.00    -0.007 C 
HETATM    2  C2  UNL     1     -34.809  17.033  -1.126  1.00 20.00     0.009 C 
HETATM    3  C5  UNL     1     -32.682  17.523  -2.333  1.00 20.00     0.029 C 
HETATM    4  C6  UNL     1     -35.234  15.993  -2.122  1.00 20.00     0.061 C 
HETATM    5  C7  UNL     1     -33.261  16.735  -3.513  1.00 20.00     0.014 C 
HETATM    6  C8  UNL     1     -34.080  15.529  -3.032  1.00 20.00     0.035 C 
HETATM    7 CL9  UNL     1     -35.900  17.312   0.185  1.00 20.00    -0.089 Cl
ENDROOT
BRANCH   6   8
HETATM    8  C4  UNL     1     -34.600  14.731  -4.190  1.00 20.00     0.007 C 
HETATM    9  C3  UNL     1     -35.699  13.969  -4.149  1.00 20.00     0.032 C 
HETATM   10 CL10 UNL     1     -33.673  14.847  -5.645  1.00 20.00    -0.089 Cl
ENDBRANCH   6   8
TORSDOF 1
ENDMDL
MODEL 2
REMARK VINA RESULT:      -4.3     15.029     16.655
REMARK  1 active torsions:
REMARK  status: ('A' for Active; 'I' for Inactive)
REMARK    1  A    between atoms: C4_4  and  C8_8 
ROOT
HETATM    1  C1  UNL     1     -22.695  18.098   7.976  1.00 20.00    -0.007 C 
HETATM    2  C2  UNL     1     -23.955  18.556   7.973  1.00 20.00     0.009 C 
HETATM    3  C5  UNL     1     -22.068  17.460   9.178  1.00 20.00     0.029 C 
HETATM    4  C6  UNL     1     -24.858  18.513   9.172  1.00 20.00     0.061 C 
HETATM    5  C7  UNL     1     -23.077  17.102  10.274  1.00 20.00     0.014 C 
HETATM    6  C8  UNL     1     -24.099  18.228  10.483  1.00 20.00     0.035 C 
HETATM    7 CL9  UNL     1     -24.629  19.263   6.547  1.00 20.00    -0.089 Cl
ENDROOT
BRANCH   6   8
HETATM    8  C4  UNL     1     -25.052  17.896  11.591  1.00 20.00     0.007 C 
HETATM    9  C3  UNL     1     -25.041  16.749  12.278  1.00 20.00     0.032 C 
HETATM   10 CL10 UNL     1     -26.220  19.118  11.956  1.00 20.00    -0.089 Cl
ENDBRANCH   6   8
TORSDOF 1
ENDMDL
MODEL 3
REMARK VINA RESULT:      -4.3      1.845      4.698
REMARK  1 active torsions:
REMARK  status: ('A' for Active; 'I' for Inactive)
REMARK    1  A    between atoms: C4_4  and  C8_8 
ROOT
HETATM    1  C1  UNL     1     -35.744  14.207  -5.822  1.00 20.00    -0.007 C 
HETATM    2  C2  UNL     1     -34.636  14.960  -5.883  1.00 20.00     0.009 C 
HETATM    3  C5  UNL     1     -36.572  14.085  -4.578  1.00 20.00     0.029 C 
HETATM    4  C6  UNL     1     -34.088  15.730  -4.715  1.00 20.00     0.061 C 
HETATM    5  C7  UNL     1     -36.222  15.123  -3.508  1.00 20.00     0.014 C 
HETATM    6  C8  UNL     1     -34.702  15.294  -3.371  1.00 20.00     0.035 C 
HETATM    7 CL9  UNL     1     -33.736  15.079  -7.353  1.00 20.00    -0.089 Cl
ENDROOT
BRANCH   6   8
HETATM    8  C4  UNL     1     -34.363  16.272  -2.287  1.00 20.00     0.007 C 
HETATM    9  C3  UNL     1     -35.174  16.585  -1.270  1.00 20.00     0.032 C 
HETATM   10 CL10 UNL     1     -32.805  17.012  -2.416  1.00 20.00    -0.089 Cl
ENDBRANCH   6   8
TORSDOF 1
ENDMDL
MODEL 4
REMARK VINA RESULT:      -4.3      1.169      1.276
REMARK  1 active torsions:
REMARK  status: ('A' for Active; 'I' for Inactive)
REMARK    1  A    between atoms: C4_4  and  C8_8 
ROOT
HETATM    1  C1  UNL     1     -33.682  17.995  -0.771  1.00 20.00    -0.007 C 
HETATM    2  C2  UNL     1     -34.815  17.279  -0.770  1.00 20.00     0.009 C 
HETATM    3  C5  UNL     1     -32.638  17.859  -1.838  1.00 20.00     0.029 C 
HETATM    4  C6  UNL     1     -35.147  16.247  -1.808  1.00 20.00     0.061 C 
HETATM    5  C7  UNL     1     -33.120  17.078  -3.065  1.00 20.00     0.014 C 
HETATM    6  C8  UNL     1     -33.927  15.837  -2.656  1.00 20.00     0.035 C 
HETATM    7 CL9  UNL     1     -35.991  17.498   0.478  1.00 20.00    -0.089 Cl
ENDROOT
BRANCH   6   8
HETATM    8  C4  UNL     1     -34.352  15.047  -3.857  1.00 20.00     0.007 C 
HETATM    9  C3  UNL     1     -33.532  14.677  -4.847  1.00 20.00     0.032 C 
HETATM   10 CL10 UNL     1     -36.027  14.618  -3.908  1.00 20.00    -0.089 Cl
ENDBRANCH   6   8
TORSDOF 1
ENDMDL
MODEL 5
REMARK VINA RESULT:      -4.3      1.345      4.829
REMARK  1 active torsions:
REMARK  status: ('A' for Active; 'I' for Inactive)
REMARK    1  A    between atoms: C4_4  and  C8_8 
ROOT
HETATM    1  C1  UNL     1     -35.764  14.305  -5.760  1.00 20.00    -0.007 C 
HETATM    2  C2  UNL     1     -34.623  14.999  -5.881  1.00 20.00     0.009 C 
HETATM    3  C5  UNL     1     -36.546  14.249  -4.482  1.00 20.00     0.029 C 
HETATM    4  C6  UNL     1     -33.990  15.762  -4.753  1.00 20.00     0.061 C 
HETATM    5  C7  UNL     1     -36.100  15.289  -3.449  1.00 20.00     0.014 C 
HETATM    6  C8  UNL     1     -34.570  15.384  -3.376  1.00 20.00     0.035 C 
HETATM    7 CL9  UNL     1     -33.779  15.043  -7.388  1.00 20.00    -0.089 Cl
ENDROOT
BRANCH   6   8
HETATM    8  C4  UNL     1     -34.137  16.364  -2.327  1.00 20.00     0.007 C 
HETATM    9  C3  UNL     1     -32.989  17.049  -2.361  1.00 20.00     0.032 C 
HETATM   10 CL10 UNL     1     -35.241  16.578  -1.013  1.00 20.00    -0.089 Cl
ENDBRANCH   6   8
TORSDOF 1
ENDMDL
MODEL 6
REMARK VINA RESULT:      -4.3      1.885      2.527
REMARK  1 active torsions:
REMARK  status: ('A' for Active; 'I' for Inactive)
REMARK    1  A    between atoms: C4_4  and  C8_8 
ROOT
HETATM    1  C1  UNL     1     -34.175  17.983  -0.867  1.00 20.00    -0.007 C 
HETATM    2  C2  UNL     1     -33.041  17.732  -1.536  1.00 20.00     0.009 C 
HETATM    3  C5  UNL     1     -35.439  17.210  -1.095  1.00 20.00     0.029 C 
HETATM    4  C6  UNL     1     -32.921  16.682  -2.603  1.00 20.00     0.061 C 
HETATM    5  C7  UNL     1     -35.232  15.932  -1.914  1.00 20.00     0.014 C 
HETATM    6  C8  UNL     1     -34.288  16.175  -3.100  1.00 20.00     0.035 C 
HETATM    7 CL9  UNL     1     -31.610  18.644  -1.212  1.00 20.00    -0.089 Cl
ENDROOT
BRANCH   6   8
HETATM    8  C4  UNL     1     -34.130  14.935  -3.928  1.00 20.00     0.007 C 
HETATM    9  C3  UNL     1     -32.974  14.529  -4.467  1.00 20.00     0.032 C 
HETATM   10 CL10 UNL     1     -35.573  14.013  -4.167  1.00 20.00    -0.089 Cl
ENDBRANCH   6   8
TORSDOF 1
ENDMDL
MODEL 7
REMARK VINA RESULT:      -4.3     11.431     12.235
REMARK  1 active torsions:
REMARK  status: ('A' for Active; 'I' for Inactive)
REMARK    1  A    between atoms: C4_4  and  C8_8 
ROOT
HETATM    1  C1  UNL     1     -34.622   4.296   4.329  1.00 20.00    -0.007 C 
HETATM    2  C2  UNL     1     -34.477   5.490   4.920  1.00 20.00     0.009 C 
HETATM    3  C5  UNL     1     -34.031   3.978   2.988  1.00 20.00     0.029 C 
HETATM    4  C6  UNL     1     -33.744   6.643   4.296  1.00 20.00     0.061 C 
HETATM    5  C7  UNL     1     -33.006   5.013   2.514  1.00 20.00     0.014 C 
HETATM    6  C8  UNL     1     -33.488   6.444   2.790  1.00 20.00     0.035 C 
HETATM    7 CL9  UNL     1     -35.164   5.788   6.477  1.00 20.00    -0.089 Cl
ENDROOT
BRANCH   6   8
HETATM    8  C4  UNL     1     -32.506   7.454   2.277  1.00 20.00     0.007 C 
HETATM    9  C3  UNL     1     -32.575   8.031   1.072  1.00 20.00     0.032 C 
HETATM   10 CL10 UNL     1     -31.222   7.858   3.363  1.00 20.00    -0.089 Cl
ENDBRANCH   6   8
TORSDOF 1
ENDMDL
MODEL 8
REMARK VINA RESULT:      -4.1      1.314      4.147
REMARK  1 active torsions:
REMARK  status: ('A' for Active; 'I' for Inactive)
REMARK    1  A    between atoms: C4_4  and  C8_8 
ROOT
HETATM    1  C1  UNL     1     -33.108  16.254  -3.289  1.00 20.00    -0.007 C 
HETATM    2  C2  UNL     1     -34.229  15.590  -2.977  1.00 20.00     0.009 C 
HETATM    3  C5  UNL     1     -32.665  17.486  -2.559  1.00 20.00     0.029 C 
HETATM    4  C6  UNL     1     -35.176  16.021  -1.894  1.00 20.00     0.061 C 
HETATM    5  C7  UNL     1     -33.427  17.726  -1.252  1.00 20.00     0.014 C 
HETATM    6  C8  UNL     1     -34.931  17.469  -1.427  1.00 20.00     0.035 C 
HETATM    7 CL9  UNL     1     -34.674  14.162  -3.842  1.00 20.00    -0.089 Cl
ENDROOT
BRANCH   6   8
HETATM    8  C4  UNL     1     -35.680  17.755  -0.160  1.00 20.00     0.007 C 
HETATM    9  C3  UNL     1     -36.992  18.005  -0.098  1.00 20.00     0.032 C 
HETATM   10 CL10 UNL     1     -34.726  17.748   1.283  1.00 20.00    -0.089 Cl
ENDBRANCH   6   8
TORSDOF 1
ENDMDL
MODEL 9
REMARK VINA RESULT:      -4.0      2.030      3.902
REMARK  1 active torsions:
REMARK  status: ('A' for Active; 'I' for Inactive)
REMARK    1  A    between atoms: C4_4  and  C8_8 
ROOT
HETATM    1  C1  UNL     1     -34.992  14.510  -4.945  1.00 20.00    -0.007 C 
HETATM    2  C2  UNL     1     -35.939  14.890  -4.076  1.00 20.00     0.009 C 
HETATM    3  C5  UNL     1     -33.560  14.936  -4.821  1.00 20.00     0.029 C 
HETATM    4  C6  UNL     1     -35.681  15.805  -2.913  1.00 20.00     0.061 C 
HETATM    5  C7  UNL     1     -33.228  15.569  -3.466  1.00 20.00     0.014 C 
HETATM    6  C8  UNL     1     -34.331  16.539  -3.017  1.00 20.00     0.035 C 
HETATM    7 CL9  UNL     1     -37.569  14.348  -4.261  1.00 20.00    -0.089 Cl
ENDROOT
BRANCH   6   8
HETATM    8  C4  UNL     1     -33.977  17.196  -1.717  1.00 20.00     0.007 C 
HETATM    9  C3  UNL     1     -34.808  17.300  -0.673  1.00 20.00     0.032 C 
HETATM   10 CL10 UNL     1     -32.376  17.841  -1.623  1.00 20.00    -0.089 Cl
ENDBRANCH   6   8
TORSDOF 1
ENDMDL
