MODEL 1
REMARK VINA RESULT:      -5.5      0.000      0.000
REMARK  0 active torsions:
REMARK  status: ('A' for Active; 'I' for Inactive)
ROOT
HETATM    1  C1  UNL     1     -32.792   6.755   2.888  1.00 20.00    -0.089 C 
HETATM    2  C2  UNL     1     -34.437   5.753   5.032  1.00 20.00    -0.089 C 
HETATM    3  C3  UNL     1     -32.512   7.492   1.803  1.00 20.00     0.014 C 
HETATM    4  C4  UNL     1     -34.717   5.017   6.116  1.00 20.00     0.014 C 
HETATM    5  C5  UNL     1     -32.578   7.265   4.293  1.00 20.00     0.037 C 
HETATM    6  C6  UNL     1     -33.367   5.362   2.797  1.00 20.00     0.037 C 
HETATM    7  C7  UNL     1     -33.861   7.146   5.122  1.00 20.00     0.037 C 
HETATM    8  C8  UNL     1     -34.651   5.244   3.627  1.00 20.00     0.037 C 
ENDROOT
TORSDOF 0
ENDMDL
MODEL 2
REMARK VINA RESULT:      -5.5      0.008      3.263
REMARK  0 active torsions:
REMARK  status: ('A' for Active; 'I' for Inactive)
ROOT
HETATM    1  C1  UNL     1     -34.433   5.746   5.028  1.00 20.00    -0.089 C 
HETATM    2  C2  UNL     1     -32.792   6.751   2.882  1.00 20.00    -0.089 C 
HETATM    3  C3  UNL     1     -34.711   5.010   6.113  1.00 20.00     0.014 C 
HETATM    4  C4  UNL     1     -32.514   7.487   1.797  1.00 20.00     0.014 C 
HETATM    5  C5  UNL     1     -33.857   7.139   5.118  1.00 20.00     0.037 C 
HETATM    6  C6  UNL     1     -34.650   5.237   3.623  1.00 20.00     0.037 C 
HETATM    7  C7  UNL     1     -32.576   7.259   4.287  1.00 20.00     0.037 C 
HETATM    8  C8  UNL     1     -33.367   5.357   2.792  1.00 20.00     0.037 C 
ENDROOT
TORSDOF 0
ENDMDL
MODEL 3
REMARK VINA RESULT:      -4.2     11.565     12.136
REMARK  0 active torsions:
REMARK  status: ('A' for Active; 'I' for Inactive)
ROOT
HETATM    1  C1  UNL     1     -33.551  16.273  -2.849  1.00 20.00    -0.089 C 
HETATM    2  C2  UNL     1     -35.469  14.663  -4.277  1.00 20.00    -0.089 C 
HETATM    3  C3  UNL     1     -32.867  17.389  -2.557  1.00 20.00     0.014 C 
HETATM    4  C4  UNL     1     -36.153  13.548  -4.568  1.00 20.00     0.014 C 
HETATM    5  C5  UNL     1     -34.873  15.939  -2.202  1.00 20.00     0.037 C 
HETATM    6  C6  UNL     1     -33.069  15.268  -3.867  1.00 20.00     0.037 C 
HETATM    7  C7  UNL     1     -35.949  15.669  -3.258  1.00 20.00     0.037 C 
HETATM    8  C8  UNL     1     -34.146  14.998  -4.924  1.00 20.00     0.037 C 
ENDROOT
TORSDOF 0
ENDMDL
MODEL 4
REMARK VINA RESULT:      -4.2     11.557     12.246
REMARK  0 active torsions:
REMARK  status: ('A' for Active; 'I' for Inactive)
ROOT
HETATM    1  C1  UNL     1     -35.430  14.714  -4.223  1.00 20.00    -0.089 C 
HETATM    2  C2  UNL     1     -33.556  16.343  -2.758  1.00 20.00    -0.089 C 
HETATM    3  C3  UNL     1     -36.095  13.591  -4.530  1.00 20.00     0.014 C 
HETATM    4  C4  UNL     1     -32.892  17.465  -2.451  1.00 20.00     0.014 C 
HETATM    5  C5  UNL     1     -35.940  15.708  -3.208  1.00 20.00     0.037 C 
HETATM    6  C6  UNL     1     -34.103  15.069  -4.849  1.00 20.00     0.037 C 
HETATM    7  C7  UNL     1     -34.884  15.987  -2.133  1.00 20.00     0.037 C 
HETATM    8  C8  UNL     1     -33.046  15.348  -3.774  1.00 20.00     0.037 C 
ENDROOT
TORSDOF 0
ENDMDL
MODEL 5
REMARK VINA RESULT:      -4.2      9.029     10.148
REMARK  0 active torsions:
REMARK  status: ('A' for Active; 'I' for Inactive)
ROOT
HETATM    1  C1  UNL     1     -42.619   5.935  -1.174  1.00 20.00    -0.089 C 
HETATM    2  C2  UNL     1     -41.882   8.332   0.248  1.00 20.00    -0.089 C 
HETATM    3  C3  UNL     1     -43.176   4.725  -1.325  1.00 20.00     0.014 C 
HETATM    4  C4  UNL     1     -41.326   9.542   0.399  1.00 20.00     0.014 C 
HETATM    5  C5  UNL     1     -43.378   7.216  -1.426  1.00 20.00     0.037 C 
HETATM    6  C6  UNL     1     -41.192   6.122  -0.716  1.00 20.00     0.037 C 
HETATM    7  C7  UNL     1     -43.309   8.145  -0.210  1.00 20.00     0.037 C 
HETATM    8  C8  UNL     1     -41.123   7.051   0.501  1.00 20.00     0.037 C 
ENDROOT
TORSDOF 0
ENDMDL
MODEL 6
REMARK VINA RESULT:      -4.1      9.041     10.065
REMARK  0 active torsions:
REMARK  status: ('A' for Active; 'I' for Inactive)
ROOT
HETATM    1  C1  UNL     1     -41.880   8.332   0.235  1.00 20.00    -0.089 C 
HETATM    2  C2  UNL     1     -42.639   5.938  -1.181  1.00 20.00    -0.089 C 
HETATM    3  C3  UNL     1     -41.318   9.541   0.380  1.00 20.00     0.014 C 
HETATM    4  C4  UNL     1     -43.201   4.731  -1.326  1.00 20.00     0.014 C 
HETATM    5  C5  UNL     1     -43.311   8.149  -0.207  1.00 20.00     0.037 C 
HETATM    6  C6  UNL     1     -41.121   7.049   0.479  1.00 20.00     0.037 C 
HETATM    7  C7  UNL     1     -43.397   7.221  -1.424  1.00 20.00     0.037 C 
HETATM    8  C8  UNL     1     -41.206   6.121  -0.738  1.00 20.00     0.037 C 
ENDROOT
TORSDOF 0
ENDMDL
MODEL 7
REMARK VINA RESULT:      -4.1      9.072     10.079
REMARK  0 active torsions:
REMARK  status: ('A' for Active; 'I' for Inactive)
ROOT
HETATM    1  C1  UNL     1     -42.631   5.725  -0.134  1.00 20.00    -0.089 C 
HETATM    2  C2  UNL     1     -41.895   8.511  -0.057  1.00 20.00    -0.089 C 
HETATM    3  C3  UNL     1     -43.293   4.647  -0.578  1.00 20.00     0.014 C 
HETATM    4  C4  UNL     1     -41.234   9.588   0.386  1.00 20.00     0.014 C 
HETATM    5  C5  UNL     1     -41.310   6.164  -0.718  1.00 20.00     0.037 C 
HETATM    6  C6  UNL     1     -43.162   6.606   0.972  1.00 20.00     0.037 C 
HETATM    7  C7  UNL     1     -41.365   7.629  -1.162  1.00 20.00     0.037 C 
HETATM    8  C8  UNL     1     -43.217   8.072   0.527  1.00 20.00     0.037 C 
ENDROOT
TORSDOF 0
ENDMDL
MODEL 8
REMARK VINA RESULT:      -4.1      9.101      9.884
REMARK  0 active torsions:
REMARK  status: ('A' for Active; 'I' for Inactive)
ROOT
HETATM    1  C1  UNL     1     -41.894   8.554  -0.065  1.00 20.00    -0.089 C 
HETATM    2  C2  UNL     1     -42.624   5.769  -0.211  1.00 20.00    -0.089 C 
HETATM    3  C3  UNL     1     -41.226   9.620   0.398  1.00 20.00     0.014 C 
HETATM    4  C4  UNL     1     -43.292   4.703  -0.674  1.00 20.00     0.014 C 
HETATM    5  C5  UNL     1     -41.383   7.707  -1.205  1.00 20.00     0.037 C 
HETATM    6  C6  UNL     1     -43.204   8.094   0.531  1.00 20.00     0.037 C 
HETATM    7  C7  UNL     1     -41.315   6.229  -0.806  1.00 20.00     0.037 C 
HETATM    8  C8  UNL     1     -43.136   6.616   0.931  1.00 20.00     0.037 C 
ENDROOT
TORSDOF 0
ENDMDL
MODEL 9
REMARK VINA RESULT:      -4.0     11.636     12.462
REMARK  0 active torsions:
REMARK  status: ('A' for Active; 'I' for Inactive)
ROOT
HETATM    1  C1  UNL     1     -33.089  17.678  -1.930  1.00 20.00    -0.089 C 
HETATM    2  C2  UNL     1     -34.940  15.668  -2.850  1.00 20.00    -0.089 C 
HETATM    3  C3  UNL     1     -32.058  18.157  -1.220  1.00 20.00     0.014 C 
HETATM    4  C4  UNL     1     -35.970  15.189  -3.560  1.00 20.00     0.014 C 
HETATM    5  C5  UNL     1     -32.920  17.082  -3.306  1.00 20.00     0.037 C 
HETATM    6  C6  UNL     1     -34.505  17.672  -1.404  1.00 20.00     0.037 C 
HETATM    7  C7  UNL     1     -33.524  15.675  -3.375  1.00 20.00     0.037 C 
HETATM    8  C8  UNL     1     -35.109  16.264  -1.472  1.00 20.00     0.037 C 
ENDROOT
TORSDOF 0
ENDMDL
