MODEL 1
REMARK VINA RESULT:      -4.3      0.000      0.000
REMARK  0 active torsions:
REMARK  status: ('A' for Active; 'I' for Inactive)
ROOT
HETATM    1  C1  UNL     1     -33.489  18.487  -0.890  1.00 20.00     0.000 C 
HETATM    2  C2  UNL     1     -34.623  17.583  -0.415  1.00 20.00     0.000 C 
HETATM    3  C3  UNL     1     -32.521  17.855  -1.891  1.00 20.00     0.004 C 
HETATM    4  C4  UNL     1     -35.476  16.966  -1.523  1.00 20.00     0.004 C 
HETATM    5  C5  UNL     1     -33.143  17.681  -3.279  1.00 20.00     0.049 C 
HETATM    6  C6  UNL     1     -34.734  15.871  -2.289  1.00 20.00     0.049 C 
HETATM    7  C7  UNL     1     -33.394  14.421  -4.718  1.00 20.00     0.180 C 
HETATM    8  C8  UNL     1     -34.001  15.226  -5.851  1.00 20.00     0.103 C 
HETATM    9  C9  UNL     1     -33.886  16.351  -3.480  1.00 20.00     0.108 C 
HETATM   10  O10 UNL     1     -32.888  15.338  -3.741  1.00 20.00    -0.369 OA
HETATM   11  S11 UNL     1     -34.933  16.495  -4.983  1.00 20.00    -0.129 SA
ENDROOT
TORSDOF 0
ENDMDL
MODEL 2
REMARK VINA RESULT:      -4.2      1.215      2.300
REMARK  0 active torsions:
REMARK  status: ('A' for Active; 'I' for Inactive)
ROOT
HETATM    1  C1  UNL     1     -34.565  17.475  -0.356  1.00 20.00     0.000 C 
HETATM    2  C2  UNL     1     -33.352  18.247  -0.866  1.00 20.00     0.000 C 
HETATM    3  C3  UNL     1     -35.561  17.033  -1.429  1.00 20.00     0.004 C 
HETATM    4  C4  UNL     1     -32.542  17.550  -1.958  1.00 20.00     0.004 C 
HETATM    5  C5  UNL     1     -35.025  15.888  -2.293  1.00 20.00     0.049 C 
HETATM    6  C6  UNL     1     -33.272  17.528  -3.302  1.00 20.00     0.049 C 
HETATM    7  C7  UNL     1     -34.689  16.328  -5.821  1.00 20.00     0.180 C 
HETATM    8  C8  UNL     1     -34.207  14.895  -5.716  1.00 20.00     0.103 C 
HETATM    9  C9  UNL     1     -34.224  16.341  -3.523  1.00 20.00     0.108 C 
HETATM   10  O10 UNL     1     -35.179  16.730  -4.537  1.00 20.00    -0.369 OA
HETATM   11  S11 UNL     1     -33.292  14.896  -4.168  1.00 20.00    -0.129 SA
ENDROOT
TORSDOF 0
ENDMDL
MODEL 3
REMARK VINA RESULT:      -3.9      3.041      4.677
REMARK  0 active torsions:
REMARK  status: ('A' for Active; 'I' for Inactive)
ROOT
HETATM    1  C1  UNL     1     -33.719  14.944  -5.845  1.00 20.00     0.000 C 
HETATM    2  C2  UNL     1     -33.575  14.549  -4.378  1.00 20.00     0.000 C 
HETATM    3  C3  UNL     1     -35.126  14.806  -6.427  1.00 20.00     0.004 C 
HETATM    4  C4  UNL     1     -34.523  15.259  -3.412  1.00 20.00     0.004 C 
HETATM    5  C5  UNL     1     -36.087  15.877  -5.904  1.00 20.00     0.049 C 
HETATM    6  C6  UNL     1     -35.966  14.773  -3.549  1.00 20.00     0.049 C 
HETATM    7  C7  UNL     1     -39.037  14.913  -4.138  1.00 20.00     0.180 C 
HETATM    8  C8  UNL     1     -39.226  16.417  -4.108  1.00 20.00     0.103 C 
HETATM    9  C9  UNL     1     -36.815  15.499  -4.606  1.00 20.00     0.108 C 
HETATM   10  O10 UNL     1     -37.906  14.621  -4.968  1.00 20.00    -0.369 OA
HETATM   11  S11 UNL     1     -37.547  17.024  -3.890  1.00 20.00    -0.129 SA
ENDROOT
TORSDOF 0
ENDMDL
MODEL 4
REMARK VINA RESULT:      -3.9      1.702      2.584
REMARK  0 active torsions:
REMARK  status: ('A' for Active; 'I' for Inactive)
ROOT
HETATM    1  C1  UNL     1     -33.912  17.372  -1.128  1.00 20.00     0.000 C 
HETATM    2  C2  UNL     1     -33.379  18.415  -2.107  1.00 20.00     0.000 C 
HETATM    3  C3  UNL     1     -35.144  16.599  -1.598  1.00 20.00     0.004 C 
HETATM    4  C4  UNL     1     -33.066  17.896  -3.509  1.00 20.00     0.004 C 
HETATM    5  C5  UNL     1     -34.820  15.591  -2.703  1.00 20.00     0.049 C 
HETATM    6  C6  UNL     1     -34.329  17.581  -4.311  1.00 20.00     0.049 C 
HETATM    7  C7  UNL     1     -36.421  15.865  -5.884  1.00 20.00     0.180 C 
HETATM    8  C8  UNL     1     -35.579  14.632  -6.150  1.00 20.00     0.103 C 
HETATM    9  C9  UNL     1     -34.897  16.164  -4.127  1.00 20.00     0.108 C 
HETATM   10  O10 UNL     1     -36.294  16.202  -4.498  1.00 20.00    -0.369 OA
HETATM   11  S11 UNL     1     -34.055  14.993  -5.266  1.00 20.00    -0.129 SA
ENDROOT
TORSDOF 0
ENDMDL
MODEL 5
REMARK VINA RESULT:      -3.9      1.375      1.479
REMARK  0 active torsions:
REMARK  status: ('A' for Active; 'I' for Inactive)
ROOT
HETATM    1  C1  UNL     1     -32.924  17.977  -1.824  1.00 20.00     0.000 C 
HETATM    2  C2  UNL     1     -34.057  17.712  -0.837  1.00 20.00     0.000 C 
HETATM    3  C3  UNL     1     -32.650  16.856  -2.827  1.00 20.00     0.004 C 
HETATM    4  C4  UNL     1     -35.401  17.346  -1.466  1.00 20.00     0.004 C 
HETATM    5  C5  UNL     1     -33.739  16.747  -3.898  1.00 20.00     0.049 C 
HETATM    6  C6  UNL     1     -35.402  15.939  -2.064  1.00 20.00     0.049 C 
HETATM    7  C7  UNL     1     -35.586  13.711  -4.255  1.00 20.00     0.180 C 
HETATM    8  C8  UNL     1     -36.233  14.513  -5.367  1.00 20.00     0.103 C 
HETATM    9  C9  UNL     1     -34.915  15.834  -3.519  1.00 20.00     0.108 C 
HETATM   10  O10 UNL     1     -34.486  14.471  -3.740  1.00 20.00    -0.369 OA
HETATM   11  S11 UNL     1     -36.302  16.171  -4.675  1.00 20.00    -0.129 SA
ENDROOT
TORSDOF 0
ENDMDL
MODEL 6
REMARK VINA RESULT:      -3.8      1.689      2.008
REMARK  0 active torsions:
REMARK  status: ('A' for Active; 'I' for Inactive)
ROOT
HETATM    1  C1  UNL     1     -33.714  17.023  -1.865  1.00 20.00     0.000 C 
HETATM    2  C2  UNL     1     -35.137  16.679  -1.436  1.00 20.00     0.000 C 
HETATM    3  C3  UNL     1     -33.207  16.288  -3.106  1.00 20.00     0.004 C 
HETATM    4  C4  UNL     1     -36.206  16.848  -2.515  1.00 20.00     0.004 C 
HETATM    5  C5  UNL     1     -33.861  16.791  -4.396  1.00 20.00     0.049 C 
HETATM    6  C6  UNL     1     -36.120  15.769  -3.595  1.00 20.00     0.049 C 
HETATM    7  C7  UNL     1     -35.723  14.533  -6.443  1.00 20.00     0.180 C 
HETATM    8  C8  UNL     1     -35.874  15.788  -7.280  1.00 20.00     0.103 C 
HETATM    9  C9  UNL     1     -35.170  16.075  -4.766  1.00 20.00     0.108 C 
HETATM   10  O10 UNL     1     -34.810  14.815  -5.377  1.00 20.00    -0.369 OA
HETATM   11  S11 UNL     1     -36.037  17.077  -6.037  1.00 20.00    -0.129 SA
ENDROOT
TORSDOF 0
ENDMDL
MODEL 7
REMARK VINA RESULT:      -3.8      1.996      2.767
REMARK  0 active torsions:
REMARK  status: ('A' for Active; 'I' for Inactive)
ROOT
HETATM    1  C1  UNL     1     -33.658  17.848  -1.056  1.00 20.00     0.000 C 
HETATM    2  C2  UNL     1     -32.955  18.248  -2.351  1.00 20.00     0.000 C 
HETATM    3  C3  UNL     1     -35.098  17.360  -1.215  1.00 20.00     0.004 C 
HETATM    4  C4  UNL     1     -32.942  17.182  -3.445  1.00 20.00     0.004 C 
HETATM    5  C5  UNL     1     -35.182  15.969  -1.849  1.00 20.00     0.049 C 
HETATM    6  C6  UNL     1     -34.316  16.985  -4.085  1.00 20.00     0.049 C 
HETATM    7  C7  UNL     1     -36.951  15.515  -4.918  1.00 20.00     0.180 C 
HETATM    8  C8  UNL     1     -36.519  14.081  -4.681  1.00 20.00     0.103 C 
HETATM    9  C9  UNL     1     -35.237  15.972  -3.384  1.00 20.00     0.108 C 
HETATM   10  O10 UNL     1     -36.598  16.284  -3.762  1.00 20.00    -0.369 OA
HETATM   11  S11 UNL     1     -34.875  14.272  -3.978  1.00 20.00    -0.129 SA
ENDROOT
TORSDOF 0
ENDMDL
MODEL 8
REMARK VINA RESULT:      -3.8      1.555      2.053
REMARK  0 active torsions:
REMARK  status: ('A' for Active; 'I' for Inactive)
ROOT
HETATM    1  C1  UNL     1     -32.001  18.900   0.601  1.00 20.00     0.000 C 
HETATM    2  C2  UNL     1     -33.349  18.389   1.101  1.00 20.00     0.000 C 
HETATM    3  C3  UNL     1     -31.453  18.198  -0.642  1.00 20.00     0.004 C 
HETATM    4  C4  UNL     1     -34.473  18.385   0.065  1.00 20.00     0.004 C 
HETATM    5  C5  UNL     1     -32.218  18.572  -1.914  1.00 20.00     0.049 C 
HETATM    6  C6  UNL     1     -34.291  17.294  -0.989  1.00 20.00     0.049 C 
HETATM    7  C7  UNL     1     -33.851  16.031  -3.819  1.00 20.00     0.180 C 
HETATM    8  C8  UNL     1     -34.197  17.229  -4.681  1.00 20.00     0.103 C 
HETATM    9  C9  UNL     1     -33.436  17.683  -2.208  1.00 20.00     0.108 C 
HETATM   10  O10 UNL     1     -32.940  16.461  -2.801  1.00 20.00    -0.369 OA
HETATM   11  S11 UNL     1     -34.476  18.525  -3.466  1.00 20.00    -0.129 SA
ENDROOT
TORSDOF 0
ENDMDL
MODEL 9
REMARK VINA RESULT:      -3.7      1.701      2.025
REMARK  0 active torsions:
REMARK  status: ('A' for Active; 'I' for Inactive)
ROOT
HETATM    1  C1  UNL     1     -35.104  18.603  -2.143  1.00 20.00     0.000 C 
HETATM    2  C2  UNL     1     -34.513  17.407  -1.403  1.00 20.00     0.000 C 
HETATM    3  C3  UNL     1     -34.893  18.608  -3.657  1.00 20.00     0.004 C 
HETATM    4  C4  UNL     1     -34.955  16.036  -1.914  1.00 20.00     0.004 C 
HETATM    5  C5  UNL     1     -35.754  17.567  -4.375  1.00 20.00     0.049 C 
HETATM    6  C6  UNL     1     -34.330  15.689  -3.266  1.00 20.00     0.049 C 
HETATM    7  C7  UNL     1     -34.199  15.004  -6.317  1.00 20.00     0.180 C 
HETATM    8  C8  UNL     1     -35.649  14.626  -6.548  1.00 20.00     0.103 C 
HETATM    9  C9  UNL     1     -35.103  16.181  -4.501  1.00 20.00     0.108 C 
HETATM   10  O10 UNL     1     -34.169  16.246  -5.604  1.00 20.00    -0.369 OA
HETATM   11  S11 UNL     1     -36.408  14.969  -4.954  1.00 20.00    -0.129 SA
ENDROOT
TORSDOF 0
ENDMDL
