MODEL 1
REMARK VINA RESULT:      -4.1      0.000      0.000
REMARK  2 active torsions:
REMARK  status: ('A' for Active; 'I' for Inactive)
REMARK    1  A    between atoms: C2_2  and  C3_3 
REMARK    2  A    between atoms: C2_2  and  C4_4 
ROOT
HETATM    1  C1  UNL     1     -33.359   4.619   2.501  1.00 20.00     0.016 C 
HETATM    2  C2  UNL     1     -33.852   5.447   3.437  1.00 20.00    -0.062 C 
ENDROOT
BRANCH   2   3
HETATM    3  C3  UNL     1     -35.014   5.034   4.297  1.00 20.00     0.149 C 
HETATM    4 CL5  UNL     1     -34.705   5.422   6.005  1.00 20.00    -0.126 Cl
ENDBRANCH   2   3
BRANCH   2   5
HETATM    5  C4  UNL     1     -33.261   6.812   3.651  1.00 20.00     0.149 C 
HETATM    6 CL6  UNL     1     -32.451   7.387   2.176  1.00 20.00    -0.126 Cl
ENDBRANCH   2   5
TORSDOF 2
ENDMDL
MODEL 2
REMARK VINA RESULT:      -4.0      0.027      3.180
REMARK  2 active torsions:
REMARK  status: ('A' for Active; 'I' for Inactive)
REMARK    1  A    between atoms: C2_2  and  C3_3 
REMARK    2  A    between atoms: C2_2  and  C4_4 
ROOT
HETATM    1  C1  UNL     1     -33.382   4.609   2.512  1.00 20.00     0.016 C 
HETATM    2  C2  UNL     1     -33.872   5.445   3.443  1.00 20.00    -0.062 C 
ENDROOT
BRANCH   2   3
HETATM    3  C3  UNL     1     -33.262   6.802   3.658  1.00 20.00     0.149 C 
HETATM    4 CL5  UNL     1     -32.459   7.377   2.180  1.00 20.00    -0.126 Cl
ENDBRANCH   2   3
BRANCH   2   5
HETATM    5  C4  UNL     1     -35.044   5.050   4.297  1.00 20.00     0.149 C 
HETATM    6 CL6  UNL     1     -34.712   5.381   6.013  1.00 20.00    -0.126 Cl
ENDBRANCH   2   5
TORSDOF 2
ENDMDL
MODEL 3
REMARK VINA RESULT:      -3.7      1.515      2.036
REMARK  2 active torsions:
REMARK  status: ('A' for Active; 'I' for Inactive)
REMARK    1  A    between atoms: C2_2  and  C3_3 
REMARK    2  A    between atoms: C2_2  and  C4_4 
ROOT
HETATM    1  C1  UNL     1     -33.365   7.309   5.192  1.00 20.00     0.016 C 
HETATM    2  C2  UNL     1     -33.774   6.448   4.245  1.00 20.00    -0.062 C 
ENDROOT
BRANCH   2   3
HETATM    3  C3  UNL     1     -34.919   5.508   4.499  1.00 20.00     0.149 C 
HETATM    4 CL5  UNL     1     -34.962   5.011   6.205  1.00 20.00    -0.126 Cl
ENDBRANCH   2   3
BRANCH   2   5
HETATM    5  C4  UNL     1     -33.098   6.398   2.902  1.00 20.00     0.149 C 
HETATM    6 CL6  UNL     1     -33.055   4.732   2.281  1.00 20.00    -0.126 Cl
ENDBRANCH   2   5
TORSDOF 2
ENDMDL
MODEL 4
REMARK VINA RESULT:      -3.6      0.804      1.556
REMARK  2 active torsions:
REMARK  status: ('A' for Active; 'I' for Inactive)
REMARK    1  A    between atoms: C2_2  and  C3_3 
REMARK    2  A    between atoms: C2_2  and  C4_4 
ROOT
HETATM    1  C1  UNL     1     -33.315   7.154   4.751  1.00 20.00     0.016 C 
HETATM    2  C2  UNL     1     -33.753   6.174   3.942  1.00 20.00    -0.062 C 
ENDROOT
BRANCH   2   3
HETATM    3  C3  UNL     1     -34.907   5.298   4.346  1.00 20.00     0.149 C 
HETATM    4 CL5  UNL     1     -34.932   5.057   6.107  1.00 20.00    -0.126 Cl
ENDBRANCH   2   3
BRANCH   2   5
HETATM    5  C4  UNL     1     -33.102   5.921   2.611  1.00 20.00     0.149 C 
HETATM    6 CL6  UNL     1     -32.474   7.434   1.920  1.00 20.00    -0.126 Cl
ENDBRANCH   2   5
TORSDOF 2
ENDMDL
MODEL 5
REMARK VINA RESULT:      -3.6      0.792      3.594
REMARK  2 active torsions:
REMARK  status: ('A' for Active; 'I' for Inactive)
REMARK    1  A    between atoms: C2_2  and  C3_3 
REMARK    2  A    between atoms: C2_2  and  C4_4 
ROOT
HETATM    1  C1  UNL     1     -33.312   7.126   4.698  1.00 20.00     0.016 C 
HETATM    2  C2  UNL     1     -33.740   6.137   3.895  1.00 20.00    -0.062 C 
ENDROOT
BRANCH   2   3
HETATM    3  C3  UNL     1     -33.092   5.892   2.560  1.00 20.00     0.149 C 
HETATM    4 CL5  UNL     1     -32.444   7.404   1.886  1.00 20.00    -0.126 Cl
ENDBRANCH   2   3
BRANCH   2   5
HETATM    5  C4  UNL     1     -34.879   5.246   4.306  1.00 20.00     0.149 C 
HETATM    6 CL6  UNL     1     -34.954   5.093   6.076  1.00 20.00    -0.126 Cl
ENDBRANCH   2   5
TORSDOF 2
ENDMDL
MODEL 6
REMARK VINA RESULT:      -3.6      1.514      3.060
REMARK  2 active torsions:
REMARK  status: ('A' for Active; 'I' for Inactive)
REMARK    1  A    between atoms: C2_2  and  C3_3 
REMARK    2  A    between atoms: C2_2  and  C4_4 
ROOT
HETATM    1  C1  UNL     1     -32.619   7.173   3.202  1.00 20.00     0.016 C 
HETATM    2  C2  UNL     1     -33.484   6.453   3.938  1.00 20.00    -0.062 C 
ENDROOT
BRANCH   2   3
HETATM    3  C3  UNL     1     -34.151   5.232   3.367  1.00 20.00     0.149 C 
HETATM    4 CL5  UNL     1     -33.068   4.389   2.238  1.00 20.00    -0.126 Cl
ENDBRANCH   2   3
BRANCH   2   5
HETATM    5  C4  UNL     1     -33.811   6.846   5.351  1.00 20.00     0.149 C 
HETATM    6 CL6  UNL     1     -34.711   5.550   6.173  1.00 20.00    -0.126 Cl
ENDBRANCH   2   5
TORSDOF 2
ENDMDL
MODEL 7
REMARK VINA RESULT:      -3.6      1.517      2.150
REMARK  2 active torsions:
REMARK  status: ('A' for Active; 'I' for Inactive)
REMARK    1  A    between atoms: C2_2  and  C3_3 
REMARK    2  A    between atoms: C2_2  and  C4_4 
ROOT
HETATM    1  C1  UNL     1     -32.610   7.168   3.173  1.00 20.00     0.016 C 
HETATM    2  C2  UNL     1     -33.471   6.455   3.919  1.00 20.00    -0.062 C 
ENDROOT
BRANCH   2   3
HETATM    3  C3  UNL     1     -33.781   6.857   5.335  1.00 20.00     0.149 C 
HETATM    4 CL5  UNL     1     -34.698   5.582   6.168  1.00 20.00    -0.126 Cl
ENDBRANCH   2   3
BRANCH   2   5
HETATM    5  C4  UNL     1     -34.148   5.233   3.364  1.00 20.00     0.149 C 
HETATM    6 CL6  UNL     1     -33.070   4.370   2.243  1.00 20.00    -0.126 Cl
ENDBRANCH   2   5
TORSDOF 2
ENDMDL
MODEL 8
REMARK VINA RESULT:      -3.5      1.679      3.441
REMARK  2 active torsions:
REMARK  status: ('A' for Active; 'I' for Inactive)
REMARK    1  A    between atoms: C2_2  and  C3_3 
REMARK    2  A    between atoms: C2_2  and  C4_4 
ROOT
HETATM    1  C1  UNL     1     -34.056   6.722   6.087  1.00 20.00     0.016 C 
HETATM    2  C2  UNL     1     -34.039   6.445   4.773  1.00 20.00    -0.062 C 
ENDROOT
BRANCH   2   3
HETATM    3  C3  UNL     1     -33.062   7.124   3.854  1.00 20.00     0.149 C 
HETATM    4 CL5  UNL     1     -32.868   6.204   2.345  1.00 20.00    -0.126 Cl
ENDBRANCH   2   3
BRANCH   2   5
HETATM    5  C4  UNL     1     -34.996   5.449   4.180  1.00 20.00     0.149 C 
HETATM    6 CL6  UNL     1     -34.254   3.835   4.095  1.00 20.00    -0.126 Cl
ENDBRANCH   2   5
TORSDOF 2
ENDMDL
MODEL 9
REMARK VINA RESULT:      -3.4      1.818      2.639
REMARK  2 active torsions:
REMARK  status: ('A' for Active; 'I' for Inactive)
REMARK    1  A    between atoms: C2_2  and  C3_3 
REMARK    2  A    between atoms: C2_2  and  C4_4 
ROOT
HETATM    1  C1  UNL     1     -34.942   4.961   5.913  1.00 20.00     0.016 C 
HETATM    2  C2  UNL     1     -34.429   5.244   4.704  1.00 20.00    -0.062 C 
ENDROOT
BRANCH   2   3
HETATM    3  C3  UNL     1     -33.994   6.641   4.358  1.00 20.00     0.149 C 
HETATM    4 CL5  UNL     1     -33.317   7.463   5.781  1.00 20.00    -0.126 Cl
ENDBRANCH   2   3
BRANCH   2   5
HETATM    5  C4  UNL     1     -34.277   4.174   3.659  1.00 20.00     0.149 C 
HETATM    6 CL6  UNL     1     -33.174   4.705   2.369  1.00 20.00    -0.126 Cl
ENDBRANCH   2   5
TORSDOF 2
ENDMDL
