MODEL 1
REMARK VINA RESULT:      -5.2      0.000      0.000
REMARK  2 active torsions:
REMARK  status: ('A' for Active; 'I' for Inactive)
REMARK    1  A    between atoms: C1_1  and  C2_2 
REMARK    2  A    between atoms: C1_1  and  C3_3 
ROOT
HETATM    1  C1  UNL     1     -33.794   6.342   4.651  1.00 20.00     0.153 C 
ENDROOT
BRANCH   1   2
HETATM    2  C2  UNL     1     -33.427   6.435   3.169  1.00 20.00     0.186 C 
HETATM    3 CL7  UNL     1     -33.145   4.833   2.442  1.00 20.00    -0.108 Cl
HETATM    4 CL8  UNL     1     -31.953   7.425   2.972  1.00 20.00    -0.108 Cl
ENDBRANCH   1   2
BRANCH   1   5
HETATM    5  C3  UNL     1     -34.880   5.328   4.957  1.00 20.00     0.390 C 
HETATM    6  F4  UNL     1     -35.953   5.504   4.157  1.00 20.00    -0.171 F 
HETATM    7  F5  UNL     1     -34.452   4.059   4.810  1.00 20.00    -0.171 F 
HETATM    8  F6  UNL     1     -35.300   5.466   6.236  1.00 20.00    -0.171 F 
ENDBRANCH   1   5
TORSDOF 2
ENDMDL
MODEL 2
REMARK VINA RESULT:      -4.9      0.482      1.517
REMARK  2 active torsions:
REMARK  status: ('A' for Active; 'I' for Inactive)
REMARK    1  A    between atoms: C1_1  and  C2_2 
REMARK    2  A    between atoms: C1_1  and  C3_3 
ROOT
HETATM    1  C1  UNL     1     -34.008   6.542   4.266  1.00 20.00     0.153 C 
ENDROOT
BRANCH   1   2
HETATM    2  C2  UNL     1     -32.955   6.105   3.246  1.00 20.00     0.186 C 
HETATM    3 CL7  UNL     1     -32.415   7.452   2.214  1.00 20.00    -0.108 Cl
HETATM    4 CL8  UNL     1     -33.621   4.814   2.206  1.00 20.00    -0.108 Cl
ENDBRANCH   1   2
BRANCH   1   5
HETATM    5  C3  UNL     1     -34.854   5.405   4.808  1.00 20.00     0.390 C 
HETATM    6  F4  UNL     1     -36.048   5.341   4.180  1.00 20.00    -0.171 F 
HETATM    7  F5  UNL     1     -34.247   4.209   4.677  1.00 20.00    -0.171 F 
HETATM    8  F6  UNL     1     -35.097   5.591   6.126  1.00 20.00    -0.171 F 
ENDBRANCH   1   5
TORSDOF 2
ENDMDL
MODEL 3
REMARK VINA RESULT:      -4.8      0.482      2.009
REMARK  2 active torsions:
REMARK  status: ('A' for Active; 'I' for Inactive)
REMARK    1  A    between atoms: C1_1  and  C2_2 
REMARK    2  A    between atoms: C1_1  and  C3_3 
ROOT
HETATM    1  C1  UNL     1     -34.007   6.546   4.268  1.00 20.00     0.153 C 
ENDROOT
BRANCH   1   2
HETATM    2  C2  UNL     1     -32.956   6.107   3.247  1.00 20.00     0.186 C 
HETATM    3 CL7  UNL     1     -32.415   7.454   2.214  1.00 20.00    -0.108 Cl
HETATM    4 CL8  UNL     1     -33.624   4.817   2.208  1.00 20.00    -0.108 Cl
ENDBRANCH   1   2
BRANCH   1   5
HETATM    5  C3  UNL     1     -34.845   5.408   4.821  1.00 20.00     0.390 C 
HETATM    6  F4  UNL     1     -34.230   4.219   4.647  1.00 20.00    -0.171 F 
HETATM    7  F5  UNL     1     -35.106   5.557   6.134  1.00 20.00    -0.171 F 
HETATM    8  F6  UNL     1     -36.034   5.349   4.178  1.00 20.00    -0.171 F 
ENDBRANCH   1   5
TORSDOF 2
ENDMDL
MODEL 4
REMARK VINA RESULT:      -4.6      3.193      3.699
REMARK  2 active torsions:
REMARK  status: ('A' for Active; 'I' for Inactive)
REMARK    1  A    between atoms: C1_1  and  C2_2 
REMARK    2  A    between atoms: C1_1  and  C3_3 
ROOT
HETATM    1  C1  UNL     1     -33.753   7.115   3.671  1.00 20.00     0.153 C 
ENDROOT
BRANCH   1   2
HETATM    2  C2  UNL     1     -34.039   5.978   4.654  1.00 20.00     0.186 C 
HETATM    3 CL7  UNL     1     -35.506   5.066   4.222  1.00 20.00    -0.108 Cl
HETATM    4 CL8  UNL     1     -34.236   6.640   6.302  1.00 20.00    -0.108 Cl
ENDBRANCH   1   2
BRANCH   1   5
HETATM    5  C3  UNL     1     -32.624   6.825   2.701  1.00 20.00     0.390 C 
HETATM    6  F4  UNL     1     -32.510   5.500   2.464  1.00 20.00    -0.171 F 
HETATM    7  F5  UNL     1     -32.791   7.449   1.519  1.00 20.00    -0.171 F 
HETATM    8  F6  UNL     1     -31.446   7.248   3.216  1.00 20.00    -0.171 F 
ENDBRANCH   1   5
TORSDOF 2
ENDMDL
MODEL 5
REMARK VINA RESULT:      -4.5      3.301      4.054
REMARK  2 active torsions:
REMARK  status: ('A' for Active; 'I' for Inactive)
REMARK    1  A    between atoms: C1_1  and  C2_2 
REMARK    2  A    between atoms: C1_1  and  C3_3 
ROOT
HETATM    1  C1  UNL     1     -33.136   5.952   3.056  1.00 20.00     0.153 C 
ENDROOT
BRANCH   1   2
HETATM    2  C2  UNL     1     -34.244   6.173   4.088  1.00 20.00     0.186 C 
HETATM    3 CL7  UNL     1     -33.641   6.964   5.566  1.00 20.00    -0.108 Cl
HETATM    4 CL8  UNL     1     -34.979   4.607   4.531  1.00 20.00    -0.108 Cl
ENDBRANCH   1   2
BRANCH   1   5
HETATM    5  C3  UNL     1     -32.479   7.230   2.570  1.00 20.00     0.390 C 
HETATM    6  F4  UNL     1     -31.548   7.666   3.446  1.00 20.00    -0.171 F 
HETATM    7  F5  UNL     1     -31.885   7.075   1.370  1.00 20.00    -0.171 F 
HETATM    8  F6  UNL     1     -33.403   8.209   2.438  1.00 20.00    -0.171 F 
ENDBRANCH   1   5
TORSDOF 2
ENDMDL
MODEL 6
REMARK VINA RESULT:      -4.5      3.301      4.059
REMARK  2 active torsions:
REMARK  status: ('A' for Active; 'I' for Inactive)
REMARK    1  A    between atoms: C1_1  and  C2_2 
REMARK    2  A    between atoms: C1_1  and  C3_3 
ROOT
HETATM    1  C1  UNL     1     -33.149   5.951   3.040  1.00 20.00     0.153 C 
ENDROOT
BRANCH   1   2
HETATM    2  C2  UNL     1     -34.252   6.158   4.081  1.00 20.00     0.186 C 
HETATM    3 CL7  UNL     1     -33.647   6.954   5.555  1.00 20.00    -0.108 Cl
HETATM    4 CL8  UNL     1     -34.965   4.583   4.528  1.00 20.00    -0.108 Cl
ENDBRANCH   1   2
BRANCH   1   5
HETATM    5  C3  UNL     1     -32.488   7.234   2.576  1.00 20.00     0.390 C 
HETATM    6  F4  UNL     1     -33.393   8.226   2.427  1.00 20.00    -0.171 F 
HETATM    7  F5  UNL     1     -31.537   7.659   3.431  1.00 20.00    -0.171 F 
HETATM    8  F6  UNL     1     -31.893   7.044   1.375  1.00 20.00    -0.171 F 
ENDBRANCH   1   5
TORSDOF 2
ENDMDL
MODEL 7
REMARK VINA RESULT:      -4.2      4.085      5.179
REMARK  2 active torsions:
REMARK  status: ('A' for Active; 'I' for Inactive)
REMARK    1  A    between atoms: C1_1  and  C2_2 
REMARK    2  A    between atoms: C1_1  and  C3_3 
ROOT
HETATM    1  C1  UNL     1     -32.344   7.708   1.107  1.00 20.00     0.153 C 
ENDROOT
BRANCH   1   2
HETATM    2  C2  UNL     1     -32.843   7.224   2.469  1.00 20.00     0.186 C 
HETATM    3 CL7  UNL     1     -31.706   7.615   3.783  1.00 20.00    -0.108 Cl
HETATM    4 CL8  UNL     1     -33.091   5.455   2.429  1.00 20.00    -0.108 Cl
ENDBRANCH   1   2
BRANCH   1   5
HETATM    5  C3  UNL     1     -33.095   8.909   0.564  1.00 20.00     0.390 C 
HETATM    6  F4  UNL     1     -34.005   9.360   1.453  1.00 20.00    -0.171 F 
HETATM    7  F5  UNL     1     -32.271   9.929   0.253  1.00 20.00    -0.171 F 
HETATM    8  F6  UNL     1     -33.761   8.572  -0.564  1.00 20.00    -0.171 F 
ENDBRANCH   1   5
TORSDOF 2
ENDMDL
MODEL 8
REMARK VINA RESULT:      -4.2      4.571      4.993
REMARK  2 active torsions:
REMARK  status: ('A' for Active; 'I' for Inactive)
REMARK    1  A    between atoms: C1_1  and  C2_2 
REMARK    2  A    between atoms: C1_1  and  C3_3 
ROOT
HETATM    1  C1  UNL     1     -33.311   7.995   1.692  1.00 20.00     0.153 C 
ENDROOT
BRANCH   1   2
HETATM    2  C2  UNL     1     -32.412   6.952   2.358  1.00 20.00     0.186 C 
HETATM    3 CL7  UNL     1     -33.266   5.418   2.657  1.00 20.00    -0.108 Cl
HETATM    4 CL8  UNL     1     -31.803   7.585   3.913  1.00 20.00    -0.108 Cl
ENDBRANCH   1   2
BRANCH   1   5
HETATM    5  C3  UNL     1     -32.749   8.564   0.403  1.00 20.00     0.390 C 
HETATM    6  F4  UNL     1     -32.546   9.895   0.502  1.00 20.00    -0.171 F 
HETATM    7  F5  UNL     1     -31.582   7.987   0.055  1.00 20.00    -0.171 F 
HETATM    8  F6  UNL     1     -33.617   8.360  -0.615  1.00 20.00    -0.171 F 
ENDBRANCH   1   5
TORSDOF 2
ENDMDL
MODEL 9
REMARK VINA RESULT:      -4.2      1.482      1.999
REMARK  2 active torsions:
REMARK  status: ('A' for Active; 'I' for Inactive)
REMARK    1  A    between atoms: C1_1  and  C2_2 
REMARK    2  A    between atoms: C1_1  and  C3_3 
ROOT
HETATM    1  C1  UNL     1     -33.360   5.632   2.942  1.00 20.00     0.153 C 
ENDROOT
BRANCH   1   2
HETATM    2  C2  UNL     1     -33.051   7.125   2.830  1.00 20.00     0.186 C 
HETATM    3 CL7  UNL     1     -32.640   7.607   1.165  1.00 20.00    -0.108 Cl
HETATM    4 CL8  UNL     1     -31.684   7.541   3.903  1.00 20.00    -0.108 Cl
ENDBRANCH   1   2
BRANCH   1   5
HETATM    5  C3  UNL     1     -34.341   5.284   4.045  1.00 20.00     0.390 C 
HETATM    6  F4  UNL     1     -34.282   3.971   4.357  1.00 20.00    -0.171 F 
HETATM    7  F5  UNL     1     -34.119   5.992   5.169  1.00 20.00    -0.171 F 
HETATM    8  F6  UNL     1     -35.606   5.550   3.645  1.00 20.00    -0.171 F 
ENDBRANCH   1   5
TORSDOF 2
ENDMDL
