MODEL 1
REMARK VINA RESULT:      -5.2      0.000      0.000
REMARK  2 active torsions:
REMARK  status: ('A' for Active; 'I' for Inactive)
REMARK    1  A    between atoms: C1_1  and  C3_3 
REMARK    2  A    between atoms: C2_2  and  C5_5 
ROOT
HETATM    1  C1  UNL     1     -32.906   6.226   2.863  1.00 20.00     0.003 C 
HETATM    2  C2  UNL     1     -33.907   6.335   3.746  1.00 20.00     0.049 C 
ENDROOT
BRANCH   1   3
HETATM    3  C3  UNL     1     -32.419   7.351   2.095  1.00 20.00    -0.004 C 
HETATM    4  C4  UNL     1     -33.190   8.051   1.249  1.00 20.00    -0.031 C 
HETATM    5  C6  UNL     1     -32.698   9.214   0.451  1.00 20.00     0.036 C 
ENDBRANCH   1   3
BRANCH   2   6
HETATM    6  C5  UNL     1     -34.426   5.193   4.550  1.00 20.00     0.145 C 
HETATM    7  C7  UNL     1     -34.811   5.405   5.990  1.00 20.00     0.096 C 
HETATM    8  O8  UNL     1     -34.530   4.087   4.018  1.00 20.00    -0.294 OA
ENDBRANCH   2   6
TORSDOF 2
ENDMDL
MODEL 2
REMARK VINA RESULT:      -4.5     10.761     11.322
REMARK  2 active torsions:
REMARK  status: ('A' for Active; 'I' for Inactive)
REMARK    1  A    between atoms: C1_1  and  C3_3 
REMARK    2  A    between atoms: C2_2  and  C5_5 
ROOT
HETATM    1  C1  UNL     1     -34.715  15.548  -3.056  1.00 20.00     0.003 C 
HETATM    2  C2  UNL     1     -34.692  14.491  -3.878  1.00 20.00     0.049 C 
ENDROOT
BRANCH   1   3
HETATM    3  C3  UNL     1     -33.519  16.271  -2.684  1.00 20.00    -0.004 C 
HETATM    4  C4  UNL     1     -33.525  17.314  -1.840  1.00 20.00    -0.031 C 
HETATM    5  C6  UNL     1     -32.297  18.068  -1.448  1.00 20.00     0.036 C 
ENDBRANCH   1   3
BRANCH   2   6
HETATM    6  C5  UNL     1     -35.909  13.730  -4.278  1.00 20.00     0.145 C 
HETATM    7  C7  UNL     1     -37.234  14.438  -4.384  1.00 20.00     0.096 C 
HETATM    8  O8  UNL     1     -35.810  12.525  -4.514  1.00 20.00    -0.294 OA
ENDBRANCH   2   6
TORSDOF 2
ENDMDL
MODEL 3
REMARK VINA RESULT:      -4.3      2.175      4.772
REMARK  2 active torsions:
REMARK  status: ('A' for Active; 'I' for Inactive)
REMARK    1  A    between atoms: C1_1  and  C3_3 
REMARK    2  A    between atoms: C2_2  and  C5_5 
ROOT
HETATM    1  C1  UNL     1     -33.309   6.103   2.322  1.00 20.00     0.003 C 
HETATM    2  C2  UNL     1     -32.817   7.349   2.325  1.00 20.00     0.049 C 
ENDROOT
BRANCH   1   3
HETATM    3  C3  UNL     1     -33.670   5.404   3.536  1.00 20.00    -0.004 C 
HETATM    4  C4  UNL     1     -34.429   5.950   4.498  1.00 20.00    -0.031 C 
HETATM    5  C6  UNL     1     -34.808   5.238   5.756  1.00 20.00     0.036 C 
ENDBRANCH   1   3
BRANCH   2   6
HETATM    6  C5  UNL     1     -32.440   8.090   1.089  1.00 20.00     0.145 C 
HETATM    7  C7  UNL     1     -33.116   9.395   0.762  1.00 20.00     0.096 C 
HETATM    8  O8  UNL     1     -31.575   7.618   0.350  1.00 20.00    -0.294 OA
ENDBRANCH   2   6
TORSDOF 2
ENDMDL
MODEL 4
REMARK VINA RESULT:      -4.2     11.008     11.494
REMARK  2 active torsions:
REMARK  status: ('A' for Active; 'I' for Inactive)
REMARK    1  A    between atoms: C1_1  and  C3_3 
REMARK    2  A    between atoms: C2_2  and  C5_5 
ROOT
HETATM    1  C1  UNL     1     -34.333  15.374  -3.342  1.00 20.00     0.003 C 
HETATM    2  C2  UNL     1     -35.525  14.826  -3.613  1.00 20.00     0.049 C 
ENDROOT
BRANCH   1   3
HETATM    3  C3  UNL     1     -34.122  16.265  -2.222  1.00 20.00    -0.004 C 
HETATM    4  C4  UNL     1     -35.098  16.624  -1.376  1.00 20.00    -0.031 C 
HETATM    5  C6  UNL     1     -34.892  17.543  -0.216  1.00 20.00     0.036 C 
ENDBRANCH   1   3
BRANCH   2   6
HETATM    6  C5  UNL     1     -35.769  13.905  -4.758  1.00 20.00     0.145 C 
HETATM    7  C7  UNL     1     -35.799  14.447  -6.163  1.00 20.00     0.096 C 
HETATM    8  O8  UNL     1     -35.943  12.706  -4.534  1.00 20.00    -0.294 OA
ENDBRANCH   2   6
TORSDOF 2
ENDMDL
MODEL 5
REMARK VINA RESULT:      -3.9     11.403     12.376
REMARK  2 active torsions:
REMARK  status: ('A' for Active; 'I' for Inactive)
REMARK    1  A    between atoms: C1_1  and  C3_3 
REMARK    2  A    between atoms: C2_2  and  C5_5 
ROOT
HETATM    1  C1  UNL     1     -33.243  16.498  -2.752  1.00 20.00     0.003 C 
HETATM    2  C2  UNL     1     -33.241  17.452  -1.813  1.00 20.00     0.049 C 
ENDROOT
BRANCH   1   3
HETATM    3  C3  UNL     1     -34.362  15.602  -2.950  1.00 20.00    -0.004 C 
HETATM    4  C4  UNL     1     -34.400  14.680  -3.924  1.00 20.00    -0.031 C 
HETATM    5  C6  UNL     1     -35.549  13.749  -4.137  1.00 20.00     0.036 C 
ENDBRANCH   1   3
BRANCH   2   6
HETATM    6  C5  UNL     1     -32.103  18.388  -1.590  1.00 20.00     0.145 C 
HETATM    7  C7  UNL     1     -31.253  18.254  -0.354  1.00 20.00     0.096 C 
HETATM    8  O8  UNL     1     -31.876  19.263  -2.428  1.00 20.00    -0.294 OA
ENDBRANCH   2   6
TORSDOF 2
ENDMDL
MODEL 6
REMARK VINA RESULT:      -3.9     10.834     11.513
REMARK  2 active torsions:
REMARK  status: ('A' for Active; 'I' for Inactive)
REMARK    1  A    between atoms: C1_1  and  C3_3 
REMARK    2  A    between atoms: C2_2  and  C5_5 
ROOT
HETATM    1  C1  UNL     1     -33.470  16.138  -3.033  1.00 20.00     0.003 C 
HETATM    2  C2  UNL     1     -34.534  15.325  -3.004  1.00 20.00     0.049 C 
ENDROOT
BRANCH   1   3
HETATM    3  C3  UNL     1     -33.271  17.195  -2.066  1.00 20.00    -0.004 C 
HETATM    4  C4  UNL     1     -34.174  17.509  -1.125  1.00 20.00    -0.031 C 
HETATM    5  C6  UNL     1     -33.979  18.598  -0.122  1.00 20.00     0.036 C 
ENDBRANCH   1   3
BRANCH   2   6
HETATM    6  C5  UNL     1     -34.762  14.228  -3.987  1.00 20.00     0.145 C 
HETATM    7  C7  UNL     1     -36.165  13.880  -4.409  1.00 20.00     0.096 C 
HETATM    8  O8  UNL     1     -33.790  13.620  -4.439  1.00 20.00    -0.294 OA
ENDBRANCH   2   6
TORSDOF 2
ENDMDL
MODEL 7
REMARK VINA RESULT:      -3.8     15.755     16.881
REMARK  2 active torsions:
REMARK  status: ('A' for Active; 'I' for Inactive)
REMARK    1  A    between atoms: C1_1  and  C3_3 
REMARK    2  A    between atoms: C2_2  and  C5_5 
ROOT
HETATM    1  C1  UNL     1     -23.881  18.524   8.663  1.00 20.00     0.003 C 
HETATM    2  C2  UNL     1     -24.866  19.167   8.021  1.00 20.00     0.049 C 
ENDROOT
BRANCH   1   3
HETATM    3  C3  UNL     1     -23.776  18.501  10.106  1.00 20.00    -0.004 C 
HETATM    4  C4  UNL     1     -23.028  17.610  10.773  1.00 20.00    -0.031 C 
HETATM    5  C6  UNL     1     -22.911  17.577  12.262  1.00 20.00     0.036 C 
ENDBRANCH   1   3
BRANCH   2   6
HETATM    6  C5  UNL     1     -24.997  19.204   6.538  1.00 20.00     0.145 C 
HETATM    7  C7  UNL     1     -26.363  19.170   5.905  1.00 20.00     0.096 C 
HETATM    8  O8  UNL     1     -23.977  19.261   5.849  1.00 20.00    -0.294 OA
ENDBRANCH   2   6
TORSDOF 2
ENDMDL
MODEL 8
REMARK VINA RESULT:      -3.8     10.639     11.390
REMARK  2 active torsions:
REMARK  status: ('A' for Active; 'I' for Inactive)
REMARK    1  A    between atoms: C1_1  and  C3_3 
REMARK    2  A    between atoms: C2_2  and  C5_5 
ROOT
HETATM    1  C1  UNL     1     -34.560  16.127  -2.311  1.00 20.00     0.003 C 
HETATM    2  C2  UNL     1     -35.199  15.188  -3.021  1.00 20.00     0.049 C 
ENDROOT
BRANCH   1   3
HETATM    3  C3  UNL     1     -35.256  17.071  -1.464  1.00 20.00    -0.004 C 
HETATM    4  C4  UNL     1     -35.324  16.947  -0.130  1.00 20.00    -0.031 C 
HETATM    5  C6  UNL     1     -36.038  17.915   0.755  1.00 20.00     0.036 C 
ENDBRANCH   1   3
BRANCH   2   6
HETATM    6  C5  UNL     1     -34.506  14.204  -3.900  1.00 20.00     0.145 C 
HETATM    7  C7  UNL     1     -33.149  14.530  -4.464  1.00 20.00     0.096 C 
HETATM    8  O8  UNL     1     -35.061  13.134  -4.152  1.00 20.00    -0.294 OA
ENDBRANCH   2   6
TORSDOF 2
ENDMDL
MODEL 9
REMARK VINA RESULT:      -3.7     14.568     15.695
REMARK  2 active torsions:
REMARK  status: ('A' for Active; 'I' for Inactive)
REMARK    1  A    between atoms: C1_1  and  C3_3 
REMARK    2  A    between atoms: C2_2  and  C5_5 
ROOT
HETATM    1  C1  UNL     1     -26.239  18.878   6.210  1.00 20.00     0.003 C 
HETATM    2  C2  UNL     1     -25.407  19.200   5.211  1.00 20.00     0.049 C 
ENDROOT
BRANCH   1   3
HETATM    3  C3  UNL     1     -25.934  19.151   7.597  1.00 20.00    -0.004 C 
HETATM    4  C4  UNL     1     -24.843  18.674   8.215  1.00 20.00    -0.031 C 
HETATM    5  C6  UNL     1     -24.517  18.949   9.647  1.00 20.00     0.036 C 
ENDBRANCH   1   3
BRANCH   2   6
HETATM    6  C5  UNL     1     -25.699  18.931   3.774  1.00 20.00     0.145 C 
HETATM    7  C7  UNL     1     -27.080  19.185   3.230  1.00 20.00     0.096 C 
HETATM    8  O8  UNL     1     -24.799  18.501   3.052  1.00 20.00    -0.294 OA
ENDBRANCH   2   6
TORSDOF 2
ENDMDL
