MODEL 1
REMARK VINA RESULT:      -4.2      0.000      0.000
REMARK  2 active torsions:
REMARK  status: ('A' for Active; 'I' for Inactive)
REMARK    1  A    between atoms: C1_1  and  C2_2 
REMARK    2  A    between atoms: C1_1  and  C3_3 
ROOT
HETATM    1  C1  UNL     1     -33.255   6.015   3.121  1.00 20.00     0.173 C 
HETATM    2  O4  UNL     1     -33.165   4.965   2.486  1.00 20.00    -0.294 OA
ENDROOT
BRANCH   1   3
HETATM    3  C2  UNL     1     -32.311   7.182   2.916  1.00 20.00     0.195 C 
HETATM    4 CL5  UNL     1     -32.583   7.940   1.341  1.00 20.00    -0.122 Cl
ENDBRANCH   1   3
BRANCH   1   5
HETATM    5  C3  UNL     1     -34.302   6.205   4.198  1.00 20.00     0.248 C 
HETATM    6 CL6  UNL     1     -33.528   7.009   5.568  1.00 20.00    -0.100 Cl
HETATM    7 CL7  UNL     1     -34.956   4.627   4.657  1.00 20.00    -0.100 Cl
ENDBRANCH   1   5
TORSDOF 2
ENDMDL
MODEL 2
REMARK VINA RESULT:      -3.9      2.018      3.869
REMARK  2 active torsions:
REMARK  status: ('A' for Active; 'I' for Inactive)
REMARK    1  A    between atoms: C1_1  and  C2_2 
REMARK    2  A    between atoms: C1_1  and  C3_3 
ROOT
HETATM    1  C1  UNL     1     -33.875   6.440   4.325  1.00 20.00     0.173 C 
HETATM    2  O4  UNL     1     -33.411   7.170   5.201  1.00 20.00    -0.294 OA
ENDROOT
BRANCH   1   3
HETATM    3  C2  UNL     1     -34.990   5.449   4.587  1.00 20.00     0.195 C 
HETATM    4 CL5  UNL     1     -34.974   4.918   6.275  1.00 20.00    -0.122 Cl
ENDBRANCH   1   3
BRANCH   1   5
HETATM    5  C3  UNL     1     -33.330   6.449   2.913  1.00 20.00     0.248 C 
HETATM    6 CL6  UNL     1     -33.073   4.771   2.422  1.00 20.00    -0.100 Cl
HETATM    7 CL7  UNL     1     -31.822   7.373   2.878  1.00 20.00    -0.100 Cl
ENDBRANCH   1   5
TORSDOF 2
ENDMDL
MODEL 3
REMARK VINA RESULT:      -3.9      1.587      1.607
REMARK  2 active torsions:
REMARK  status: ('A' for Active; 'I' for Inactive)
REMARK    1  A    between atoms: C1_1  and  C2_2 
REMARK    2  A    between atoms: C1_1  and  C3_3 
ROOT
HETATM    1  C1  UNL     1     -33.380   6.526   3.961  1.00 20.00     0.173 C 
HETATM    2  O4  UNL     1     -32.884   7.383   4.692  1.00 20.00    -0.294 OA
ENDROOT
BRANCH   1   3
HETATM    3  C2  UNL     1     -32.882   6.258   2.556  1.00 20.00     0.195 C 
HETATM    4 CL5  UNL     1     -32.527   7.773   1.715  1.00 20.00    -0.122 Cl
ENDBRANCH   1   3
BRANCH   1   5
HETATM    5  C3  UNL     1     -34.565   5.695   4.403  1.00 20.00     0.248 C 
HETATM    6 CL6  UNL     1     -34.690   5.825   6.161  1.00 20.00    -0.100 Cl
HETATM    7 CL7  UNL     1     -34.323   4.019   3.893  1.00 20.00    -0.100 Cl
ENDBRANCH   1   5
TORSDOF 2
ENDMDL
MODEL 4
REMARK VINA RESULT:      -3.7      1.901      3.518
REMARK  2 active torsions:
REMARK  status: ('A' for Active; 'I' for Inactive)
REMARK    1  A    between atoms: C1_1  and  C2_2 
REMARK    2  A    between atoms: C1_1  and  C3_3 
ROOT
HETATM    1  C1  UNL     1     -33.477   6.548   4.197  1.00 20.00     0.173 C 
HETATM    2  O4  UNL     1     -33.116   7.389   5.020  1.00 20.00    -0.294 OA
ENDROOT
BRANCH   1   3
HETATM    3  C2  UNL     1     -34.745   5.736   4.355  1.00 20.00     0.195 C 
HETATM    4 CL5  UNL     1     -34.899   5.127   6.010  1.00 20.00    -0.122 Cl
ENDBRANCH   1   3
BRANCH   1   5
HETATM    5  C3  UNL     1     -32.648   6.231   2.971  1.00 20.00     0.248 C 
HETATM    6 CL6  UNL     1     -32.774   7.603   1.865  1.00 20.00    -0.100 Cl
HETATM    7 CL7  UNL     1     -33.252   4.743   2.230  1.00 20.00    -0.100 Cl
ENDBRANCH   1   5
TORSDOF 2
ENDMDL
MODEL 5
REMARK VINA RESULT:      -3.5      1.147      3.295
REMARK  2 active torsions:
REMARK  status: ('A' for Active; 'I' for Inactive)
REMARK    1  A    between atoms: C1_1  and  C2_2 
REMARK    2  A    between atoms: C1_1  and  C3_3 
ROOT
HETATM    1  C1  UNL     1     -34.010   5.438   3.540  1.00 20.00     0.173 C 
HETATM    2  O4  UNL     1     -33.409   4.631   2.832  1.00 20.00    -0.294 OA
ENDROOT
BRANCH   1   3
HETATM    3  C2  UNL     1     -35.236   5.067   4.349  1.00 20.00     0.195 C 
HETATM    4 CL5  UNL     1     -34.842   4.956   6.070  1.00 20.00    -0.122 Cl
ENDBRANCH   1   3
BRANCH   1   5
HETATM    5  C3  UNL     1     -33.589   6.889   3.623  1.00 20.00     0.248 C 
HETATM    6 CL6  UNL     1     -32.256   7.130   2.488  1.00 20.00    -0.100 Cl
HETATM    7 CL7  UNL     1     -33.102   7.259   5.283  1.00 20.00    -0.100 Cl
ENDBRANCH   1   5
TORSDOF 2
ENDMDL
MODEL 6
REMARK VINA RESULT:      -3.5      0.960      3.246
REMARK  2 active torsions:
REMARK  status: ('A' for Active; 'I' for Inactive)
REMARK    1  A    between atoms: C1_1  and  C2_2 
REMARK    2  A    between atoms: C1_1  and  C3_3 
ROOT
HETATM    1  C1  UNL     1     -33.325   5.963   3.048  1.00 20.00     0.173 C 
HETATM    2  O4  UNL     1     -33.567   4.961   2.376  1.00 20.00    -0.294 OA
ENDROOT
BRANCH   1   3
HETATM    3  C2  UNL     1     -34.134   6.349   4.268  1.00 20.00     0.195 C 
HETATM    4 CL5  UNL     1     -34.840   4.917   5.032  1.00 20.00    -0.122 Cl
ENDBRANCH   1   3
BRANCH   1   5
HETATM    5  C3  UNL     1     -32.212   6.919   2.674  1.00 20.00     0.248 C 
HETATM    6 CL6  UNL     1     -31.816   7.872   4.108  1.00 20.00    -0.100 Cl
HETATM    7 CL7  UNL     1     -32.752   7.947   1.341  1.00 20.00    -0.100 Cl
ENDBRANCH   1   5
TORSDOF 2
ENDMDL
MODEL 7
REMARK VINA RESULT:      -3.4     16.455     17.027
REMARK  2 active torsions:
REMARK  status: ('A' for Active; 'I' for Inactive)
REMARK    1  A    between atoms: C1_1  and  C2_2 
REMARK    2  A    between atoms: C1_1  and  C3_3 
ROOT
HETATM    1  C1  UNL     1     -22.865  18.573   9.463  1.00 20.00     0.173 C 
HETATM    2  O4  UNL     1     -21.893  19.187   9.024  1.00 20.00    -0.294 OA
ENDROOT
BRANCH   1   3
HETATM    3  C2  UNL     1     -24.294  18.974   9.160  1.00 20.00     0.195 C 
HETATM    4 CL5  UNL     1     -24.585  18.992   7.415  1.00 20.00    -0.122 Cl
ENDBRANCH   1   3
BRANCH   1   5
HETATM    5  C3  UNL     1     -22.703  17.382  10.383  1.00 20.00     0.248 C 
HETATM    6 CL6  UNL     1     -24.191  16.432  10.303  1.00 20.00    -0.100 Cl
HETATM    7 CL7  UNL     1     -22.386  17.955  12.026  1.00 20.00    -0.100 Cl
ENDBRANCH   1   5
TORSDOF 2
ENDMDL
MODEL 8
REMARK VINA RESULT:      -3.4     11.082     11.764
REMARK  2 active torsions:
REMARK  status: ('A' for Active; 'I' for Inactive)
REMARK    1  A    between atoms: C1_1  and  C2_2 
REMARK    2  A    between atoms: C1_1  and  C3_3 
ROOT
HETATM    1  C1  UNL     1     -35.775  13.717  -4.217  1.00 20.00     0.173 C 
HETATM    2  O4  UNL     1     -35.881  12.549  -4.588  1.00 20.00    -0.294 OA
ENDROOT
BRANCH   1   3
HETATM    3  C2  UNL     1     -36.950  14.673  -4.169  1.00 20.00     0.195 C 
HETATM    4 CL5  UNL     1     -37.003  15.676  -5.625  1.00 20.00    -0.122 Cl
ENDBRANCH   1   3
BRANCH   1   5
HETATM    5  C3  UNL     1     -34.440  14.305  -3.814  1.00 20.00     0.248 C 
HETATM    6 CL6  UNL     1     -34.748  15.606  -2.659  1.00 20.00    -0.100 Cl
HETATM    7 CL7  UNL     1     -33.609  14.902  -5.257  1.00 20.00    -0.100 Cl
ENDBRANCH   1   5
TORSDOF 2
ENDMDL
MODEL 9
REMARK VINA RESULT:      -3.4     11.359     12.446
REMARK  2 active torsions:
REMARK  status: ('A' for Active; 'I' for Inactive)
REMARK    1  A    between atoms: C1_1  and  C2_2 
REMARK    2  A    between atoms: C1_1  and  C3_3 
ROOT
HETATM    1  C1  UNL     1     -35.927  13.950  -4.794  1.00 20.00     0.173 C 
HETATM    2  O4  UNL     1     -35.925  12.740  -4.573  1.00 20.00    -0.294 OA
ENDROOT
BRANCH   1   3
HETATM    3  C2  UNL     1     -36.182  14.981  -3.713  1.00 20.00     0.195 C 
HETATM    4 CL5  UNL     1     -34.687  15.369  -2.850  1.00 20.00    -0.122 Cl
ENDBRANCH   1   3
BRANCH   1   5
HETATM    5  C3  UNL     1     -35.714  14.504  -6.186  1.00 20.00     0.248 C 
HETATM    6 CL6  UNL     1     -34.004  14.917  -6.347  1.00 20.00    -0.100 Cl
HETATM    7 CL7  UNL     1     -36.748  15.920  -6.413  1.00 20.00    -0.100 Cl
ENDBRANCH   1   5
TORSDOF 2
ENDMDL
