MODEL 1
REMARK VINA RESULT:      -4.7      0.000      0.000
REMARK  1 active torsions:
REMARK  status: ('A' for Active; 'I' for Inactive)
REMARK    1  A    between atoms: C5_5  and  O10_10 
ROOT
HETATM    1  C1  UNL     1     -36.043  14.238  -5.832  1.00 20.00     0.007 C 
HETATM    2  C2  UNL     1     -35.301  15.247  -6.320  1.00 20.00    -0.084 C 
HETATM    3  C3  UNL     1     -34.363  16.046  -5.446  1.00 20.00     0.042 C 
HETATM    4  C4  UNL     1     -35.277  14.774  -3.466  1.00 20.00     0.045 C 
HETATM    5  C5  UNL     1     -36.051  13.825  -4.389  1.00 20.00     0.142 C 
HETATM    6  C6  UNL     1     -33.995  15.358  -4.108  1.00 20.00    -0.042 C 
HETATM    7  C7  UNL     1     -35.365  15.651  -7.763  1.00 20.00     0.043 C 
HETATM    8  C8  UNL     1     -33.386  16.403  -3.153  1.00 20.00     0.015 C 
HETATM    9  C9  UNL     1     -32.937  14.261  -4.343  1.00 20.00     0.015 C 
ENDROOT
BRANCH   5  10
HETATM   10  O10 UNL     1     -35.509  12.510  -4.274  1.00 20.00    -0.392 OA
HETATM   11  H26 UNL     1     -34.646  12.605  -3.843  1.00 20.00     0.210 HD
ENDBRANCH   5  10
TORSDOF 1
ENDMDL
MODEL 2
REMARK VINA RESULT:      -4.5      1.489      3.597
REMARK  1 active torsions:
REMARK  status: ('A' for Active; 'I' for Inactive)
REMARK    1  A    between atoms: C5_5  and  O10_10 
ROOT
HETATM    1  C1  UNL     1     -33.510  15.427  -3.225  1.00 20.00     0.007 C 
HETATM    2  C2  UNL     1     -34.682  15.994  -2.893  1.00 20.00    -0.084 C 
HETATM    3  C3  UNL     1     -35.831  16.087  -3.869  1.00 20.00     0.042 C 
HETATM    4  C4  UNL     1     -34.281  15.164  -5.635  1.00 20.00     0.045 C 
HETATM    5  C5  UNL     1     -33.204  14.868  -4.584  1.00 20.00     0.142 C 
HETATM    6  C6  UNL     1     -35.724  15.122  -5.075  1.00 20.00    -0.042 C 
HETATM    7  C7  UNL     1     -34.920  16.581  -1.533  1.00 20.00     0.043 C 
HETATM    8  C8  UNL     1     -36.703  15.577  -6.175  1.00 20.00     0.015 C 
HETATM    9  C9  UNL     1     -36.119  13.692  -4.654  1.00 20.00     0.015 C 
ENDROOT
BRANCH   5  10
HETATM   10  O10 UNL     1     -33.021  13.458  -4.482  1.00 20.00    -0.392 OA
HETATM   11  H26 UNL     1     -32.130  13.321  -4.125  1.00 20.00     0.210 HD
ENDBRANCH   5  10
TORSDOF 1
ENDMDL
MODEL 3
REMARK VINA RESULT:      -4.3      2.522      4.346
REMARK  1 active torsions:
REMARK  status: ('A' for Active; 'I' for Inactive)
REMARK    1  A    between atoms: C5_5  and  O10_10 
ROOT
HETATM    1  C1  UNL     1     -34.310  17.402  -1.264  1.00 20.00     0.007 C 
HETATM    2  C2  UNL     1     -33.124  17.479  -1.891  1.00 20.00    -0.084 C 
HETATM    3  C3  UNL     1     -32.778  16.587  -3.060  1.00 20.00     0.042 C 
HETATM    4  C4  UNL     1     -34.951  15.369  -2.651  1.00 20.00     0.045 C 
HETATM    5  C5  UNL     1     -35.386  16.419  -1.621  1.00 20.00     0.142 C 
HETATM    6  C6  UNL     1     -34.001  15.923  -3.740  1.00 20.00    -0.042 C 
HETATM    7  C7  UNL     1     -32.064  18.450  -1.463  1.00 20.00     0.043 C 
HETATM    8  C8  UNL     1     -33.516  14.757  -4.624  1.00 20.00     0.015 C 
HETATM    9  C9  UNL     1     -34.723  16.936  -4.651  1.00 20.00     0.015 C 
ENDROOT
BRANCH   5  10
HETATM   10  O10 UNL     1     -36.522  17.124  -2.118  1.00 20.00    -0.392 OA
HETATM   11  H26 UNL     1     -36.316  17.368  -3.034  1.00 20.00     0.210 HD
ENDBRANCH   5  10
TORSDOF 1
ENDMDL
MODEL 4
REMARK VINA RESULT:      -4.3      1.810      2.301
REMARK  1 active torsions:
REMARK  status: ('A' for Active; 'I' for Inactive)
REMARK    1  A    between atoms: C5_5  and  O10_10 
ROOT
HETATM    1  C1  UNL     1     -34.537  15.908  -5.993  1.00 20.00     0.007 C 
HETATM    2  C2  UNL     1     -34.988  17.061  -5.470  1.00 20.00    -0.084 C 
HETATM    3  C3  UNL     1     -35.200  17.237  -3.985  1.00 20.00     0.042 C 
HETATM    4  C4  UNL     1     -34.667  14.785  -3.714  1.00 20.00     0.045 C 
HETATM    5  C5  UNL     1     -34.238  14.680  -5.183  1.00 20.00     0.142 C 
HETATM    6  C6  UNL     1     -34.466  16.194  -3.106  1.00 20.00    -0.042 C 
HETATM    7  C7  UNL     1     -35.316  18.245  -6.331  1.00 20.00     0.043 C 
HETATM    8  C8  UNL     1     -35.065  16.219  -1.687  1.00 20.00     0.015 C 
HETATM    9  C9  UNL     1     -32.969  16.547  -2.993  1.00 20.00     0.015 C 
ENDROOT
BRANCH   5  10
HETATM   10  O10 UNL     1     -32.840  14.404  -5.247  1.00 20.00    -0.392 OA
HETATM   11  H26 UNL     1     -32.399  15.092  -4.725  1.00 20.00     0.210 HD
ENDBRANCH   5  10
TORSDOF 1
ENDMDL
MODEL 5
REMARK VINA RESULT:      -4.3      3.061      4.601
REMARK  1 active torsions:
REMARK  status: ('A' for Active; 'I' for Inactive)
REMARK    1  A    between atoms: C5_5  and  O10_10 
ROOT
HETATM    1  C1  UNL     1     -33.085  16.325  -3.280  1.00 20.00     0.007 C 
HETATM    2  C2  UNL     1     -34.200  15.608  -3.063  1.00 20.00    -0.084 C 
HETATM    3  C3  UNL     1     -35.165  15.945  -1.951  1.00 20.00     0.042 C 
HETATM    4  C4  UNL     1     -33.515  17.692  -1.178  1.00 20.00     0.045 C 
HETATM    5  C5  UNL     1     -32.661  17.492  -2.436  1.00 20.00     0.142 C 
HETATM    6  C6  UNL     1     -35.016  17.381  -1.390  1.00 20.00    -0.042 C 
HETATM    7  C7  UNL     1     -34.554  14.419  -3.908  1.00 20.00     0.043 C 
HETATM    8  C8  UNL     1     -35.744  17.472  -0.035  1.00 20.00     0.015 C 
HETATM    9  C9  UNL     1     -35.670  18.400  -2.346  1.00 20.00     0.015 C 
ENDROOT
BRANCH   5  10
HETATM   10  O10 UNL     1     -32.698  18.679  -3.225  1.00 20.00    -0.392 OA
HETATM   11  H26 UNL     1     -33.490  19.167  -2.952  1.00 20.00     0.210 HD
ENDBRANCH   5  10
TORSDOF 1
ENDMDL
MODEL 6
REMARK VINA RESULT:      -4.2      1.244      3.305
REMARK  1 active torsions:
REMARK  status: ('A' for Active; 'I' for Inactive)
REMARK    1  A    between atoms: C5_5  and  O10_10 
ROOT
HETATM    1  C1  UNL     1     -35.410  14.369  -3.583  1.00 20.00     0.007 C 
HETATM    2  C2  UNL     1     -34.738  15.530  -3.664  1.00 20.00    -0.084 C 
HETATM    3  C3  UNL     1     -34.670  16.328  -4.944  1.00 20.00     0.042 C 
HETATM    4  C4  UNL     1     -35.863  14.419  -6.086  1.00 20.00     0.045 C 
HETATM    5  C5  UNL     1     -36.121  13.730  -4.740  1.00 20.00     0.142 C 
HETATM    6  C6  UNL     1     -35.756  15.959  -5.985  1.00 20.00    -0.042 C 
HETATM    7  C7  UNL     1     -34.004  16.103  -2.487  1.00 20.00     0.043 C 
HETATM    8  C8  UNL     1     -35.351  16.526  -7.360  1.00 20.00     0.015 C 
HETATM    9  C9  UNL     1     -37.108  16.590  -5.595  1.00 20.00     0.015 C 
ENDROOT
BRANCH   5  10
HETATM   10  O10 UNL     1     -37.523  13.715  -4.479  1.00 20.00    -0.392 OA
HETATM   11  H26 UNL     1     -37.874  12.917  -4.904  1.00 20.00     0.210 HD
ENDBRANCH   5  10
TORSDOF 1
ENDMDL
MODEL 7
REMARK VINA RESULT:      -4.2      1.967      2.771
REMARK  1 active torsions:
REMARK  status: ('A' for Active; 'I' for Inactive)
REMARK    1  A    between atoms: C5_5  and  O10_10 
ROOT
HETATM    1  C1  UNL     1     -35.015  14.256  -4.848  1.00 20.00     0.007 C 
HETATM    2  C2  UNL     1     -35.878  14.891  -4.037  1.00 20.00    -0.084 C 
HETATM    3  C3  UNL     1     -35.421  15.920  -3.030  1.00 20.00     0.042 C 
HETATM    4  C4  UNL     1     -33.046  15.333  -3.650  1.00 20.00     0.045 C 
HETATM    5  C5  UNL     1     -33.529  14.464  -4.819  1.00 20.00     0.142 C 
HETATM    6  C6  UNL     1     -34.008  16.493  -3.299  1.00 20.00    -0.042 C 
HETATM    7  C7  UNL     1     -37.352  14.612  -4.075  1.00 20.00     0.043 C 
HETATM    8  C8  UNL     1     -33.499  17.200  -2.028  1.00 20.00     0.015 C 
HETATM    9  C9  UNL     1     -34.060  17.539  -4.432  1.00 20.00     0.015 C 
ENDROOT
BRANCH   5  10
HETATM   10  O10 UNL     1     -33.113  15.054  -6.048  1.00 20.00    -0.392 OA
HETATM   11  H26 UNL     1     -33.877  15.540  -6.394  1.00 20.00     0.210 HD
ENDBRANCH   5  10
TORSDOF 1
ENDMDL
MODEL 8
REMARK VINA RESULT:      -4.0      1.283      1.308
REMARK  1 active torsions:
REMARK  status: ('A' for Active; 'I' for Inactive)
REMARK    1  A    between atoms: C5_5  and  O10_10 
ROOT
HETATM    1  C1  UNL     1     -36.630  15.482  -5.951  1.00 20.00     0.007 C 
HETATM    2  C2  UNL     1     -35.403  15.993  -6.152  1.00 20.00    -0.084 C 
HETATM    3  C3  UNL     1     -34.434  16.219  -5.016  1.00 20.00     0.042 C 
HETATM    4  C4  UNL     1     -36.287  15.565  -3.432  1.00 20.00     0.045 C 
HETATM    5  C5  UNL     1     -37.178  15.125  -4.601  1.00 20.00     0.142 C 
HETATM    6  C6  UNL     1     -34.772  15.438  -3.723  1.00 20.00    -0.042 C 
HETATM    7  C7  UNL     1     -34.920  16.377  -7.520  1.00 20.00     0.043 C 
HETATM    8  C8  UNL     1     -33.983  16.043  -2.546  1.00 20.00     0.015 C 
HETATM    9  C9  UNL     1     -34.351  13.961  -3.864  1.00 20.00     0.015 C 
ENDROOT
BRANCH   5  10
HETATM   10  O10 UNL     1     -37.380  13.715  -4.534  1.00 20.00    -0.392 OA
HETATM   11  H26 UNL     1     -36.520  13.323  -4.321  1.00 20.00     0.210 HD
ENDBRANCH   5  10
TORSDOF 1
ENDMDL
MODEL 9
REMARK VINA RESULT:      -4.0      2.223      4.003
REMARK  1 active torsions:
REMARK  status: ('A' for Active; 'I' for Inactive)
REMARK    1  A    between atoms: C5_5  and  O10_10 
ROOT
HETATM    1  C1  UNL     1     -34.374  17.856  -3.582  1.00 20.00     0.007 C 
HETATM    2  C2  UNL     1     -34.397  17.059  -2.501  1.00 20.00    -0.084 C 
HETATM    3  C3  UNL     1     -34.763  15.596  -2.593  1.00 20.00     0.042 C 
HETATM    4  C4  UNL     1     -35.327  15.988  -5.022  1.00 20.00     0.045 C 
HETATM    5  C5  UNL     1     -34.739  17.404  -4.966  1.00 20.00     0.142 C 
HETATM    6  C6  UNL     1     -34.674  15.004  -4.021  1.00 20.00    -0.042 C 
HETATM    7  C7  UNL     1     -34.067  17.573  -1.131  1.00 20.00     0.043 C 
HETATM    8  C8  UNL     1     -35.438  13.666  -4.062  1.00 20.00     0.015 C 
HETATM    9  C9  UNL     1     -33.205  14.720  -4.393  1.00 20.00     0.015 C 
ENDROOT
BRANCH   5  10
HETATM   10  O10 UNL     1     -33.585  17.468  -5.801  1.00 20.00    -0.392 OA
HETATM   11  H26 UNL     1     -33.084  16.654  -5.643  1.00 20.00     0.210 HD
ENDBRANCH   5  10
TORSDOF 1
ENDMDL
