MODEL 1
REMARK VINA RESULT:      -4.2      0.000      0.000
REMARK  2 active torsions:
REMARK  status: ('A' for Active; 'I' for Inactive)
REMARK    1  A    between atoms: C1_1  and  C3_3 
REMARK    2  A    between atoms: C3_3  and  C4_4 
ROOT
HETATM    1  C1  UNL     1     -33.957   5.638   3.563  1.00 20.00    -0.088 C 
HETATM    2  C2  UNL     1     -33.275   6.351   2.878  1.00 20.00     0.004 C 
HETATM    3 CL5  UNL     1     -32.283   7.394   1.879  1.00 20.00    -0.023 Cl
ENDROOT
BRANCH   1   4
HETATM    4  C3  UNL     1     -34.789   4.765   4.403  1.00 20.00     0.110 C 
BRANCH   4   5
HETATM    5  C4  UNL     1     -34.778   5.190   5.866  1.00 20.00     0.126 C 
HETATM    6 CL6  UNL     1     -33.998   6.779   6.082  1.00 20.00    -0.130 Cl
ENDBRANCH   4   5
ENDBRANCH   1   4
TORSDOF 2
ENDMDL
MODEL 2
REMARK VINA RESULT:      -3.6      1.794      4.303
REMARK  2 active torsions:
REMARK  status: ('A' for Active; 'I' for Inactive)
REMARK    1  A    between atoms: C1_1  and  C3_3 
REMARK    2  A    between atoms: C3_3  and  C4_4 
ROOT
HETATM    1  C1  UNL     1     -33.197   6.645   3.401  1.00 20.00    -0.088 C 
HETATM    2  C2  UNL     1     -34.020   5.991   3.982  1.00 20.00     0.004 C 
HETATM    3 CL5  UNL     1     -35.219   5.033   4.829  1.00 20.00    -0.023 Cl
ENDROOT
BRANCH   1   4
HETATM    4  C3  UNL     1     -32.190   7.447   2.693  1.00 20.00     0.110 C 
BRANCH   4   5
HETATM    5  C4  UNL     1     -32.518   7.612   1.214  1.00 20.00     0.126 C 
HETATM    6 CL6  UNL     1     -32.934   9.299   0.818  1.00 20.00    -0.130 Cl
ENDBRANCH   4   5
ENDBRANCH   1   4
TORSDOF 2
ENDMDL
MODEL 3
REMARK VINA RESULT:      -3.5      1.866      2.351
REMARK  2 active torsions:
REMARK  status: ('A' for Active; 'I' for Inactive)
REMARK    1  A    between atoms: C1_1  and  C3_3 
REMARK    2  A    between atoms: C3_3  and  C4_4 
ROOT
HETATM    1  C1  UNL     1     -32.906   7.079   2.179  1.00 20.00    -0.088 C 
HETATM    2  C2  UNL     1     -32.778   7.996   1.415  1.00 20.00     0.004 C 
HETATM    3 CL5  UNL     1     -32.588   9.334   0.298  1.00 20.00    -0.023 Cl
ENDROOT
BRANCH   1   4
HETATM    4  C3  UNL     1     -33.065   5.956   3.113  1.00 20.00     0.110 C 
BRANCH   4   5
HETATM    5  C4  UNL     1     -34.048   6.271   4.234  1.00 20.00     0.126 C 
HETATM    6 CL6  UNL     1     -34.852   4.798   4.836  1.00 20.00    -0.130 Cl
ENDBRANCH   4   5
ENDBRANCH   1   4
TORSDOF 2
ENDMDL
MODEL 4
REMARK VINA RESULT:      -3.3      1.310      3.645
REMARK  2 active torsions:
REMARK  status: ('A' for Active; 'I' for Inactive)
REMARK    1  A    between atoms: C1_1  and  C3_3 
REMARK    2  A    between atoms: C3_3  and  C4_4 
ROOT
HETATM    1  C1  UNL     1     -33.818   5.624   3.553  1.00 20.00    -0.088 C 
HETATM    2  C2  UNL     1     -34.345   5.481   4.623  1.00 20.00     0.004 C 
HETATM    3 CL5  UNL     1     -35.115   5.274   6.183  1.00 20.00    -0.023 Cl
ENDROOT
BRANCH   1   4
HETATM    4  C3  UNL     1     -33.174   5.798   2.243  1.00 20.00     0.110 C 
BRANCH   4   5
HETATM    5  C4  UNL     1     -32.504   7.160   2.106  1.00 20.00     0.126 C 
HETATM    6 CL6  UNL     1     -31.692   7.647   3.616  1.00 20.00    -0.130 Cl
ENDBRANCH   4   5
ENDBRANCH   1   4
TORSDOF 2
ENDMDL
MODEL 5
REMARK VINA RESULT:      -3.0      9.513      9.886
REMARK  2 active torsions:
REMARK  status: ('A' for Active; 'I' for Inactive)
REMARK    1  A    between atoms: C1_1  and  C3_3 
REMARK    2  A    between atoms: C3_3  and  C4_4 
ROOT
HETATM    1  C1  UNL     1     -41.265   6.774  -0.669  1.00 20.00    -0.088 C 
HETATM    2  C2  UNL     1     -41.321   7.909  -0.284  1.00 20.00     0.004 C 
HETATM    3 CL5  UNL     1     -41.404   9.567   0.282  1.00 20.00    -0.023 Cl
ENDROOT
BRANCH   1   4
HETATM    4  C3  UNL     1     -41.193   5.384  -1.142  1.00 20.00     0.110 C 
BRANCH   4   5
HETATM    5  C4  UNL     1     -42.558   4.842  -1.549  1.00 20.00     0.126 C 
HETATM    6 CL6  UNL     1     -42.409   3.468  -2.676  1.00 20.00    -0.130 Cl
ENDBRANCH   4   5
ENDBRANCH   1   4
TORSDOF 2
ENDMDL
MODEL 6
REMARK VINA RESULT:      -3.0     15.991     16.110
REMARK  2 active torsions:
REMARK  status: ('A' for Active; 'I' for Inactive)
REMARK    1  A    between atoms: C1_1  and  C3_3 
REMARK    2  A    between atoms: C3_3  and  C4_4 
ROOT
HETATM    1  C1  UNL     1     -23.979  16.503  10.640  1.00 20.00    -0.088 C 
HETATM    2  C2  UNL     1     -23.386  16.943   9.693  1.00 20.00     0.004 C 
HETATM    3 CL5  UNL     1     -22.522  17.588   8.311  1.00 20.00    -0.023 Cl
ENDROOT
BRANCH   1   4
HETATM    4  C3  UNL     1     -24.703  15.963  11.800  1.00 20.00     0.110 C 
BRANCH   4   5
HETATM    5  C4  UNL     1     -25.840  16.875  12.246  1.00 20.00     0.126 C 
HETATM    6 CL6  UNL     1     -25.322  18.579  12.325  1.00 20.00    -0.130 Cl
ENDBRANCH   4   5
ENDBRANCH   1   4
TORSDOF 2
ENDMDL
MODEL 7
REMARK VINA RESULT:      -3.0     16.601     16.988
REMARK  2 active torsions:
REMARK  status: ('A' for Active; 'I' for Inactive)
REMARK    1  A    between atoms: C1_1  and  C3_3 
REMARK    2  A    between atoms: C3_3  and  C4_4 
ROOT
HETATM    1  C1  UNL     1     -22.499  17.688  10.585  1.00 20.00    -0.088 C 
HETATM    2  C2  UNL     1     -22.187  17.565   9.432  1.00 20.00     0.004 C 
HETATM    3 CL5  UNL     1     -21.728  17.386   7.750  1.00 20.00    -0.023 Cl
ENDROOT
BRANCH   1   4
HETATM    4  C3  UNL     1     -22.882  17.836  11.997  1.00 20.00     0.110 C 
BRANCH   4   5
HETATM    5  C4  UNL     1     -24.318  17.397  12.255  1.00 20.00     0.126 C 
HETATM    6 CL6  UNL     1     -24.636  15.772  11.595  1.00 20.00    -0.130 Cl
ENDBRANCH   4   5
ENDBRANCH   1   4
TORSDOF 2
ENDMDL
MODEL 8
REMARK VINA RESULT:      -2.9      2.005      2.146
REMARK  2 active torsions:
REMARK  status: ('A' for Active; 'I' for Inactive)
REMARK    1  A    between atoms: C1_1  and  C3_3 
REMARK    2  A    between atoms: C3_3  and  C4_4 
ROOT
HETATM    1  C1  UNL     1     -33.504   6.092   3.594  1.00 20.00    -0.088 C 
HETATM    2  C2  UNL     1     -33.346   5.222   2.782  1.00 20.00     0.004 C 
HETATM    3 CL5  UNL     1     -33.112   3.951   1.597  1.00 20.00    -0.023 Cl
ENDROOT
BRANCH   1   4
HETATM    4  C3  UNL     1     -33.700   7.156   4.590  1.00 20.00     0.110 C 
BRANCH   4   5
HETATM    5  C4  UNL     1     -33.988   6.600   5.979  1.00 20.00     0.126 C 
HETATM    6 CL6  UNL     1     -34.929   5.089   5.900  1.00 20.00    -0.130 Cl
ENDBRANCH   4   5
ENDBRANCH   1   4
TORSDOF 2
ENDMDL
MODEL 9
REMARK VINA RESULT:      -2.9      9.165      9.430
REMARK  2 active torsions:
REMARK  status: ('A' for Active; 'I' for Inactive)
REMARK    1  A    between atoms: C1_1  and  C3_3 
REMARK    2  A    between atoms: C3_3  and  C4_4 
ROOT
HETATM    1  C1  UNL     1     -41.418   6.021  -0.455  1.00 20.00    -0.088 C 
HETATM    2  C2  UNL     1     -41.609   5.154  -1.263  1.00 20.00     0.004 C 
HETATM    3 CL5  UNL     1     -41.889   3.886  -2.441  1.00 20.00    -0.023 Cl
ENDROOT
BRANCH   1   4
HETATM    4  C3  UNL     1     -41.185   7.084   0.534  1.00 20.00     0.110 C 
BRANCH   4   5
HETATM    5  C4  UNL     1     -42.139   8.258   0.354  1.00 20.00     0.126 C 
HETATM    6 CL6  UNL     1     -41.269   9.814   0.334  1.00 20.00    -0.130 Cl
ENDBRANCH   4   5
ENDBRANCH   1   4
TORSDOF 2
ENDMDL
