MODEL 1
REMARK VINA RESULT:      -5.4      0.000      0.000
REMARK  0 active torsions:
REMARK  status: ('A' for Active; 'I' for Inactive)
ROOT
HETATM    1  C1  UNL     1     -33.374   6.054   2.068  1.00 20.00     0.053 A 
HETATM    2  C2  UNL     1     -33.505   5.671   3.339  1.00 20.00    -0.072 A 
HETATM    3  C3  UNL     1     -32.563   7.278   2.110  1.00 20.00     0.150 A 
HETATM    4  C4  UNL     1     -34.306   4.520   3.853  1.00 20.00     0.034 C 
HETATM    5  C5  UNL     1     -32.207   7.674   3.517  1.00 20.00     0.092 A 
HETATM    6  C6  UNL     1     -35.277   4.997   4.937  1.00 20.00     0.004 C 
HETATM    7  C7  UNL     1     -34.583   5.843   6.010  1.00 20.00     0.001 C 
HETATM    8  C8  UNL     1     -33.820   7.024   5.399  1.00 20.00     0.009 C 
HETATM    9  C9  UNL     1     -32.816   6.544   4.348  1.00 20.00     0.022 A 
HETATM   10  O10 UNL     1     -32.234   7.895   1.108  1.00 20.00    -0.293 OA
ENDROOT
TORSDOF 0
ENDMDL
MODEL 2
REMARK VINA RESULT:      -5.0     15.995     16.599
REMARK  0 active torsions:
REMARK  status: ('A' for Active; 'I' for Inactive)
ROOT
HETATM    1  C1  UNL     1     -24.681  18.562   8.787  1.00 20.00     0.053 A 
HETATM    2  C2  UNL     1     -24.291  17.921   9.890  1.00 20.00    -0.072 A 
HETATM    3  C3  UNL     1     -23.581  18.393   7.828  1.00 20.00     0.150 A 
HETATM    4  C4  UNL     1     -25.017  17.852  11.193  1.00 20.00     0.034 C 
HETATM    5  C5  UNL     1     -22.432  17.617   8.412  1.00 20.00     0.092 A 
HETATM    6  C6  UNL     1     -24.098  18.306  12.332  1.00 20.00     0.004 C 
HETATM    7  C7  UNL     1     -22.739  17.598  12.301  1.00 20.00     0.001 C 
HETATM    8  C8  UNL     1     -22.046  17.754  10.942  1.00 20.00     0.009 C 
HETATM    9  C9  UNL     1     -22.946  17.258   9.808  1.00 20.00     0.022 A 
HETATM   10  O10 UNL     1     -23.609  18.848   6.693  1.00 20.00    -0.293 OA
ENDROOT
TORSDOF 0
ENDMDL
MODEL 3
REMARK VINA RESULT:      -5.0     11.158     12.010
REMARK  0 active torsions:
REMARK  status: ('A' for Active; 'I' for Inactive)
ROOT
HETATM    1  C1  UNL     1     -34.134  14.231  -4.097  1.00 20.00     0.053 A 
HETATM    2  C2  UNL     1     -34.195  15.510  -3.722  1.00 20.00    -0.072 A 
HETATM    3  C3  UNL     1     -35.530  13.784  -4.190  1.00 20.00     0.150 A 
HETATM    4  C4  UNL     1     -33.045  16.412  -3.412  1.00 20.00     0.034 C 
HETATM    5  C5  UNL     1     -36.499  14.871  -3.814  1.00 20.00     0.092 A 
HETATM    6  C6  UNL     1     -33.223  17.030  -2.022  1.00 20.00     0.004 C 
HETATM    7  C7  UNL     1     -34.612  17.652  -1.834  1.00 20.00     0.001 C 
HETATM    8  C8  UNL     1     -35.730  16.647  -2.134  1.00 20.00     0.009 C 
HETATM    9  C9  UNL     1     -35.580  16.062  -3.540  1.00 20.00     0.022 A 
HETATM   10  O10 UNL     1     -35.847  12.653  -4.526  1.00 20.00    -0.293 OA
ENDROOT
TORSDOF 0
ENDMDL
MODEL 4
REMARK VINA RESULT:      -5.0     15.562     16.180
REMARK  0 active torsions:
REMARK  status: ('A' for Active; 'I' for Inactive)
ROOT
HETATM    1  C1  UNL     1     -22.873  16.786   9.250  1.00 20.00     0.053 A 
HETATM    2  C2  UNL     1     -23.476  17.203  10.364  1.00 20.00    -0.072 A 
HETATM    3  C3  UNL     1     -22.919  17.930   8.329  1.00 20.00     0.150 A 
HETATM    4  C4  UNL     1     -23.761  16.395  11.588  1.00 20.00     0.034 C 
HETATM    5  C5  UNL     1     -23.632  19.112   8.929  1.00 20.00     0.092 A 
HETATM    6  C6  UNL     1     -25.250  16.478  11.937  1.00 20.00     0.004 C 
HETATM    7  C7  UNL     1     -25.761  17.923  11.973  1.00 20.00     0.001 C 
HETATM    8  C8  UNL     1     -25.463  18.664  10.664  1.00 20.00     0.009 C 
HETATM    9  C9  UNL     1     -23.968  18.622  10.338  1.00 20.00     0.022 A 
HETATM   10  O10 UNL     1     -22.438  17.903   7.206  1.00 20.00    -0.293 OA
ENDROOT
TORSDOF 0
ENDMDL
MODEL 5
REMARK VINA RESULT:      -4.9     11.212     12.063
REMARK  0 active torsions:
REMARK  status: ('A' for Active; 'I' for Inactive)
ROOT
HETATM    1  C1  UNL     1     -36.732  15.407  -3.323  1.00 20.00     0.053 A 
HETATM    2  C2  UNL     1     -35.420  15.263  -3.132  1.00 20.00    -0.072 A 
HETATM    3  C3  UNL     1     -37.124  14.296  -4.201  1.00 20.00     0.150 A 
HETATM    4  C4  UNL     1     -34.516  16.178  -2.373  1.00 20.00     0.034 C 
HETATM    5  C5  UNL     1     -35.950  13.439  -4.589  1.00 20.00     0.092 A 
HETATM    6  C6  UNL     1     -33.335  16.599  -3.252  1.00 20.00     0.004 C 
HETATM    7  C7  UNL     1     -32.646  15.400  -3.915  1.00 20.00     0.001 C 
HETATM    8  C8  UNL     1     -33.638  14.539  -4.706  1.00 20.00     0.009 C 
HETATM    9  C9  UNL     1     -34.796  14.080  -3.816  1.00 20.00     0.022 A 
HETATM   10  O10 UNL     1     -38.274  14.111  -4.571  1.00 20.00    -0.293 OA
ENDROOT
TORSDOF 0
ENDMDL
MODEL 6
REMARK VINA RESULT:      -4.9     11.527     12.137
REMARK  0 active torsions:
REMARK  status: ('A' for Active; 'I' for Inactive)
ROOT
HETATM    1  C1  UNL     1     -35.860  15.016  -3.631  1.00 20.00     0.053 A 
HETATM    2  C2  UNL     1     -34.936  15.559  -2.837  1.00 20.00    -0.072 A 
HETATM    3  C3  UNL     1     -35.127  14.532  -4.808  1.00 20.00     0.150 A 
HETATM    4  C4  UNL     1     -35.168  16.265  -1.540  1.00 20.00     0.034 C 
HETATM    5  C5  UNL     1     -33.656  14.837  -4.725  1.00 20.00     0.092 A 
HETATM    6  C6  UNL     1     -34.524  17.654  -1.576  1.00 20.00     0.004 C 
HETATM    7  C7  UNL     1     -33.065  17.608  -2.044  1.00 20.00     0.001 C 
HETATM    8  C8  UNL     1     -32.924  16.904  -3.399  1.00 20.00     0.009 C 
HETATM    9  C9  UNL     1     -33.527  15.498  -3.352  1.00 20.00     0.022 A 
HETATM   10  O10 UNL     1     -35.668  13.960  -5.743  1.00 20.00    -0.293 OA
ENDROOT
TORSDOF 0
ENDMDL
MODEL 7
REMARK VINA RESULT:      -4.9     11.336     12.099
REMARK  0 active torsions:
REMARK  status: ('A' for Active; 'I' for Inactive)
ROOT
HETATM    1  C1  UNL     1     -33.036  15.668  -3.571  1.00 20.00     0.053 A 
HETATM    2  C2  UNL     1     -33.513  16.696  -2.868  1.00 20.00    -0.072 A 
HETATM    3  C3  UNL     1     -34.176  14.761  -3.759  1.00 20.00     0.150 A 
HETATM    4  C4  UNL     1     -32.740  17.864  -2.345  1.00 20.00     0.034 C 
HETATM    5  C5  UNL     1     -35.423  15.272  -3.090  1.00 20.00     0.092 A 
HETATM    6  C6  UNL     1     -32.968  18.012  -0.838  1.00 20.00     0.004 C 
HETATM    7  C7  UNL     1     -34.456  17.994  -0.469  1.00 20.00     0.001 C 
HETATM    8  C8  UNL     1     -35.161  16.744  -1.009  1.00 20.00     0.009 C 
HETATM    9  C9  UNL     1     -34.972  16.619  -2.523  1.00 20.00     0.022 A 
HETATM   10  O10 UNL     1     -34.098  13.712  -4.380  1.00 20.00    -0.293 OA
ENDROOT
TORSDOF 0
ENDMDL
MODEL 8
REMARK VINA RESULT:      -4.8     11.809     12.317
REMARK  0 active torsions:
REMARK  status: ('A' for Active; 'I' for Inactive)
ROOT
HETATM    1  C1  UNL     1     -36.132  13.943  -5.130  1.00 20.00     0.053 A 
HETATM    2  C2  UNL     1     -35.155  14.819  -4.888  1.00 20.00    -0.072 A 
HETATM    3  C3  UNL     1     -37.296  14.444  -4.387  1.00 20.00     0.150 A 
HETATM    4  C4  UNL     1     -33.737  14.733  -5.350  1.00 20.00     0.034 C 
HETATM    5  C5  UNL     1     -36.983  15.698  -3.619  1.00 20.00     0.092 A 
HETATM    6  C6  UNL     1     -32.787  14.853  -4.154  1.00 20.00     0.004 C 
HETATM    7  C7  UNL     1     -33.115  16.061  -3.269  1.00 20.00     0.001 C 
HETATM    8  C8  UNL     1     -34.577  16.048  -2.808  1.00 20.00     0.009 C 
HETATM    9  C9  UNL     1     -35.529  15.974  -4.005  1.00 20.00     0.022 A 
HETATM   10  O10 UNL     1     -38.384  13.885  -4.396  1.00 20.00    -0.293 OA
ENDROOT
TORSDOF 0
ENDMDL
MODEL 9
REMARK VINA RESULT:      -4.7     11.534     12.240
REMARK  0 active torsions:
REMARK  status: ('A' for Active; 'I' for Inactive)
ROOT
HETATM    1  C1  UNL     1     -32.984  17.007  -2.579  1.00 20.00     0.053 A 
HETATM    2  C2  UNL     1     -33.577  15.912  -3.057  1.00 20.00    -0.072 A 
HETATM    3  C3  UNL     1     -33.907  17.541  -1.569  1.00 20.00     0.150 A 
HETATM    4  C4  UNL     1     -33.089  15.035  -4.164  1.00 20.00     0.034 C 
HETATM    5  C5  UNL     1     -35.162  16.719  -1.455  1.00 20.00     0.092 A 
HETATM    6  C6  UNL     1     -34.176  14.882  -5.232  1.00 20.00     0.004 C 
HETATM    7  C7  UNL     1     -35.531  14.487  -4.632  1.00 20.00     0.001 C 
HETATM    8  C8  UNL     1     -35.974  15.461  -3.535  1.00 20.00     0.009 C 
HETATM    9  C9  UNL     1     -34.907  15.579  -2.443  1.00 20.00     0.022 A 
HETATM   10  O10 UNL     1     -33.670  18.545  -0.914  1.00 20.00    -0.293 OA
ENDROOT
TORSDOF 0
ENDMDL
