MODEL 1
REMARK VINA RESULT:      -3.8      0.000      0.000
REMARK  0 active torsions:
REMARK  status: ('A' for Active; 'I' for Inactive)
ROOT
HETATM    1  C1  UNL     1     -35.216   5.476   5.511  1.00 20.00     0.050 C 
HETATM    2  C2  UNL     1     -33.992   6.103   6.158  1.00 20.00     0.171 C 
HETATM    3  C3  UNL     1     -34.783   5.307   4.070  1.00 20.00     0.128 C 
HETATM    4  C4  UNL     1     -33.965   6.581   3.882  1.00 20.00     0.235 C 
HETATM    5  O5  UNL     1     -33.293   6.822   5.128  1.00 20.00    -0.369 OA
HETATM    6 CL6  UNL     1     -33.816   3.808   3.912  1.00 20.00    -0.121 Cl
HETATM    7 CL7  UNL     1     -32.816   6.558   2.539  1.00 20.00    -0.094 Cl
ENDROOT
TORSDOF 0
ENDMDL
MODEL 2
REMARK VINA RESULT:      -3.6     16.334     17.148
REMARK  0 active torsions:
REMARK  status: ('A' for Active; 'I' for Inactive)
ROOT
HETATM    1  C1  UNL     1     -22.304  18.534   9.444  1.00 20.00     0.050 C 
HETATM    2  C2  UNL     1     -21.889  17.193   8.861  1.00 20.00     0.171 C 
HETATM    3  C3  UNL     1     -23.159  18.134  10.627  1.00 20.00     0.128 C 
HETATM    4  C4  UNL     1     -23.870  16.915  10.048  1.00 20.00     0.235 C 
HETATM    5  O5  UNL     1     -22.917  16.249   9.206  1.00 20.00    -0.369 OA
HETATM    6 CL6  UNL     1     -22.103  17.749  12.021  1.00 20.00    -0.121 Cl
HETATM    7 CL7  UNL     1     -24.557  15.798  11.233  1.00 20.00    -0.094 Cl
ENDROOT
TORSDOF 0
ENDMDL
MODEL 3
REMARK VINA RESULT:      -3.5     16.860     17.031
REMARK  0 active torsions:
REMARK  status: ('A' for Active; 'I' for Inactive)
ROOT
HETATM    1  C1  UNL     1     -21.636  17.758   9.410  1.00 20.00     0.050 C 
HETATM    2  C2  UNL     1     -21.793  17.412   7.939  1.00 20.00     0.171 C 
HETATM    3  C3  UNL     1     -23.050  18.106   9.825  1.00 20.00     0.128 C 
HETATM    4  C4  UNL     1     -23.533  18.823   8.569  1.00 20.00     0.235 C 
HETATM    5  O5  UNL     1     -22.934  18.142   7.455  1.00 20.00    -0.369 OA
HETATM    6 CL6  UNL     1     -23.953  16.600  10.179  1.00 20.00    -0.121 Cl
HETATM    7 CL7  UNL     1     -25.287  18.928   8.376  1.00 20.00    -0.094 Cl
ENDROOT
TORSDOF 0
ENDMDL
MODEL 4
REMARK VINA RESULT:      -3.4     16.613     16.919
REMARK  0 active torsions:
REMARK  status: ('A' for Active; 'I' for Inactive)
ROOT
HETATM    1  C1  UNL     1     -24.816  16.504  11.943  1.00 20.00     0.050 C 
HETATM    2  C2  UNL     1     -25.601  17.802  11.868  1.00 20.00     0.171 C 
HETATM    3  C3  UNL     1     -23.534  16.844  11.213  1.00 20.00     0.128 C 
HETATM    4  C4  UNL     1     -24.083  17.739  10.106  1.00 20.00     0.235 C 
HETATM    5  O5  UNL     1     -25.159  18.493  10.687  1.00 20.00    -0.369 OA
HETATM    6 CL6  UNL     1     -22.421  17.693  12.330  1.00 20.00    -0.121 Cl
HETATM    7 CL7  UNL     1     -22.906  18.809   9.335  1.00 20.00    -0.094 Cl
ENDROOT
TORSDOF 0
ENDMDL
MODEL 5
REMARK VINA RESULT:      -3.4      9.188      9.697
REMARK  0 active torsions:
REMARK  status: ('A' for Active; 'I' for Inactive)
ROOT
HETATM    1  C1  UNL     1     -41.233   8.210  -0.440  1.00 20.00     0.050 C 
HETATM    2  C2  UNL     1     -42.681   8.209  -0.901  1.00 20.00     0.171 C 
HETATM    3  C3  UNL     1     -41.109   6.881   0.276  1.00 20.00     0.128 C 
HETATM    4  C4  UNL     1     -42.479   6.803   0.941  1.00 20.00     0.235 C 
HETATM    5  O5  UNL     1     -43.415   7.382   0.018  1.00 20.00    -0.369 OA
HETATM    6 CL6  UNL     1     -40.823   5.584  -0.925  1.00 20.00    -0.121 Cl
HETATM    7 CL7  UNL     1     -42.997   5.187   1.435  1.00 20.00    -0.094 Cl
ENDROOT
TORSDOF 0
ENDMDL
MODEL 6
REMARK VINA RESULT:      -3.3     16.743     17.264
REMARK  0 active torsions:
REMARK  status: ('A' for Active; 'I' for Inactive)
ROOT
HETATM    1  C1  UNL     1     -23.053  17.066   9.690  1.00 20.00     0.050 C 
HETATM    2  C2  UNL     1     -22.189  17.780  10.716  1.00 20.00     0.171 C 
HETATM    3  C3  UNL     1     -24.435  17.614   9.977  1.00 20.00     0.128 C 
HETATM    4  C4  UNL     1     -24.378  17.710  11.498  1.00 20.00     0.235 C 
HETATM    5  O5  UNL     1     -23.036  18.096  11.833  1.00 20.00    -0.369 OA
HETATM    6 CL6  UNL     1     -24.622  19.202   9.168  1.00 20.00    -0.121 Cl
HETATM    7 CL7  UNL     1     -25.554  18.802  12.238  1.00 20.00    -0.094 Cl
ENDROOT
TORSDOF 0
ENDMDL
MODEL 7
REMARK VINA RESULT:      -3.3     16.487     16.791
REMARK  0 active torsions:
REMARK  status: ('A' for Active; 'I' for Inactive)
ROOT
HETATM    1  C1  UNL     1     -22.988  17.652  11.004  1.00 20.00     0.050 C 
HETATM    2  C2  UNL     1     -23.808  18.177   9.837  1.00 20.00     0.171 C 
HETATM    3  C3  UNL     1     -24.051  17.246  12.003  1.00 20.00     0.128 C 
HETATM    4  C4  UNL     1     -25.070  18.359  11.782  1.00 20.00     0.235 C 
HETATM    5  O5  UNL     1     -25.050  18.658  10.377  1.00 20.00    -0.369 OA
HETATM    6 CL6  UNL     1     -24.670  15.618  11.583  1.00 20.00    -0.121 Cl
HETATM    7 CL7  UNL     1     -26.713  18.009  12.330  1.00 20.00    -0.094 Cl
ENDROOT
TORSDOF 0
ENDMDL
MODEL 8
REMARK VINA RESULT:      -3.3     16.296     16.936
REMARK  0 active torsions:
REMARK  status: ('A' for Active; 'I' for Inactive)
ROOT
HETATM    1  C1  UNL     1     -23.584  18.170  10.480  1.00 20.00     0.050 C 
HETATM    2  C2  UNL     1     -23.867  16.710  10.166  1.00 20.00     0.171 C 
HETATM    3  C3  UNL     1     -22.876  18.650   9.231  1.00 20.00     0.128 C 
HETATM    4  C4  UNL     1     -22.049  17.414   8.896  1.00 20.00     0.235 C 
HETATM    5  O5  UNL     1     -22.858  16.277   9.238  1.00 20.00    -0.369 OA
HETATM    6 CL6  UNL     1     -24.090  19.057   7.979  1.00 20.00    -0.121 Cl
HETATM    7 CL7  UNL     1     -21.480  17.305   7.226  1.00 20.00    -0.094 Cl
ENDROOT
TORSDOF 0
ENDMDL
MODEL 9
REMARK VINA RESULT:      -3.3      9.380      9.691
REMARK  0 active torsions:
REMARK  status: ('A' for Active; 'I' for Inactive)
ROOT
HETATM    1  C1  UNL     1     -43.275   8.580  -0.075  1.00 20.00     0.050 C 
HETATM    2  C2  UNL     1     -41.856   9.079   0.138  1.00 20.00     0.171 C 
HETATM    3  C3  UNL     1     -43.081   7.091  -0.268  1.00 20.00     0.128 C 
HETATM    4  C4  UNL     1     -41.780   7.089  -1.064  1.00 20.00     0.235 C 
HETATM    5  O5  UNL     1     -40.981   8.164  -0.543  1.00 20.00    -0.369 OA
HETATM    6 CL6  UNL     1     -42.941   6.297   1.331  1.00 20.00    -0.121 Cl
HETATM    7 CL7  UNL     1     -40.879   5.569  -1.049  1.00 20.00    -0.094 Cl
ENDROOT
TORSDOF 0
ENDMDL
