MODEL 1
REMARK VINA RESULT:      -4.2      0.000      0.000
REMARK  2 active torsions:
REMARK  status: ('A' for Active; 'I' for Inactive)
REMARK    1  A    between atoms: C6_6  and  C7_7 
REMARK    2  A    between atoms: C7_7  and  O8_8 
ROOT
HETATM    1  C1  UNL     1     -24.280  18.842   7.937  1.00 20.00     0.015 C 
HETATM    2  C2  UNL     1     -23.624  18.226   8.732  1.00 20.00    -0.079 C 
HETATM    3  C5  UNL     1     -21.380  18.018   9.710  1.00 20.00     0.061 C 
HETATM    4  C7  UNL     1     -22.812  17.467   9.705  1.00 20.00     0.119 C 
ENDROOT
BRANCH   4   5
HETATM    5  C6  UNL     1     -23.445  17.468  11.127  1.00 20.00     0.024 C 
HETATM    6  C3  UNL     1     -24.262  16.209  11.445  1.00 20.00     0.014 C 
HETATM    7  C4  UNL     1     -22.406  17.697  12.236  1.00 20.00     0.014 C 
ENDBRANCH   4   5
BRANCH   4   8
HETATM    8  O8  UNL     1     -22.730  16.112   9.245  1.00 20.00    -0.378 OA
HETATM    9  H20 UNL     1     -23.470  15.990   8.633  1.00 20.00     0.211 HD
ENDBRANCH   4   8
TORSDOF 2
ENDMDL
MODEL 2
REMARK VINA RESULT:      -4.1     16.323     17.510
REMARK  2 active torsions:
REMARK  status: ('A' for Active; 'I' for Inactive)
REMARK    1  A    between atoms: C6_6  and  C7_7 
REMARK    2  A    between atoms: C7_7  and  O8_8 
ROOT
HETATM    1  C1  UNL     1     -33.747   6.928   6.159  1.00 20.00     0.015 C 
HETATM    2  C2  UNL     1     -34.096   6.250   5.231  1.00 20.00    -0.079 C 
HETATM    3  C5  UNL     1     -36.033   5.610   3.863  1.00 20.00     0.061 C 
HETATM    4  C7  UNL     1     -34.529   5.413   4.093  1.00 20.00     0.119 C 
ENDROOT
BRANCH   4   5
HETATM    5  C6  UNL     1     -33.697   5.692   2.808  1.00 20.00     0.024 C 
HETATM    6  C3  UNL     1     -32.641   6.792   2.976  1.00 20.00     0.014 C 
HETATM    7  C4  UNL     1     -33.031   4.425   2.249  1.00 20.00     0.014 C 
ENDBRANCH   4   5
BRANCH   4   8
HETATM    8  O8  UNL     1     -34.345   4.041   4.464  1.00 20.00    -0.378 OA
HETATM    9  H20 UNL     1     -35.020   3.849   5.131  1.00 20.00     0.211 HD
ENDBRANCH   4   8
TORSDOF 2
ENDMDL
MODEL 3
REMARK VINA RESULT:      -4.0     18.083     19.504
REMARK  2 active torsions:
REMARK  status: ('A' for Active; 'I' for Inactive)
REMARK    1  A    between atoms: C6_6  and  C7_7 
REMARK    2  A    between atoms: C7_7  and  O8_8 
ROOT
HETATM    1  C1  UNL     1     -38.429  14.785  -4.136  1.00 20.00     0.015 C 
HETATM    2  C2  UNL     1     -37.292  14.462  -4.353  1.00 20.00    -0.079 C 
HETATM    3  C5  UNL     1     -35.511  14.500  -6.044  1.00 20.00     0.061 C 
HETATM    4  C7  UNL     1     -35.897  14.061  -4.625  1.00 20.00     0.119 C 
ENDROOT
BRANCH   4   5
HETATM    5  C6  UNL     1     -34.909  14.607  -3.554  1.00 20.00     0.024 C 
HETATM    6  C3  UNL     1     -33.487  14.840  -4.080  1.00 20.00     0.014 C 
HETATM    7  C4  UNL     1     -35.420  15.889  -2.878  1.00 20.00     0.014 C 
ENDBRANCH   4   5
BRANCH   4   8
HETATM    8  O8  UNL     1     -35.841  12.629  -4.607  1.00 20.00    -0.378 OA
HETATM    9  H20 UNL     1     -35.011  12.386  -5.042  1.00 20.00     0.211 HD
ENDBRANCH   4   8
TORSDOF 2
ENDMDL
MODEL 4
REMARK VINA RESULT:      -4.0     17.172     18.689
REMARK  2 active torsions:
REMARK  status: ('A' for Active; 'I' for Inactive)
REMARK    1  A    between atoms: C6_6  and  C7_7 
REMARK    2  A    between atoms: C7_7  and  O8_8 
ROOT
HETATM    1  C1  UNL     1     -34.175  15.349  -6.979  1.00 20.00     0.015 C 
HETATM    2  C2  UNL     1     -33.968  15.016  -5.844  1.00 20.00    -0.079 C 
HETATM    3  C5  UNL     1     -32.857  15.680  -3.756  1.00 20.00     0.061 C 
HETATM    4  C7  UNL     1     -33.707  14.607  -4.449  1.00 20.00     0.119 C 
ENDROOT
BRANCH   4   5
HETATM    5  C6  UNL     1     -35.020  14.306  -3.669  1.00 20.00     0.024 C 
HETATM    6  C3  UNL     1     -35.647  15.539  -3.006  1.00 20.00     0.014 C 
HETATM    7  C4  UNL     1     -36.074  13.600  -4.537  1.00 20.00     0.014 C 
ENDBRANCH   4   5
BRANCH   4   8
HETATM    8  O8  UNL     1     -32.916  13.413  -4.483  1.00 20.00    -0.378 OA
HETATM    9  H20 UNL     1     -32.911  13.118  -5.405  1.00 20.00     0.211 HD
ENDBRANCH   4   8
TORSDOF 2
ENDMDL
MODEL 5
REMARK VINA RESULT:      -3.9     22.838     24.009
REMARK  2 active torsions:
REMARK  status: ('A' for Active; 'I' for Inactive)
REMARK    1  A    between atoms: C6_6  and  C7_7 
REMARK    2  A    between atoms: C7_7  and  O8_8 
ROOT
HETATM    1  C1  UNL     1     -43.349   4.920   1.446  1.00 20.00     0.015 C 
HETATM    2  C2  UNL     1     -42.640   5.739   0.926  1.00 20.00    -0.079 C 
HETATM    3  C5  UNL     1     -41.253   6.188  -1.050  1.00 20.00     0.061 C 
HETATM    4  C7  UNL     1     -41.763   6.740   0.287  1.00 20.00     0.119 C 
ENDROOT
BRANCH   4   5
HETATM    5  C6  UNL     1     -42.467   8.119   0.121  1.00 20.00     0.024 C 
HETATM    6  C3  UNL     1     -41.510   9.316   0.172  1.00 20.00     0.014 C 
HETATM    7  C4  UNL     1     -43.318   8.197  -1.156  1.00 20.00     0.014 C 
ENDBRANCH   4   5
BRANCH   4   8
HETATM    8  O8  UNL     1     -40.614   6.916   1.125  1.00 20.00    -0.378 OA
HETATM    9  H20 UNL     1     -39.842   6.811   0.551  1.00 20.00     0.211 HD
ENDBRANCH   4   8
TORSDOF 2
ENDMDL
MODEL 6
REMARK VINA RESULT:      -3.9     22.748     23.902
REMARK  2 active torsions:
REMARK  status: ('A' for Active; 'I' for Inactive)
REMARK    1  A    between atoms: C6_6  and  C7_7 
REMARK    2  A    between atoms: C7_7  and  O8_8 
ROOT
HETATM    1  C1  UNL     1     -41.325   9.762   0.355  1.00 20.00     0.015 C 
HETATM    2  C2  UNL     1     -41.569   8.586   0.347  1.00 20.00    -0.079 C 
HETATM    3  C5  UNL     1     -43.146   6.885   1.155  1.00 20.00     0.061 C 
HETATM    4  C7  UNL     1     -41.868   7.140   0.345  1.00 20.00     0.119 C 
ENDROOT
BRANCH   4   5
HETATM    5  C6  UNL     1     -41.963   6.561  -1.097  1.00 20.00     0.024 C 
HETATM    6  C3  UNL     1     -41.157   5.274  -1.306  1.00 20.00     0.014 C 
HETATM    7  C4  UNL     1     -43.415   6.335  -1.548  1.00 20.00     0.014 C 
ENDBRANCH   4   5
BRANCH   4   8
HETATM    8  O8  UNL     1     -40.804   6.471   1.033  1.00 20.00    -0.378 OA
HETATM    9  H20 UNL     1     -41.224   5.918   1.707  1.00 20.00     0.211 HD
ENDBRANCH   4   8
TORSDOF 2
ENDMDL
MODEL 7
REMARK VINA RESULT:      -3.9     16.260     17.358
REMARK  2 active torsions:
REMARK  status: ('A' for Active; 'I' for Inactive)
REMARK    1  A    between atoms: C6_6  and  C7_7 
REMARK    2  A    between atoms: C7_7  and  O8_8 
ROOT
HETATM    1  C1  UNL     1     -33.317   4.122   2.388  1.00 20.00     0.015 C 
HETATM    2  C2  UNL     1     -33.890   4.692   3.276  1.00 20.00    -0.079 C 
HETATM    3  C5  UNL     1     -34.538   4.530   5.640  1.00 20.00     0.061 C 
HETATM    4  C7  UNL     1     -34.600   5.387   4.369  1.00 20.00     0.119 C 
ENDROOT
BRANCH   4   5
HETATM    5  C6  UNL     1     -34.052   6.825   4.605  1.00 20.00     0.024 C 
HETATM    6  C3  UNL     1     -33.670   7.115   6.061  1.00 20.00     0.014 C 
HETATM    7  C4  UNL     1     -32.866   7.163   3.687  1.00 20.00     0.014 C 
ENDBRANCH   4   5
BRANCH   4   8
HETATM    8  O8  UNL     1     -35.983   5.483   4.003  1.00 20.00    -0.378 OA
HETATM    9  H20 UNL     1     -36.413   5.992   4.705  1.00 20.00     0.211 HD
ENDBRANCH   4   8
TORSDOF 2
ENDMDL
MODEL 8
REMARK VINA RESULT:      -3.9     17.925     19.963
REMARK  2 active torsions:
REMARK  status: ('A' for Active; 'I' for Inactive)
REMARK    1  A    between atoms: C6_6  and  C7_7 
REMARK    2  A    between atoms: C7_7  and  O8_8 
ROOT
HETATM    1  C1  UNL     1     -34.644  15.477  -2.781  1.00 20.00     0.015 C 
HETATM    2  C2  UNL     1     -35.283  14.906  -3.622  1.00 20.00    -0.079 C 
HETATM    3  C5  UNL     1     -37.566  14.412  -4.379  1.00 20.00     0.061 C 
HETATM    4  C7  UNL     1     -36.072  14.200  -4.652  1.00 20.00     0.119 C 
ENDROOT
BRANCH   4   5
HETATM    5  C6  UNL     1     -35.674  14.630  -6.095  1.00 20.00     0.024 C 
HETATM    6  C3  UNL     1     -36.468  15.828  -6.629  1.00 20.00     0.014 C 
HETATM    7  C4  UNL     1     -34.169  14.910  -6.233  1.00 20.00     0.014 C 
ENDBRANCH   4   5
BRANCH   4   8
HETATM    8  O8  UNL     1     -35.821  12.796  -4.511  1.00 20.00    -0.378 OA
HETATM    9  H20 UNL     1     -36.624  12.347  -4.810  1.00 20.00     0.211 HD
ENDBRANCH   4   8
TORSDOF 2
ENDMDL
MODEL 9
REMARK VINA RESULT:      -3.9     16.819     18.364
REMARK  2 active torsions:
REMARK  status: ('A' for Active; 'I' for Inactive)
REMARK    1  A    between atoms: C6_6  and  C7_7 
REMARK    2  A    between atoms: C7_7  and  O8_8 
ROOT
HETATM    1  C1  UNL     1     -36.265  13.589  -4.563  1.00 20.00     0.015 C 
HETATM    2  C2  UNL     1     -35.313  14.321  -4.591  1.00 20.00    -0.079 C 
HETATM    3  C5  UNL     1     -34.418  16.369  -5.608  1.00 20.00     0.061 C 
HETATM    4  C7  UNL     1     -34.141  15.219  -4.632  1.00 20.00     0.119 C 
ENDROOT
BRANCH   4   5
HETATM    5  C6  UNL     1     -33.745  15.733  -3.217  1.00 20.00     0.024 C 
HETATM    6  C3  UNL     1     -32.949  17.045  -3.232  1.00 20.00     0.014 C 
HETATM    7  C4  UNL     1     -34.955  15.880  -2.282  1.00 20.00     0.014 C 
ENDBRANCH   4   5
BRANCH   4   8
HETATM    8  O8  UNL     1     -33.039  14.477  -5.170  1.00 20.00    -0.378 OA
HETATM    9  H20 UNL     1     -33.026  14.664  -6.120  1.00 20.00     0.211 HD
ENDBRANCH   4   8
TORSDOF 2
ENDMDL
