MODEL 1
REMARK VINA RESULT:      -3.7      0.000      0.000
REMARK  3 active torsions:
REMARK  status: ('A' for Active; 'I' for Inactive)
REMARK    1  A    between atoms: C1_1  and  C5_5 
REMARK    2  A    between atoms: C1_1  and  O8_8 
REMARK    3  A    between atoms: C6_6  and  O8_8 
ROOT
HETATM    1  O8  UNL     1     -35.441  14.852  -5.181  1.00 20.00    -0.310 OA
ENDROOT
BRANCH   1   2
HETATM    2  C1  UNL     1     -36.214  13.858  -4.646  1.00 20.00     0.273 C 
HETATM    3  O7  UNL     1     -35.853  12.705  -4.451  1.00 20.00    -0.264 OA
BRANCH   2   4
HETATM    4  C5  UNL     1     -37.575  14.423  -4.339  1.00 20.00     0.225 C 
HETATM    5 CL9  UNL     1     -37.846  15.903  -5.275  1.00 20.00    -0.120 Cl
ENDBRANCH   2   4
ENDBRANCH   1   2
BRANCH   1   6
HETATM    6  C6  UNL     1     -34.442  15.393  -4.314  1.00 20.00     0.060 C 
HETATM    7  C2  UNL     1     -33.171  14.557  -4.457  1.00 20.00     0.045 C 
HETATM    8  C3  UNL     1     -34.188  16.835  -4.749  1.00 20.00     0.045 C 
HETATM    9  C4  UNL     1     -34.966  15.348  -2.879  1.00 20.00     0.045 C 
ENDBRANCH   1   6
TORSDOF 3
ENDMDL
MODEL 2
REMARK VINA RESULT:      -3.7     18.514     19.200
REMARK  3 active torsions:
REMARK  status: ('A' for Active; 'I' for Inactive)
REMARK    1  A    between atoms: C1_1  and  C5_5 
REMARK    2  A    between atoms: C1_1  and  O8_8 
REMARK    3  A    between atoms: C6_6  and  O8_8 
ROOT
HETATM    1  O8  UNL     1     -24.306  17.065   9.943  1.00 20.00    -0.310 OA
ENDROOT
BRANCH   1   2
HETATM    2  C1  UNL     1     -23.139  17.373   9.298  1.00 20.00     0.273 C 
HETATM    3  O7  UNL     1     -22.256  16.577   9.008  1.00 20.00    -0.264 OA
BRANCH   2   4
HETATM    4  C5  UNL     1     -23.130  18.850   9.007  1.00 20.00     0.225 C 
HETATM    5 CL9  UNL     1     -24.451  19.263   7.902  1.00 20.00    -0.120 Cl
ENDBRANCH   2   4
ENDBRANCH   1   2
BRANCH   1   6
HETATM    6  C6  UNL     1     -24.255  17.111  11.371  1.00 20.00     0.060 C 
HETATM    7  C2  UNL     1     -25.204  18.207  11.854  1.00 20.00     0.045 C 
HETATM    8  C3  UNL     1     -24.701  15.747  11.891  1.00 20.00     0.045 C 
HETATM    9  C4  UNL     1     -22.818  17.407  11.797  1.00 20.00     0.045 C 
ENDBRANCH   1   6
TORSDOF 3
ENDMDL
MODEL 3
REMARK VINA RESULT:      -3.6      0.014      1.451
REMARK  3 active torsions:
REMARK  status: ('A' for Active; 'I' for Inactive)
REMARK    1  A    between atoms: C1_1  and  C5_5 
REMARK    2  A    between atoms: C1_1  and  O8_8 
REMARK    3  A    between atoms: C6_6  and  O8_8 
ROOT
HETATM    1  O8  UNL     1     -35.444  14.844  -5.189  1.00 20.00    -0.310 OA
ENDROOT
BRANCH   1   2
HETATM    2  C1  UNL     1     -36.214  13.854  -4.643  1.00 20.00     0.273 C 
HETATM    3  O7  UNL     1     -35.851  12.704  -4.439  1.00 20.00    -0.264 OA
BRANCH   2   4
HETATM    4  C5  UNL     1     -37.574  14.420  -4.337  1.00 20.00     0.225 C 
HETATM    5 CL9  UNL     1     -37.848  15.893  -5.282  1.00 20.00    -0.120 Cl
ENDBRANCH   2   4
ENDBRANCH   1   2
BRANCH   1   6
HETATM    6  C6  UNL     1     -34.452  15.405  -4.326  1.00 20.00     0.060 C 
HETATM    7  C2  UNL     1     -34.973  15.352  -2.891  1.00 20.00     0.045 C 
HETATM    8  C3  UNL     1     -33.187  14.562  -4.470  1.00 20.00     0.045 C 
HETATM    9  C4  UNL     1     -34.191  16.847  -4.758  1.00 20.00     0.045 C 
ENDBRANCH   1   6
TORSDOF 3
ENDMDL
MODEL 4
REMARK VINA RESULT:      -3.6      0.017      1.451
REMARK  3 active torsions:
REMARK  status: ('A' for Active; 'I' for Inactive)
REMARK    1  A    between atoms: C1_1  and  C5_5 
REMARK    2  A    between atoms: C1_1  and  O8_8 
REMARK    3  A    between atoms: C6_6  and  O8_8 
ROOT
HETATM    1  O8  UNL     1     -35.430  14.848  -5.179  1.00 20.00    -0.310 OA
ENDROOT
BRANCH   1   2
HETATM    2  C1  UNL     1     -36.204  13.857  -4.640  1.00 20.00     0.273 C 
HETATM    3  O7  UNL     1     -35.844  12.705  -4.439  1.00 20.00    -0.264 OA
BRANCH   2   4
HETATM    4  C5  UNL     1     -37.564  14.425  -4.337  1.00 20.00     0.225 C 
HETATM    5 CL9  UNL     1     -37.833  15.901  -5.280  1.00 20.00    -0.120 Cl
ENDBRANCH   2   4
ENDBRANCH   1   2
BRANCH   1   6
HETATM    6  C6  UNL     1     -34.430  15.393  -4.314  1.00 20.00     0.060 C 
HETATM    7  C2  UNL     1     -34.169  16.841  -4.728  1.00 20.00     0.045 C 
HETATM    8  C3  UNL     1     -34.973  15.331  -2.889  1.00 20.00     0.045 C 
HETATM    9  C4  UNL     1     -33.162  14.551  -4.445  1.00 20.00     0.045 C 
ENDBRANCH   1   6
TORSDOF 3
ENDMDL
MODEL 5
REMARK VINA RESULT:      -3.5     17.601     18.390
REMARK  3 active torsions:
REMARK  status: ('A' for Active; 'I' for Inactive)
REMARK    1  A    between atoms: C1_1  and  C5_5 
REMARK    2  A    between atoms: C1_1  and  O8_8 
REMARK    3  A    between atoms: C6_6  and  O8_8 
ROOT
HETATM    1  O8  UNL     1     -23.264  18.930   9.429  1.00 20.00    -0.310 OA
ENDROOT
BRANCH   1   2
HETATM    2  C1  UNL     1     -23.880  18.798   8.214  1.00 20.00     0.273 C 
HETATM    3  O7  UNL     1     -23.334  18.448   7.177  1.00 20.00    -0.264 OA
BRANCH   2   4
HETATM    4  C5  UNL     1     -25.333  19.155   8.374  1.00 20.00     0.225 C 
HETATM    5 CL9  UNL     1     -26.223  18.763   6.893  1.00 20.00    -0.120 Cl
ENDBRANCH   2   4
ENDBRANCH   1   2
BRANCH   1   6
HETATM    6  C6  UNL     1     -22.689  17.736   9.964  1.00 20.00     0.060 C 
HETATM    7  C2  UNL     1     -21.338  17.504   9.290  1.00 20.00     0.045 C 
HETATM    8  C3  UNL     1     -22.511  17.944  11.466  1.00 20.00     0.045 C 
HETATM    9  C4  UNL     1     -23.641  16.572   9.692  1.00 20.00     0.045 C 
ENDBRANCH   1   6
TORSDOF 3
ENDMDL
MODEL 6
REMARK VINA RESULT:      -3.5     18.743     19.367
REMARK  3 active torsions:
REMARK  status: ('A' for Active; 'I' for Inactive)
REMARK    1  A    between atoms: C1_1  and  C5_5 
REMARK    2  A    between atoms: C1_1  and  O8_8 
REMARK    3  A    between atoms: C6_6  and  O8_8 
ROOT
HETATM    1  O8  UNL     1     -24.260  17.196   9.912  1.00 20.00    -0.310 OA
ENDROOT
BRANCH   1   2
HETATM    2  C1  UNL     1     -23.256  17.936   9.350  1.00 20.00     0.273 C 
HETATM    3  O7  UNL     1     -23.280  19.147   9.175  1.00 20.00    -0.264 OA
BRANCH   2   4
HETATM    4  C5  UNL     1     -22.125  17.012   8.988  1.00 20.00     0.225 C 
HETATM    5 CL9  UNL     1     -21.577  17.337   7.335  1.00 20.00    -0.120 Cl
ENDBRANCH   2   4
ENDBRANCH   1   2
BRANCH   1   6
HETATM    6  C6  UNL     1     -24.371  17.281  11.334  1.00 20.00     0.060 C 
HETATM    7  C2  UNL     1     -24.762  15.907  11.874  1.00 20.00     0.045 C 
HETATM    8  C3  UNL     1     -23.008  17.703  11.877  1.00 20.00     0.045 C 
HETATM    9  C4  UNL     1     -25.433  18.325  11.677  1.00 20.00     0.045 C 
ENDBRANCH   1   6
TORSDOF 3
ENDMDL
MODEL 7
REMARK VINA RESULT:      -3.4     18.394     19.233
REMARK  3 active torsions:
REMARK  status: ('A' for Active; 'I' for Inactive)
REMARK    1  A    between atoms: C1_1  and  C5_5 
REMARK    2  A    between atoms: C1_1  and  O8_8 
REMARK    3  A    between atoms: C6_6  and  O8_8 
ROOT
HETATM    1  O8  UNL     1     -23.519  18.585  10.343  1.00 20.00    -0.310 OA
ENDROOT
BRANCH   1   2
HETATM    2  C1  UNL     1     -24.542  18.784   9.457  1.00 20.00     0.273 C 
HETATM    3  O7  UNL     1     -25.677  19.135   9.751  1.00 20.00    -0.264 OA
BRANCH   2   4
HETATM    4  C5  UNL     1     -24.034  18.502   8.070  1.00 20.00     0.225 C 
HETATM    5 CL9  UNL     1     -22.433  17.747   8.147  1.00 20.00    -0.120 Cl
ENDBRANCH   2   4
ENDBRANCH   1   2
BRANCH   1   6
HETATM    6  C6  UNL     1     -23.811  17.718  11.442  1.00 20.00     0.060 C 
HETATM    7  C2  UNL     1     -22.528  17.501  12.243  1.00 20.00     0.045 C 
HETATM    8  C3  UNL     1     -24.871  18.405  12.300  1.00 20.00     0.045 C 
HETATM    9  C4  UNL     1     -24.340  16.395  10.890  1.00 20.00     0.045 C 
ENDBRANCH   1   6
TORSDOF 3
ENDMDL
MODEL 8
REMARK VINA RESULT:      -3.4      2.085      3.287
REMARK  3 active torsions:
REMARK  status: ('A' for Active; 'I' for Inactive)
REMARK    1  A    between atoms: C1_1  and  C5_5 
REMARK    2  A    between atoms: C1_1  and  O8_8 
REMARK    3  A    between atoms: C6_6  and  O8_8 
ROOT
HETATM    1  O8  UNL     1     -36.284  14.821  -3.519  1.00 20.00    -0.310 OA
ENDROOT
BRANCH   1   2
HETATM    2  C1  UNL     1     -35.515  13.880  -4.148  1.00 20.00     0.273 C 
HETATM    3  O7  UNL     1     -35.918  12.810  -4.584  1.00 20.00    -0.264 OA
BRANCH   2   4
HETATM    4  C5  UNL     1     -34.100  14.385  -4.213  1.00 20.00     0.225 C 
HETATM    5 CL9  UNL     1     -33.852  15.664  -3.011  1.00 20.00    -0.120 Cl
ENDBRANCH   2   4
ENDBRANCH   1   2
BRANCH   1   6
HETATM    6  C6  UNL     1     -37.243  15.488  -4.343  1.00 20.00     0.060 C 
HETATM    7  C2  UNL     1     -38.553  14.702  -4.297  1.00 20.00     0.045 C 
HETATM    8  C3  UNL     1     -37.439  16.892  -3.776  1.00 20.00     0.045 C 
HETATM    9  C4  UNL     1     -36.698  15.554  -5.769  1.00 20.00     0.045 C 
ENDBRANCH   1   6
TORSDOF 3
ENDMDL
MODEL 9
REMARK VINA RESULT:      -3.3      2.390      3.072
REMARK  3 active torsions:
REMARK  status: ('A' for Active; 'I' for Inactive)
REMARK    1  A    between atoms: C1_1  and  C5_5 
REMARK    2  A    between atoms: C1_1  and  O8_8 
REMARK    3  A    between atoms: C6_6  and  O8_8 
ROOT
HETATM    1  O8  UNL     1     -33.731  14.969  -5.055  1.00 20.00    -0.310 OA
ENDROOT
BRANCH   1   2
HETATM    2  C1  UNL     1     -34.409  14.347  -4.042  1.00 20.00     0.273 C 
HETATM    3  O7  UNL     1     -34.727  13.166  -4.021  1.00 20.00    -0.264 OA
BRANCH   2   4
HETATM    4  C5  UNL     1     -34.693  15.360  -2.966  1.00 20.00     0.225 C 
HETATM    5 CL9  UNL     1     -33.279  16.399  -2.718  1.00 20.00    -0.120 Cl
ENDBRANCH   2   4
ENDBRANCH   1   2
BRANCH   1   6
HETATM    6  C6  UNL     1     -34.527  15.397  -6.162  1.00 20.00     0.060 C 
HETATM    7  C2  UNL     1     -35.861  14.654  -6.116  1.00 20.00     0.045 C 
HETATM    8  C3  UNL     1     -34.745  16.901  -6.016  1.00 20.00     0.045 C 
HETATM    9  C4  UNL     1     -33.773  15.086  -7.454  1.00 20.00     0.045 C 
ENDBRANCH   1   6
TORSDOF 3
ENDMDL
