MODEL 1
REMARK VINA RESULT:      -3.1      0.000      0.000
REMARK  0 active torsions:
REMARK  status: ('A' for Active; 'I' for Inactive)
ROOT
HETATM    1  C1  UNL     1     -34.162   5.092   3.675  1.00 20.00     0.196 C 
HETATM    2  C2  UNL     1     -34.029   6.513   4.156  1.00 20.00     0.196 C 
HETATM    3  C3  UNL     1     -34.831   5.224   5.827  1.00 20.00     0.337 C 
HETATM    4  O4  UNL     1     -35.074   4.516   4.607  1.00 20.00    -0.365 OA
HETATM    5  O5  UNL     1     -34.022   6.377   5.576  1.00 20.00    -0.365 OA
ENDROOT
TORSDOF 0
ENDMDL
MODEL 2
REMARK VINA RESULT:      -3.1      0.002      1.763
REMARK  0 active torsions:
REMARK  status: ('A' for Active; 'I' for Inactive)
ROOT
HETATM    1  C1  UNL     1     -34.030   6.512   4.154  1.00 20.00     0.196 C 
HETATM    2  C2  UNL     1     -34.162   5.091   3.674  1.00 20.00     0.196 C 
HETATM    3  C3  UNL     1     -34.830   5.224   5.826  1.00 20.00     0.337 C 
HETATM    4  O4  UNL     1     -34.022   6.378   5.573  1.00 20.00    -0.365 OA
HETATM    5  O5  UNL     1     -35.073   4.515   4.608  1.00 20.00    -0.365 OA
ENDROOT
TORSDOF 0
ENDMDL
MODEL 3
REMARK VINA RESULT:      -3.0      0.935      2.283
REMARK  0 active torsions:
REMARK  status: ('A' for Active; 'I' for Inactive)
ROOT
HETATM    1  C1  UNL     1     -33.982   6.444   5.618  1.00 20.00     0.196 C 
HETATM    2  C2  UNL     1     -34.903   5.287   5.898  1.00 20.00     0.196 C 
HETATM    3  C3  UNL     1     -34.335   5.286   3.713  1.00 20.00     0.337 C 
HETATM    4  O4  UNL     1     -34.080   6.606   4.205  1.00 20.00    -0.365 OA
HETATM    5  O5  UNL     1     -34.673   4.413   4.795  1.00 20.00    -0.365 OA
ENDROOT
TORSDOF 0
ENDMDL
MODEL 4
REMARK VINA RESULT:      -3.0      0.941      1.708
REMARK  0 active torsions:
REMARK  status: ('A' for Active; 'I' for Inactive)
ROOT
HETATM    1  C1  UNL     1     -34.892   5.331   5.966  1.00 20.00     0.196 C 
HETATM    2  C2  UNL     1     -33.961   6.468   5.644  1.00 20.00     0.196 C 
HETATM    3  C3  UNL     1     -34.383   5.286   3.768  1.00 20.00     0.337 C 
HETATM    4  O4  UNL     1     -34.705   4.436   4.873  1.00 20.00    -0.365 OA
HETATM    5  O5  UNL     1     -34.094   6.609   4.230  1.00 20.00    -0.365 OA
ENDROOT
TORSDOF 0
ENDMDL
MODEL 5
REMARK VINA RESULT:      -3.0      1.154      1.789
REMARK  0 active torsions:
REMARK  status: ('A' for Active; 'I' for Inactive)
ROOT
HETATM    1  C1  UNL     1     -35.086   5.244   4.403  1.00 20.00     0.196 C 
HETATM    2  C2  UNL     1     -34.786   5.181   5.877  1.00 20.00     0.196 C 
HETATM    3  C3  UNL     1     -33.642   6.890   4.947  1.00 20.00     0.337 C 
HETATM    4  O4  UNL     1     -34.001   6.007   3.881  1.00 20.00    -0.365 OA
HETATM    5  O5  UNL     1     -34.278   6.483   6.162  1.00 20.00    -0.365 OA
ENDROOT
TORSDOF 0
ENDMDL
MODEL 6
REMARK VINA RESULT:      -3.0      1.157      2.134
REMARK  0 active torsions:
REMARK  status: ('A' for Active; 'I' for Inactive)
ROOT
HETATM    1  C1  UNL     1     -34.782   5.164   5.873  1.00 20.00     0.196 C 
HETATM    2  C2  UNL     1     -35.076   5.237   4.398  1.00 20.00     0.196 C 
HETATM    3  C3  UNL     1     -33.650   6.892   4.964  1.00 20.00     0.337 C 
HETATM    4  O4  UNL     1     -34.289   6.468   6.172  1.00 20.00    -0.365 OA
HETATM    5  O5  UNL     1     -33.995   6.016   3.888  1.00 20.00    -0.365 OA
ENDROOT
TORSDOF 0
ENDMDL
MODEL 7
REMARK VINA RESULT:      -2.7     16.754     17.598
REMARK  0 active torsions:
REMARK  status: ('A' for Active; 'I' for Inactive)
ROOT
HETATM    1  C1  UNL     1     -23.188  16.918   9.661  1.00 20.00     0.196 C 
HETATM    2  C2  UNL     1     -22.511  18.221   9.994  1.00 20.00     0.196 C 
HETATM    3  C3  UNL     1     -21.792  17.491   7.983  1.00 20.00     0.337 C 
HETATM    4  O4  UNL     1     -22.342  16.357   8.660  1.00 20.00    -0.365 OA
HETATM    5  O5  UNL     1     -22.054  18.685   8.725  1.00 20.00    -0.365 OA
ENDROOT
TORSDOF 0
ENDMDL
MODEL 8
REMARK VINA RESULT:      -2.7     16.757     17.714
REMARK  0 active torsions:
REMARK  status: ('A' for Active; 'I' for Inactive)
ROOT
HETATM    1  C1  UNL     1     -22.374  18.126  10.093  1.00 20.00     0.196 C 
HETATM    2  C2  UNL     1     -23.151  16.902   9.688  1.00 20.00     0.196 C 
HETATM    3  C3  UNL     1     -21.748  17.489   8.021  1.00 20.00     0.337 C 
HETATM    4  O4  UNL     1     -21.910  18.644   8.849  1.00 20.00    -0.365 OA
HETATM    5  O5  UNL     1     -22.367  16.353   8.630  1.00 20.00    -0.365 OA
ENDROOT
TORSDOF 0
ENDMDL
MODEL 9
REMARK VINA RESULT:      -2.7      1.508      1.695
REMARK  0 active torsions:
REMARK  status: ('A' for Active; 'I' for Inactive)
ROOT
HETATM    1  C1  UNL     1     -33.291   5.029   2.667  1.00 20.00     0.196 C 
HETATM    2  C2  UNL     1     -32.863   6.472   2.628  1.00 20.00     0.196 C 
HETATM    3  C3  UNL     1     -34.213   6.136   4.405  1.00 20.00     0.337 C 
HETATM    4  O4  UNL     1     -34.450   5.056   3.497  1.00 20.00    -0.365 OA
HETATM    5  O5  UNL     1     -33.102   6.920   3.961  1.00 20.00    -0.365 OA
ENDROOT
TORSDOF 0
ENDMDL
