MODEL 1
REMARK VINA RESULT:      -4.4      0.000      0.000
REMARK  3 active torsions:
REMARK  status: ('A' for Active; 'I' for Inactive)
REMARK    1  A    between atoms: C1_1  and  C2_2 
REMARK    2  A    between atoms: C4_4  and  C6_6 
REMARK    3  A    between atoms: C6_6  and  O7_7 
ROOT
HETATM    1  C2  UNL     1     -32.895   6.085   2.686  1.00 20.00    -0.002 C 
HETATM    2  C4  UNL     1     -33.955   5.873   3.479  1.00 20.00    -0.001 C 
ENDROOT
BRANCH   1   3
HETATM    3  C1  UNL     1     -32.520   7.395   2.201  1.00 20.00    -0.005 C 
HETATM    4  C3  UNL     1     -33.085   7.969   1.129  1.00 20.00    -0.031 C 
HETATM    5  C5  UNL     1     -32.707   9.320   0.616  1.00 20.00     0.036 C 
ENDBRANCH   1   3
BRANCH   2   6
HETATM    6  C6  UNL     1     -34.347   4.523   3.989  1.00 20.00     0.191 C 
BRANCH   6   7
HETATM    7  O7  UNL     1     -35.513   4.635   4.794  1.00 20.00    -0.397 OA
HETATM    8  H17 UNL     1     -35.213   4.813   5.699  1.00 20.00     0.209 HD
ENDBRANCH   6   7
ENDBRANCH   2   6
TORSDOF 3
ENDMDL
MODEL 2
REMARK VINA RESULT:      -4.2      2.607      4.508
REMARK  3 active torsions:
REMARK  status: ('A' for Active; 'I' for Inactive)
REMARK    1  A    between atoms: C1_1  and  C2_2 
REMARK    2  A    between atoms: C4_4  and  C6_6 
REMARK    3  A    between atoms: C6_6  and  O7_7 
ROOT
HETATM    1  C2  UNL     1     -33.292   6.004   2.372  1.00 20.00    -0.002 C 
HETATM    2  C4  UNL     1     -32.676   7.194   2.417  1.00 20.00    -0.001 C 
ENDROOT
BRANCH   1   3
HETATM    3  C1  UNL     1     -33.791   5.328   3.549  1.00 20.00    -0.005 C 
HETATM    4  C3  UNL     1     -34.337   5.974   4.589  1.00 20.00    -0.031 C 
HETATM    5  C5  UNL     1     -34.855   5.289   5.811  1.00 20.00     0.036 C 
ENDBRANCH   1   3
BRANCH   2   6
HETATM    6  C6  UNL     1     -32.160   7.902   1.204  1.00 20.00     0.191 C 
BRANCH   6   7
HETATM    7  O7  UNL     1     -33.024   8.981   0.875  1.00 20.00    -0.397 OA
HETATM    8  H17 UNL     1     -33.921   8.615   0.819  1.00 20.00     0.209 HD
ENDBRANCH   6   7
ENDBRANCH   2   6
TORSDOF 3
ENDMDL
MODEL 3
REMARK VINA RESULT:      -4.0     10.559     10.851
REMARK  3 active torsions:
REMARK  status: ('A' for Active; 'I' for Inactive)
REMARK    1  A    between atoms: C1_1  and  C2_2 
REMARK    2  A    between atoms: C4_4  and  C6_6 
REMARK    3  A    between atoms: C6_6  and  O7_7 
ROOT
HETATM    1  C2  UNL     1     -34.138  14.778  -4.028  1.00 20.00    -0.002 C 
HETATM    2  C4  UNL     1     -35.474  14.732  -3.929  1.00 20.00    -0.001 C 
ENDROOT
BRANCH   1   3
HETATM    3  C1  UNL     1     -33.333  15.790  -3.381  1.00 20.00    -0.005 C 
HETATM    4  C3  UNL     1     -33.788  16.563  -2.385  1.00 20.00    -0.031 C 
HETATM    5  C5  UNL     1     -32.968  17.613  -1.709  1.00 20.00     0.036 C 
ENDBRANCH   1   3
BRANCH   2   6
HETATM    6  C6  UNL     1     -36.315  13.687  -4.592  1.00 20.00     0.191 C 
BRANCH   6   7
HETATM    7  O7  UNL     1     -35.854  12.395  -4.220  1.00 20.00    -0.397 OA
HETATM    8  H17 UNL     1     -36.279  12.177  -3.376  1.00 20.00     0.209 HD
ENDBRANCH   6   7
ENDBRANCH   2   6
TORSDOF 3
ENDMDL
MODEL 4
REMARK VINA RESULT:      -3.7     11.378     11.941
REMARK  3 active torsions:
REMARK  status: ('A' for Active; 'I' for Inactive)
REMARK    1  A    between atoms: C1_1  and  C2_2 
REMARK    2  A    between atoms: C4_4  and  C6_6 
REMARK    3  A    between atoms: C6_6  and  O7_7 
ROOT
HETATM    1  C2  UNL     1     -33.943  15.230  -3.961  1.00 20.00    -0.002 C 
HETATM    2  C4  UNL     1     -34.417  15.741  -5.107  1.00 20.00    -0.001 C 
ENDROOT
BRANCH   1   3
HETATM    3  C1  UNL     1     -33.987  15.940  -2.702  1.00 20.00    -0.005 C 
HETATM    4  C3  UNL     1     -35.125  16.181  -2.036  1.00 20.00    -0.031 C 
HETATM    5  C5  UNL     1     -35.185  16.914  -0.736  1.00 20.00     0.036 C 
ENDBRANCH   1   3
BRANCH   2   6
HETATM    6  C6  UNL     1     -34.380  15.012  -6.413  1.00 20.00     0.191 C 
BRANCH   6   7
HETATM    7  O7  UNL     1     -33.080  14.480  -6.628  1.00 20.00    -0.397 OA
HETATM    8  H17 UNL     1     -33.009  13.682  -6.080  1.00 20.00     0.209 HD
ENDBRANCH   6   7
ENDBRANCH   2   6
TORSDOF 3
ENDMDL
MODEL 5
REMARK VINA RESULT:      -3.7     10.968     11.467
REMARK  3 active torsions:
REMARK  status: ('A' for Active; 'I' for Inactive)
REMARK    1  A    between atoms: C1_1  and  C2_2 
REMARK    2  A    between atoms: C4_4  and  C6_6 
REMARK    3  A    between atoms: C6_6  and  O7_7 
ROOT
HETATM    1  C2  UNL     1     -34.733  15.539  -2.740  1.00 20.00    -0.002 C 
HETATM    2  C4  UNL     1     -33.592  15.574  -3.444  1.00 20.00    -0.001 C 
ENDROOT
BRANCH   1   3
HETATM    3  C1  UNL     1     -35.025  16.459  -1.664  1.00 20.00    -0.005 C 
HETATM    4  C3  UNL     1     -34.157  17.388  -1.237  1.00 20.00    -0.031 C 
HETATM    5  C5  UNL     1     -34.445  18.344  -0.126  1.00 20.00     0.036 C 
ENDBRANCH   1   3
BRANCH   2   6
HETATM    6  C6  UNL     1     -33.283  14.629  -4.562  1.00 20.00     0.191 C 
BRANCH   6   7
HETATM    7  O7  UNL     1     -31.888  14.361  -4.591  1.00 20.00    -0.397 OA
HETATM    8  H17 UNL     1     -31.731  13.775  -5.348  1.00 20.00     0.209 HD
ENDBRANCH   6   7
ENDBRANCH   2   6
TORSDOF 3
ENDMDL
MODEL 6
REMARK VINA RESULT:      -3.6     11.022     12.055
REMARK  3 active torsions:
REMARK  status: ('A' for Active; 'I' for Inactive)
REMARK    1  A    between atoms: C1_1  and  C2_2 
REMARK    2  A    between atoms: C4_4  and  C6_6 
REMARK    3  A    between atoms: C6_6  and  O7_7 
ROOT
HETATM    1  C2  UNL     1     -33.881  17.316  -1.479  1.00 20.00    -0.002 C 
HETATM    2  C4  UNL     1     -32.620  17.671  -1.765  1.00 20.00    -0.001 C 
ENDROOT
BRANCH   1   3
HETATM    3  C1  UNL     1     -34.558  16.216  -2.126  1.00 20.00    -0.005 C 
HETATM    4  C3  UNL     1     -34.032  15.533  -3.153  1.00 20.00    -0.031 C 
HETATM    5  C5  UNL     1     -34.720  14.395  -3.833  1.00 20.00     0.036 C 
ENDBRANCH   1   3
BRANCH   2   6
HETATM    6  C6  UNL     1     -31.910  18.806  -1.098  1.00 20.00     0.191 C 
BRANCH   6   7
HETATM    7  O7  UNL     1     -30.643  18.368  -0.626  1.00 20.00    -0.397 OA
HETATM    8  H17 UNL     1     -30.022  18.457  -1.366  1.00 20.00     0.209 HD
ENDBRANCH   6   7
ENDBRANCH   2   6
TORSDOF 3
ENDMDL
MODEL 7
REMARK VINA RESULT:      -3.6     11.086     11.774
REMARK  3 active torsions:
REMARK  status: ('A' for Active; 'I' for Inactive)
REMARK    1  A    between atoms: C1_1  and  C2_2 
REMARK    2  A    between atoms: C4_4  and  C6_6 
REMARK    3  A    between atoms: C6_6  and  O7_7 
ROOT
HETATM    1  C2  UNL     1     -34.082  16.115  -2.546  1.00 20.00    -0.002 C 
HETATM    2  C4  UNL     1     -33.325  15.647  -3.550  1.00 20.00    -0.001 C 
ENDROOT
BRANCH   1   3
HETATM    3  C1  UNL     1     -33.700  17.245  -1.729  1.00 20.00    -0.005 C 
HETATM    4  C3  UNL     1     -32.474  17.787  -1.754  1.00 20.00    -0.031 C 
HETATM    5  C5  UNL     1     -32.065  18.953  -0.915  1.00 20.00     0.036 C 
ENDBRANCH   1   3
BRANCH   2   6
HETATM    6  C6  UNL     1     -33.714  14.481  -4.403  1.00 20.00     0.191 C 
BRANCH   6   7
HETATM    7  O7  UNL     1     -32.927  14.470  -5.586  1.00 20.00    -0.397 OA
HETATM    8  H17 UNL     1     -32.053  14.129  -5.339  1.00 20.00     0.209 HD
ENDBRANCH   6   7
ENDBRANCH   2   6
TORSDOF 3
ENDMDL
MODEL 8
REMARK VINA RESULT:      -3.4      9.168      9.400
REMARK  3 active torsions:
REMARK  status: ('A' for Active; 'I' for Inactive)
REMARK    1  A    between atoms: C1_1  and  C2_2 
REMARK    2  A    between atoms: C4_4  and  C6_6 
REMARK    3  A    between atoms: C6_6  and  O7_7 
ROOT
HETATM    1  C2  UNL     1     -41.445   5.761  -0.898  1.00 20.00    -0.002 C 
HETATM    2  C4  UNL     1     -42.663   5.351  -1.279  1.00 20.00    -0.001 C 
ENDROOT
BRANCH   1   3
HETATM    3  C1  UNL     1     -41.224   6.947  -0.102  1.00 20.00    -0.005 C 
HETATM    4  C3  UNL     1     -41.597   8.173  -0.494  1.00 20.00    -0.031 C 
HETATM    5  C5  UNL     1     -41.374   9.407   0.318  1.00 20.00     0.036 C 
ENDBRANCH   1   3
BRANCH   2   6
HETATM    6  C6  UNL     1     -42.902   4.123  -2.100  1.00 20.00     0.191 C 
BRANCH   6   7
HETATM    7  O7  UNL     1     -41.658   3.543  -2.468  1.00 20.00    -0.397 OA
HETATM    8  H17 UNL     1     -41.849   2.647  -2.787  1.00 20.00     0.209 HD
ENDBRANCH   6   7
ENDBRANCH   2   6
TORSDOF 3
ENDMDL
MODEL 9
REMARK VINA RESULT:      -3.4     16.389     16.973
REMARK  3 active torsions:
REMARK  status: ('A' for Active; 'I' for Inactive)
REMARK    1  A    between atoms: C1_1  and  C2_2 
REMARK    2  A    between atoms: C4_4  and  C6_6 
REMARK    3  A    between atoms: C6_6  and  O7_7 
ROOT
HETATM    1  C2  UNL     1     -23.525  16.774   9.881  1.00 20.00    -0.002 C 
HETATM    2  C4  UNL     1     -22.762  17.679   9.251  1.00 20.00    -0.001 C 
ENDROOT
BRANCH   1   3
HETATM    3  C1  UNL     1     -24.481  17.123  10.907  1.00 20.00    -0.005 C 
HETATM    4  C3  UNL     1     -25.043  18.337  11.003  1.00 20.00    -0.031 C 
HETATM    5  C5  UNL     1     -26.031  18.712  12.058  1.00 20.00     0.036 C 
ENDBRANCH   1   3
BRANCH   2   6
HETATM    6  C6  UNL     1     -21.773  17.327   8.185  1.00 20.00     0.191 C 
BRANCH   6   7
HETATM    7  O7  UNL     1     -22.200  17.861   6.939  1.00 20.00    -0.397 OA
HETATM    8  H17 UNL     1     -22.159  18.827   7.020  1.00 20.00     0.209 HD
ENDBRANCH   6   7
ENDBRANCH   2   6
TORSDOF 3
ENDMDL
