MODEL 1
REMARK VINA RESULT:      -4.4      0.000      0.000
REMARK  2 active torsions:
REMARK  status: ('A' for Active; 'I' for Inactive)
REMARK    1  A    between atoms: C6_6  and  C7_7 
REMARK    2  A    between atoms: C6_6  and  C8_8 
ROOT
HETATM    1  C1  UNL     1     -37.073  14.330  -4.435  1.00 20.00     0.068 C 
HETATM    2  C4  UNL     1     -34.794  13.625  -3.923  1.00 20.00     0.031 C 
HETATM    3  C5  UNL     1     -35.267  14.919  -6.006  1.00 20.00     0.031 C 
HETATM    4  C8  UNL     1     -35.656  14.752  -4.531  1.00 20.00     0.042 C 
HETATM    5  N9  UNL     1     -38.180  13.990  -4.357  1.00 20.00    -0.196 NA
ENDROOT
BRANCH   4   6
HETATM    6  C6  UNL     1     -35.407  16.048  -3.709  1.00 20.00     0.027 C 
BRANCH   6   7
HETATM    7  C7  UNL     1     -34.450  15.979  -2.495  1.00 20.00    -0.021 C 
HETATM    8  C2  UNL     1     -35.128  16.633  -1.282  1.00 20.00     0.009 C 
HETATM    9  C3  UNL     1     -33.099  16.650  -2.733  1.00 20.00     0.009 C 
ENDBRANCH   6   7
ENDBRANCH   4   6
TORSDOF 2
ENDMDL
MODEL 2
REMARK VINA RESULT:      -4.2      1.411      1.981
REMARK  2 active torsions:
REMARK  status: ('A' for Active; 'I' for Inactive)
REMARK    1  A    between atoms: C6_6  and  C7_7 
REMARK    2  A    between atoms: C6_6  and  C8_8 
ROOT
HETATM    1  C1  UNL     1     -35.327  13.833  -4.323  1.00 20.00     0.068 C 
HETATM    2  C4  UNL     1     -33.032  14.662  -4.352  1.00 20.00     0.031 C 
HETATM    3  C5  UNL     1     -34.913  16.158  -5.033  1.00 20.00     0.031 C 
HETATM    4  C8  UNL     1     -34.502  15.037  -4.067  1.00 20.00     0.042 C 
HETATM    5  N9  UNL     1     -35.965  12.886  -4.526  1.00 20.00    -0.196 NA
ENDROOT
BRANCH   4   6
HETATM    6  C6  UNL     1     -34.610  15.478  -2.580  1.00 20.00     0.027 C 
BRANCH   6   7
HETATM    7  C7  UNL     1     -34.580  16.991  -2.255  1.00 20.00    -0.021 C 
HETATM    8  C2  UNL     1     -33.133  17.415  -1.963  1.00 20.00     0.009 C 
HETATM    9  C3  UNL     1     -35.464  17.387  -1.074  1.00 20.00     0.009 C 
ENDBRANCH   6   7
ENDBRANCH   4   6
TORSDOF 2
ENDMDL
MODEL 3
REMARK VINA RESULT:      -4.1     17.987     18.684
REMARK  2 active torsions:
REMARK  status: ('A' for Active; 'I' for Inactive)
REMARK    1  A    between atoms: C6_6  and  C7_7 
REMARK    2  A    between atoms: C6_6  and  C8_8 
ROOT
HETATM    1  C1  UNL     1     -22.093  17.362   8.044  1.00 20.00     0.068 C 
HETATM    2  C4  UNL     1     -21.607  18.180  10.290  1.00 20.00     0.031 C 
HETATM    3  C5  UNL     1     -23.396  19.262   8.923  1.00 20.00     0.031 C 
HETATM    4  C8  UNL     1     -22.727  17.921   9.261  1.00 20.00     0.042 C 
HETATM    5  N9  UNL     1     -21.588  16.926   7.095  1.00 20.00    -0.196 NA
ENDROOT
BRANCH   4   6
HETATM    6  C6  UNL     1     -23.729  16.907   9.880  1.00 20.00     0.027 C 
BRANCH   6   7
HETATM    7  C7  UNL     1     -24.000  16.973  11.402  1.00 20.00    -0.021 C 
HETATM    8  C2  UNL     1     -24.555  15.622  11.874  1.00 20.00     0.009 C 
HETATM    9  C3  UNL     1     -24.968  18.081  11.811  1.00 20.00     0.009 C 
ENDBRANCH   6   7
ENDBRANCH   4   6
TORSDOF 2
ENDMDL
MODEL 4
REMARK VINA RESULT:      -4.1      1.336      1.988
REMARK  2 active torsions:
REMARK  status: ('A' for Active; 'I' for Inactive)
REMARK    1  A    between atoms: C6_6  and  C7_7 
REMARK    2  A    between atoms: C6_6  and  C8_8 
ROOT
HETATM    1  C1  UNL     1     -36.190  13.824  -4.584  1.00 20.00     0.068 C 
HETATM    2  C4  UNL     1     -36.619  15.578  -6.224  1.00 20.00     0.031 C 
HETATM    3  C5  UNL     1     -38.190  15.240  -4.313  1.00 20.00     0.031 C 
HETATM    4  C8  UNL     1     -36.713  15.202  -4.730  1.00 20.00     0.042 C 
HETATM    5  N9  UNL     1     -35.780  12.744  -4.479  1.00 20.00    -0.196 NA
ENDROOT
BRANCH   4   6
HETATM    6  C6  UNL     1     -35.851  16.212  -3.922  1.00 20.00     0.027 C 
BRANCH   6   7
HETATM    7  C7  UNL     1     -34.850  15.658  -2.880  1.00 20.00    -0.021 C 
HETATM    8  C2  UNL     1     -35.089  16.354  -1.532  1.00 20.00     0.009 C 
HETATM    9  C3  UNL     1     -33.385  15.830  -3.277  1.00 20.00     0.009 C 
ENDBRANCH   6   7
ENDBRANCH   4   6
TORSDOF 2
ENDMDL
MODEL 5
REMARK VINA RESULT:      -4.0      0.763      1.680
REMARK  2 active torsions:
REMARK  status: ('A' for Active; 'I' for Inactive)
REMARK    1  A    between atoms: C6_6  and  C7_7 
REMARK    2  A    between atoms: C6_6  and  C8_8 
ROOT
HETATM    1  C1  UNL     1     -37.134  14.524  -4.553  1.00 20.00     0.068 C 
HETATM    2  C4  UNL     1     -35.233  14.683  -6.073  1.00 20.00     0.031 C 
HETATM    3  C5  UNL     1     -36.257  16.755  -5.129  1.00 20.00     0.031 C 
HETATM    4  C8  UNL     1     -35.898  15.295  -4.822  1.00 20.00     0.042 C 
HETATM    5  N9  UNL     1     -38.102  13.916  -4.351  1.00 20.00    -0.196 NA
ENDROOT
BRANCH   4   6
HETATM    6  C6  UNL     1     -34.901  15.174  -3.636  1.00 20.00     0.027 C 
BRANCH   6   7
HETATM    7  C7  UNL     1     -34.535  16.453  -2.845  1.00 20.00    -0.021 C 
HETATM    8  C2  UNL     1     -33.007  16.575  -2.762  1.00 20.00     0.009 C 
HETATM    9  C3  UNL     1     -35.117  16.496  -1.434  1.00 20.00     0.009 C 
ENDBRANCH   6   7
ENDBRANCH   4   6
TORSDOF 2
ENDMDL
MODEL 6
REMARK VINA RESULT:      -3.9      1.882      2.646
REMARK  2 active torsions:
REMARK  status: ('A' for Active; 'I' for Inactive)
REMARK    1  A    between atoms: C6_6  and  C7_7 
REMARK    2  A    between atoms: C6_6  and  C8_8 
ROOT
HETATM    1  C1  UNL     1     -34.456  14.859  -5.664  1.00 20.00     0.068 C 
HETATM    2  C4  UNL     1     -36.276  16.213  -4.764  1.00 20.00     0.031 C 
HETATM    3  C5  UNL     1     -36.335  13.726  -4.538  1.00 20.00     0.031 C 
HETATM    4  C8  UNL     1     -35.412  14.954  -4.536  1.00 20.00     0.042 C 
HETATM    5  N9  UNL     1     -33.712  14.792  -6.551  1.00 20.00    -0.196 NA
ENDROOT
BRANCH   4   6
HETATM    6  C6  UNL     1     -34.662  15.120  -3.185  1.00 20.00     0.027 C 
BRANCH   6   7
HETATM    7  C7  UNL     1     -34.522  16.541  -2.588  1.00 20.00    -0.021 C 
HETATM    8  C2  UNL     1     -33.035  16.920  -2.533  1.00 20.00     0.009 C 
HETATM    9  C3  UNL     1     -35.126  16.688  -1.193  1.00 20.00     0.009 C 
ENDBRANCH   6   7
ENDBRANCH   4   6
TORSDOF 2
ENDMDL
MODEL 7
REMARK VINA RESULT:      -3.9      1.642      3.684
REMARK  2 active torsions:
REMARK  status: ('A' for Active; 'I' for Inactive)
REMARK    1  A    between atoms: C6_6  and  C7_7 
REMARK    2  A    between atoms: C6_6  and  C8_8 
ROOT
HETATM    1  C1  UNL     1     -35.325  13.708  -4.294  1.00 20.00     0.068 C 
HETATM    2  C4  UNL     1     -34.718  15.575  -2.847  1.00 20.00     0.031 C 
HETATM    3  C5  UNL     1     -32.991  14.501  -4.297  1.00 20.00     0.031 C 
HETATM    4  C8  UNL     1     -34.468  14.913  -4.219  1.00 20.00     0.042 C 
HETATM    5  N9  UNL     1     -36.000  12.765  -4.344  1.00 20.00    -0.196 NA
ENDROOT
BRANCH   4   6
HETATM    6  C6  UNL     1     -34.849  15.935  -5.326  1.00 20.00     0.027 C 
BRANCH   6   7
HETATM    7  C7  UNL     1     -35.284  15.396  -6.710  1.00 20.00    -0.021 C 
HETATM    8  C2  UNL     1     -34.090  15.460  -7.673  1.00 20.00     0.009 C 
HETATM    9  C3  UNL     1     -36.462  16.149  -7.325  1.00 20.00     0.009 C 
ENDBRANCH   6   7
ENDBRANCH   4   6
TORSDOF 2
ENDMDL
MODEL 8
REMARK VINA RESULT:      -3.9     10.424     11.534
REMARK  2 active torsions:
REMARK  status: ('A' for Active; 'I' for Inactive)
REMARK    1  A    between atoms: C6_6  and  C7_7 
REMARK    2  A    between atoms: C6_6  and  C8_8 
ROOT
HETATM    1  C1  UNL     1     -32.869   7.919   1.551  1.00 20.00     0.068 C 
HETATM    2  C4  UNL     1     -32.554   5.585   2.187  1.00 20.00     0.031 C 
HETATM    3  C5  UNL     1     -31.477   7.402   3.519  1.00 20.00     0.031 C 
HETATM    4  C8  UNL     1     -32.733   7.021   2.722  1.00 20.00     0.042 C 
HETATM    5  N9  UNL     1     -32.975   8.614   0.629  1.00 20.00    -0.196 NA
ENDROOT
BRANCH   4   6
HETATM    6  C6  UNL     1     -34.015   7.055   3.600  1.00 20.00     0.027 C 
BRANCH   6   7
HETATM    7  C7  UNL     1     -34.154   6.022   4.744  1.00 20.00    -0.021 C 
HETATM    8  C2  UNL     1     -35.434   5.202   4.529  1.00 20.00     0.009 C 
HETATM    9  C3  UNL     1     -34.189   6.645   6.138  1.00 20.00     0.009 C 
ENDBRANCH   6   7
ENDBRANCH   4   6
TORSDOF 2
ENDMDL
MODEL 9
REMARK VINA RESULT:      -3.9      1.929      2.298
REMARK  2 active torsions:
REMARK  status: ('A' for Active; 'I' for Inactive)
REMARK    1  A    between atoms: C6_6  and  C7_7 
REMARK    2  A    between atoms: C6_6  and  C8_8 
ROOT
HETATM    1  C1  UNL     1     -34.403  15.179  -6.085  1.00 20.00     0.068 C 
HETATM    2  C4  UNL     1     -35.275  13.907  -4.194  1.00 20.00     0.031 C 
HETATM    3  C5  UNL     1     -32.827  14.366  -4.373  1.00 20.00     0.031 C 
HETATM    4  C8  UNL     1     -34.223  14.948  -4.632  1.00 20.00     0.042 C 
HETATM    5  N9  UNL     1     -34.551  15.352  -7.222  1.00 20.00    -0.196 NA
ENDROOT
BRANCH   4   6
HETATM    6  C6  UNL     1     -34.471  16.255  -3.828  1.00 20.00     0.027 C 
BRANCH   6   7
HETATM    7  C7  UNL     1     -33.949  16.337  -2.374  1.00 20.00    -0.021 C 
HETATM    8  C2  UNL     1     -35.131  16.587  -1.427  1.00 20.00     0.009 C 
HETATM    9  C3  UNL     1     -32.896  17.421  -2.155  1.00 20.00     0.009 C 
ENDBRANCH   6   7
ENDBRANCH   4   6
TORSDOF 2
ENDMDL
