MODEL 1
REMARK VINA RESULT:      -4.7      0.000      0.000
REMARK  1 active torsions:
REMARK  status: ('A' for Active; 'I' for Inactive)
REMARK    1  A    between atoms: C1_1  and  C3_3 
ROOT
HETATM    1  C2  UNL     1     -24.102  16.624  10.461  1.00 20.00     0.067 A 
HETATM    2  C3  UNL     1     -23.684  17.924   9.804  1.00 20.00     0.083 A 
HETATM    3  C4  UNL     1     -23.711  17.791  11.328  1.00 20.00     0.132 A 
HETATM    4  C5  UNL     1     -24.761  18.715   9.100  1.00 20.00     0.030 C 
HETATM    5 CL8  UNL     1     -22.200  17.650  12.234  1.00 20.00    -0.100 Cl
HETATM    6 CL9  UNL     1     -24.979  18.580  12.267  1.00 20.00    -0.100 Cl
ENDROOT
BRANCH   2   7
HETATM    7  C1  UNL     1     -22.374  17.929   9.160  1.00 20.00     0.184 C 
HETATM    8  O6  UNL     1     -21.854  19.068   9.005  1.00 20.00    -0.647 OA
HETATM    9  O7  UNL     1     -21.936  16.788   8.844  1.00 20.00    -0.647 OA
ENDBRANCH   2   7
TORSDOF 1
ENDMDL
MODEL 2
REMARK VINA RESULT:      -4.4     18.567     19.426
REMARK  1 active torsions:
REMARK  status: ('A' for Active; 'I' for Inactive)
REMARK    1  A    between atoms: C1_1  and  C3_3 
ROOT
HETATM    1  C2  UNL     1     -33.544  14.662  -4.423  1.00 20.00     0.067 A 
HETATM    2  C3  UNL     1     -34.980  14.791  -3.958  1.00 20.00     0.083 A 
HETATM    3  C4  UNL     1     -34.501  15.503  -5.224  1.00 20.00     0.132 A 
HETATM    4  C5  UNL     1     -35.225  15.584  -2.696  1.00 20.00     0.030 C 
HETATM    5 CL8  UNL     1     -34.969  14.895  -6.816  1.00 20.00    -0.100 Cl
HETATM    6 CL9  UNL     1     -34.259  17.251  -5.223  1.00 20.00    -0.100 Cl
ENDROOT
BRANCH   2   7
HETATM    7  C1  UNL     1     -35.823  13.612  -4.136  1.00 20.00     0.184 C 
HETATM    8  O6  UNL     1     -37.057  13.847  -4.263  1.00 20.00    -0.647 OA
HETATM    9  O7  UNL     1     -35.203  12.513  -4.141  1.00 20.00    -0.647 OA
ENDBRANCH   2   7
TORSDOF 1
ENDMDL
MODEL 3
REMARK VINA RESULT:      -4.4     18.588     19.464
REMARK  1 active torsions:
REMARK  status: ('A' for Active; 'I' for Inactive)
REMARK    1  A    between atoms: C1_1  and  C3_3 
ROOT
HETATM    1  C2  UNL     1     -33.568  14.641  -4.432  1.00 20.00     0.067 A 
HETATM    2  C3  UNL     1     -35.003  14.778  -3.964  1.00 20.00     0.083 A 
HETATM    3  C4  UNL     1     -34.520  15.494  -5.226  1.00 20.00     0.132 A 
HETATM    4  C5  UNL     1     -35.239  15.567  -2.697  1.00 20.00     0.030 C 
HETATM    5 CL8  UNL     1     -34.996  14.899  -6.822  1.00 20.00    -0.100 Cl
HETATM    6 CL9  UNL     1     -34.265  17.239  -5.217  1.00 20.00    -0.100 Cl
ENDROOT
BRANCH   2   7
HETATM    7  C1  UNL     1     -35.855  13.608  -4.147  1.00 20.00     0.184 C 
HETATM    8  O6  UNL     1     -35.252  12.499  -4.168  1.00 20.00    -0.647 OA
HETATM    9  O7  UNL     1     -37.087  13.862  -4.261  1.00 20.00    -0.647 OA
ENDBRANCH   2   7
TORSDOF 1
ENDMDL
MODEL 4
REMARK VINA RESULT:      -4.4     19.021     19.932
REMARK  1 active torsions:
REMARK  status: ('A' for Active; 'I' for Inactive)
REMARK    1  A    between atoms: C1_1  and  C3_3 
ROOT
HETATM    1  C2  UNL     1     -36.695  16.211  -4.801  1.00 20.00     0.067 A 
HETATM    2  C3  UNL     1     -36.044  14.912  -5.229  1.00 20.00     0.083 A 
HETATM    3  C4  UNL     1     -35.321  15.876  -4.288  1.00 20.00     0.132 A 
HETATM    4  C5  UNL     1     -35.611  14.804  -6.673  1.00 20.00     0.030 C 
HETATM    5 CL8  UNL     1     -35.174  15.494  -2.568  1.00 20.00    -0.100 Cl
HETATM    6 CL9  UNL     1     -33.966  16.842  -4.873  1.00 20.00    -0.100 Cl
ENDROOT
BRANCH   2   7
HETATM    7  C1  UNL     1     -36.591  13.692  -4.642  1.00 20.00     0.184 C 
HETATM    8  O6  UNL     1     -35.775  12.735  -4.530  1.00 20.00    -0.647 OA
HETATM    9  O7  UNL     1     -37.811  13.759  -4.323  1.00 20.00    -0.647 OA
ENDBRANCH   2   7
TORSDOF 1
ENDMDL
MODEL 5
REMARK VINA RESULT:      -4.3     18.987     19.887
REMARK  1 active torsions:
REMARK  status: ('A' for Active; 'I' for Inactive)
REMARK    1  A    between atoms: C1_1  and  C3_3 
ROOT
HETATM    1  C2  UNL     1     -36.637  16.201  -4.828  1.00 20.00     0.067 A 
HETATM    2  C3  UNL     1     -35.985  14.890  -5.219  1.00 20.00     0.083 A 
HETATM    3  C4  UNL     1     -35.287  15.856  -4.259  1.00 20.00     0.132 A 
HETATM    4  C5  UNL     1     -35.497  14.764  -6.643  1.00 20.00     0.030 C 
HETATM    5 CL8  UNL     1     -35.211  15.490  -2.531  1.00 20.00    -0.100 Cl
HETATM    6 CL9  UNL     1     -33.900  16.801  -4.801  1.00 20.00    -0.100 Cl
ENDROOT
BRANCH   2   7
HETATM    7  C1  UNL     1     -36.567  13.683  -4.641  1.00 20.00     0.184 C 
HETATM    8  O6  UNL     1     -37.794  13.760  -4.355  1.00 20.00    -0.647 OA
HETATM    9  O7  UNL     1     -35.762  12.719  -4.506  1.00 20.00    -0.647 OA
ENDBRANCH   2   7
TORSDOF 1
ENDMDL
MODEL 6
REMARK VINA RESULT:      -4.0     18.592     19.356
REMARK  1 active torsions:
REMARK  status: ('A' for Active; 'I' for Inactive)
REMARK    1  A    between atoms: C1_1  and  C3_3 
ROOT
HETATM    1  C2  UNL     1     -35.250  15.010  -3.038  1.00 20.00     0.067 A 
HETATM    2  C3  UNL     1     -35.709  15.118  -4.478  1.00 20.00     0.083 A 
HETATM    3  C4  UNL     1     -34.277  15.485  -4.084  1.00 20.00     0.132 A 
HETATM    4  C5  UNL     1     -36.702  16.209  -4.802  1.00 20.00     0.030 C 
HETATM    5 CL8  UNL     1     -32.940  14.402  -4.490  1.00 20.00    -0.100 Cl
HETATM    6 CL9  UNL     1     -33.774  17.175  -4.034  1.00 20.00    -0.100 Cl
ENDROOT
BRANCH   2   7
HETATM    7  C1  UNL     1     -35.902  13.858  -5.189  1.00 20.00     0.184 C 
HETATM    8  O6  UNL     1     -35.954  13.951  -6.447  1.00 20.00    -0.647 OA
HETATM    9  O7  UNL     1     -35.990  12.840  -4.447  1.00 20.00    -0.647 OA
ENDBRANCH   2   7
TORSDOF 1
ENDMDL
MODEL 7
REMARK VINA RESULT:      -3.8     18.458     19.378
REMARK  1 active torsions:
REMARK  status: ('A' for Active; 'I' for Inactive)
REMARK    1  A    between atoms: C1_1  and  C3_3 
ROOT
HETATM    1  C2  UNL     1     -34.787  16.241  -5.077  1.00 20.00     0.067 A 
HETATM    2  C3  UNL     1     -34.801  14.800  -4.608  1.00 20.00     0.083 A 
HETATM    3  C4  UNL     1     -35.351  15.918  -3.720  1.00 20.00     0.132 A 
HETATM    4  C5  UNL     1     -33.466  14.171  -4.283  1.00 20.00     0.030 C 
HETATM    5 CL8  UNL     1     -37.096  16.106  -3.508  1.00 20.00    -0.100 Cl
HETATM    6 CL9  UNL     1     -34.447  16.455  -2.303  1.00 20.00    -0.100 Cl
ENDROOT
BRANCH   2   7
HETATM    7  C1  UNL     1     -35.773  13.923  -5.252  1.00 20.00     0.184 C 
HETATM    8  O6  UNL     1     -36.229  14.339  -6.353  1.00 20.00    -0.647 OA
HETATM    9  O7  UNL     1     -36.028  12.860  -4.619  1.00 20.00    -0.647 OA
ENDBRANCH   2   7
TORSDOF 1
ENDMDL
MODEL 8
REMARK VINA RESULT:      -3.7     18.248     19.072
REMARK  1 active torsions:
REMARK  status: ('A' for Active; 'I' for Inactive)
REMARK    1  A    between atoms: C1_1  and  C3_3 
ROOT
HETATM    1  C2  UNL     1     -33.264  14.743  -4.138  1.00 20.00     0.067 A 
HETATM    2  C3  UNL     1     -34.654  14.692  -4.738  1.00 20.00     0.083 A 
HETATM    3  C4  UNL     1     -34.243  15.839  -3.813  1.00 20.00     0.132 A 
HETATM    4  C5  UNL     1     -35.583  13.614  -4.232  1.00 20.00     0.030 C 
HETATM    5 CL8  UNL     1     -33.908  17.442  -4.479  1.00 20.00    -0.100 Cl
HETATM    6 CL9  UNL     1     -34.869  15.920  -2.166  1.00 20.00    -0.100 Cl
ENDROOT
BRANCH   2   7
HETATM    7  C1  UNL     1     -34.752  14.991  -6.164  1.00 20.00     0.184 C 
HETATM    8  O6  UNL     1     -35.867  15.445  -6.544  1.00 20.00    -0.647 OA
HETATM    9  O7  UNL     1     -33.704  14.755  -6.827  1.00 20.00    -0.647 OA
ENDBRANCH   2   7
TORSDOF 1
ENDMDL
MODEL 9
REMARK VINA RESULT:      -3.6     19.030     19.984
REMARK  1 active torsions:
REMARK  status: ('A' for Active; 'I' for Inactive)
REMARK    1  A    between atoms: C1_1  and  C3_3 
ROOT
HETATM    1  C2  UNL     1     -35.683  16.329  -5.291  1.00 20.00     0.067 A 
HETATM    2  C3  UNL     1     -35.535  15.049  -4.494  1.00 20.00     0.083 A 
HETATM    3  C4  UNL     1     -36.673  16.027  -4.198  1.00 20.00     0.132 A 
HETATM    4  C5  UNL     1     -34.357  14.959  -3.552  1.00 20.00     0.030 C 
HETATM    5 CL8  UNL     1     -38.326  15.642  -4.693  1.00 20.00    -0.100 Cl
HETATM    6 CL9  UNL     1     -36.629  17.030  -2.747  1.00 20.00    -0.100 Cl
ENDROOT
BRANCH   2   7
HETATM    7  C1  UNL     1     -35.883  13.814  -5.189  1.00 20.00     0.184 C 
HETATM    8  O6  UNL     1     -36.018  12.799  -4.450  1.00 20.00    -0.647 OA
HETATM    9  O7  UNL     1     -36.003  13.926  -6.441  1.00 20.00    -0.647 OA
ENDBRANCH   2   7
TORSDOF 1
ENDMDL
