MODEL 1
REMARK VINA RESULT:      -3.4      0.000      0.000
REMARK  3 active torsions:
REMARK  status: ('A' for Active; 'I' for Inactive)
REMARK    1  A    between atoms: C3_3  and  C4_4 
REMARK    2  A    between atoms: C3_3  and  N5_5 
REMARK    3  A    between atoms: C4_4  and  O6_6 
ROOT
HETATM    1  C1  UNL     1     -33.116   5.720   2.632  1.00 20.00     0.157 C 
HETATM    2  N5  UNL     1     -33.628   4.663   2.646  1.00 20.00    -0.273 NA
HETATM    3  S7  UNL     1     -32.417   7.151   2.581  1.00 20.00    -0.055 SA
ENDROOT
BRANCH   2   4
HETATM    4  C3  UNL     1     -34.131   4.241   3.955  1.00 20.00     0.176 C 
BRANCH   4   5
HETATM    5  C4  UNL     1     -35.157   5.247   4.443  1.00 20.00     0.189 C 
BRANCH   5   6
HETATM    6  O6  UNL     1     -34.946   5.502   5.825  1.00 20.00    -0.394 OA
HETATM    7  C2  UNL     1     -34.079   6.610   6.024  1.00 20.00     0.201 C 
ENDBRANCH   5   6
ENDBRANCH   4   5
ENDBRANCH   2   4
TORSDOF 3
ENDMDL
MODEL 2
REMARK VINA RESULT:      -3.2      1.905      2.274
REMARK  3 active torsions:
REMARK  status: ('A' for Active; 'I' for Inactive)
REMARK    1  A    between atoms: C3_3  and  C4_4 
REMARK    2  A    between atoms: C3_3  and  N5_5 
REMARK    3  A    between atoms: C4_4  and  O6_6 
ROOT
HETATM    1  C1  UNL     1     -32.590   7.666   1.800  1.00 20.00     0.157 C 
HETATM    2  N5  UNL     1     -32.324   6.904   2.654  1.00 20.00    -0.273 NA
HETATM    3  S7  UNL     1     -32.919   8.700   0.634  1.00 20.00    -0.055 SA
ENDROOT
BRANCH   2   4
HETATM    4  C3  UNL     1     -33.476   6.386   3.396  1.00 20.00     0.176 C 
BRANCH   4   5
HETATM    5  C4  UNL     1     -33.693   4.930   3.025  1.00 20.00     0.189 C 
BRANCH   5   6
HETATM    6  O6  UNL     1     -34.495   4.306   4.018  1.00 20.00    -0.394 OA
HETATM    7  C2  UNL     1     -34.981   5.248   4.964  1.00 20.00     0.201 C 
ENDBRANCH   5   6
ENDBRANCH   4   5
ENDBRANCH   2   4
TORSDOF 3
ENDMDL
MODEL 3
REMARK VINA RESULT:      -3.1     12.369     12.845
REMARK  3 active torsions:
REMARK  status: ('A' for Active; 'I' for Inactive)
REMARK    1  A    between atoms: C3_3  and  C4_4 
REMARK    2  A    between atoms: C3_3  and  N5_5 
REMARK    3  A    between atoms: C4_4  and  O6_6 
ROOT
HETATM    1  C1  UNL     1     -33.926  15.154  -4.771  1.00 20.00     0.157 C 
HETATM    2  N5  UNL     1     -34.318  14.575  -5.714  1.00 20.00    -0.273 NA
HETATM    3  S7  UNL     1     -33.365  15.937  -3.502  1.00 20.00    -0.055 SA
ENDROOT
BRANCH   2   4
HETATM    4  C3  UNL     1     -35.772  14.408  -5.775  1.00 20.00     0.176 C 
BRANCH   4   5
HETATM    5  C4  UNL     1     -36.233  13.613  -4.567  1.00 20.00     0.189 C 
BRANCH   5   6
HETATM    6  O6  UNL     1     -37.648  13.689  -4.466  1.00 20.00    -0.394 OA
HETATM    7  C2  UNL     1     -38.087  15.030  -4.299  1.00 20.00     0.201 C 
ENDBRANCH   5   6
ENDBRANCH   4   5
ENDBRANCH   2   4
TORSDOF 3
ENDMDL
MODEL 4
REMARK VINA RESULT:      -3.0     12.804     13.314
REMARK  3 active torsions:
REMARK  status: ('A' for Active; 'I' for Inactive)
REMARK    1  A    between atoms: C3_3  and  C4_4 
REMARK    2  A    between atoms: C3_3  and  N5_5 
REMARK    3  A    between atoms: C4_4  and  O6_6 
ROOT
HETATM    1  C1  UNL     1     -35.425  14.912  -6.394  1.00 20.00     0.157 C 
HETATM    2  N5  UNL     1     -35.956  13.897  -6.132  1.00 20.00    -0.273 NA
HETATM    3  S7  UNL     1     -34.710  16.282  -6.779  1.00 20.00    -0.055 SA
ENDROOT
BRANCH   2   4
HETATM    4  C3  UNL     1     -36.103  13.631  -4.700  1.00 20.00     0.176 C 
BRANCH   4   5
HETATM    5  C4  UNL     1     -37.159  14.558  -4.127  1.00 20.00     0.189 C 
BRANCH   5   6
HETATM    6  O6  UNL     1     -38.447  14.002  -4.354  1.00 20.00    -0.394 OA
HETATM    7  C2  UNL     1     -39.458  15.000  -4.322  1.00 20.00     0.201 C 
ENDBRANCH   5   6
ENDBRANCH   4   5
ENDBRANCH   2   4
TORSDOF 3
ENDMDL
MODEL 5
REMARK VINA RESULT:      -3.0     16.412     16.809
REMARK  3 active torsions:
REMARK  status: ('A' for Active; 'I' for Inactive)
REMARK    1  A    between atoms: C3_3  and  C4_4 
REMARK    2  A    between atoms: C3_3  and  N5_5 
REMARK    3  A    between atoms: C4_4  and  O6_6 
ROOT
HETATM    1  C1  UNL     1     -25.385  19.246   5.519  1.00 20.00     0.157 C 
HETATM    2  N5  UNL     1     -24.430  19.235   6.201  1.00 20.00    -0.273 NA
HETATM    3  S7  UNL     1     -26.663  19.263   4.567  1.00 20.00    -0.055 SA
ENDROOT
BRANCH   2   4
HETATM    4  C3  UNL     1     -24.699  19.095   7.634  1.00 20.00     0.176 C 
BRANCH   4   5
HETATM    5  C4  UNL     1     -23.497  18.457   8.307  1.00 20.00     0.189 C 
BRANCH   5   6
HETATM    6  O6  UNL     1     -22.620  17.941   7.315  1.00 20.00    -0.394 OA
HETATM    7  C2  UNL     1     -21.498  17.294   7.897  1.00 20.00     0.201 C 
ENDBRANCH   5   6
ENDBRANCH   4   5
ENDBRANCH   2   4
TORSDOF 3
ENDMDL
MODEL 6
REMARK VINA RESULT:      -3.0      2.924      3.725
REMARK  3 active torsions:
REMARK  status: ('A' for Active; 'I' for Inactive)
REMARK    1  A    between atoms: C3_3  and  C4_4 
REMARK    2  A    between atoms: C3_3  and  N5_5 
REMARK    3  A    between atoms: C4_4  and  O6_6 
ROOT
HETATM    1  C1  UNL     1     -34.526   5.201   4.378  1.00 20.00     0.157 C 
HETATM    2  N5  UNL     1     -34.402   4.993   3.229  1.00 20.00    -0.273 NA
HETATM    3  S7  UNL     1     -34.723   5.469   5.936  1.00 20.00    -0.055 SA
ENDROOT
BRANCH   2   4
HETATM    4  C3  UNL     1     -33.094   5.353   2.676  1.00 20.00     0.176 C 
BRANCH   4   5
HETATM    5  C4  UNL     1     -32.871   6.844   2.855  1.00 20.00     0.189 C 
BRANCH   5   6
HETATM    6  O6  UNL     1     -32.125   7.343   1.753  1.00 20.00    -0.394 OA
HETATM    7  C2  UNL     1     -32.832   8.367   1.067  1.00 20.00     0.201 C 
ENDBRANCH   5   6
ENDBRANCH   4   5
ENDBRANCH   2   4
TORSDOF 3
ENDMDL
MODEL 7
REMARK VINA RESULT:      -2.9     12.813     13.259
REMARK  3 active torsions:
REMARK  status: ('A' for Active; 'I' for Inactive)
REMARK    1  A    between atoms: C3_3  and  C4_4 
REMARK    2  A    between atoms: C3_3  and  N5_5 
REMARK    3  A    between atoms: C4_4  and  O6_6 
ROOT
HETATM    1  C1  UNL     1     -38.015  14.913  -4.285  1.00 20.00     0.157 C 
HETATM    2  N5  UNL     1     -37.642  13.810  -4.443  1.00 20.00    -0.273 NA
HETATM    3  S7  UNL     1     -38.551  16.397  -4.068  1.00 20.00    -0.055 SA
ENDROOT
BRANCH   2   4
HETATM    4  C3  UNL     1     -36.194  13.669  -4.615  1.00 20.00     0.176 C 
BRANCH   4   5
HETATM    5  C4  UNL     1     -35.760  14.449  -5.843  1.00 20.00     0.189 C 
BRANCH   5   6
HETATM    6  O6  UNL     1     -34.342  14.442  -5.928  1.00 20.00    -0.394 OA
HETATM    7  C2  UNL     1     -33.743  14.756  -4.678  1.00 20.00     0.201 C 
ENDBRANCH   5   6
ENDBRANCH   4   5
ENDBRANCH   2   4
TORSDOF 3
ENDMDL
MODEL 8
REMARK VINA RESULT:      -2.9     12.191     12.564
REMARK  3 active torsions:
REMARK  status: ('A' for Active; 'I' for Inactive)
REMARK    1  A    between atoms: C3_3  and  C4_4 
REMARK    2  A    between atoms: C3_3  and  N5_5 
REMARK    3  A    between atoms: C4_4  and  O6_6 
ROOT
HETATM    1  C1  UNL     1     -34.834  15.899  -2.355  1.00 20.00     0.157 C 
HETATM    2  N5  UNL     1     -34.743  15.058  -3.169  1.00 20.00    -0.273 NA
HETATM    3  S7  UNL     1     -34.931  17.029  -1.236  1.00 20.00    -0.055 SA
ENDROOT
BRANCH   2   4
HETATM    4  C3  UNL     1     -35.765  15.104  -4.217  1.00 20.00     0.176 C 
BRANCH   4   5
HETATM    5  C4  UNL     1     -36.230  13.692  -4.522  1.00 20.00     0.189 C 
BRANCH   5   6
HETATM    6  O6  UNL     1     -37.647  13.634  -4.439  1.00 20.00    -0.394 OA
HETATM    7  C2  UNL     1     -38.214  14.929  -4.297  1.00 20.00     0.201 C 
ENDBRANCH   5   6
ENDBRANCH   4   5
ENDBRANCH   2   4
TORSDOF 3
ENDMDL
MODEL 9
REMARK VINA RESULT:      -2.8     12.546     12.875
REMARK  3 active torsions:
REMARK  status: ('A' for Active; 'I' for Inactive)
REMARK    1  A    between atoms: C3_3  and  C4_4 
REMARK    2  A    between atoms: C3_3  and  N5_5 
REMARK    3  A    between atoms: C4_4  and  O6_6 
ROOT
HETATM    1  C1  UNL     1     -33.910  16.033  -2.837  1.00 20.00     0.157 C 
HETATM    2  N5  UNL     1     -33.093  15.699  -3.612  1.00 20.00    -0.273 NA
HETATM    3  S7  UNL     1     -35.000  16.509  -1.777  1.00 20.00    -0.055 SA
ENDROOT
BRANCH   2   4
HETATM    4  C3  UNL     1     -33.463  14.548  -4.439  1.00 20.00     0.176 C 
BRANCH   4   5
HETATM    5  C4  UNL     1     -34.415  15.004  -5.531  1.00 20.00     0.189 C 
BRANCH   5   6
HETATM    6  O6  UNL     1     -35.368  13.980  -5.781  1.00 20.00    -0.394 OA
HETATM    7  C2  UNL     1     -36.211  13.767  -4.657  1.00 20.00     0.201 C 
ENDBRANCH   5   6
ENDBRANCH   4   5
ENDBRANCH   2   4
TORSDOF 3
ENDMDL
