MODEL 1
REMARK VINA RESULT:      -4.8      0.000      0.000
REMARK  1 active torsions:
REMARK  status: ('A' for Active; 'I' for Inactive)
REMARK    1  A    between atoms: C1_1  and  C7_7 
ROOT
HETATM    1  C2  UNL     1     -26.218  17.218  12.300  1.00 20.00     0.000 C 
HETATM    2  C3  UNL     1     -25.160  16.119  12.297  1.00 20.00     0.001 C 
HETATM    3  C4  UNL     1     -25.614  18.575  11.959  1.00 20.00     0.001 C 
HETATM    4  C5  UNL     1     -24.407  16.063  10.967  1.00 20.00     0.018 C 
HETATM    5  C6  UNL     1     -24.866  18.544  10.626  1.00 20.00     0.018 C 
HETATM    6  C7  UNL     1     -23.829  17.420  10.553  1.00 20.00     0.032 C 
HETATM    7  C8  UNL     1     -22.639  17.763  11.448  1.00 20.00     0.025 C 
ENDROOT
BRANCH   6   8
HETATM    8  C1  UNL     1     -23.195  17.346   9.164  1.00 20.00     0.227 C 
HETATM    9  O9  UNL     1     -22.386  16.472   8.869  1.00 20.00    -0.279 OA
HETATM   10 CL10 UNL     1     -23.758  18.616   8.120  1.00 20.00    -0.043 Cl
ENDBRANCH   6   8
TORSDOF 1
ENDMDL
MODEL 2
REMARK VINA RESULT:      -4.8     17.923     18.601
REMARK  1 active torsions:
REMARK  status: ('A' for Active; 'I' for Inactive)
REMARK    1  A    between atoms: C1_1  and  C7_7 
ROOT
HETATM    1  C2  UNL     1     -33.337  16.444  -2.564  1.00 20.00     0.000 C 
HETATM    2  C3  UNL     1     -32.914  15.628  -3.781  1.00 20.00     0.001 C 
HETATM    3  C4  UNL     1     -34.743  17.007  -2.731  1.00 20.00     0.001 C 
HETATM    4  C5  UNL     1     -33.915  14.512  -4.087  1.00 20.00     0.018 C 
HETATM    5  C6  UNL     1     -35.762  15.906  -3.027  1.00 20.00     0.018 C 
HETATM    6  C7  UNL     1     -35.354  15.022  -4.208  1.00 20.00     0.032 C 
HETATM    7  C8  UNL     1     -35.513  15.804  -5.512  1.00 20.00     0.025 C 
ENDROOT
BRANCH   6   8
HETATM    8  C1  UNL     1     -36.334  13.863  -4.391  1.00 20.00     0.227 C 
HETATM    9  O9  UNL     1     -35.947  12.712  -4.569  1.00 20.00    -0.279 OA
HETATM   10 CL10 UNL     1     -37.990  14.387  -4.315  1.00 20.00    -0.043 Cl
ENDBRANCH   6   8
TORSDOF 1
ENDMDL
MODEL 3
REMARK VINA RESULT:      -4.6     16.846     17.513
REMARK  1 active torsions:
REMARK  status: ('A' for Active; 'I' for Inactive)
REMARK    1  A    between atoms: C1_1  and  C7_7 
ROOT
HETATM    1  C2  UNL     1     -33.621  17.456  -1.471  1.00 20.00     0.000 C 
HETATM    2  C3  UNL     1     -32.870  17.370  -2.795  1.00 20.00     0.001 C 
HETATM    3  C4  UNL     1     -35.089  17.079  -1.636  1.00 20.00     0.001 C 
HETATM    4  C5  UNL     1     -33.009  15.988  -3.435  1.00 20.00     0.018 C 
HETATM    5  C6  UNL     1     -35.250  15.694  -2.264  1.00 20.00     0.018 C 
HETATM    6  C7  UNL     1     -34.467  15.540  -3.571  1.00 20.00     0.032 C 
HETATM    7  C8  UNL     1     -35.149  16.346  -4.675  1.00 20.00     0.025 C 
ENDROOT
BRANCH   6   8
HETATM    8  C1  UNL     1     -34.555  14.108  -4.099  1.00 20.00     0.227 C 
HETATM    9  O9  UNL     1     -33.555  13.414  -4.254  1.00 20.00    -0.279 OA
HETATM   10 CL10 UNL     1     -36.193  13.632  -4.429  1.00 20.00    -0.043 Cl
ENDBRANCH   6   8
TORSDOF 1
ENDMDL
MODEL 4
REMARK VINA RESULT:      -4.6     17.849     18.520
REMARK  1 active torsions:
REMARK  status: ('A' for Active; 'I' for Inactive)
REMARK    1  A    between atoms: C1_1  and  C7_7 
ROOT
HETATM    1  C2  UNL     1     -34.278  17.721  -3.269  1.00 20.00     0.000 C 
HETATM    2  C3  UNL     1     -34.061  16.558  -2.306  1.00 20.00     0.001 C 
HETATM    3  C4  UNL     1     -34.173  17.270  -4.721  1.00 20.00     0.001 C 
HETATM    4  C5  UNL     1     -35.023  15.403  -2.589  1.00 20.00     0.018 C 
HETATM    5  C6  UNL     1     -35.135  16.122  -5.029  1.00 20.00     0.018 C 
HETATM    6  C7  UNL     1     -34.994  14.951  -4.052  1.00 20.00     0.032 C 
HETATM    7  C8  UNL     1     -33.690  14.205  -4.332  1.00 20.00     0.025 C 
ENDROOT
BRANCH   6   8
HETATM    8  C1  UNL     1     -36.055  13.883  -4.318  1.00 20.00     0.227 C 
HETATM    9  O9  UNL     1     -35.755  12.709  -4.511  1.00 20.00    -0.279 OA
HETATM   10 CL10 UNL     1     -37.663  14.541  -4.306  1.00 20.00    -0.043 Cl
ENDBRANCH   6   8
TORSDOF 1
ENDMDL
MODEL 5
REMARK VINA RESULT:      -4.4      2.315      3.745
REMARK  1 active torsions:
REMARK  status: ('A' for Active; 'I' for Inactive)
REMARK    1  A    between atoms: C1_1  and  C7_7 
ROOT
HETATM    1  C2  UNL     1     -23.195  18.121   8.191  1.00 20.00     0.000 C 
HETATM    2  C3  UNL     1     -23.758  19.227   9.076  1.00 20.00     0.001 C 
HETATM    3  C4  UNL     1     -22.561  17.010   9.021  1.00 20.00     0.001 C 
HETATM    4  C5  UNL     1     -24.751  18.679  10.102  1.00 20.00     0.018 C 
HETATM    5  C6  UNL     1     -23.542  16.440  10.046  1.00 20.00     0.018 C 
HETATM    6  C7  UNL     1     -24.178  17.521  10.924  1.00 20.00     0.032 C 
HETATM    7  C8  UNL     1     -23.140  18.057  11.909  1.00 20.00     0.025 C 
ENDROOT
BRANCH   6   8
HETATM    8  C1  UNL     1     -25.240  16.924  11.848  1.00 20.00     0.227 C 
HETATM    9  O9  UNL     1     -25.178  15.762  12.237  1.00 20.00    -0.279 OA
HETATM   10 CL10 UNL     1     -26.482  18.074  12.245  1.00 20.00    -0.043 Cl
ENDBRANCH   6   8
TORSDOF 1
ENDMDL
MODEL 6
REMARK VINA RESULT:      -4.4     16.827     17.485
REMARK  1 active torsions:
REMARK  status: ('A' for Active; 'I' for Inactive)
REMARK    1  A    between atoms: C1_1  and  C7_7 
ROOT
HETATM    1  C2  UNL     1     -33.993  17.197  -1.213  1.00 20.00     0.000 C 
HETATM    2  C3  UNL     1     -33.043  17.519  -2.361  1.00 20.00     0.001 C 
HETATM    3  C4  UNL     1     -35.343  16.711  -1.724  1.00 20.00     0.001 C 
HETATM    4  C5  UNL     1     -32.871  16.326  -3.303  1.00 20.00     0.018 C 
HETATM    5  C6  UNL     1     -35.195  15.510  -2.660  1.00 20.00     0.018 C 
HETATM    6  C7  UNL     1     -34.207  15.765  -3.801  1.00 20.00     0.032 C 
HETATM    7  C8  UNL     1     -34.826  16.734  -4.807  1.00 20.00     0.025 C 
ENDROOT
BRANCH   6   8
HETATM    8  C1  UNL     1     -33.995  14.503  -4.637  1.00 20.00     0.227 C 
HETATM    9  O9  UNL     1     -33.961  13.388  -4.126  1.00 20.00    -0.279 OA
HETATM   10 CL10 UNL     1     -33.820  14.861  -6.329  1.00 20.00    -0.043 Cl
ENDBRANCH   6   8
TORSDOF 1
ENDMDL
MODEL 7
REMARK VINA RESULT:      -4.4     18.061     18.725
REMARK  1 active torsions:
REMARK  status: ('A' for Active; 'I' for Inactive)
REMARK    1  A    between atoms: C1_1  and  C7_7 
ROOT
HETATM    1  C2  UNL     1     -33.750  16.683  -2.453  1.00 20.00     0.000 C 
HETATM    2  C3  UNL     1     -35.066  16.026  -2.052  1.00 20.00     0.001 C 
HETATM    3  C4  UNL     1     -33.009  15.858  -3.498  1.00 20.00     0.001 C 
HETATM    4  C5  UNL     1     -35.956  15.758  -3.266  1.00 20.00     0.018 C 
HETATM    5  C6  UNL     1     -33.878  15.588  -4.727  1.00 20.00     0.018 C 
HETATM    6  C7  UNL     1     -35.237  14.978  -4.371  1.00 20.00     0.032 C 
HETATM    7  C8  UNL     1     -35.047  13.527  -3.931  1.00 20.00     0.025 C 
ENDROOT
BRANCH   6   8
HETATM    8  C1  UNL     1     -36.120  14.840  -5.611  1.00 20.00     0.227 C 
HETATM    9  O9  UNL     1     -35.954  13.936  -6.424  1.00 20.00    -0.279 OA
HETATM   10 CL10 UNL     1     -37.329  16.086  -5.695  1.00 20.00    -0.043 Cl
ENDBRANCH   6   8
TORSDOF 1
ENDMDL
MODEL 8
REMARK VINA RESULT:      -4.2     16.179     16.916
REMARK  1 active torsions:
REMARK  status: ('A' for Active; 'I' for Inactive)
REMARK    1  A    between atoms: C1_1  and  C7_7 
ROOT
HETATM    1  C2  UNL     1     -34.764  14.191  -3.894  1.00 20.00     0.000 C 
HETATM    2  C3  UNL     1     -35.788  15.168  -3.327  1.00 20.00     0.001 C 
HETATM    3  C4  UNL     1     -33.542  14.919  -4.442  1.00 20.00     0.001 C 
HETATM    4  C5  UNL     1     -35.172  16.077  -2.262  1.00 20.00     0.018 C 
HETATM    5  C6  UNL     1     -32.904  15.825  -3.389  1.00 20.00     0.018 C 
HETATM    6  C7  UNL     1     -33.906  16.789  -2.749  1.00 20.00     0.032 C 
HETATM    7  C8  UNL     1     -34.285  17.876  -3.753  1.00 20.00     0.025 C 
ENDROOT
BRANCH   6   8
HETATM    8  C1  UNL     1     -33.256  17.587  -1.619  1.00 20.00     0.227 C 
HETATM    9  O9  UNL     1     -32.137  18.075  -1.734  1.00 20.00    -0.279 OA
HETATM   10 CL10 UNL     1     -34.283  17.697  -0.221  1.00 20.00    -0.043 Cl
ENDBRANCH   6   8
TORSDOF 1
ENDMDL
MODEL 9
REMARK VINA RESULT:      -4.2     18.192     18.761
REMARK  1 active torsions:
REMARK  status: ('A' for Active; 'I' for Inactive)
REMARK    1  A    between atoms: C1_1  and  C7_7 
ROOT
HETATM    1  C2  UNL     1     -35.253  16.645  -1.757  1.00 20.00     0.000 C 
HETATM    2  C3  UNL     1     -34.006  16.108  -2.450  1.00 20.00     0.001 C 
HETATM    3  C4  UNL     1     -36.320  17.052  -2.767  1.00 20.00     0.001 C 
HETATM    4  C5  UNL     1     -34.337  14.948  -3.390  1.00 20.00     0.018 C 
HETATM    5  C6  UNL     1     -36.675  15.902  -3.710  1.00 20.00     0.018 C 
HETATM    6  C7  UNL     1     -35.447  15.291  -4.389  1.00 20.00     0.032 C 
HETATM    7  C8  UNL     1     -34.907  16.259  -5.440  1.00 20.00     0.025 C 
ENDROOT
BRANCH   6   8
HETATM    8  C1  UNL     1     -35.831  14.070  -5.224  1.00 20.00     0.227 C 
HETATM    9  O9  UNL     1     -36.084  12.987  -4.706  1.00 20.00    -0.279 OA
HETATM   10 CL10 UNL     1     -35.856  14.422  -6.926  1.00 20.00    -0.043 Cl
ENDBRANCH   6   8
TORSDOF 1
ENDMDL
