MODEL 1
REMARK VINA RESULT:      -4.1      0.000      0.000
REMARK  1 active torsions:
REMARK  status: ('A' for Active; 'I' for Inactive)
REMARK    1  A    between atoms: C6_6  and  C8_8 
ROOT
HETATM    1  C1  UNL     1     -23.263  18.115   8.277  1.00 20.00     0.000 C 
HETATM    2  C2  UNL     1     -22.669  16.986   9.111  1.00 20.00     0.002 C 
HETATM    3  C3  UNL     1     -23.849  19.219   9.151  1.00 20.00     0.002 C 
HETATM    4  C4  UNL     1     -23.685  16.428  10.110  1.00 20.00     0.026 C 
HETATM    5  C5  UNL     1     -24.868  18.666  10.150  1.00 20.00     0.026 C 
HETATM    6  C6  UNL     1     -24.320  17.509  11.005  1.00 20.00     0.037 C 
HETATM    7 CL9  UNL     1     -23.072  18.148  12.144  1.00 20.00    -0.119 Cl
ENDROOT
BRANCH   6   8
HETATM    8  C8  UNL     1     -25.443  16.901  11.852  1.00 20.00     0.021 C 
HETATM    9  C7  UNL     1     -26.421  17.938  12.289  1.00 20.00     0.007 C 
ENDBRANCH   6   8
TORSDOF 1
ENDMDL
MODEL 2
REMARK VINA RESULT:      -4.0     16.658     17.410
REMARK  1 active torsions:
REMARK  status: ('A' for Active; 'I' for Inactive)
REMARK    1  A    between atoms: C6_6  and  C8_8 
ROOT
HETATM    1  C1  UNL     1     -33.588  17.546  -1.456  1.00 20.00     0.000 C 
HETATM    2  C2  UNL     1     -35.066  17.194  -1.592  1.00 20.00     0.002 C 
HETATM    3  C3  UNL     1     -32.849  17.412  -2.783  1.00 20.00     0.002 C 
HETATM    4  C4  UNL     1     -35.260  15.804  -2.202  1.00 20.00     0.026 C 
HETATM    5  C5  UNL     1     -33.038  16.022  -3.396  1.00 20.00     0.026 C 
HETATM    6  C6  UNL     1     -34.515  15.613  -3.537  1.00 20.00     0.037 C 
HETATM    7 CL9  UNL     1     -35.298  16.630  -4.807  1.00 20.00    -0.119 Cl
ENDROOT
BRANCH   6   8
HETATM    8  C8  UNL     1     -34.618  14.154  -3.993  1.00 20.00     0.021 C 
HETATM    9  C7  UNL     1     -36.012  13.800  -4.385  1.00 20.00     0.007 C 
ENDBRANCH   6   8
TORSDOF 1
ENDMDL
MODEL 3
REMARK VINA RESULT:      -3.9     17.513     18.255
REMARK  1 active torsions:
REMARK  status: ('A' for Active; 'I' for Inactive)
REMARK    1  A    between atoms: C6_6  and  C8_8 
ROOT
HETATM    1  C1  UNL     1     -36.167  14.608  -5.647  1.00 20.00     0.000 C 
HETATM    2  C2  UNL     1     -35.752  13.816  -4.412  1.00 20.00     0.002 C 
HETATM    3  C3  UNL     1     -34.987  15.347  -6.270  1.00 20.00     0.002 C 
HETATM    4  C4  UNL     1     -35.043  14.701  -3.386  1.00 20.00     0.026 C 
HETATM    5  C5  UNL     1     -34.276  16.237  -5.248  1.00 20.00     0.026 C 
HETATM    6  C6  UNL     1     -33.853  15.485  -3.973  1.00 20.00     0.037 C 
HETATM    7 CL9  UNL     1     -32.521  14.333  -4.373  1.00 20.00    -0.119 Cl
ENDROOT
BRANCH   6   8
HETATM    8  C8  UNL     1     -33.307  16.471  -2.934  1.00 20.00     0.021 C 
HETATM    9  C7  UNL     1     -34.298  16.726  -1.849  1.00 20.00     0.007 C 
ENDBRANCH   6   8
TORSDOF 1
ENDMDL
MODEL 4
REMARK VINA RESULT:      -3.9     16.427     17.121
REMARK  1 active torsions:
REMARK  status: ('A' for Active; 'I' for Inactive)
REMARK    1  A    between atoms: C6_6  and  C8_8 
ROOT
HETATM    1  C1  UNL     1     -34.894  14.058  -3.963  1.00 20.00     0.000 C 
HETATM    2  C2  UNL     1     -33.655  14.708  -4.570  1.00 20.00     0.002 C 
HETATM    3  C3  UNL     1     -35.860  15.095  -3.400  1.00 20.00     0.002 C 
HETATM    4  C4  UNL     1     -32.960  15.637  -3.573  1.00 20.00     0.026 C 
HETATM    5  C5  UNL     1     -35.170  16.025  -2.400  1.00 20.00     0.026 C 
HETATM    6  C6  UNL     1     -33.901  16.693  -2.961  1.00 20.00     0.037 C 
HETATM    7 CL9  UNL     1     -34.368  17.885  -4.235  1.00 20.00    -0.119 Cl
ENDROOT
BRANCH   6   8
HETATM    8  C8  UNL     1     -33.178  17.466  -1.854  1.00 20.00     0.021 C 
HETATM    9  C7  UNL     1     -34.102  17.811  -0.736  1.00 20.00     0.007 C 
ENDBRANCH   6   8
TORSDOF 1
ENDMDL
MODEL 5
REMARK VINA RESULT:      -3.9     15.754     16.531
REMARK  1 active torsions:
REMARK  status: ('A' for Active; 'I' for Inactive)
REMARK    1  A    between atoms: C6_6  and  C8_8 
ROOT
HETATM    1  C1  UNL     1     -34.724   5.114   5.850  1.00 20.00     0.000 C 
HETATM    2  C2  UNL     1     -35.050   4.878   4.379  1.00 20.00     0.002 C 
HETATM    3  C3  UNL     1     -34.299   6.555   6.112  1.00 20.00     0.002 C 
HETATM    4  C4  UNL     1     -33.891   5.292   3.471  1.00 20.00     0.026 C 
HETATM    5  C5  UNL     1     -33.137   6.973   5.208  1.00 20.00     0.026 C 
HETATM    6  C6  UNL     1     -33.412   6.736   3.711  1.00 20.00     0.037 C 
HETATM    7 CL9  UNL     1     -34.684   7.888   3.148  1.00 20.00    -0.119 Cl
ENDROOT
BRANCH   6   8
HETATM    8  C8  UNL     1     -32.147   7.016   2.892  1.00 20.00     0.021 C 
HETATM    9  C7  UNL     1     -32.465   7.735   1.625  1.00 20.00     0.007 C 
ENDBRANCH   6   8
TORSDOF 1
ENDMDL
MODEL 6
REMARK VINA RESULT:      -3.9      2.021      3.833
REMARK  1 active torsions:
REMARK  status: ('A' for Active; 'I' for Inactive)
REMARK    1  A    between atoms: C6_6  and  C8_8 
ROOT
HETATM    1  C1  UNL     1     -23.938  16.411  12.064  1.00 20.00     0.000 C 
HETATM    2  C2  UNL     1     -24.393  16.241  10.618  1.00 20.00     0.002 C 
HETATM    3  C3  UNL     1     -23.274  17.765  12.294  1.00 20.00     0.002 C 
HETATM    4  C4  UNL     1     -23.245  16.475   9.634  1.00 20.00     0.026 C 
HETATM    5  C5  UNL     1     -22.123  18.002  11.314  1.00 20.00     0.026 C 
HETATM    6  C6  UNL     1     -22.529  17.824   9.839  1.00 20.00     0.037 C 
HETATM    7 CL9  UNL     1     -23.637  19.166   9.360  1.00 20.00    -0.119 Cl
ENDROOT
BRANCH   6   8
HETATM    8  C8  UNL     1     -21.293  17.908   8.938  1.00 20.00     0.021 C 
HETATM    9  C7  UNL     1     -21.540  17.273   7.611  1.00 20.00     0.007 C 
ENDBRANCH   6   8
TORSDOF 1
ENDMDL
MODEL 7
REMARK VINA RESULT:      -3.9     23.414     23.855
REMARK  1 active torsions:
REMARK  status: ('A' for Active; 'I' for Inactive)
REMARK    1  A    between atoms: C6_6  and  C8_8 
ROOT
HETATM    1  C1  UNL     1     -41.542   4.982  -1.556  1.00 20.00     0.000 C 
HETATM    2  C2  UNL     1     -43.037   5.282  -1.544  1.00 20.00     0.002 C 
HETATM    3  C3  UNL     1     -40.861   5.444  -0.272  1.00 20.00     0.002 C 
HETATM    4  C4  UNL     1     -43.314   6.761  -1.266  1.00 20.00     0.026 C 
HETATM    5  C5  UNL     1     -41.132   6.924   0.010  1.00 20.00     0.026 C 
HETATM    6  C6  UNL     1     -42.630   7.281   0.014  1.00 20.00     0.037 C 
HETATM    7 CL9  UNL     1     -43.417   6.533   1.456  1.00 20.00    -0.119 Cl
ENDROOT
BRANCH   6   8
HETATM    8  C8  UNL     1     -42.810   8.798   0.129  1.00 20.00     0.021 C 
HETATM    9  C7  UNL     1     -41.500   9.495   0.277  1.00 20.00     0.007 C 
ENDBRANCH   6   8
TORSDOF 1
ENDMDL
MODEL 8
REMARK VINA RESULT:      -3.9     23.759     24.202
REMARK  1 active torsions:
REMARK  status: ('A' for Active; 'I' for Inactive)
REMARK    1  A    between atoms: C6_6  and  C8_8 
ROOT
HETATM    1  C1  UNL     1     -41.957   8.805  -0.050  1.00 20.00     0.000 C 
HETATM    2  C2  UNL     1     -42.125   8.267  -1.467  1.00 20.00     0.002 C 
HETATM    3  C3  UNL     1     -41.385   7.752   0.893  1.00 20.00     0.002 C 
HETATM    4  C4  UNL     1     -42.962   6.986  -1.487  1.00 20.00     0.026 C 
HETATM    5  C5  UNL     1     -42.220   6.470   0.878  1.00 20.00     0.026 C 
HETATM    6  C6  UNL     1     -42.434   5.896  -0.534  1.00 20.00     0.037 C 
HETATM    7 CL9  UNL     1     -40.865   5.261  -1.165  1.00 20.00    -0.119 Cl
ENDROOT
BRANCH   6   8
HETATM    8  C8  UNL     1     -43.415   4.720  -0.483  1.00 20.00     0.021 C 
HETATM    9  C7  UNL     1     -43.417   3.954  -1.762  1.00 20.00     0.007 C 
ENDBRANCH   6   8
TORSDOF 1
ENDMDL
MODEL 9
REMARK VINA RESULT:      -3.8     18.055     18.787
REMARK  1 active torsions:
REMARK  status: ('A' for Active; 'I' for Inactive)
REMARK    1  A    between atoms: C6_6  and  C8_8 
ROOT
HETATM    1  C1  UNL     1     -37.304  14.702  -4.447  1.00 20.00     0.000 C 
HETATM    2  C2  UNL     1     -36.276  13.577  -4.516  1.00 20.00     0.002 C 
HETATM    3  C3  UNL     1     -36.782  15.987  -5.080  1.00 20.00     0.002 C 
HETATM    4  C4  UNL     1     -34.939  13.998  -3.903  1.00 20.00     0.026 C 
HETATM    5  C5  UNL     1     -35.445  16.414  -4.469  1.00 20.00     0.026 C 
HETATM    6  C6  UNL     1     -34.378  15.304  -4.498  1.00 20.00     0.037 C 
HETATM    7 CL9  UNL     1     -33.868  15.011  -6.205  1.00 20.00    -0.119 Cl
ENDROOT
BRANCH   6   8
HETATM    8  C8  UNL     1     -33.135  15.747  -3.720  1.00 20.00     0.021 C 
HETATM    9  C7  UNL     1     -33.500  16.543  -2.513  1.00 20.00     0.007 C 
ENDBRANCH   6   8
TORSDOF 1
ENDMDL
