MODEL 1
REMARK VINA RESULT:      -3.7      0.000      0.000
REMARK  3 active torsions:
REMARK  status: ('A' for Active; 'I' for Inactive)
REMARK    1  A    between atoms: C7_7  and  C8_8 
REMARK    2  A    between atoms: C7_7  and  C9_9 
REMARK    3  A    between atoms: C9_9  and  S10_10 
ROOT
HETATM    1  C7  UNL     1     -35.195  15.559  -2.792  1.00 20.00     0.028 C 
ENDROOT
BRANCH   1   2
HETATM    2  C8  UNL     1     -34.627  16.937  -2.319  1.00 20.00    -0.050 C 
HETATM    3  C1  UNL     1     -35.253  18.145  -3.027  1.00 20.00     0.014 C 
HETATM    4  C2  UNL     1     -34.950  17.063  -0.809  1.00 20.00     0.014 C 
HETATM    5  C3  UNL     1     -33.094  17.005  -2.454  1.00 20.00     0.014 C 
ENDBRANCH   1   2
BRANCH   1   6
HETATM    6  C9  UNL     1     -34.836  14.908  -4.159  1.00 20.00     0.001 C 
HETATM    7  C4  UNL     1     -35.800  13.725  -4.395  1.00 20.00     0.026 C 
HETATM    8  C5  UNL     1     -33.402  14.386  -4.261  1.00 20.00     0.026 C 
BRANCH   6   9
HETATM    9  S10 UNL     1     -35.121  16.071  -5.559  1.00 20.00    -0.164 SA
HETATM   10  C6  UNL     1     -34.168  15.180  -6.805  1.00 20.00     0.090 C 
ENDBRANCH   6   9
ENDBRANCH   1   6
TORSDOF 3
ENDMDL
MODEL 2
REMARK VINA RESULT:      -3.7      1.196      1.947
REMARK  3 active torsions:
REMARK  status: ('A' for Active; 'I' for Inactive)
REMARK    1  A    between atoms: C7_7  and  C8_8 
REMARK    2  A    between atoms: C7_7  and  C9_9 
REMARK    3  A    between atoms: C9_9  and  S10_10 
ROOT
HETATM    1  C7  UNL     1     -35.059  15.498  -2.702  1.00 20.00     0.028 C 
ENDROOT
BRANCH   1   2
HETATM    2  C8  UNL     1     -34.739  16.926  -2.149  1.00 20.00    -0.050 C 
HETATM    3  C1  UNL     1     -35.479  18.056  -2.873  1.00 20.00     0.014 C 
HETATM    4  C2  UNL     1     -35.192  16.946  -0.666  1.00 20.00     0.014 C 
HETATM    5  C3  UNL     1     -33.227  17.220  -2.155  1.00 20.00     0.014 C 
ENDBRANCH   1   2
BRANCH   1   6
HETATM    6  C9  UNL     1     -34.859  15.092  -4.191  1.00 20.00     0.001 C 
HETATM    7  C4  UNL     1     -33.476  14.422  -4.323  1.00 20.00     0.026 C 
HETATM    8  C5  UNL     1     -34.927  16.254  -5.183  1.00 20.00     0.026 C 
BRANCH   6   9
HETATM    9  S10 UNL     1     -36.084  13.821  -4.716  1.00 20.00    -0.164 SA
HETATM   10  C6  UNL     1     -37.577  14.734  -4.278  1.00 20.00     0.090 C 
ENDBRANCH   6   9
ENDBRANCH   1   6
TORSDOF 3
ENDMDL
MODEL 3
REMARK VINA RESULT:      -3.6      0.067      1.354
REMARK  3 active torsions:
REMARK  status: ('A' for Active; 'I' for Inactive)
REMARK    1  A    between atoms: C7_7  and  C8_8 
REMARK    2  A    between atoms: C7_7  and  C9_9 
REMARK    3  A    between atoms: C9_9  and  S10_10 
ROOT
HETATM    1  C7  UNL     1     -35.274  15.563  -2.806  1.00 20.00     0.028 C 
ENDROOT
BRANCH   1   2
HETATM    2  C8  UNL     1     -34.618  16.877  -2.269  1.00 20.00    -0.050 C 
HETATM    3  C1  UNL     1     -33.109  16.970  -2.525  1.00 20.00     0.014 C 
HETATM    4  C2  UNL     1     -35.291  18.055  -3.019  1.00 20.00     0.014 C 
HETATM    5  C3  UNL     1     -34.895  17.088  -0.769  1.00 20.00     0.014 C 
ENDBRANCH   1   2
BRANCH   1   6
HETATM    6  C9  UNL     1     -34.886  14.902  -4.160  1.00 20.00     0.001 C 
HETATM    7  C4  UNL     1     -35.849  13.723  -4.412  1.00 20.00     0.026 C 
HETATM    8  C5  UNL     1     -33.452  14.374  -4.224  1.00 20.00     0.026 C 
BRANCH   6   9
HETATM    9  S10 UNL     1     -35.132  16.059  -5.572  1.00 20.00    -0.164 SA
HETATM   10  C6  UNL     1     -34.147  15.160  -6.788  1.00 20.00     0.090 C 
ENDBRANCH   6   9
ENDBRANCH   1   6
TORSDOF 3
ENDMDL
MODEL 4
REMARK VINA RESULT:      -3.6      1.635      3.964
REMARK  3 active torsions:
REMARK  status: ('A' for Active; 'I' for Inactive)
REMARK    1  A    between atoms: C7_7  and  C8_8 
REMARK    2  A    between atoms: C7_7  and  C9_9 
REMARK    3  A    between atoms: C9_9  and  S10_10 
ROOT
HETATM    1  C7  UNL     1     -34.226  15.856  -2.637  1.00 20.00     0.028 C 
ENDROOT
BRANCH   1   2
HETATM    2  C8  UNL     1     -34.324  15.214  -4.060  1.00 20.00    -0.050 C 
HETATM    3  C1  UNL     1     -34.568  16.226  -5.186  1.00 20.00     0.014 C 
HETATM    4  C2  UNL     1     -32.963  14.526  -4.338  1.00 20.00     0.014 C 
HETATM    5  C3  UNL     1     -35.400  14.113  -4.122  1.00 20.00     0.014 C 
ENDBRANCH   1   2
BRANCH   1   6
HETATM    6  C9  UNL     1     -35.105  17.055  -2.176  1.00 20.00     0.001 C 
HETATM    7  C4  UNL     1     -35.285  16.957  -0.647  1.00 20.00     0.026 C 
HETATM    8  C5  UNL     1     -36.491  17.114  -2.820  1.00 20.00     0.026 C 
BRANCH   6   9
HETATM    9  S10 UNL     1     -34.266  18.666  -2.480  1.00 20.00    -0.164 SA
HETATM   10  C6  UNL     1     -32.574  18.111  -2.185  1.00 20.00     0.090 C 
ENDBRANCH   6   9
ENDBRANCH   1   6
TORSDOF 3
ENDMDL
MODEL 5
REMARK VINA RESULT:      -3.5      1.254      1.839
REMARK  3 active torsions:
REMARK  status: ('A' for Active; 'I' for Inactive)
REMARK    1  A    between atoms: C7_7  and  C8_8 
REMARK    2  A    between atoms: C7_7  and  C9_9 
REMARK    3  A    between atoms: C9_9  and  S10_10 
ROOT
HETATM    1  C7  UNL     1     -35.281  15.329  -2.990  1.00 20.00     0.028 C 
ENDROOT
BRANCH   1   2
HETATM    2  C8  UNL     1     -34.655  16.692  -2.547  1.00 20.00    -0.050 C 
HETATM    3  C1  UNL     1     -35.185  17.903  -3.324  1.00 20.00     0.014 C 
HETATM    4  C2  UNL     1     -35.029  16.895  -1.056  1.00 20.00     0.014 C 
HETATM    5  C3  UNL     1     -33.117  16.671  -2.621  1.00 20.00     0.014 C 
ENDBRANCH   1   2
BRANCH   1   6
HETATM    6  C9  UNL     1     -35.651  14.995  -4.464  1.00 20.00     0.001 C 
HETATM    7  C4  UNL     1     -36.022  13.499  -4.539  1.00 20.00     0.026 C 
HETATM    8  C5  UNL     1     -34.537  15.264  -5.478  1.00 20.00     0.026 C 
BRANCH   6   9
HETATM    9  S10 UNL     1     -37.152  15.911  -5.010  1.00 20.00    -0.164 SA
HETATM   10  C6  UNL     1     -38.379  14.823  -4.258  1.00 20.00     0.090 C 
ENDBRANCH   6   9
ENDBRANCH   1   6
TORSDOF 3
ENDMDL
MODEL 6
REMARK VINA RESULT:      -3.5      1.853      2.963
REMARK  3 active torsions:
REMARK  status: ('A' for Active; 'I' for Inactive)
REMARK    1  A    between atoms: C7_7  and  C8_8 
REMARK    2  A    between atoms: C7_7  and  C9_9 
REMARK    3  A    between atoms: C9_9  and  S10_10 
ROOT
HETATM    1  C7  UNL     1     -35.007  16.515  -4.731  1.00 20.00     0.028 C 
ENDROOT
BRANCH   1   2
HETATM    2  C8  UNL     1     -34.467  15.624  -3.564  1.00 20.00    -0.050 C 
HETATM    3  C1  UNL     1     -34.574  14.118  -3.828  1.00 20.00     0.014 C 
HETATM    4  C2  UNL     1     -32.964  15.963  -3.398  1.00 20.00     0.014 C 
HETATM    5  C3  UNL     1     -35.149  15.956  -2.223  1.00 20.00     0.014 C 
ENDBRANCH   1   2
BRANCH   1   6
HETATM    6  C9  UNL     1     -36.226  16.121  -5.615  1.00 20.00     0.001 C 
HETATM    7  C4  UNL     1     -36.720  17.389  -6.343  1.00 20.00     0.026 C 
HETATM    8  C5  UNL     1     -37.403  15.518  -4.847  1.00 20.00     0.026 C 
BRANCH   6   9
HETATM    9  S10 UNL     1     -35.745  14.938  -6.943  1.00 20.00    -0.164 SA
HETATM   10  C6  UNL     1     -34.105  15.611  -7.277  1.00 20.00     0.090 C 
ENDBRANCH   6   9
ENDBRANCH   1   6
TORSDOF 3
ENDMDL
MODEL 7
REMARK VINA RESULT:      -3.5      1.712      2.832
REMARK  3 active torsions:
REMARK  status: ('A' for Active; 'I' for Inactive)
REMARK    1  A    between atoms: C7_7  and  C8_8 
REMARK    2  A    between atoms: C7_7  and  C9_9 
REMARK    3  A    between atoms: C9_9  and  S10_10 
ROOT
HETATM    1  C7  UNL     1     -35.187  16.435  -4.705  1.00 20.00     0.028 C 
ENDROOT
BRANCH   1   2
HETATM    2  C8  UNL     1     -34.501  15.505  -3.651  1.00 20.00    -0.050 C 
HETATM    3  C1  UNL     1     -32.974  15.637  -3.603  1.00 20.00     0.014 C 
HETATM    4  C2  UNL     1     -35.048  15.919  -2.261  1.00 20.00     0.014 C 
HETATM    5  C3  UNL     1     -34.878  14.026  -3.855  1.00 20.00     0.014 C 
ENDBRANCH   1   2
BRANCH   1   6
HETATM    6  C9  UNL     1     -35.066  16.222  -6.242  1.00 20.00     0.001 C 
HETATM    7  C4  UNL     1     -36.460  15.840  -6.784  1.00 20.00     0.026 C 
HETATM    8  C5  UNL     1     -34.074  15.136  -6.659  1.00 20.00     0.026 C 
BRANCH   6   9
HETATM    9  S10 UNL     1     -34.604  17.781  -7.107  1.00 20.00    -0.164 SA
HETATM   10  C6  UNL     1     -33.996  18.680  -5.665  1.00 20.00     0.090 C 
ENDBRANCH   6   9
ENDBRANCH   1   6
TORSDOF 3
ENDMDL
MODEL 8
REMARK VINA RESULT:      -3.5      2.219      4.537
REMARK  3 active torsions:
REMARK  status: ('A' for Active; 'I' for Inactive)
REMARK    1  A    between atoms: C7_7  and  C8_8 
REMARK    2  A    between atoms: C7_7  and  C9_9 
REMARK    3  A    between atoms: C9_9  and  S10_10 
ROOT
HETATM    1  C7  UNL     1     -35.055  15.892  -2.203  1.00 20.00     0.028 C 
ENDROOT
BRANCH   1   2
HETATM    2  C8  UNL     1     -34.498  15.517  -3.616  1.00 20.00    -0.050 C 
HETATM    3  C1  UNL     1     -32.968  15.557  -3.714  1.00 20.00     0.014 C 
HETATM    4  C2  UNL     1     -34.945  14.061  -3.904  1.00 20.00     0.014 C 
HETATM    5  C3  UNL     1     -35.103  16.397  -4.726  1.00 20.00     0.014 C 
ENDBRANCH   1   2
BRANCH   1   6
HETATM    6  C9  UNL     1     -34.800  17.267  -1.520  1.00 20.00     0.001 C 
HETATM    7  C4  UNL     1     -35.602  18.340  -2.287  1.00 20.00     0.026 C 
HETATM    8  C5  UNL     1     -33.333  17.699  -1.483  1.00 20.00     0.026 C 
BRANCH   6   9
HETATM    9  S10 UNL     1     -35.447  17.296   0.204  1.00 20.00    -0.164 SA
HETATM   10  C6  UNL     1     -34.071  18.188   0.958  1.00 20.00     0.090 C 
ENDBRANCH   6   9
ENDBRANCH   1   6
TORSDOF 3
ENDMDL
MODEL 9
REMARK VINA RESULT:      -3.4      1.737      3.119
REMARK  3 active torsions:
REMARK  status: ('A' for Active; 'I' for Inactive)
REMARK    1  A    between atoms: C7_7  and  C8_8 
REMARK    2  A    between atoms: C7_7  and  C9_9 
REMARK    3  A    between atoms: C9_9  and  S10_10 
ROOT
HETATM    1  C7  UNL     1     -34.954  16.564  -4.824  1.00 20.00     0.028 C 
ENDROOT
BRANCH   1   2
HETATM    2  C8  UNL     1     -33.993  16.110  -3.677  1.00 20.00    -0.050 C 
HETATM    3  C1  UNL     1     -33.097  14.922  -4.046  1.00 20.00     0.014 C 
HETATM    4  C2  UNL     1     -33.067  17.313  -3.363  1.00 20.00     0.014 C 
HETATM    5  C3  UNL     1     -34.758  15.788  -2.379  1.00 20.00     0.014 C 
ENDBRANCH   1   2
BRANCH   1   6
HETATM    6  C9  UNL     1     -35.675  15.570  -5.781  1.00 20.00     0.001 C 
HETATM    7  C4  UNL     1     -34.653  15.092  -6.835  1.00 20.00     0.026 C 
HETATM    8  C5  UNL     1     -36.883  16.154  -6.514  1.00 20.00     0.026 C 
BRANCH   6   9
HETATM    9  S10 UNL     1     -36.224  14.053  -4.893  1.00 20.00    -0.164 SA
HETATM   10  C6  UNL     1     -37.809  14.683  -4.305  1.00 20.00     0.090 C 
ENDBRANCH   6   9
ENDBRANCH   1   6
TORSDOF 3
ENDMDL
