MODEL 1
REMARK VINA RESULT:      -4.4      0.000      0.000
REMARK  0 active torsions:
REMARK  status: ('A' for Active; 'I' for Inactive)
ROOT
HETATM    1  C1  UNL     1     -24.530  18.702   8.776  1.00 20.00     0.132 C 
HETATM    2  C2  UNL     1     -22.641  18.236  10.681  1.00 20.00     0.064 C 
HETATM    3  C3  UNL     1     -22.196  18.276   9.225  1.00 20.00     0.128 C 
HETATM    4  C4  UNL     1     -24.060  17.690  10.878  1.00 20.00     0.051 C 
HETATM    5  C5  UNL     1     -25.447  19.262   7.735  1.00 20.00     0.099 C 
HETATM    6  C6  UNL     1     -21.704  16.954   8.653  1.00 20.00     0.040 C 
HETATM    7  C7  UNL     1     -24.576  18.140  12.258  1.00 20.00     0.040 C 
HETATM    8  C8  UNL     1     -24.136  16.159  10.821  1.00 20.00     0.040 C 
HETATM    9  N9  UNL     1     -24.983  18.232   9.881  1.00 20.00    -0.261 NA
HETATM   10  O10 UNL     1     -23.236  18.794   8.379  1.00 20.00    -0.333 OA
ENDROOT
TORSDOF 0
ENDMDL
MODEL 2
REMARK VINA RESULT:      -4.2     16.716     18.680
REMARK  0 active torsions:
REMARK  status: ('A' for Active; 'I' for Inactive)
ROOT
HETATM    1  C1  UNL     1     -34.492  15.210  -6.061  1.00 20.00     0.132 C 
HETATM    2  C2  UNL     1     -34.913  14.622  -3.436  1.00 20.00     0.064 C 
HETATM    3  C3  UNL     1     -35.806  13.953  -4.472  1.00 20.00     0.128 C 
HETATM    4  C4  UNL     1     -34.463  16.035  -3.828  1.00 20.00     0.051 C 
HETATM    5  C5  UNL     1     -34.106  15.245  -7.506  1.00 20.00     0.099 C 
HETATM    6  C6  UNL     1     -37.270  14.366  -4.442  1.00 20.00     0.040 C 
HETATM    7  C7  UNL     1     -33.222  16.408  -2.996  1.00 20.00     0.040 C 
HETATM    8  C8  UNL     1     -35.535  17.104  -3.585  1.00 20.00     0.040 C 
HETATM    9  N9  UNL     1     -34.066  16.095  -5.235  1.00 20.00    -0.261 NA
HETATM   10  O10 UNL     1     -35.293  14.147  -5.801  1.00 20.00    -0.333 OA
ENDROOT
TORSDOF 0
ENDMDL
MODEL 3
REMARK VINA RESULT:      -3.9      1.373      3.082
REMARK  0 active torsions:
REMARK  status: ('A' for Active; 'I' for Inactive)
ROOT
HETATM    1  C1  UNL     1     -24.432  18.486   8.350  1.00 20.00     0.132 C 
HETATM    2  C2  UNL     1     -22.810  16.618   9.489  1.00 20.00     0.064 C 
HETATM    3  C3  UNL     1     -24.013  17.104  10.286  1.00 20.00     0.128 C 
HETATM    4  C4  UNL     1     -22.200  17.689   8.576  1.00 20.00     0.051 C 
HETATM    5  C5  UNL     1     -25.516  19.254   7.662  1.00 20.00     0.099 C 
HETATM    6  C6  UNL     1     -23.691  17.906  11.539  1.00 20.00     0.040 C 
HETATM    7  C7  UNL     1     -21.353  16.993   7.495  1.00 20.00     0.040 C 
HETATM    8  C8  UNL     1     -21.298  18.680   9.321  1.00 20.00     0.040 C 
HETATM    9  N9  UNL     1     -23.239  18.448   7.879  1.00 20.00    -0.261 NA
HETATM   10  O10 UNL     1     -24.908  17.868   9.460  1.00 20.00    -0.333 OA
ENDROOT
TORSDOF 0
ENDMDL
MODEL 4
REMARK VINA RESULT:      -3.9     15.523     16.641
REMARK  0 active torsions:
REMARK  status: ('A' for Active; 'I' for Inactive)
ROOT
HETATM    1  C1  UNL     1     -34.796  16.758  -1.454  1.00 20.00     0.132 C 
HETATM    2  C2  UNL     1     -33.124  15.959  -3.449  1.00 20.00     0.064 C 
HETATM    3  C3  UNL     1     -32.813  17.268  -2.735  1.00 20.00     0.128 C 
HETATM    4  C4  UNL     1     -34.623  15.654  -3.556  1.00 20.00     0.051 C 
HETATM    5  C5  UNL     1     -35.479  17.078  -0.162  1.00 20.00     0.099 C 
HETATM    6  C6  UNL     1     -32.950  18.526  -3.581  1.00 20.00     0.040 C 
HETATM    7  C7  UNL     1     -34.803  14.149  -3.827  1.00 20.00     0.040 C 
HETATM    8  C8  UNL     1     -35.322  16.426  -4.681  1.00 20.00     0.040 C 
HETATM    9  N9  UNL     1     -35.316  15.946  -2.301  1.00 20.00    -0.261 NA
HETATM   10  O10 UNL     1     -33.611  17.413  -1.548  1.00 20.00    -0.333 OA
ENDROOT
TORSDOF 0
ENDMDL
MODEL 5
REMARK VINA RESULT:      -3.8     15.843     17.603
REMARK  0 active torsions:
REMARK  status: ('A' for Active; 'I' for Inactive)
ROOT
HETATM    1  C1  UNL     1     -34.933  17.031  -5.071  1.00 20.00     0.132 C 
HETATM    2  C2  UNL     1     -33.300  15.427  -3.595  1.00 20.00     0.064 C 
HETATM    3  C3  UNL     1     -34.152  14.780  -4.679  1.00 20.00     0.128 C 
HETATM    4  C4  UNL     1     -33.962  16.642  -2.933  1.00 20.00     0.051 C 
HETATM    5  C5  UNL     1     -35.592  17.887  -6.107  1.00 20.00     0.099 C 
HETATM    6  C6  UNL     1     -35.244  13.843  -4.183  1.00 20.00     0.040 C 
HETATM    7  C7  UNL     1     -32.872  17.485  -2.245  1.00 20.00     0.040 C 
HETATM    8  C8  UNL     1     -35.007  16.264  -1.876  1.00 20.00     0.040 C 
HETATM    9  N9  UNL     1     -34.604  17.505  -3.925  1.00 20.00    -0.261 NA
HETATM   10  O10 UNL     1     -34.741  15.772  -5.537  1.00 20.00    -0.333 OA
ENDROOT
TORSDOF 0
ENDMDL
MODEL 6
REMARK VINA RESULT:      -3.7     16.423     18.493
REMARK  0 active torsions:
REMARK  status: ('A' for Active; 'I' for Inactive)
ROOT
HETATM    1  C1  UNL     1     -35.378  15.963  -2.646  1.00 20.00     0.132 C 
HETATM    2  C2  UNL     1     -35.927  13.943  -4.388  1.00 20.00     0.064 C 
HETATM    3  C3  UNL     1     -34.469  14.220  -4.048  1.00 20.00     0.128 C 
HETATM    4  C4  UNL     1     -36.811  15.197  -4.386  1.00 20.00     0.051 C 
HETATM    5  C5  UNL     1     -35.042  16.828  -1.473  1.00 20.00     0.099 C 
HETATM    6  C6  UNL     1     -33.618  14.752  -5.193  1.00 20.00     0.040 C 
HETATM    7  C7  UNL     1     -38.282  14.765  -4.249  1.00 20.00     0.040 C 
HETATM    8  C8  UNL     1     -36.680  16.035  -5.663  1.00 20.00     0.040 C 
HETATM    9  N9  UNL     1     -36.512  16.057  -3.240  1.00 20.00    -0.261 NA
HETATM   10  O10 UNL     1     -34.358  15.115  -2.929  1.00 20.00    -0.333 OA
ENDROOT
TORSDOF 0
ENDMDL
MODEL 7
REMARK VINA RESULT:      -3.7     15.958     17.747
REMARK  0 active torsions:
REMARK  status: ('A' for Active; 'I' for Inactive)
ROOT
HETATM    1  C1  UNL     1     -35.077  17.109  -4.929  1.00 20.00     0.132 C 
HETATM    2  C2  UNL     1     -34.836  15.549  -2.710  1.00 20.00     0.064 C 
HETATM    3  C3  UNL     1     -34.410  17.007  -2.610  1.00 20.00     0.128 C 
HETATM    4  C4  UNL     1     -34.604  14.931  -4.094  1.00 20.00     0.051 C 
HETATM    5  C5  UNL     1     -35.480  18.074  -5.998  1.00 20.00     0.099 C 
HETATM    6  C6  UNL     1     -32.920  17.243  -2.402  1.00 20.00     0.040 C 
HETATM    7  C7  UNL     1     -35.487  13.676  -4.230  1.00 20.00     0.040 C 
HETATM    8  C8  UNL     1     -33.149  14.514  -4.337  1.00 20.00     0.040 C 
HETATM    9  N9  UNL     1     -35.002  15.849  -5.161  1.00 20.00    -0.261 NA
HETATM   10  O10 UNL     1     -34.845  17.755  -3.758  1.00 20.00    -0.333 OA
ENDROOT
TORSDOF 0
ENDMDL
MODEL 8
REMARK VINA RESULT:      -3.7     14.226     16.082
REMARK  0 active torsions:
REMARK  status: ('A' for Active; 'I' for Inactive)
ROOT
HETATM    1  C1  UNL     1     -33.584  15.963  -3.107  1.00 20.00     0.132 C 
HETATM    2  C2  UNL     1     -34.182  17.433  -0.894  1.00 20.00     0.064 C 
HETATM    3  C3  UNL     1     -35.303  16.639  -1.552  1.00 20.00     0.128 C 
HETATM    4  C4  UNL     1     -33.131  17.954  -1.883  1.00 20.00     0.051 C 
HETATM    5  C5  UNL     1     -33.252  14.905  -4.112  1.00 20.00     0.099 C 
HETATM    6  C6  UNL     1     -36.404  17.469  -2.196  1.00 20.00     0.040 C 
HETATM    7  C7  UNL     1     -31.845  18.290  -1.106  1.00 20.00     0.040 C 
HETATM    8  C8  UNL     1     -33.575  19.215  -2.632  1.00 20.00     0.040 C 
HETATM    9  N9  UNL     1     -32.778  16.934  -2.871  1.00 20.00    -0.261 NA
HETATM   10  O10 UNL     1     -34.783  15.717  -2.524  1.00 20.00    -0.333 OA
ENDROOT
TORSDOF 0
ENDMDL
MODEL 9
REMARK VINA RESULT:      -3.7     16.870     18.816
REMARK  0 active torsions:
REMARK  status: ('A' for Active; 'I' for Inactive)
ROOT
HETATM    1  C1  UNL     1     -36.474  15.012  -4.482  1.00 20.00     0.132 C 
HETATM    2  C2  UNL     1     -33.754  15.041  -4.615  1.00 20.00     0.064 C 
HETATM    3  C3  UNL     1     -34.405  15.100  -3.240  1.00 20.00     0.128 C 
HETATM    4  C4  UNL     1     -34.569  15.733  -5.715  1.00 20.00     0.051 C 
HETATM    5  C5  UNL     1     -37.925  14.680  -4.334  1.00 20.00     0.099 C 
HETATM    6  C6  UNL     1     -34.215  16.405  -2.479  1.00 20.00     0.040 C 
HETATM    7  C7  UNL     1     -34.100  15.207  -7.084  1.00 20.00     0.040 C 
HETATM    8  C8  UNL     1     -34.416  17.259  -5.716  1.00 20.00     0.040 C 
HETATM    9  N9  UNL     1     -35.993  15.415  -5.602  1.00 20.00    -0.261 NA
HETATM   10  O10 UNL     1     -35.810  14.805  -3.318  1.00 20.00    -0.333 OA
ENDROOT
TORSDOF 0
ENDMDL
