MODEL 1
REMARK VINA RESULT:      -5.4      0.000      0.000
REMARK  0 active torsions:
REMARK  status: ('A' for Active; 'I' for Inactive)
ROOT
HETATM    1  C1  UNL     1     -22.490  17.866   8.454  1.00 20.00     0.127 C 
HETATM    2  C2  UNL     1     -21.293  18.219   9.301  1.00 20.00     0.078 C 
HETATM    3  C3  UNL     1     -23.839  18.304   8.981  1.00 20.00     0.087 C 
HETATM    4  C4  UNL     1     -21.508  17.775  10.739  1.00 20.00     0.008 C 
HETATM    5  C5  UNL     1     -25.982  16.483  12.321  1.00 20.00     0.000 C 
HETATM    6  C6  UNL     1     -24.736  15.766  11.817  1.00 20.00     0.001 C 
HETATM    7  C7  UNL     1     -25.805  17.996  12.332  1.00 20.00     0.001 C 
HETATM    8  C8  UNL     1     -22.847  18.263  11.297  1.00 20.00     0.010 C 
HETATM    9  C9  UNL     1     -24.291  16.299  10.455  1.00 20.00     0.010 C 
HETATM   10  C10 UNL     1     -25.352  18.523  10.970  1.00 20.00     0.010 C 
HETATM   11  C11 UNL     1     -24.068  17.835  10.436  1.00 20.00    -0.034 C 
HETATM   12  O12 UNL     1     -22.369  17.336   7.351  1.00 20.00    -0.298 OA
ENDROOT
TORSDOF 0
ENDMDL
MODEL 2
REMARK VINA RESULT:      -5.2     17.391     18.579
REMARK  0 active torsions:
REMARK  status: ('A' for Active; 'I' for Inactive)
ROOT
HETATM    1  C1  UNL     1     -35.974  13.885  -4.801  1.00 20.00     0.127 C 
HETATM    2  C2  UNL     1     -35.736  14.493  -6.162  1.00 20.00     0.078 C 
HETATM    3  C3  UNL     1     -36.392  14.839  -3.704  1.00 20.00     0.087 C 
HETATM    4  C4  UNL     1     -34.793  15.681  -6.057  1.00 20.00     0.008 C 
HETATM    5  C5  UNL     1     -33.785  17.703  -1.688  1.00 20.00     0.000 C 
HETATM    6  C6  UNL     1     -33.126  16.694  -2.620  1.00 20.00     0.001 C 
HETATM    7  C7  UNL     1     -35.107  18.217  -2.245  1.00 20.00     0.001 C 
HETATM    8  C8  UNL     1     -35.242  16.678  -4.986  1.00 20.00     0.010 C 
HETATM    9  C9  UNL     1     -34.077  15.552  -2.979  1.00 20.00     0.010 C 
HETATM   10  C10 UNL     1     -36.051  17.070  -2.610  1.00 20.00     0.010 C 
HETATM   11  C11 UNL     1     -35.423  16.037  -3.581  1.00 20.00    -0.034 C 
HETATM   12  O12 UNL     1     -35.924  12.670  -4.618  1.00 20.00    -0.298 OA
ENDROOT
TORSDOF 0
ENDMDL
MODEL 3
REMARK VINA RESULT:      -5.0     16.164     17.376
REMARK  0 active torsions:
REMARK  status: ('A' for Active; 'I' for Inactive)
ROOT
HETATM    1  C1  UNL     1     -34.250  14.992  -4.808  1.00 20.00     0.127 C 
HETATM    2  C2  UNL     1     -34.889  16.004  -5.727  1.00 20.00     0.078 C 
HETATM    3  C3  UNL     1     -34.645  15.066  -3.349  1.00 20.00     0.087 C 
HETATM    4  C4  UNL     1     -34.725  17.408  -5.169  1.00 20.00     0.008 C 
HETATM    5  C5  UNL     1     -33.326  18.105  -0.505  1.00 20.00     0.000 C 
HETATM    6  C6  UNL     1     -32.654  18.089  -1.873  1.00 20.00     0.001 C 
HETATM    7  C7  UNL     1     -34.821  17.823  -0.600  1.00 20.00     0.001 C 
HETATM    8  C8  UNL     1     -35.175  17.502  -3.709  1.00 20.00     0.010 C 
HETATM    9  C9  UNL     1     -32.944  16.793  -2.628  1.00 20.00     0.010 C 
HETATM   10  C10 UNL     1     -35.105  16.529  -1.365  1.00 20.00     0.010 C 
HETATM   11  C11 UNL     1     -34.459  16.488  -2.774  1.00 20.00    -0.034 C 
HETATM   12  O12 UNL     1     -33.523  14.097  -5.236  1.00 20.00    -0.298 OA
ENDROOT
TORSDOF 0
ENDMDL
MODEL 4
REMARK VINA RESULT:      -4.8     17.316     18.503
REMARK  0 active torsions:
REMARK  status: ('A' for Active; 'I' for Inactive)
ROOT
HETATM    1  C1  UNL     1     -36.329  15.458  -5.668  1.00 20.00     0.127 C 
HETATM    2  C2  UNL     1     -35.918  14.013  -5.537  1.00 20.00     0.078 C 
HETATM    3  C3  UNL     1     -35.281  16.490  -5.314  1.00 20.00     0.087 C 
HETATM    4  C4  UNL     1     -35.311  13.754  -4.167  1.00 20.00     0.008 C 
HETATM    5  C5  UNL     1     -33.960  17.498  -1.276  1.00 20.00     0.000 C 
HETATM    6  C6  UNL     1     -35.169  16.579  -1.408  1.00 20.00     0.001 C 
HETATM    7  C7  UNL     1     -32.891  17.185  -2.316  1.00 20.00     0.001 C 
HETATM    8  C8  UNL     1     -34.210  14.762  -3.827  1.00 20.00     0.010 C 
HETATM    9  C9  UNL     1     -35.733  16.589  -2.828  1.00 20.00     0.010 C 
HETATM   10  C10 UNL     1     -33.462  17.187  -3.735  1.00 20.00     0.010 C 
HETATM   11  C11 UNL     1     -34.678  16.242  -3.913  1.00 20.00    -0.034 C 
HETATM   12  O12 UNL     1     -37.424  15.780  -6.128  1.00 20.00    -0.298 OA
ENDROOT
TORSDOF 0
ENDMDL
MODEL 5
REMARK VINA RESULT:      -4.7     16.343     17.688
REMARK  0 active torsions:
REMARK  status: ('A' for Active; 'I' for Inactive)
ROOT
HETATM    1  C1  UNL     1     -35.125  17.278  -1.095  1.00 20.00     0.127 C 
HETATM    2  C2  UNL     1     -33.760  17.860  -0.821  1.00 20.00     0.078 C 
HETATM    3  C3  UNL     1     -35.158  15.991  -1.890  1.00 20.00     0.087 C 
HETATM    4  C4  UNL     1     -32.960  17.971  -2.108  1.00 20.00     0.008 C 
HETATM    5  C5  UNL     1     -34.419  15.625  -6.178  1.00 20.00     0.000 C 
HETATM    6  C6  UNL     1     -34.540  17.033  -5.607  1.00 20.00     0.001 C 
HETATM    7  C7  UNL     1     -33.656  14.694  -5.244  1.00 20.00     0.001 C 
HETATM    8  C8  UNL     1     -32.943  16.655  -2.890  1.00 20.00     0.010 C 
HETATM    9  C9  UNL     1     -35.135  17.022  -4.199  1.00 20.00     0.010 C 
HETATM   10  C10 UNL     1     -34.250  14.693  -3.835  1.00 20.00     0.010 C 
HETATM   11  C11 UNL     1     -34.363  16.108  -3.210  1.00 20.00    -0.034 C 
HETATM   12  O12 UNL     1     -36.146  17.769  -0.618  1.00 20.00    -0.298 OA
ENDROOT
TORSDOF 0
ENDMDL
MODEL 6
REMARK VINA RESULT:      -4.7     17.405     18.747
REMARK  0 active torsions:
REMARK  status: ('A' for Active; 'I' for Inactive)
ROOT
HETATM    1  C1  UNL     1     -36.033  14.180  -4.912  1.00 20.00     0.127 C 
HETATM    2  C2  UNL     1     -37.328  14.619  -4.276  1.00 20.00     0.078 C 
HETATM    3  C3  UNL     1     -34.769  14.469  -4.132  1.00 20.00     0.087 C 
HETATM    4  C4  UNL     1     -37.247  16.077  -3.853  1.00 20.00     0.008 C 
HETATM    5  C5  UNL     1     -32.911  18.391  -3.652  1.00 20.00     0.000 C 
HETATM    6  C6  UNL     1     -34.063  18.280  -4.644  1.00 20.00     0.001 C 
HETATM    7  C7  UNL     1     -33.158  17.564  -2.396  1.00 20.00     0.001 C 
HETATM    8  C8  UNL     1     -35.999  16.363  -3.015  1.00 20.00     0.010 C 
HETATM    9  C9  UNL     1     -34.385  16.822  -4.973  1.00 20.00     0.010 C 
HETATM   10  C10 UNL     1     -33.488  16.109  -2.732  1.00 20.00     0.010 C 
HETATM   11  C11 UNL     1     -34.674  15.955  -3.719  1.00 20.00    -0.034 C 
HETATM   12  O12 UNL     1     -36.011  13.539  -5.962  1.00 20.00    -0.298 OA
ENDROOT
TORSDOF 0
ENDMDL
MODEL 7
REMARK VINA RESULT:      -4.7     14.888     16.154
REMARK  0 active torsions:
REMARK  status: ('A' for Active; 'I' for Inactive)
ROOT
HETATM    1  C1  UNL     1     -31.777  18.548  -0.871  1.00 20.00     0.127 C 
HETATM    2  C2  UNL     1     -32.713  18.784   0.288  1.00 20.00     0.078 C 
HETATM    3  C3  UNL     1     -32.358  18.746  -2.254  1.00 20.00     0.087 C 
HETATM    4  C4  UNL     1     -34.003  18.002   0.100  1.00 20.00     0.008 C 
HETATM    5  C5  UNL     1     -35.128  16.036  -4.266  1.00 20.00     0.000 C 
HETATM    6  C6  UNL     1     -34.503  15.555  -2.962  1.00 20.00     0.001 C 
HETATM    7  C7  UNL     1     -35.495  17.514  -4.211  1.00 20.00     0.001 C 
HETATM    8  C8  UNL     1     -34.625  18.242  -1.277  1.00 20.00     0.010 C 
HETATM    9  C9  UNL     1     -33.314  16.424  -2.553  1.00 20.00     0.010 C 
HETATM   10  C10 UNL     1     -34.304  18.377  -3.793  1.00 20.00     0.010 C 
HETATM   11  C11 UNL     1     -33.658  17.934  -2.455  1.00 20.00    -0.034 C 
HETATM   12  O12 UNL     1     -30.584  18.301  -0.700  1.00 20.00    -0.298 OA
ENDROOT
TORSDOF 0
ENDMDL
MODEL 8
REMARK VINA RESULT:      -4.6     15.855     17.173
REMARK  0 active torsions:
REMARK  status: ('A' for Active; 'I' for Inactive)
ROOT
HETATM    1  C1  UNL     1     -32.557  18.146  -1.593  1.00 20.00     0.127 C 
HETATM    2  C2  UNL     1     -33.744  18.064  -0.665  1.00 20.00     0.078 C 
HETATM    3  C3  UNL     1     -32.864  18.240  -3.071  1.00 20.00     0.087 C 
HETATM    4  C4  UNL     1     -34.697  16.967  -1.115  1.00 20.00     0.008 C 
HETATM    5  C5  UNL     1     -34.284  14.969  -5.591  1.00 20.00     0.000 C 
HETATM    6  C6  UNL     1     -33.840  14.619  -4.176  1.00 20.00     0.001 C 
HETATM    7  C7  UNL     1     -35.050  16.286  -5.639  1.00 20.00     0.001 C 
HETATM    8  C8  UNL     1     -35.055  17.090  -2.598  1.00 20.00     0.010 C 
HETATM    9  C9  UNL     1     -33.053  15.761  -3.533  1.00 20.00     0.010 C 
HETATM   10  C10 UNL     1     -34.261  17.423  -4.987  1.00 20.00     0.010 C 
HETATM   11  C11 UNL     1     -33.815  17.113  -3.534  1.00 20.00    -0.034 C 
HETATM   12  O12 UNL     1     -31.406  18.228  -1.165  1.00 20.00    -0.298 OA
ENDROOT
TORSDOF 0
ENDMDL
MODEL 9
REMARK VINA RESULT:      -4.5     16.550     17.733
REMARK  0 active torsions:
REMARK  status: ('A' for Active; 'I' for Inactive)
ROOT
HETATM    1  C1  UNL     1     -35.071  16.266  -5.719  1.00 20.00     0.127 C 
HETATM    2  C2  UNL     1     -34.437  14.897  -5.697  1.00 20.00     0.078 C 
HETATM    3  C3  UNL     1     -34.307  17.372  -5.025  1.00 20.00     0.087 C 
HETATM    4  C4  UNL     1     -34.052  14.511  -4.277  1.00 20.00     0.008 C 
HETATM    5  C5  UNL     1     -33.940  17.891  -0.705  1.00 20.00     0.000 C 
HETATM    6  C6  UNL     1     -34.920  16.835  -1.201  1.00 20.00     0.001 C 
HETATM    7  C7  UNL     1     -32.662  17.917  -1.534  1.00 20.00     0.001 C 
HETATM    8  C8  UNL     1     -33.230  15.604  -3.589  1.00 20.00     0.010 C 
HETATM    9  C9  UNL     1     -35.211  16.992  -2.693  1.00 20.00     0.010 C 
HETATM   10  C10 UNL     1     -32.958  18.065  -3.027  1.00 20.00     0.010 C 
HETATM   11  C11 UNL     1     -33.932  16.990  -3.575  1.00 20.00    -0.034 C 
HETATM   12  O12 UNL     1     -36.104  16.490  -6.348  1.00 20.00    -0.298 OA
ENDROOT
TORSDOF 0
ENDMDL
