MODEL 1
REMARK VINA RESULT:      -5.1      0.000      0.000
REMARK  2 active torsions:
REMARK  status: ('A' for Active; 'I' for Inactive)
REMARK    1  A    between atoms: C5_5  and  C7_7 
REMARK    2  A    between atoms: C6_6  and  O8_8 
ROOT
HETATM    1  C1  UNL     1     -34.101   4.074   3.173  1.00 20.00     0.003 C 
HETATM    2  C2  UNL     1     -33.095   5.056   2.574  1.00 20.00     0.014 C 
HETATM    3  C3  UNL     1     -34.313   4.325   4.661  1.00 20.00     0.032 C 
HETATM    4  C4  UNL     1     -33.703   6.757   4.340  1.00 20.00     0.045 C 
HETATM    5  C5  UNL     1     -33.495   6.515   2.840  1.00 20.00     0.096 C 
HETATM    6  C6  UNL     1     -34.711   5.773   4.935  1.00 20.00     0.118 C 
ENDROOT
BRANCH   5   7
HETATM    7  C7  UNL     1     -32.445   7.472   2.279  1.00 20.00     0.391 C 
HETATM    8  F9  UNL     1     -31.554   7.785   3.231  1.00 20.00    -0.171 F 
HETATM    9  F10 UNL     1     -31.801   6.898   1.252  1.00 20.00    -0.171 F 
HETATM   10  F11 UNL     1     -33.034   8.598   1.848  1.00 20.00    -0.171 F 
ENDBRANCH   5   7
BRANCH   6  11
HETATM   11  O8  UNL     1     -34.811   5.983   6.340  1.00 20.00    -0.396 OA
HETATM   12  H22 UNL     1     -33.907   6.111   6.666  1.00 20.00     0.210 HD
ENDBRANCH   6  11
TORSDOF 2
ENDMDL
MODEL 2
REMARK VINA RESULT:      -5.1      0.007      1.140
REMARK  2 active torsions:
REMARK  status: ('A' for Active; 'I' for Inactive)
REMARK    1  A    between atoms: C5_5  and  C7_7 
REMARK    2  A    between atoms: C6_6  and  O8_8 
ROOT
HETATM    1  C1  UNL     1     -34.100   4.071   3.174  1.00 20.00     0.003 C 
HETATM    2  C2  UNL     1     -33.096   5.053   2.572  1.00 20.00     0.014 C 
HETATM    3  C3  UNL     1     -34.310   4.325   4.663  1.00 20.00     0.032 C 
HETATM    4  C4  UNL     1     -33.703   6.757   4.335  1.00 20.00     0.045 C 
HETATM    5  C5  UNL     1     -33.497   6.511   2.836  1.00 20.00     0.096 C 
HETATM    6  C6  UNL     1     -34.709   5.773   4.934  1.00 20.00     0.118 C 
ENDROOT
BRANCH   5   7
HETATM    7  C7  UNL     1     -32.449   7.469   2.271  1.00 20.00     0.391 C 
HETATM    8  F9  UNL     1     -31.808   6.893   1.243  1.00 20.00    -0.171 F 
HETATM    9  F10 UNL     1     -33.039   8.594   1.840  1.00 20.00    -0.171 F 
HETATM   10  F11 UNL     1     -31.554   7.783   3.220  1.00 20.00    -0.171 F 
ENDBRANCH   5   7
BRANCH   6  11
HETATM   11  O8  UNL     1     -34.807   5.986   6.339  1.00 20.00    -0.396 OA
HETATM   12  H22 UNL     1     -34.903   5.111   6.746  1.00 20.00     0.210 HD
ENDBRANCH   6  11
TORSDOF 2
ENDMDL
MODEL 3
REMARK VINA RESULT:      -4.8      3.156      3.962
REMARK  2 active torsions:
REMARK  status: ('A' for Active; 'I' for Inactive)
REMARK    1  A    between atoms: C5_5  and  C7_7 
REMARK    2  A    between atoms: C6_6  and  O8_8 
ROOT
HETATM    1  C1  UNL     1     -33.196   4.362   2.383  1.00 20.00     0.003 C 
HETATM    2  C2  UNL     1     -34.082   4.474   3.622  1.00 20.00     0.014 C 
HETATM    3  C3  UNL     1     -33.086   5.694   1.649  1.00 20.00     0.032 C 
HETATM    4  C4  UNL     1     -33.503   6.924   3.818  1.00 20.00     0.045 C 
HETATM    5  C5  UNL     1     -33.607   5.589   4.564  1.00 20.00     0.096 C 
HETATM    6  C6  UNL     1     -32.613   6.809   2.579  1.00 20.00     0.118 C 
ENDROOT
BRANCH   5   7
HETATM    7  C7  UNL     1     -34.543   5.714   5.766  1.00 20.00     0.391 C 
HETATM    8  F9  UNL     1     -35.817   5.573   5.372  1.00 20.00    -0.171 F 
HETATM    9  F10 UNL     1     -34.259   4.765   6.670  1.00 20.00    -0.171 F 
HETATM   10  F11 UNL     1     -34.395   6.919   6.338  1.00 20.00    -0.171 F 
ENDBRANCH   5   7
BRANCH   6  11
HETATM   11  O8  UNL     1     -32.611   8.047   1.876  1.00 20.00    -0.396 OA
HETATM   12  H22 UNL     1     -33.461   8.104   1.413  1.00 20.00     0.210 HD
ENDBRANCH   6  11
TORSDOF 2
ENDMDL
MODEL 4
REMARK VINA RESULT:      -4.8     11.798     12.213
REMARK  2 active torsions:
REMARK  status: ('A' for Active; 'I' for Inactive)
REMARK    1  A    between atoms: C5_5  and  C7_7 
REMARK    2  A    between atoms: C6_6  and  O8_8 
ROOT
HETATM    1  C1  UNL     1     -35.987  15.021  -3.564  1.00 20.00     0.003 C 
HETATM    2  C2  UNL     1     -35.512  16.268  -2.820  1.00 20.00     0.014 C 
HETATM    3  C3  UNL     1     -35.093  14.707  -4.758  1.00 20.00     0.032 C 
HETATM    4  C4  UNL     1     -33.150  15.840  -3.605  1.00 20.00     0.045 C 
HETATM    5  C5  UNL     1     -34.040  16.154  -2.397  1.00 20.00     0.096 C 
HETATM    6  C6  UNL     1     -33.627  14.591  -4.347  1.00 20.00     0.118 C 
ENDROOT
BRANCH   5   7
HETATM    7  C7  UNL     1     -33.578  17.435  -1.704  1.00 20.00     0.391 C 
HETATM    8  F9  UNL     1     -34.058  17.477  -0.452  1.00 20.00    -0.171 F 
HETATM    9  F10 UNL     1     -32.238  17.474  -1.658  1.00 20.00    -0.171 F 
HETATM   10  F11 UNL     1     -34.022  18.507  -2.376  1.00 20.00    -0.171 F 
ENDBRANCH   5   7
BRANCH   6  11
HETATM   11  O8  UNL     1     -32.822  14.386  -5.504  1.00 20.00    -0.396 OA
HETATM   12  H22 UNL     1     -32.847  15.214  -6.009  1.00 20.00     0.210 HD
ENDBRANCH   6  11
TORSDOF 2
ENDMDL
MODEL 5
REMARK VINA RESULT:      -4.8     11.406     12.181
REMARK  2 active torsions:
REMARK  status: ('A' for Active; 'I' for Inactive)
REMARK    1  A    between atoms: C5_5  and  C7_7 
REMARK    2  A    between atoms: C6_6  and  O8_8 
ROOT
HETATM    1  C1  UNL     1     -35.240  16.980  -1.470  1.00 20.00     0.003 C 
HETATM    2  C2  UNL     1     -34.966  15.715  -2.281  1.00 20.00     0.014 C 
HETATM    3  C3  UNL     1     -33.947  17.673  -1.058  1.00 20.00     0.032 C 
HETATM    4  C4  UNL     1     -32.778  16.694  -3.074  1.00 20.00     0.045 C 
HETATM    5  C5  UNL     1     -34.076  15.999  -3.499  1.00 20.00     0.096 C 
HETATM    6  C6  UNL     1     -33.056  17.961  -2.264  1.00 20.00     0.118 C 
ENDROOT
BRANCH   5   7
HETATM    7  C7  UNL     1     -33.775  14.709  -4.260  1.00 20.00     0.391 C 
HETATM    8  F9  UNL     1     -32.464  14.433  -4.193  1.00 20.00    -0.171 F 
HETATM    9  F10 UNL     1     -34.462  13.689  -3.726  1.00 20.00    -0.171 F 
HETATM   10  F11 UNL     1     -34.125  14.843  -5.548  1.00 20.00    -0.171 F 
ENDBRANCH   5   7
BRANCH   6  11
HETATM   11  O8  UNL     1     -31.825  18.526  -1.824  1.00 20.00    -0.396 OA
HETATM   12  H22 UNL     1     -31.775  19.415  -2.210  1.00 20.00     0.210 HD
ENDBRANCH   6  11
TORSDOF 2
ENDMDL
MODEL 6
REMARK VINA RESULT:      -4.7     11.207     12.286
REMARK  2 active torsions:
REMARK  status: ('A' for Active; 'I' for Inactive)
REMARK    1  A    between atoms: C5_5  and  C7_7 
REMARK    2  A    between atoms: C6_6  and  O8_8 
ROOT
HETATM    1  C1  UNL     1     -35.797  15.933  -6.076  1.00 20.00     0.003 C 
HETATM    2  C2  UNL     1     -34.594  16.477  -5.308  1.00 20.00     0.014 C 
HETATM    3  C3  UNL     1     -35.884  14.414  -5.980  1.00 20.00     0.032 C 
HETATM    4  C4  UNL     1     -34.678  14.484  -3.759  1.00 20.00     0.045 C 
HETATM    5  C5  UNL     1     -34.593  16.013  -3.845  1.00 20.00     0.096 C 
HETATM    6  C6  UNL     1     -35.885  13.943  -4.527  1.00 20.00     0.118 C 
ENDROOT
BRANCH   5   7
HETATM    7  C7  UNL     1     -33.352  16.526  -3.117  1.00 20.00     0.391 C 
HETATM    8  F9  UNL     1     -32.327  15.682  -3.307  1.00 20.00    -0.171 F 
HETATM    9  F10 UNL     1     -33.012  17.736  -3.585  1.00 20.00    -0.171 F 
HETATM   10  F11 UNL     1     -33.598  16.622  -1.801  1.00 20.00    -0.171 F 
ENDBRANCH   5   7
BRANCH   6  11
HETATM   11  O8  UNL     1     -35.877  12.519  -4.488  1.00 20.00    -0.396 OA
HETATM   12  H22 UNL     1     -35.636  12.219  -5.378  1.00 20.00     0.210 HD
ENDBRANCH   6  11
TORSDOF 2
ENDMDL
MODEL 7
REMARK VINA RESULT:      -4.6     11.356     12.052
REMARK  2 active torsions:
REMARK  status: ('A' for Active; 'I' for Inactive)
REMARK    1  A    between atoms: C5_5  and  C7_7 
REMARK    2  A    between atoms: C6_6  and  O8_8 
ROOT
HETATM    1  C1  UNL     1     -33.034  17.872  -1.642  1.00 20.00     0.003 C 
HETATM    2  C2  UNL     1     -33.022  16.999  -2.895  1.00 20.00     0.014 C 
HETATM    3  C3  UNL     1     -34.455  18.229  -1.220  1.00 20.00     0.032 C 
HETATM    4  C4  UNL     1     -35.310  16.110  -2.301  1.00 20.00     0.045 C 
HETATM    5  C5  UNL     1     -33.883  15.740  -2.722  1.00 20.00     0.096 C 
HETATM    6  C6  UNL     1     -35.318  16.982  -1.045  1.00 20.00     0.118 C 
ENDROOT
BRANCH   5   7
HETATM    7  C7  UNL     1     -33.896  14.914  -4.007  1.00 20.00     0.391 C 
HETATM    8  F9  UNL     1     -34.419  15.635  -5.010  1.00 20.00    -0.171 F 
HETATM    9  F10 UNL     1     -32.646  14.555  -4.335  1.00 20.00    -0.171 F 
HETATM   10  F11 UNL     1     -34.636  13.808  -3.835  1.00 20.00    -0.171 F 
ENDBRANCH   5   7
BRANCH   6  11
HETATM   11  O8  UNL     1     -36.655  17.367  -0.740  1.00 20.00    -0.396 OA
HETATM   12  H22 UNL     1     -37.214  17.011  -1.449  1.00 20.00     0.210 HD
ENDBRANCH   6  11
TORSDOF 2
ENDMDL
MODEL 8
REMARK VINA RESULT:      -4.5      3.331      4.292
REMARK  2 active torsions:
REMARK  status: ('A' for Active; 'I' for Inactive)
REMARK    1  A    between atoms: C5_5  and  C7_7 
REMARK    2  A    between atoms: C6_6  and  O8_8 
ROOT
HETATM    1  C1  UNL     1     -32.858   7.375   3.018  1.00 20.00     0.003 C 
HETATM    2  C2  UNL     1     -33.205   7.069   4.473  1.00 20.00     0.014 C 
HETATM    3  C3  UNL     1     -32.471   6.113   2.256  1.00 20.00     0.032 C 
HETATM    4  C4  UNL     1     -33.899   4.730   3.818  1.00 20.00     0.045 C 
HETATM    5  C5  UNL     1     -34.298   5.996   4.585  1.00 20.00     0.096 C 
HETATM    6  C6  UNL     1     -33.553   5.041   2.361  1.00 20.00     0.118 C 
ENDROOT
BRANCH   5   7
HETATM    7  C7  UNL     1     -34.587   5.671   6.050  1.00 20.00     0.391 C 
HETATM    8  F9  UNL     1     -34.654   6.803   6.766  1.00 20.00    -0.171 F 
HETATM    9  F10 UNL     1     -35.755   5.021   6.154  1.00 20.00    -0.171 F 
HETATM   10  F11 UNL     1     -33.612   4.898   6.549  1.00 20.00    -0.171 F 
ENDBRANCH   5   7
BRANCH   6  11
HETATM   11  O8  UNL     1     -33.112   3.852   1.711  1.00 20.00    -0.396 OA
HETATM   12  H22 UNL     1     -33.229   3.129   2.348  1.00 20.00     0.210 HD
ENDBRANCH   6  11
TORSDOF 2
ENDMDL
MODEL 9
REMARK VINA RESULT:      -4.5     11.414     12.057
REMARK  2 active torsions:
REMARK  status: ('A' for Active; 'I' for Inactive)
REMARK    1  A    between atoms: C5_5  and  C7_7 
REMARK    2  A    between atoms: C6_6  and  O8_8 
ROOT
HETATM    1  C1  UNL     1     -33.707  14.702  -4.539  1.00 20.00     0.003 C 
HETATM    2  C2  UNL     1     -33.183  15.591  -3.413  1.00 20.00     0.014 C 
HETATM    3  C3  UNL     1     -35.073  14.116  -4.202  1.00 20.00     0.032 C 
HETATM    4  C4  UNL     1     -35.554  16.094  -2.704  1.00 20.00     0.045 C 
HETATM    5  C5  UNL     1     -34.185  16.694  -3.044  1.00 20.00     0.096 C 
HETATM    6  C6  UNL     1     -36.077  15.206  -3.834  1.00 20.00     0.118 C 
ENDROOT
BRANCH   5   7
HETATM    7  C7  UNL     1     -33.659  17.533  -1.881  1.00 20.00     0.391 C 
HETATM    8  F9  UNL     1     -33.896  18.833  -2.109  1.00 20.00    -0.171 F 
HETATM    9  F10 UNL     1     -34.269  17.173  -0.742  1.00 20.00    -0.171 F 
HETATM   10  F11 UNL     1     -32.337  17.350  -1.744  1.00 20.00    -0.171 F 
ENDBRANCH   5   7
BRANCH   6  11
HETATM   11  O8  UNL     1     -37.308  14.608  -3.442  1.00 20.00    -0.396 OA
HETATM   12  H22 UNL     1     -37.982  15.305  -3.491  1.00 20.00     0.210 HD
ENDBRANCH   6  11
TORSDOF 2
ENDMDL
