MODEL 1
REMARK VINA RESULT:      -5.2      0.000      0.000
REMARK  3 active torsions:
REMARK  status: ('A' for Active; 'I' for Inactive)
REMARK    1  A    between atoms: C3_3  and  C4_4 
REMARK    2  A    between atoms: C5_5  and  C8_8 
REMARK    3  A    between atoms: C6_6  and  C8_8 
ROOT
HETATM    1  C4  UNL     1     -33.007   6.339   2.592  1.00 20.00    -0.004 C 
HETATM    2  C6  UNL     1     -33.890   6.488   3.592  1.00 20.00    -0.019 C 
ENDROOT
BRANCH   2   3
HETATM    3  C8  UNL     1     -34.698   5.350   4.168  1.00 20.00     0.026 C 
HETATM    4  C7  UNL     1     -34.089   4.009   3.751  1.00 20.00     0.018 C 
BRANCH   3   5
HETATM    5  C5  UNL     1     -34.755   5.448   5.672  1.00 20.00    -0.029 C 
HETATM    6  C2  UNL     1     -34.254   6.473   6.373  1.00 20.00     0.007 C 
ENDBRANCH   3   5
ENDBRANCH   2   3
BRANCH   1   7
HETATM    7  C3  UNL     1     -32.239   7.435   2.048  1.00 20.00    -0.011 C 
HETATM    8  C1  UNL     1     -32.663   8.196   1.032  1.00 20.00     0.011 C 
ENDBRANCH   1   7
TORSDOF 3
ENDMDL
MODEL 2
REMARK VINA RESULT:      -4.4      0.966      1.825
REMARK  3 active torsions:
REMARK  status: ('A' for Active; 'I' for Inactive)
REMARK    1  A    between atoms: C3_3  and  C4_4 
REMARK    2  A    between atoms: C5_5  and  C8_8 
REMARK    3  A    between atoms: C6_6  and  C8_8 
ROOT
HETATM    1  C4  UNL     1     -32.535   7.562   2.277  1.00 20.00    -0.004 C 
HETATM    2  C6  UNL     1     -33.260   6.504   2.674  1.00 20.00    -0.019 C 
ENDROOT
BRANCH   2   3
HETATM    3  C8  UNL     1     -33.368   6.058   4.112  1.00 20.00     0.026 C 
HETATM    4  C7  UNL     1     -33.231   7.262   5.047  1.00 20.00     0.018 C 
BRANCH   3   5
HETATM    5  C5  UNL     1     -34.684   5.361   4.354  1.00 20.00    -0.029 C 
HETATM    6  C2  UNL     1     -35.118   4.984   5.563  1.00 20.00     0.007 C 
ENDBRANCH   3   5
ENDBRANCH   2   3
BRANCH   1   7
HETATM    7  C3  UNL     1     -32.439   7.979   0.897  1.00 20.00    -0.011 C 
HETATM    8  C1  UNL     1     -32.954   9.126   0.439  1.00 20.00     0.011 C 
ENDBRANCH   1   7
TORSDOF 3
ENDMDL
MODEL 3
REMARK VINA RESULT:      -4.1      1.161      4.416
REMARK  3 active torsions:
REMARK  status: ('A' for Active; 'I' for Inactive)
REMARK    1  A    between atoms: C3_3  and  C4_4 
REMARK    2  A    between atoms: C5_5  and  C8_8 
REMARK    3  A    between atoms: C6_6  and  C8_8 
ROOT
HETATM    1  C4  UNL     1     -33.860   6.393   4.201  1.00 20.00    -0.004 C 
HETATM    2  C6  UNL     1     -32.837   7.140   3.758  1.00 20.00    -0.019 C 
ENDROOT
BRANCH   2   3
HETATM    3  C8  UNL     1     -32.382   7.163   2.318  1.00 20.00     0.026 C 
HETATM    4  C7  UNL     1     -32.906   5.928   1.582  1.00 20.00     0.018 C 
BRANCH   3   5
HETATM    5  C5  UNL     1     -32.860   8.418   1.631  1.00 20.00    -0.029 C 
HETATM    6  C2  UNL     1     -32.867   8.586   0.303  1.00 20.00     0.007 C 
ENDBRANCH   3   5
ENDBRANCH   2   3
BRANCH   1   7
HETATM    7  C3  UNL     1     -34.286   6.377   5.581  1.00 20.00    -0.011 C 
HETATM    8  C1  UNL     1     -34.792   5.294   6.182  1.00 20.00     0.011 C 
ENDBRANCH   1   7
TORSDOF 3
ENDMDL
MODEL 4
REMARK VINA RESULT:      -3.8     11.052     11.914
REMARK  3 active torsions:
REMARK  status: ('A' for Active; 'I' for Inactive)
REMARK    1  A    between atoms: C3_3  and  C4_4 
REMARK    2  A    between atoms: C5_5  and  C8_8 
REMARK    3  A    between atoms: C6_6  and  C8_8 
ROOT
HETATM    1  C4  UNL     1     -35.188  16.210  -1.996  1.00 20.00    -0.004 C 
HETATM    2  C6  UNL     1     -34.108  15.858  -2.712  1.00 20.00    -0.019 C 
ENDROOT
BRANCH   2   3
HETATM    3  C8  UNL     1     -34.177  15.065  -3.994  1.00 20.00     0.026 C 
HETATM    4  C7  UNL     1     -32.781  14.576  -4.385  1.00 20.00     0.018 C 
BRANCH   3   5
HETATM    5  C5  UNL     1     -35.114  13.892  -3.843  1.00 20.00    -0.029 C 
HETATM    6  C2  UNL     1     -36.201  13.702  -4.600  1.00 20.00     0.007 C 
ENDBRANCH   3   5
ENDBRANCH   2   3
BRANCH   1   7
HETATM    7  C3  UNL     1     -35.110  16.969  -0.770  1.00 20.00    -0.011 C 
HETATM    8  C1  UNL     1     -34.157  17.877  -0.527  1.00 20.00     0.011 C 
ENDBRANCH   1   7
TORSDOF 3
ENDMDL
MODEL 5
REMARK VINA RESULT:      -3.7     11.469     12.460
REMARK  3 active torsions:
REMARK  status: ('A' for Active; 'I' for Inactive)
REMARK    1  A    between atoms: C3_3  and  C4_4 
REMARK    2  A    between atoms: C5_5  and  C8_8 
REMARK    3  A    between atoms: C6_6  and  C8_8 
ROOT
HETATM    1  C4  UNL     1     -33.186  17.554  -1.482  1.00 20.00    -0.004 C 
HETATM    2  C6  UNL     1     -33.383  16.700  -2.498  1.00 20.00    -0.019 C 
ENDROOT
BRANCH   2   3
HETATM    3  C8  UNL     1     -34.565  15.765  -2.586  1.00 20.00     0.026 C 
HETATM    4  C7  UNL     1     -35.845  16.560  -2.851  1.00 20.00     0.018 C 
BRANCH   3   5
HETATM    5  C5  UNL     1     -34.354  14.743  -3.676  1.00 20.00    -0.029 C 
HETATM    6  C2  UNL     1     -33.225  14.631  -4.385  1.00 20.00     0.007 C 
ENDBRANCH   3   5
ENDBRANCH   2   3
BRANCH   1   7
HETATM    7  C3  UNL     1     -32.051  18.444  -1.408  1.00 20.00    -0.011 C 
HETATM    8  C1  UNL     1     -31.178  18.439  -0.394  1.00 20.00     0.011 C 
ENDBRANCH   1   7
TORSDOF 3
ENDMDL
MODEL 6
REMARK VINA RESULT:      -3.7     11.370     12.375
REMARK  3 active torsions:
REMARK  status: ('A' for Active; 'I' for Inactive)
REMARK    1  A    between atoms: C3_3  and  C4_4 
REMARK    2  A    between atoms: C5_5  and  C8_8 
REMARK    3  A    between atoms: C6_6  and  C8_8 
ROOT
HETATM    1  C4  UNL     1     -33.468  16.313  -2.747  1.00 20.00    -0.004 C 
HETATM    2  C6  UNL     1     -34.522  15.501  -2.926  1.00 20.00    -0.019 C 
ENDROOT
BRANCH   2   3
HETATM    3  C8  UNL     1     -34.538  14.359  -3.912  1.00 20.00     0.026 C 
HETATM    4  C7  UNL     1     -35.975  14.065  -4.352  1.00 20.00     0.018 C 
BRANCH   3   5
HETATM    5  C5  UNL     1     -33.684  14.681  -5.113  1.00 20.00    -0.029 C 
HETATM    6  C2  UNL     1     -34.176  15.049  -6.302  1.00 20.00     0.007 C 
ENDBRANCH   3   5
ENDBRANCH   2   3
BRANCH   1   7
HETATM    7  C3  UNL     1     -33.463  17.403  -1.800  1.00 20.00    -0.011 C 
HETATM    8  C1  UNL     1     -32.353  18.056  -1.437  1.00 20.00     0.011 C 
ENDBRANCH   1   7
TORSDOF 3
ENDMDL
MODEL 7
REMARK VINA RESULT:      -3.7     11.696     12.543
REMARK  3 active torsions:
REMARK  status: ('A' for Active; 'I' for Inactive)
REMARK    1  A    between atoms: C3_3  and  C4_4 
REMARK    2  A    between atoms: C5_5  and  C8_8 
REMARK    3  A    between atoms: C6_6  and  C8_8 
ROOT
HETATM    1  C4  UNL     1     -34.072  16.446  -2.192  1.00 20.00    -0.004 C 
HETATM    2  C6  UNL     1     -32.982  17.229  -2.179  1.00 20.00    -0.019 C 
ENDROOT
BRANCH   2   3
HETATM    3  C8  UNL     1     -32.738  18.304  -1.149  1.00 20.00     0.026 C 
HETATM    4  C7  UNL     1     -33.699  18.131   0.029  1.00 20.00     0.018 C 
BRANCH   3   5
HETATM    5  C5  UNL     1     -31.310  18.260  -0.664  1.00 20.00    -0.029 C 
HETATM    6  C2  UNL     1     -30.954  18.382   0.621  1.00 20.00     0.007 C 
ENDBRANCH   3   5
ENDBRANCH   2   3
BRANCH   1   7
HETATM    7  C3  UNL     1     -34.296  15.420  -3.183  1.00 20.00    -0.011 C 
HETATM    8  C1  UNL     1     -33.350  14.998  -4.030  1.00 20.00     0.011 C 
ENDBRANCH   1   7
TORSDOF 3
ENDMDL
MODEL 8
REMARK VINA RESULT:      -3.6      1.281      4.209
REMARK  3 active torsions:
REMARK  status: ('A' for Active; 'I' for Inactive)
REMARK    1  A    between atoms: C3_3  and  C4_4 
REMARK    2  A    between atoms: C5_5  and  C8_8 
REMARK    3  A    between atoms: C6_6  and  C8_8 
ROOT
HETATM    1  C4  UNL     1     -33.574   6.810   5.221  1.00 20.00    -0.004 C 
HETATM    2  C6  UNL     1     -33.889   6.499   3.954  1.00 20.00    -0.019 C 
ENDROOT
BRANCH   2   3
HETATM    3  C8  UNL     1     -33.070   6.925   2.760  1.00 20.00     0.026 C 
HETATM    4  C7  UNL     1     -31.756   7.557   3.224  1.00 20.00     0.018 C 
BRANCH   3   5
HETATM    5  C5  UNL     1     -32.791   5.748   1.859  1.00 20.00    -0.029 C 
HETATM    6  C2  UNL     1     -33.094   4.482   2.171  1.00 20.00     0.007 C 
ENDBRANCH   3   5
ENDBRANCH   2   3
BRANCH   1   7
HETATM    7  C3  UNL     1     -34.365   6.397   6.356  1.00 20.00    -0.011 C 
HETATM    8  C1  UNL     1     -35.072   5.261   6.384  1.00 20.00     0.011 C 
ENDBRANCH   1   7
TORSDOF 3
ENDMDL
MODEL 9
REMARK VINA RESULT:      -3.5      9.340     10.144
REMARK  3 active torsions:
REMARK  status: ('A' for Active; 'I' for Inactive)
REMARK    1  A    between atoms: C3_3  and  C4_4 
REMARK    2  A    between atoms: C5_5  and  C8_8 
REMARK    3  A    between atoms: C6_6  and  C8_8 
ROOT
HETATM    1  C4  UNL     1     -42.701   4.649  -1.609  1.00 20.00    -0.004 C 
HETATM    2  C6  UNL     1     -41.490   5.182  -1.382  1.00 20.00    -0.019 C 
ENDROOT
BRANCH   2   3
HETATM    3  C8  UNL     1     -41.239   6.293  -0.391  1.00 20.00     0.026 C 
HETATM    4  C7  UNL     1     -41.320   7.651  -1.093  1.00 20.00     0.018 C 
BRANCH   3   5
HETATM    5  C5  UNL     1     -42.238   6.232   0.738  1.00 20.00    -0.029 C 
HETATM    6  C2  UNL     1     -43.128   7.197   0.999  1.00 20.00     0.007 C 
ENDBRANCH   3   5
ENDBRANCH   2   3
BRANCH   1   7
HETATM    7  C3  UNL     1     -42.930   3.586  -2.561  1.00 20.00    -0.011 C 
HETATM    8  C1  UNL     1     -41.946   2.982  -3.237  1.00 20.00     0.011 C 
ENDBRANCH   1   7
TORSDOF 3
ENDMDL
