MODEL 1
REMARK VINA RESULT:      -5.3      0.000      0.000
REMARK  0 active torsions:
REMARK  status: ('A' for Active; 'I' for Inactive)
ROOT
HETATM    1  C1  UNL     1     -33.384  17.741  -1.379  1.00 20.00    -0.077 C 
HETATM    2  C2  UNL     1     -33.853  16.725  -2.117  1.00 20.00    -0.077 C 
HETATM    3  C3  UNL     1     -34.157  18.329  -0.228  1.00 20.00     0.034 C 
HETATM    4  C4  UNL     1     -32.034  18.364  -1.626  1.00 20.00     0.034 C 
HETATM    5  C5  UNL     1     -33.079  16.138  -3.269  1.00 20.00     0.034 C 
HETATM    6  C6  UNL     1     -35.201  16.101  -1.870  1.00 20.00     0.034 C 
HETATM    7  C7  UNL     1     -33.310  18.336   1.046  1.00 20.00     0.004 C 
HETATM    8  C8  UNL     1     -31.198  18.373  -0.346  1.00 20.00     0.004 C 
HETATM    9  C9  UNL     1     -33.925  16.130  -4.542  1.00 20.00     0.004 C 
HETATM   10  C10 UNL     1     -36.038  16.094  -3.151  1.00 20.00     0.004 C 
HETATM   11  C11 UNL     1     -31.953  19.007   0.824  1.00 20.00     0.001 C 
HETATM   12  C12 UNL     1     -35.282  15.459  -4.319  1.00 20.00     0.001 C 
ENDROOT
TORSDOF 0
ENDMDL
MODEL 2
REMARK VINA RESULT:      -5.3      0.262      4.651
REMARK  0 active torsions:
REMARK  status: ('A' for Active; 'I' for Inactive)
ROOT
HETATM    1  C1  UNL     1     -33.872  16.564  -2.275  1.00 20.00    -0.077 C 
HETATM    2  C2  UNL     1     -33.456  17.620  -1.562  1.00 20.00    -0.077 C 
HETATM    3  C3  UNL     1     -35.208  15.908  -2.045  1.00 20.00     0.034 C 
HETATM    4  C4  UNL     1     -33.047  15.959  -3.382  1.00 20.00     0.034 C 
HETATM    5  C5  UNL     1     -32.118  18.275  -1.793  1.00 20.00     0.034 C 
HETATM    6  C6  UNL     1     -34.281  18.224  -0.456  1.00 20.00     0.034 C 
HETATM    7  C7  UNL     1     -36.004  15.829  -3.347  1.00 20.00     0.004 C 
HETATM    8  C8  UNL     1     -33.853  15.878  -4.678  1.00 20.00     0.004 C 
HETATM    9  C9  UNL     1     -31.323  18.355  -0.490  1.00 20.00     0.004 C 
HETATM   10  C10 UNL     1     -33.473  18.304   0.841  1.00 20.00     0.004 C 
HETATM   11  C11 UNL     1     -35.196  15.175  -4.470  1.00 20.00     0.001 C 
HETATM   12  C12 UNL     1     -32.132  19.009   0.632  1.00 20.00     0.001 C 
ENDROOT
TORSDOF 0
ENDMDL
MODEL 3
REMARK VINA RESULT:      -4.8      1.290      4.913
REMARK  0 active torsions:
REMARK  status: ('A' for Active; 'I' for Inactive)
ROOT
HETATM    1  C1  UNL     1     -34.331  16.531  -2.553  1.00 20.00    -0.077 C 
HETATM    2  C2  UNL     1     -34.257  17.097  -1.341  1.00 20.00    -0.077 C 
HETATM    3  C3  UNL     1     -33.201  16.596  -3.547  1.00 20.00     0.034 C 
HETATM    4  C4  UNL     1     -35.543  15.763  -3.015  1.00 20.00     0.034 C 
HETATM    5  C5  UNL     1     -35.389  17.032  -0.348  1.00 20.00     0.034 C 
HETATM    6  C6  UNL     1     -33.046  17.864  -0.879  1.00 20.00     0.034 C 
HETATM    7  C7  UNL     1     -32.818  15.195  -4.024  1.00 20.00     0.004 C 
HETATM    8  C8  UNL     1     -35.149  14.366  -3.496  1.00 20.00     0.004 C 
HETATM    9  C9  UNL     1     -35.771  18.433   0.131  1.00 20.00     0.004 C 
HETATM   10  C10 UNL     1     -33.441  19.262  -0.398  1.00 20.00     0.004 C 
HETATM   11  C11 UNL     1     -34.031  14.417  -4.539  1.00 20.00     0.001 C 
HETATM   12  C12 UNL     1     -34.558  19.209   0.645  1.00 20.00     0.001 C 
ENDROOT
TORSDOF 0
ENDMDL
MODEL 4
REMARK VINA RESULT:      -4.8      1.267      3.058
REMARK  0 active torsions:
REMARK  status: ('A' for Active; 'I' for Inactive)
ROOT
HETATM    1  C1  UNL     1     -34.385  16.397  -2.730  1.00 20.00    -0.077 C 
HETATM    2  C2  UNL     1     -35.000  16.097  -3.882  1.00 20.00    -0.077 C 
HETATM    3  C3  UNL     1     -32.960  16.885  -2.678  1.00 20.00     0.034 C 
HETATM    4  C4  UNL     1     -35.074  16.295  -1.394  1.00 20.00     0.034 C 
HETATM    5  C5  UNL     1     -36.425  15.609  -3.934  1.00 20.00     0.034 C 
HETATM    6  C6  UNL     1     -34.312  16.200  -5.218  1.00 20.00     0.034 C 
HETATM    7  C7  UNL     1     -32.866  18.200  -1.905  1.00 20.00     0.004 C 
HETATM    8  C8  UNL     1     -34.969  17.614  -0.627  1.00 20.00     0.004 C 
HETATM    9  C9  UNL     1     -36.520  14.294  -4.708  1.00 20.00     0.004 C 
HETATM   10  C10 UNL     1     -34.417  14.880  -5.985  1.00 20.00     0.004 C 
HETATM   11  C11 UNL     1     -33.522  18.100  -0.526  1.00 20.00     0.001 C 
HETATM   12  C12 UNL     1     -35.864  14.396  -6.086  1.00 20.00     0.001 C 
ENDROOT
TORSDOF 0
ENDMDL
MODEL 5
REMARK VINA RESULT:      -4.8      1.276      5.468
REMARK  0 active torsions:
REMARK  status: ('A' for Active; 'I' for Inactive)
ROOT
HETATM    1  C1  UNL     1     -34.996  16.095  -3.908  1.00 20.00    -0.077 C 
HETATM    2  C2  UNL     1     -34.382  16.392  -2.754  1.00 20.00    -0.077 C 
HETATM    3  C3  UNL     1     -34.307  16.204  -5.243  1.00 20.00     0.034 C 
HETATM    4  C4  UNL     1     -36.420  15.605  -3.963  1.00 20.00     0.034 C 
HETATM    5  C5  UNL     1     -35.072  16.283  -1.419  1.00 20.00     0.034 C 
HETATM    6  C6  UNL     1     -32.958  16.881  -2.699  1.00 20.00     0.034 C 
HETATM    7  C7  UNL     1     -34.409  14.887  -6.014  1.00 20.00     0.004 C 
HETATM    8  C8  UNL     1     -36.513  14.292  -4.741  1.00 20.00     0.004 C 
HETATM    9  C9  UNL     1     -34.969  17.599  -0.647  1.00 20.00     0.004 C 
HETATM   10  C10 UNL     1     -32.866  18.195  -1.920  1.00 20.00     0.004 C 
HETATM   11  C11 UNL     1     -35.856  14.399  -6.119  1.00 20.00     0.001 C 
HETATM   12  C12 UNL     1     -33.522  18.086  -0.543  1.00 20.00     0.001 C 
ENDROOT
TORSDOF 0
ENDMDL
MODEL 6
REMARK VINA RESULT:      -4.8      1.482      5.615
REMARK  0 active torsions:
REMARK  status: ('A' for Active; 'I' for Inactive)
ROOT
HETATM    1  C1  UNL     1     -33.081  18.152  -0.121  1.00 20.00    -0.077 C 
HETATM    2  C2  UNL     1     -32.257  18.113   0.936  1.00 20.00    -0.077 C 
HETATM    3  C3  UNL     1     -32.576  18.201  -1.539  1.00 20.00     0.034 C 
HETATM    4  C4  UNL     1     -34.581  18.126   0.022  1.00 20.00     0.034 C 
HETATM    5  C5  UNL     1     -32.764  18.064   2.354  1.00 20.00     0.034 C 
HETATM    6  C6  UNL     1     -30.758  18.138   0.793  1.00 20.00     0.034 C 
HETATM    7  C7  UNL     1     -33.191  17.077  -2.373  1.00 20.00     0.004 C 
HETATM    8  C8  UNL     1     -35.187  17.003  -0.821  1.00 20.00     0.004 C 
HETATM    9  C9  UNL     1     -32.148  19.187   3.188  1.00 20.00     0.004 C 
HETATM   10  C10 UNL     1     -30.152  19.262   1.636  1.00 20.00     0.004 C 
HETATM   11  C11 UNL     1     -34.718  17.066  -2.275  1.00 20.00     0.001 C 
HETATM   12  C12 UNL     1     -30.621  19.198   3.090  1.00 20.00     0.001 C 
ENDROOT
TORSDOF 0
ENDMDL
MODEL 7
REMARK VINA RESULT:      -4.7      1.290      2.625
REMARK  0 active torsions:
REMARK  status: ('A' for Active; 'I' for Inactive)
ROOT
HETATM    1  C1  UNL     1     -34.264  17.110  -1.341  1.00 20.00    -0.077 C 
HETATM    2  C2  UNL     1     -34.330  16.553  -2.558  1.00 20.00    -0.077 C 
HETATM    3  C3  UNL     1     -33.052  17.865  -0.862  1.00 20.00     0.034 C 
HETATM    4  C4  UNL     1     -35.406  17.048  -0.359  1.00 20.00     0.034 C 
HETATM    5  C5  UNL     1     -35.543  15.797  -3.036  1.00 20.00     0.034 C 
HETATM    6  C6  UNL     1     -33.190  16.616  -3.539  1.00 20.00     0.034 C 
HETATM    7  C7  UNL     1     -33.440  19.262  -0.377  1.00 20.00     0.004 C 
HETATM    8  C8  UNL     1     -35.783  18.449   0.125  1.00 20.00     0.004 C 
HETATM    9  C9  UNL     1     -35.155  14.400  -3.522  1.00 20.00     0.004 C 
HETATM   10  C10 UNL     1     -32.813  15.213  -4.022  1.00 20.00     0.004 C 
HETATM   11  C11 UNL     1     -34.569  19.213   0.656  1.00 20.00     0.001 C 
HETATM   12  C12 UNL     1     -34.027  14.450  -4.554  1.00 20.00     0.001 C 
ENDROOT
TORSDOF 0
ENDMDL
MODEL 8
REMARK VINA RESULT:      -4.7      0.763      4.672
REMARK  0 active torsions:
REMARK  status: ('A' for Active; 'I' for Inactive)
ROOT
HETATM    1  C1  UNL     1     -33.945  17.242  -1.645  1.00 20.00    -0.077 C 
HETATM    2  C2  UNL     1     -33.242  18.109  -0.904  1.00 20.00    -0.077 C 
HETATM    3  C3  UNL     1     -35.364  16.860  -1.315  1.00 20.00     0.034 C 
HETATM    4  C4  UNL     1     -33.382  16.594  -2.884  1.00 20.00     0.034 C 
HETATM    5  C5  UNL     1     -31.821  18.490  -1.235  1.00 20.00     0.034 C 
HETATM    6  C6  UNL     1     -33.804  18.757   0.333  1.00 20.00     0.034 C 
HETATM    7  C7  UNL     1     -36.279  17.083  -2.519  1.00 20.00     0.004 C 
HETATM    8  C8  UNL     1     -34.307  16.816  -4.081  1.00 20.00     0.004 C 
HETATM    9  C9  UNL     1     -30.906  18.268  -0.030  1.00 20.00     0.004 C 
HETATM   10  C10 UNL     1     -32.879  18.534   1.531  1.00 20.00     0.004 C 
HETATM   11  C11 UNL     1     -35.744  16.392  -3.776  1.00 20.00     0.001 C 
HETATM   12  C12 UNL     1     -31.442  18.959   1.225  1.00 20.00     0.001 C 
ENDROOT
TORSDOF 0
ENDMDL
MODEL 9
REMARK VINA RESULT:      -4.7      1.433      3.304
REMARK  0 active torsions:
REMARK  status: ('A' for Active; 'I' for Inactive)
ROOT
HETATM    1  C1  UNL     1     -32.184  18.150   0.791  1.00 20.00    -0.077 C 
HETATM    2  C2  UNL     1     -32.953  18.189  -0.305  1.00 20.00    -0.077 C 
HETATM    3  C3  UNL     1     -30.679  18.138   0.723  1.00 20.00     0.034 C 
HETATM    4  C4  UNL     1     -32.759  18.139   2.184  1.00 20.00     0.034 C 
HETATM    5  C5  UNL     1     -34.459  18.201  -0.236  1.00 20.00     0.034 C 
HETATM    6  C6  UNL     1     -32.378  18.202  -1.697  1.00 20.00     0.034 C 
HETATM    7  C7  UNL     1     -30.089  19.263   1.575  1.00 20.00     0.004 C 
HETATM    8  C8  UNL     1     -32.159  19.263   3.029  1.00 20.00     0.004 C 
HETATM    9  C9  UNL     1     -35.049  17.077  -1.088  1.00 20.00     0.004 C 
HETATM   10  C10 UNL     1     -32.979  17.076  -2.542  1.00 20.00     0.004 C 
HETATM   11  C11 UNL     1     -30.630  19.237   3.006  1.00 20.00     0.001 C 
HETATM   12  C12 UNL     1     -34.508  17.103  -2.519  1.00 20.00     0.001 C 
ENDROOT
TORSDOF 0
ENDMDL
