MODEL 1
REMARK VINA RESULT:      -4.7      0.000      0.000
REMARK  4 active torsions:
REMARK  status: ('A' for Active; 'I' for Inactive)
REMARK    1  A    between atoms: C5_5  and  O8_8 
REMARK    2  A    between atoms: C6_6  and  O9_9 
REMARK    3  A    between atoms: C7_7  and  O8_8 
REMARK    4  A    between atoms: C7_7  and  O9_9 
ROOT
HETATM    1  C1  UNL     1     -32.913   9.063   0.352  1.00 20.00     0.014 C 
HETATM    2  C2  UNL     1     -32.696   8.253   1.212  1.00 20.00    -0.091 C 
HETATM    3  C5  UNL     1     -32.431   7.265   2.258  1.00 20.00     0.263 C 
ENDROOT
BRANCH   3   4
HETATM    4  O8  UNL     1     -33.623   6.965   2.972  1.00 20.00    -0.350 OA
BRANCH   4   5
HETATM    5  C7  UNL     1     -33.603   5.665   3.568  1.00 20.00     0.256 C 
HETATM    6  C4  UNL     1     -33.260   4.629   2.505  1.00 20.00     0.070 C 
BRANCH   5   7
HETATM    7  O9  UNL     1     -34.894   5.314   4.084  1.00 20.00    -0.362 OA
BRANCH   7   8
HETATM    8  C6  UNL     1     -34.893   5.197   5.501  1.00 20.00     0.166 C 
HETATM    9  C3  UNL     1     -34.201   6.404   6.096  1.00 20.00     0.033 C 
ENDBRANCH   7   8
ENDBRANCH   5   7
ENDBRANCH   4   5
ENDBRANCH   3   4
TORSDOF 4
ENDMDL
MODEL 2
REMARK VINA RESULT:      -4.2      1.259      4.499
REMARK  4 active torsions:
REMARK  status: ('A' for Active; 'I' for Inactive)
REMARK    1  A    between atoms: C5_5  and  O8_8 
REMARK    2  A    between atoms: C6_6  and  O9_9 
REMARK    3  A    between atoms: C7_7  and  O8_8 
REMARK    4  A    between atoms: C7_7  and  O9_9 
ROOT
HETATM    1  C1  UNL     1     -34.847   5.192   5.969  1.00 20.00     0.014 C 
HETATM    2  C2  UNL     1     -34.262   6.146   5.535  1.00 20.00    -0.091 C 
HETATM    3  C5  UNL     1     -33.551   7.311   5.007  1.00 20.00     0.263 C 
ENDROOT
BRANCH   3   4
HETATM    4  O8  UNL     1     -32.589   6.910   4.039  1.00 20.00    -0.350 OA
BRANCH   4   5
HETATM    5  C7  UNL     1     -33.161   6.672   2.750  1.00 20.00     0.256 C 
HETATM    6  C4  UNL     1     -33.178   5.174   2.476  1.00 20.00     0.070 C 
BRANCH   5   7
HETATM    7  O9  UNL     1     -32.371   7.272   1.716  1.00 20.00    -0.362 OA
BRANCH   7   8
HETATM    8  C6  UNL     1     -32.815   8.582   1.390  1.00 20.00     0.166 C 
HETATM    9  C3  UNL     1     -33.093   8.654  -0.096  1.00 20.00     0.033 C 
ENDBRANCH   7   8
ENDBRANCH   5   7
ENDBRANCH   4   5
ENDBRANCH   3   4
TORSDOF 4
ENDMDL
MODEL 3
REMARK VINA RESULT:      -3.9     10.883     11.540
REMARK  4 active torsions:
REMARK  status: ('A' for Active; 'I' for Inactive)
REMARK    1  A    between atoms: C5_5  and  O8_8 
REMARK    2  A    between atoms: C6_6  and  O9_9 
REMARK    3  A    between atoms: C7_7  and  O8_8 
REMARK    4  A    between atoms: C7_7  and  O9_9 
ROOT
HETATM    1  C1  UNL     1     -34.643  16.200  -2.036  1.00 20.00     0.014 C 
HETATM    2  C2  UNL     1     -34.429  15.477  -2.971  1.00 20.00    -0.091 C 
HETATM    3  C5  UNL     1     -34.169  14.599  -4.112  1.00 20.00     0.263 C 
ENDROOT
BRANCH   3   4
HETATM    4  O8  UNL     1     -34.983  13.435  -4.040  1.00 20.00    -0.350 OA
BRANCH   4   5
HETATM    5  C7  UNL     1     -36.117  13.494  -4.909  1.00 20.00     0.256 C 
HETATM    6  C4  UNL     1     -35.932  14.633  -5.903  1.00 20.00     0.070 C 
BRANCH   5   7
HETATM    7  O9  UNL     1     -37.315  13.777  -4.174  1.00 20.00    -0.362 OA
BRANCH   7   8
HETATM    8  C6  UNL     1     -37.833  15.069  -4.467  1.00 20.00     0.166 C 
HETATM    9  C3  UNL     1     -39.324  15.074  -4.203  1.00 20.00     0.033 C 
ENDBRANCH   7   8
ENDBRANCH   5   7
ENDBRANCH   4   5
ENDBRANCH   3   4
TORSDOF 4
ENDMDL
MODEL 4
REMARK VINA RESULT:      -3.9      1.108      1.411
REMARK  4 active torsions:
REMARK  status: ('A' for Active; 'I' for Inactive)
REMARK    1  A    between atoms: C5_5  and  O8_8 
REMARK    2  A    between atoms: C6_6  and  O9_9 
REMARK    3  A    between atoms: C7_7  and  O8_8 
REMARK    4  A    between atoms: C7_7  and  O9_9 
ROOT
HETATM    1  C1  UNL     1     -33.323   8.974  -0.091  1.00 20.00     0.014 C 
HETATM    2  C2  UNL     1     -32.793   8.374   0.804  1.00 20.00    -0.091 C 
HETATM    3  C5  UNL     1     -32.146   7.642   1.893  1.00 20.00     0.263 C 
ENDROOT
BRANCH   3   4
HETATM    4  O8  UNL     1     -32.852   6.440   2.174  1.00 20.00    -0.350 OA
BRANCH   4   5
HETATM    5  C7  UNL     1     -33.638   6.521   3.366  1.00 20.00     0.256 C 
HETATM    6  C4  UNL     1     -32.847   7.254   4.442  1.00 20.00     0.070 C 
BRANCH   5   7
HETATM    7  O9  UNL     1     -33.927   5.216   3.883  1.00 20.00    -0.362 OA
BRANCH   7   8
HETATM    8  C6  UNL     1     -35.153   5.181   4.603  1.00 20.00     0.166 C 
HETATM    9  C3  UNL     1     -34.853   5.127   6.085  1.00 20.00     0.033 C 
ENDBRANCH   7   8
ENDBRANCH   5   7
ENDBRANCH   4   5
ENDBRANCH   3   4
TORSDOF 4
ENDMDL
MODEL 5
REMARK VINA RESULT:      -3.9     16.210     17.265
REMARK  4 active torsions:
REMARK  status: ('A' for Active; 'I' for Inactive)
REMARK    1  A    between atoms: C5_5  and  O8_8 
REMARK    2  A    between atoms: C6_6  and  O9_9 
REMARK    3  A    between atoms: C7_7  and  O8_8 
REMARK    4  A    between atoms: C7_7  and  O9_9 
ROOT
HETATM    1  C1  UNL     1     -24.542  15.690  11.578  1.00 20.00     0.014 C 
HETATM    2  C2  UNL     1     -23.811  16.631  11.727  1.00 20.00    -0.091 C 
HETATM    3  C5  UNL     1     -22.922  17.779  11.908  1.00 20.00     0.263 C 
ENDROOT
BRANCH   3   4
HETATM    4  O8  UNL     1     -21.982  17.853  10.843  1.00 20.00    -0.350 OA
BRANCH   4   5
HETATM    5  C7  UNL     1     -22.596  17.796   9.553  1.00 20.00     0.256 C 
HETATM    6  C4  UNL     1     -21.697  17.016   8.602  1.00 20.00     0.070 C 
BRANCH   5   7
HETATM    7  O9  UNL     1     -22.748  19.107   8.995  1.00 20.00    -0.362 OA
BRANCH   7   8
HETATM    8  C6  UNL     1     -23.988  19.263   8.317  1.00 20.00     0.166 C 
HETATM    9  C3  UNL     1     -25.112  19.236   9.330  1.00 20.00     0.033 C 
ENDBRANCH   7   8
ENDBRANCH   5   7
ENDBRANCH   4   5
ENDBRANCH   3   4
TORSDOF 4
ENDMDL
MODEL 6
REMARK VINA RESULT:      -3.8     11.097     12.342
REMARK  4 active torsions:
REMARK  status: ('A' for Active; 'I' for Inactive)
REMARK    1  A    between atoms: C5_5  and  O8_8 
REMARK    2  A    between atoms: C6_6  and  O9_9 
REMARK    3  A    between atoms: C7_7  and  O8_8 
REMARK    4  A    between atoms: C7_7  and  O9_9 
ROOT
HETATM    1  C1  UNL     1     -33.671  16.507  -2.643  1.00 20.00     0.014 C 
HETATM    2  C2  UNL     1     -33.541  15.595  -3.412  1.00 20.00    -0.091 C 
HETATM    3  C5  UNL     1     -33.381  14.484  -4.351  1.00 20.00     0.263 C 
ENDROOT
BRANCH   3   4
HETATM    4  O8  UNL     1     -34.591  13.745  -4.458  1.00 20.00    -0.350 OA
BRANCH   4   5
HETATM    5  C7  UNL     1     -35.634  14.473  -5.111  1.00 20.00     0.256 C 
HETATM    6  C4  UNL     1     -36.941  14.266  -4.357  1.00 20.00     0.070 C 
BRANCH   5   7
HETATM    7  O9  UNL     1     -35.845  13.991  -6.443  1.00 20.00    -0.362 OA
BRANCH   7   8
HETATM    8  C6  UNL     1     -35.768  15.030  -7.411  1.00 20.00     0.166 C 
HETATM    9  C3  UNL     1     -34.314  15.380  -7.644  1.00 20.00     0.033 C 
ENDBRANCH   7   8
ENDBRANCH   5   7
ENDBRANCH   4   5
ENDBRANCH   3   4
TORSDOF 4
ENDMDL
MODEL 7
REMARK VINA RESULT:      -3.7     11.308     11.995
REMARK  4 active torsions:
REMARK  status: ('A' for Active; 'I' for Inactive)
REMARK    1  A    between atoms: C5_5  and  O8_8 
REMARK    2  A    between atoms: C6_6  and  O9_9 
REMARK    3  A    between atoms: C7_7  and  O8_8 
REMARK    4  A    between atoms: C7_7  and  O9_9 
ROOT
HETATM    1  C1  UNL     1     -35.142  16.496  -1.492  1.00 20.00     0.014 C 
HETATM    2  C2  UNL     1     -34.323  16.236  -2.330  1.00 20.00    -0.091 C 
HETATM    3  C5  UNL     1     -33.322  15.919  -3.350  1.00 20.00     0.263 C 
ENDROOT
BRANCH   3   4
HETATM    4  O8  UNL     1     -33.875  16.067  -4.651  1.00 20.00    -0.350 OA
BRANCH   4   5
HETATM    5  C7  UNL     1     -33.799  14.869  -5.429  1.00 20.00     0.256 C 
HETATM    6  C4  UNL     1     -34.125  15.190  -6.881  1.00 20.00     0.070 C 
BRANCH   5   7
HETATM    7  O9  UNL     1     -34.767  13.908  -4.991  1.00 20.00    -0.362 OA
BRANCH   7   8
HETATM    8  C6  UNL     1     -36.073  14.201  -5.472  1.00 20.00     0.166 C 
HETATM    9  C3  UNL     1     -37.010  14.354  -4.293  1.00 20.00     0.033 C 
ENDBRANCH   7   8
ENDBRANCH   5   7
ENDBRANCH   4   5
ENDBRANCH   3   4
TORSDOF 4
ENDMDL
MODEL 8
REMARK VINA RESULT:      -3.6     15.943     16.735
REMARK  4 active torsions:
REMARK  status: ('A' for Active; 'I' for Inactive)
REMARK    1  A    between atoms: C5_5  and  O8_8 
REMARK    2  A    between atoms: C6_6  and  O9_9 
REMARK    3  A    between atoms: C7_7  and  O8_8 
REMARK    4  A    between atoms: C7_7  and  O9_9 
ROOT
HETATM    1  C1  UNL     1     -26.130  19.221   6.500  1.00 20.00     0.014 C 
HETATM    2  C2  UNL     1     -25.443  19.238   7.484  1.00 20.00    -0.091 C 
HETATM    3  C5  UNL     1     -24.606  19.260   8.684  1.00 20.00     0.263 C 
ENDROOT
BRANCH   3   4
HETATM    4  O8  UNL     1     -23.228  19.263   8.330  1.00 20.00    -0.350 OA
BRANCH   4   5
HETATM    5  C7  UNL     1     -22.438  18.406   9.159  1.00 20.00     0.256 C 
HETATM    6  C4  UNL     1     -21.709  17.393   8.285  1.00 20.00     0.070 C 
BRANCH   5   7
HETATM    7  O9  UNL     1     -23.262  17.657  10.060  1.00 20.00    -0.362 OA
BRANCH   7   8
HETATM    8  C6  UNL     1     -22.782  17.710  11.398  1.00 20.00     0.166 C 
HETATM    9  C3  UNL     1     -23.950  17.945  12.332  1.00 20.00     0.033 C 
ENDBRANCH   7   8
ENDBRANCH   5   7
ENDBRANCH   4   5
ENDBRANCH   3   4
TORSDOF 4
ENDMDL
MODEL 9
REMARK VINA RESULT:      -3.6      0.898      4.028
REMARK  4 active torsions:
REMARK  status: ('A' for Active; 'I' for Inactive)
REMARK    1  A    between atoms: C5_5  and  O8_8 
REMARK    2  A    between atoms: C6_6  and  O9_9 
REMARK    3  A    between atoms: C7_7  and  O8_8 
REMARK    4  A    between atoms: C7_7  and  O9_9 
ROOT
HETATM    1  C1  UNL     1     -33.848   6.993   6.363  1.00 20.00     0.014 C 
HETATM    2  C2  UNL     1     -34.429   6.124   5.773  1.00 20.00    -0.091 C 
HETATM    3  C5  UNL     1     -35.138   5.064   5.056  1.00 20.00     0.263 C 
ENDROOT
BRANCH   3   4
HETATM    4  O8  UNL     1     -34.250   4.368   4.191  1.00 20.00    -0.350 OA
BRANCH   4   5
HETATM    5  C7  UNL     1     -34.048   5.039   2.944  1.00 20.00     0.256 C 
HETATM    6  C4  UNL     1     -32.952   4.326   2.161  1.00 20.00     0.070 C 
BRANCH   5   7
HETATM    7  O9  UNL     1     -33.600   6.385   3.148  1.00 20.00    -0.362 OA
BRANCH   7   8
HETATM    8  C6  UNL     1     -32.382   6.656   2.468  1.00 20.00     0.166 C 
HETATM    9  C3  UNL     1     -32.570   7.869   1.582  1.00 20.00     0.033 C 
ENDBRANCH   7   8
ENDBRANCH   5   7
ENDBRANCH   4   5
ENDBRANCH   3   4
TORSDOF 4
ENDMDL
