MODEL 1
REMARK VINA RESULT:      -4.6      0.000      0.000
REMARK  5 active torsions:
REMARK  status: ('A' for Active; 'I' for Inactive)
REMARK    1  A    between atoms: C1_1  and  C9_9 
REMARK    2  A    between atoms: C6_6  and  C7_7 
REMARK    3  A    between atoms: C6_6  and  C8_8 
REMARK    4  A    between atoms: C7_7  and  C9_9 
REMARK    5  A    between atoms: C8_8  and  C10_10 
ROOT
HETATM    1  C7  UNL     1     -32.923   5.770   2.177  1.00 20.00     0.011 C 
ENDROOT
BRANCH   1   2
HETATM    2  C6  UNL     1     -33.763   5.071   3.253  1.00 20.00     0.001 C 
BRANCH   2   3
HETATM    3  C8  UNL     1     -34.773   6.041   3.878  1.00 20.00     0.004 C 
BRANCH   3   4
HETATM    4  C10 UNL     1     -34.827   5.964   5.415  1.00 20.00    -0.023 C 
HETATM    5  C4  UNL     1     -34.549   4.555   5.939  1.00 20.00     0.009 C 
HETATM    6  C5  UNL     1     -33.821   6.947   6.017  1.00 20.00     0.009 C 
ENDBRANCH   3   4
ENDBRANCH   2   3
ENDBRANCH   1   2
BRANCH   1   7
HETATM    7  C9  UNL     1     -32.709   7.275   2.409  1.00 20.00     0.051 C 
HETATM    8  C3  UNL     1     -31.595   7.554   3.418  1.00 20.00     0.018 C 
BRANCH   7   9
HETATM    9  C1  UNL     1     -32.472   8.024   1.098  1.00 20.00     0.126 C 
HETATM   10  C2  UNL     1     -33.228   9.313   0.896  1.00 20.00     0.091 C 
HETATM   11  O11 UNL     1     -31.687   7.619   0.239  1.00 20.00    -0.298 OA
ENDBRANCH   7   9
ENDBRANCH   1   7
TORSDOF 5
ENDMDL
MODEL 2
REMARK VINA RESULT:      -4.6     10.965     11.645
REMARK  5 active torsions:
REMARK  status: ('A' for Active; 'I' for Inactive)
REMARK    1  A    between atoms: C1_1  and  C9_9 
REMARK    2  A    between atoms: C6_6  and  C7_7 
REMARK    3  A    between atoms: C6_6  and  C8_8 
REMARK    4  A    between atoms: C7_7  and  C9_9 
REMARK    5  A    between atoms: C8_8  and  C10_10 
ROOT
HETATM    1  C7  UNL     1     -33.719  14.656  -4.177  1.00 20.00     0.011 C 
ENDROOT
BRANCH   1   2
HETATM    2  C6  UNL     1     -33.258  15.860  -3.347  1.00 20.00     0.001 C 
BRANCH   2   3
HETATM    3  C8  UNL     1     -34.291  16.215  -2.271  1.00 20.00     0.004 C 
BRANCH   3   4
HETATM    4  C10 UNL     1     -34.042  17.582  -1.608  1.00 20.00    -0.023 C 
HETATM    5  C4  UNL     1     -34.588  17.647  -0.181  1.00 20.00     0.009 C 
HETATM    6  C5  UNL     1     -32.542  17.888  -1.602  1.00 20.00     0.009 C 
ENDBRANCH   3   4
ENDBRANCH   2   3
ENDBRANCH   1   2
BRANCH   1   7
HETATM    7  C9  UNL     1     -35.015  14.884  -4.972  1.00 20.00     0.051 C 
HETATM    8  C3  UNL     1     -34.774  14.911  -6.480  1.00 20.00     0.018 C 
BRANCH   7   9
HETATM    9  C1  UNL     1     -36.097  13.870  -4.599  1.00 20.00     0.126 C 
HETATM   10  C2  UNL     1     -37.482  14.406  -4.337  1.00 20.00     0.091 C 
HETATM   11  O11 UNL     1     -35.871  12.661  -4.530  1.00 20.00    -0.298 OA
ENDBRANCH   7   9
ENDBRANCH   1   7
TORSDOF 5
ENDMDL
MODEL 3
REMARK VINA RESULT:      -4.4      2.437      5.187
REMARK  5 active torsions:
REMARK  status: ('A' for Active; 'I' for Inactive)
REMARK    1  A    between atoms: C1_1  and  C9_9 
REMARK    2  A    between atoms: C6_6  and  C7_7 
REMARK    3  A    between atoms: C6_6  and  C8_8 
REMARK    4  A    between atoms: C7_7  and  C9_9 
REMARK    5  A    between atoms: C8_8  and  C10_10 
ROOT
HETATM    1  C7  UNL     1     -33.616   6.768   3.519  1.00 20.00     0.011 C 
ENDROOT
BRANCH   1   2
HETATM    2  C6  UNL     1     -32.753   6.320   2.333  1.00 20.00     0.001 C 
BRANCH   2   3
HETATM    3  C8  UNL     1     -32.137   7.526   1.614  1.00 20.00     0.004 C 
BRANCH   3   4
HETATM    4  C10 UNL     1     -33.182   8.446   0.955  1.00 20.00    -0.023 C 
HETATM    5  C4  UNL     1     -32.928   9.925   1.252  1.00 20.00     0.009 C 
HETATM    6  C5  UNL     1     -33.191   8.217  -0.558  1.00 20.00     0.009 C 
ENDBRANCH   3   4
ENDBRANCH   2   3
ENDBRANCH   1   2
BRANCH   1   7
HETATM    7  C9  UNL     1     -34.504   5.665   4.118  1.00 20.00     0.051 C 
HETATM    8  C3  UNL     1     -34.096   4.271   3.645  1.00 20.00     0.018 C 
BRANCH   7   9
HETATM    9  C1  UNL     1     -34.555   5.743   5.644  1.00 20.00     0.126 C 
HETATM   10  C2  UNL     1     -33.912   6.943   6.294  1.00 20.00     0.091 C 
HETATM   11  O11 UNL     1     -35.109   4.882   6.330  1.00 20.00    -0.298 OA
ENDBRANCH   7   9
ENDBRANCH   1   7
TORSDOF 5
ENDMDL
MODEL 4
REMARK VINA RESULT:      -4.3     10.970     11.958
REMARK  5 active torsions:
REMARK  status: ('A' for Active; 'I' for Inactive)
REMARK    1  A    between atoms: C1_1  and  C9_9 
REMARK    2  A    between atoms: C6_6  and  C7_7 
REMARK    3  A    between atoms: C6_6  and  C8_8 
REMARK    4  A    between atoms: C7_7  and  C9_9 
REMARK    5  A    between atoms: C8_8  and  C10_10 
ROOT
HETATM    1  C7  UNL     1     -34.791  14.178  -4.186  1.00 20.00     0.011 C 
ENDROOT
BRANCH   1   2
HETATM    2  C6  UNL     1     -33.422  14.858  -4.062  1.00 20.00     0.001 C 
BRANCH   2   3
HETATM    3  C8  UNL     1     -33.575  16.338  -3.688  1.00 20.00     0.004 C 
BRANCH   3   4
HETATM    4  C10 UNL     1     -33.616  16.586  -2.169  1.00 20.00    -0.023 C 
HETATM    5  C4  UNL     1     -32.775  17.793  -1.751  1.00 20.00     0.009 C 
HETATM    6  C5  UNL     1     -35.065  16.784  -1.717  1.00 20.00     0.009 C 
ENDBRANCH   3   4
ENDBRANCH   2   3
ENDBRANCH   1   2
BRANCH   1   7
HETATM    7  C9  UNL     1     -35.818  14.954  -5.027  1.00 20.00     0.051 C 
HETATM    8  C3  UNL     1     -35.745  14.592  -6.510  1.00 20.00     0.018 C 
BRANCH   7   9
HETATM    9  C1  UNL     1     -37.237  14.790  -4.484  1.00 20.00     0.126 C 
HETATM   10  C2  UNL     1     -37.953  16.042  -4.041  1.00 20.00     0.091 C 
HETATM   11  O11 UNL     1     -37.797  13.695  -4.420  1.00 20.00    -0.298 OA
ENDBRANCH   7   9
ENDBRANCH   1   7
TORSDOF 5
ENDMDL
MODEL 5
REMARK VINA RESULT:      -4.3     10.939     11.989
REMARK  5 active torsions:
REMARK  status: ('A' for Active; 'I' for Inactive)
REMARK    1  A    between atoms: C1_1  and  C9_9 
REMARK    2  A    between atoms: C6_6  and  C7_7 
REMARK    3  A    between atoms: C6_6  and  C8_8 
REMARK    4  A    between atoms: C7_7  and  C9_9 
REMARK    5  A    between atoms: C8_8  and  C10_10 
ROOT
HETATM    1  C7  UNL     1     -34.266  17.763  -1.362  1.00 20.00     0.011 C 
ENDROOT
BRANCH   1   2
HETATM    2  C6  UNL     1     -34.933  16.388  -1.483  1.00 20.00     0.001 C 
BRANCH   2   3
HETATM    3  C8  UNL     1     -35.269  16.066  -2.945  1.00 20.00     0.004 C 
BRANCH   3   4
HETATM    4  C10 UNL     1     -34.670  14.734  -3.433  1.00 20.00    -0.023 C 
HETATM    5  C4  UNL     1     -35.637  13.949  -4.320  1.00 20.00     0.009 C 
HETATM    6  C5  UNL     1     -33.370  15.000  -4.195  1.00 20.00     0.009 C 
ENDBRANCH   3   4
ENDBRANCH   2   3
ENDBRANCH   1   2
BRANCH   1   7
HETATM    7  C9  UNL     1     -32.780  17.791  -1.754  1.00 20.00     0.051 C 
HETATM    8  C3  UNL     1     -32.529  18.609  -3.021  1.00 20.00     0.018 C 
BRANCH   7   9
HETATM    9  C1  UNL     1     -31.897  18.267  -0.601  1.00 20.00     0.126 C 
HETATM   10  C2  UNL     1     -32.580  18.565   0.711  1.00 20.00     0.091 C 
HETATM   11  O11 UNL     1     -30.676  18.390  -0.711  1.00 20.00    -0.298 OA
ENDBRANCH   7   9
ENDBRANCH   1   7
TORSDOF 5
ENDMDL
MODEL 6
REMARK VINA RESULT:      -4.3     10.752     11.976
REMARK  5 active torsions:
REMARK  status: ('A' for Active; 'I' for Inactive)
REMARK    1  A    between atoms: C1_1  and  C9_9 
REMARK    2  A    between atoms: C6_6  and  C7_7 
REMARK    3  A    between atoms: C6_6  and  C8_8 
REMARK    4  A    between atoms: C7_7  and  C9_9 
REMARK    5  A    between atoms: C8_8  and  C10_10 
ROOT
HETATM    1  C7  UNL     1     -33.118  16.189  -3.126  1.00 20.00     0.011 C 
ENDROOT
BRANCH   1   2
HETATM    2  C6  UNL     1     -33.284  17.663  -3.515  1.00 20.00     0.001 C 
BRANCH   2   3
HETATM    3  C8  UNL     1     -32.531  18.577  -2.542  1.00 20.00     0.004 C 
BRANCH   3   4
HETATM    4  C10 UNL     1     -32.465  18.023  -1.107  1.00 20.00    -0.023 C 
HETATM    5  C4  UNL     1     -31.160  18.390  -0.398  1.00 20.00     0.009 C 
HETATM    6  C5  UNL     1     -33.655  18.541  -0.296  1.00 20.00     0.009 C 
ENDBRANCH   3   4
ENDBRANCH   2   3
ENDBRANCH   1   2
BRANCH   1   7
HETATM    7  C9  UNL     1     -34.437  15.418  -2.959  1.00 20.00     0.051 C 
HETATM    8  C3  UNL     1     -35.655  16.340  -2.985  1.00 20.00     0.018 C 
BRANCH   7   9
HETATM    9  C1  UNL     1     -34.570  14.292  -3.985  1.00 20.00     0.126 C 
HETATM   10  C2  UNL     1     -35.967  13.862  -4.357  1.00 20.00     0.091 C 
HETATM   11  O11 UNL     1     -33.592  13.759  -4.511  1.00 20.00    -0.298 OA
ENDBRANCH   7   9
ENDBRANCH   1   7
TORSDOF 5
ENDMDL
MODEL 7
REMARK VINA RESULT:      -4.2     10.916     11.867
REMARK  5 active torsions:
REMARK  status: ('A' for Active; 'I' for Inactive)
REMARK    1  A    between atoms: C1_1  and  C9_9 
REMARK    2  A    between atoms: C6_6  and  C7_7 
REMARK    3  A    between atoms: C6_6  and  C8_8 
REMARK    4  A    between atoms: C7_7  and  C9_9 
REMARK    5  A    between atoms: C8_8  and  C10_10 
ROOT
HETATM    1  C7  UNL     1     -34.687  14.173  -3.918  1.00 20.00     0.011 C 
ENDROOT
BRANCH   1   2
HETATM    2  C6  UNL     1     -34.870  15.326  -2.924  1.00 20.00     0.001 C 
BRANCH   2   3
HETATM    3  C8  UNL     1     -33.599  16.179  -2.830  1.00 20.00     0.004 C 
BRANCH   3   4
HETATM    4  C10 UNL     1     -33.780  17.461  -1.998  1.00 20.00    -0.023 C 
HETATM    5  C4  UNL     1     -34.750  17.268  -0.831  1.00 20.00     0.009 C 
HETATM    6  C5  UNL     1     -32.423  17.931  -1.468  1.00 20.00     0.009 C 
ENDBRANCH   3   4
ENDBRANCH   2   3
ENDBRANCH   1   2
BRANCH   1   7
HETATM    7  C9  UNL     1     -35.859  13.977  -4.894  1.00 20.00     0.051 C 
HETATM    8  C3  UNL     1     -37.181  14.486  -4.322  1.00 20.00     0.018 C 
BRANCH   7   9
HETATM    9  C1  UNL     1     -35.569  14.595  -6.262  1.00 20.00     0.126 C 
HETATM   10  C2  UNL     1     -34.158  15.062  -6.520  1.00 20.00     0.091 C 
HETATM   11  O11 UNL     1     -36.431  14.699  -7.135  1.00 20.00    -0.298 OA
ENDBRANCH   7   9
ENDBRANCH   1   7
TORSDOF 5
ENDMDL
MODEL 8
REMARK VINA RESULT:      -4.2     10.800     11.874
REMARK  5 active torsions:
REMARK  status: ('A' for Active; 'I' for Inactive)
REMARK    1  A    between atoms: C1_1  and  C9_9 
REMARK    2  A    between atoms: C6_6  and  C7_7 
REMARK    3  A    between atoms: C6_6  and  C8_8 
REMARK    4  A    between atoms: C7_7  and  C9_9 
REMARK    5  A    between atoms: C8_8  and  C10_10 
ROOT
HETATM    1  C7  UNL     1     -35.068  15.215  -2.850  1.00 20.00     0.011 C 
ENDROOT
BRANCH   1   2
HETATM    2  C6  UNL     1     -35.251  16.693  -2.483  1.00 20.00     0.001 C 
BRANCH   2   3
HETATM    3  C8  UNL     1     -34.192  17.144  -1.470  1.00 20.00     0.004 C 
BRANCH   3   4
HETATM    4  C10 UNL     1     -32.825  17.454  -2.107  1.00 20.00    -0.023 C 
HETATM    5  C4  UNL     1     -32.954  18.256  -3.403  1.00 20.00     0.009 C 
HETATM    6  C5  UNL     1     -31.951  18.220  -1.111  1.00 20.00     0.009 C 
ENDBRANCH   3   4
ENDBRANCH   2   3
ENDBRANCH   1   2
BRANCH   1   7
HETATM    7  C9  UNL     1     -34.593  14.967  -4.291  1.00 20.00     0.051 C 
HETATM    8  C3  UNL     1     -33.145  14.482  -4.349  1.00 20.00     0.018 C 
BRANCH   7   9
HETATM    9  C1  UNL     1     -35.529  14.018  -5.041  1.00 20.00     0.126 C 
HETATM   10  C2  UNL     1     -35.974  14.439  -6.419  1.00 20.00     0.091 C 
HETATM   11  O11 UNL     1     -35.899  12.943  -4.566  1.00 20.00    -0.298 OA
ENDBRANCH   7   9
ENDBRANCH   1   7
TORSDOF 5
ENDMDL
MODEL 9
REMARK VINA RESULT:      -4.2     11.151     12.192
REMARK  5 active torsions:
REMARK  status: ('A' for Active; 'I' for Inactive)
REMARK    1  A    between atoms: C1_1  and  C9_9 
REMARK    2  A    between atoms: C6_6  and  C7_7 
REMARK    3  A    between atoms: C6_6  and  C8_8 
REMARK    4  A    between atoms: C7_7  and  C9_9 
REMARK    5  A    between atoms: C8_8  and  C10_10 
ROOT
HETATM    1  C7  UNL     1     -33.193  17.553  -1.626  1.00 20.00     0.011 C 
ENDROOT
BRANCH   1   2
HETATM    2  C6  UNL     1     -34.551  16.839  -1.603  1.00 20.00     0.001 C 
BRANCH   2   3
HETATM    3  C8  UNL     1     -34.585  15.691  -2.619  1.00 20.00     0.004 C 
BRANCH   3   4
HETATM    4  C10 UNL     1     -33.647  15.907  -3.820  1.00 20.00    -0.023 C 
HETATM    5  C4  UNL     1     -33.051  14.597  -4.339  1.00 20.00     0.009 C 
HETATM    6  C5  UNL     1     -34.403  16.612  -4.948  1.00 20.00     0.009 C 
ENDBRANCH   3   4
ENDBRANCH   2   3
ENDBRANCH   1   2
BRANCH   1   7
HETATM    7  C9  UNL     1     -32.950  18.505  -0.444  1.00 20.00     0.051 C 
HETATM    8  C3  UNL     1     -33.975  18.315   0.674  1.00 20.00     0.018 C 
BRANCH   7   9
HETATM    9  C1  UNL     1     -31.521  18.398   0.088  1.00 20.00     0.126 C 
HETATM   10  C2  UNL     1     -31.347  18.325   1.584  1.00 20.00     0.091 C 
HETATM   11  O11 UNL     1     -30.541  18.351  -0.658  1.00 20.00    -0.298 OA
ENDBRANCH   7   9
ENDBRANCH   1   7
TORSDOF 5
ENDMDL
