MODEL 1
REMARK VINA RESULT:      -4.7      0.000      0.000
REMARK  5 active torsions:
REMARK  status: ('A' for Active; 'I' for Inactive)
REMARK    1  A    between atoms: C1_1  and  C8_8 
REMARK    2  A    between atoms: C4_4  and  C6_6 
REMARK    3  A    between atoms: C5_5  and  C8_8 
REMARK    4  A    between atoms: C6_6  and  C7_7 
REMARK    5  A    between atoms: C7_7  and  C8_8 
ROOT
HETATM    1  C8  UNL     1     -34.083   6.195   3.518  1.00 20.00     0.072 C 
ENDROOT
BRANCH   1   2
HETATM    2  C1  UNL     1     -33.929   4.679   3.403  1.00 20.00     0.223 C 
HETATM    3  O9  UNL     1     -34.439   3.909   4.213  1.00 20.00    -0.279 OA
HETATM    4 CL10 UNL     1     -32.971   4.204   2.028  1.00 20.00    -0.043 Cl
ENDBRANCH   1   2
BRANCH   1   5
HETATM    5  C5  UNL     1     -34.688   6.553   4.887  1.00 20.00     0.009 C 
HETATM    6  C3  UNL     1     -33.631   6.921   5.920  1.00 20.00     0.006 C 
ENDBRANCH   1   5
BRANCH   1   7
HETATM    7  C7  UNL     1     -32.708   6.870   3.351  1.00 20.00     0.013 C 
BRANCH   7   8
HETATM    8  C6  UNL     1     -32.399   7.221   1.890  1.00 20.00     0.000 C 
BRANCH   8   9
HETATM    9  C4  UNL     1     -32.859   8.628   1.497  1.00 20.00    -0.005 C 
HETATM   10  C2  UNL     1     -33.201   8.762   0.021  1.00 20.00     0.005 C 
ENDBRANCH   8   9
ENDBRANCH   7   8
ENDBRANCH   1   7
TORSDOF 5
ENDMDL
MODEL 2
REMARK VINA RESULT:      -4.6     10.897     11.652
REMARK  5 active torsions:
REMARK  status: ('A' for Active; 'I' for Inactive)
REMARK    1  A    between atoms: C1_1  and  C8_8 
REMARK    2  A    between atoms: C4_4  and  C6_6 
REMARK    3  A    between atoms: C5_5  and  C8_8 
REMARK    4  A    between atoms: C6_6  and  C7_7 
REMARK    5  A    between atoms: C7_7  and  C8_8 
ROOT
HETATM    1  C8  UNL     1     -34.748  14.506  -3.643  1.00 20.00     0.072 C 
ENDROOT
BRANCH   1   2
HETATM    2  C1  UNL     1     -35.910  13.729  -4.260  1.00 20.00     0.223 C 
HETATM    3  O9  UNL     1     -35.822  12.537  -4.540  1.00 20.00    -0.279 OA
HETATM    4 CL10 UNL     1     -37.323  14.719  -4.507  1.00 20.00    -0.043 Cl
ENDBRANCH   1   2
BRANCH   1   5
HETATM    5  C5  UNL     1     -33.589  14.596  -4.652  1.00 20.00     0.009 C 
HETATM    6  C3  UNL     1     -34.031  15.118  -6.012  1.00 20.00     0.006 C 
ENDBRANCH   1   5
BRANCH   1   7
HETATM    7  C7  UNL     1     -35.220  15.919  -3.248  1.00 20.00     0.013 C 
BRANCH   7   8
HETATM    8  C6  UNL     1     -35.033  16.205  -1.753  1.00 20.00     0.000 C 
BRANCH   8   9
HETATM    9  C4  UNL     1     -34.155  17.429  -1.478  1.00 20.00    -0.005 C 
HETATM   10  C2  UNL     1     -32.831  17.405  -2.227  1.00 20.00     0.005 C 
ENDBRANCH   8   9
ENDBRANCH   7   8
ENDBRANCH   1   7
TORSDOF 5
ENDMDL
MODEL 3
REMARK VINA RESULT:      -4.6     10.984     11.826
REMARK  5 active torsions:
REMARK  status: ('A' for Active; 'I' for Inactive)
REMARK    1  A    between atoms: C1_1  and  C8_8 
REMARK    2  A    between atoms: C4_4  and  C6_6 
REMARK    3  A    between atoms: C5_5  and  C8_8 
REMARK    4  A    between atoms: C6_6  and  C7_7 
REMARK    5  A    between atoms: C7_7  and  C8_8 
ROOT
HETATM    1  C8  UNL     1     -34.695  14.608  -4.339  1.00 20.00     0.072 C 
ENDROOT
BRANCH   1   2
HETATM    2  C1  UNL     1     -35.908  13.682  -4.405  1.00 20.00     0.223 C 
HETATM    3  O9  UNL     1     -35.794  12.459  -4.429  1.00 20.00    -0.279 OA
HETATM    4 CL10 UNL     1     -37.416  14.553  -4.441  1.00 20.00    -0.043 Cl
ENDBRANCH   1   2
BRANCH   1   5
HETATM    5  C5  UNL     1     -34.744  15.612  -5.504  1.00 20.00     0.009 C 
HETATM    6  C3  UNL     1     -34.018  15.110  -6.746  1.00 20.00     0.006 C 
ENDBRANCH   1   5
BRANCH   1   7
HETATM    7  C7  UNL     1     -34.686  15.357  -2.992  1.00 20.00     0.013 C 
BRANCH   7   8
HETATM    8  C6  UNL     1     -33.471  16.281  -2.840  1.00 20.00     0.000 C 
BRANCH   8   9
HETATM    9  C4  UNL     1     -33.674  17.377  -1.791  1.00 20.00    -0.005 C 
HETATM   10  C2  UNL     1     -34.880  17.142  -0.894  1.00 20.00     0.005 C 
ENDBRANCH   8   9
ENDBRANCH   7   8
ENDBRANCH   1   7
TORSDOF 5
ENDMDL
MODEL 4
REMARK VINA RESULT:      -4.5      1.859      2.570
REMARK  5 active torsions:
REMARK  status: ('A' for Active; 'I' for Inactive)
REMARK    1  A    between atoms: C1_1  and  C8_8 
REMARK    2  A    between atoms: C4_4  and  C6_6 
REMARK    3  A    between atoms: C5_5  and  C8_8 
REMARK    4  A    between atoms: C6_6  and  C7_7 
REMARK    5  A    between atoms: C7_7  and  C8_8 
ROOT
HETATM    1  C8  UNL     1     -33.228   5.962   3.580  1.00 20.00     0.072 C 
ENDROOT
BRANCH   1   2
HETATM    2  C1  UNL     1     -34.397   5.997   4.563  1.00 20.00     0.223 C 
HETATM    3  O9  UNL     1     -35.485   5.493   4.300  1.00 20.00    -0.279 OA
HETATM    4 CL10 UNL     1     -33.999   6.817   6.048  1.00 20.00    -0.043 Cl
ENDBRANCH   1   2
BRANCH   1   5
HETATM    5  C5  UNL     1     -33.643   5.204   2.306  1.00 20.00     0.009 C 
HETATM    6  C3  UNL     1     -32.946   3.857   2.167  1.00 20.00     0.006 C 
ENDBRANCH   1   5
BRANCH   1   7
HETATM    7  C7  UNL     1     -32.802   7.400   3.227  1.00 20.00     0.013 C 
BRANCH   7   8
HETATM    8  C6  UNL     1     -32.380   7.546   1.760  1.00 20.00     0.000 C 
BRANCH   8   9
HETATM    9  C4  UNL     1     -32.873   8.845   1.116  1.00 20.00    -0.005 C 
HETATM   10  C2  UNL     1     -33.363   8.664  -0.312  1.00 20.00     0.005 C 
ENDBRANCH   8   9
ENDBRANCH   7   8
ENDBRANCH   1   7
TORSDOF 5
ENDMDL
MODEL 5
REMARK VINA RESULT:      -4.4      2.302      4.319
REMARK  5 active torsions:
REMARK  status: ('A' for Active; 'I' for Inactive)
REMARK    1  A    between atoms: C1_1  and  C8_8 
REMARK    2  A    between atoms: C4_4  and  C6_6 
REMARK    3  A    between atoms: C5_5  and  C8_8 
REMARK    4  A    between atoms: C6_6  and  C7_7 
REMARK    5  A    between atoms: C7_7  and  C8_8 
ROOT
HETATM    1  C8  UNL     1     -33.607   6.023   2.501  1.00 20.00     0.072 C 
ENDROOT
BRANCH   1   2
HETATM    2  C1  UNL     1     -32.574   7.149   2.511  1.00 20.00     0.223 C 
HETATM    3  O9  UNL     1     -31.832   7.344   3.470  1.00 20.00    -0.279 OA
HETATM    4 CL10 UNL     1     -32.589   8.086   1.042  1.00 20.00    -0.043 Cl
ENDBRANCH   1   2
BRANCH   1   5
HETATM    5  C5  UNL     1     -32.906   4.674   2.746  1.00 20.00     0.009 C 
HETATM    6  C3  UNL     1     -33.034   3.722   1.565  1.00 20.00     0.006 C 
ENDBRANCH   1   5
BRANCH   1   7
HETATM    7  C7  UNL     1     -34.664   6.279   3.593  1.00 20.00     0.013 C 
BRANCH   7   8
HETATM    8  C6  UNL     1     -34.920   5.043   4.465  1.00 20.00     0.000 C 
BRANCH   8   9
HETATM    9  C4  UNL     1     -34.700   5.301   5.958  1.00 20.00    -0.005 C 
HETATM   10  C2  UNL     1     -34.049   6.645   6.250  1.00 20.00     0.005 C 
ENDBRANCH   8   9
ENDBRANCH   7   8
ENDBRANCH   1   7
TORSDOF 5
ENDMDL
MODEL 6
REMARK VINA RESULT:      -4.3     10.985     11.715
REMARK  5 active torsions:
REMARK  status: ('A' for Active; 'I' for Inactive)
REMARK    1  A    between atoms: C1_1  and  C8_8 
REMARK    2  A    between atoms: C4_4  and  C6_6 
REMARK    3  A    between atoms: C5_5  and  C8_8 
REMARK    4  A    between atoms: C6_6  and  C7_7 
REMARK    5  A    between atoms: C7_7  and  C8_8 
ROOT
HETATM    1  C8  UNL     1     -35.525  14.494  -3.506  1.00 20.00     0.072 C 
ENDROOT
BRANCH   1   2
HETATM    2  C1  UNL     1     -36.692  14.524  -4.492  1.00 20.00     0.223 C 
HETATM    3  O9  UNL     1     -37.679  13.806  -4.355  1.00 20.00    -0.279 OA
HETATM    4 CL10 UNL     1     -36.449  15.665  -5.785  1.00 20.00    -0.043 Cl
ENDBRANCH   1   2
BRANCH   1   5
HETATM    5  C5  UNL     1     -34.356  13.696  -4.109  1.00 20.00     0.009 C 
HETATM    6  C3  UNL     1     -33.160  14.572  -4.455  1.00 20.00     0.006 C 
ENDBRANCH   1   5
BRANCH   1   7
HETATM    7  C7  UNL     1     -35.077  15.934  -3.188  1.00 20.00     0.013 C 
BRANCH   7   8
HETATM    8  C6  UNL     1     -35.142  16.253  -1.690  1.00 20.00     0.000 C 
BRANCH   8   9
HETATM    9  C4  UNL     1     -34.272  17.447  -1.288  1.00 20.00    -0.005 C 
HETATM   10  C2  UNL     1     -32.938  17.496  -2.017  1.00 20.00     0.005 C 
ENDBRANCH   8   9
ENDBRANCH   7   8
ENDBRANCH   1   7
TORSDOF 5
ENDMDL
MODEL 7
REMARK VINA RESULT:      -4.2     15.496     16.184
REMARK  5 active torsions:
REMARK  status: ('A' for Active; 'I' for Inactive)
REMARK    1  A    between atoms: C1_1  and  C8_8 
REMARK    2  A    between atoms: C4_4  and  C6_6 
REMARK    3  A    between atoms: C5_5  and  C8_8 
REMARK    4  A    between atoms: C6_6  and  C7_7 
REMARK    5  A    between atoms: C7_7  and  C8_8 
ROOT
HETATM    1  C8  UNL     1     -23.704  17.203   9.419  1.00 20.00     0.072 C 
ENDROOT
BRANCH   1   2
HETATM    2  C1  UNL     1     -22.346  17.285   8.723  1.00 20.00     0.223 C 
HETATM    3  O9  UNL     1     -22.063  16.576   7.761  1.00 20.00    -0.279 OA
HETATM    4 CL10 UNL     1     -21.293  18.470   9.446  1.00 20.00    -0.043 Cl
ENDBRANCH   1   2
BRANCH   1   5
HETATM    5  C5  UNL     1     -23.506  16.851  10.904  1.00 20.00     0.009 C 
HETATM    6  C3  UNL     1     -24.602  15.944  11.446  1.00 20.00     0.006 C 
ENDBRANCH   1   5
BRANCH   1   7
HETATM    7  C7  UNL     1     -24.438  18.552   9.285  1.00 20.00     0.013 C 
BRANCH   7   8
HETATM    8  C6  UNL     1     -24.577  19.003   7.826  1.00 20.00     0.000 C 
BRANCH   8   9
HETATM    9  C4  UNL     1     -26.032  19.092   7.358  1.00 20.00    -0.005 C 
HETATM   10  C2  UNL     1     -26.194  18.932   5.854  1.00 20.00     0.005 C 
ENDBRANCH   8   9
ENDBRANCH   7   8
ENDBRANCH   1   7
TORSDOF 5
ENDMDL
MODEL 8
REMARK VINA RESULT:      -4.2     15.837     16.790
REMARK  5 active torsions:
REMARK  status: ('A' for Active; 'I' for Inactive)
REMARK    1  A    between atoms: C1_1  and  C8_8 
REMARK    2  A    between atoms: C4_4  and  C6_6 
REMARK    3  A    between atoms: C5_5  and  C8_8 
REMARK    4  A    between atoms: C6_6  and  C7_7 
REMARK    5  A    between atoms: C7_7  and  C8_8 
ROOT
HETATM    1  C8  UNL     1     -24.243  18.419   8.839  1.00 20.00     0.072 C 
ENDROOT
BRANCH   1   2
HETATM    2  C1  UNL     1     -24.658  18.892   7.447  1.00 20.00     0.223 C 
HETATM    3  O9  UNL     1     -23.852  18.988   6.525  1.00 20.00    -0.279 OA
HETATM    4 CL10 UNL     1     -26.357  19.262   7.342  1.00 20.00    -0.043 Cl
ENDBRANCH   1   2
BRANCH   1   5
HETATM    5  C5  UNL     1     -22.807  18.886   9.140  1.00 20.00     0.009 C 
HETATM    6  C3  UNL     1     -21.801  17.743   9.125  1.00 20.00     0.006 C 
ENDBRANCH   1   5
BRANCH   1   7
HETATM    7  C7  UNL     1     -25.217  18.985   9.891  1.00 20.00     0.013 C 
BRANCH   7   8
HETATM    8  C6  UNL     1     -25.038  18.336  11.268  1.00 20.00     0.000 C 
BRANCH   8   9
HETATM    9  C4  UNL     1     -25.032  16.805  11.218  1.00 20.00    -0.005 C 
HETATM   10  C2  UNL     1     -23.814  16.183  11.884  1.00 20.00     0.005 C 
ENDBRANCH   8   9
ENDBRANCH   7   8
ENDBRANCH   1   7
TORSDOF 5
ENDMDL
MODEL 9
REMARK VINA RESULT:      -4.1     11.026     12.192
REMARK  5 active torsions:
REMARK  status: ('A' for Active; 'I' for Inactive)
REMARK    1  A    between atoms: C1_1  and  C8_8 
REMARK    2  A    between atoms: C4_4  and  C6_6 
REMARK    3  A    between atoms: C5_5  and  C8_8 
REMARK    4  A    between atoms: C6_6  and  C7_7 
REMARK    5  A    between atoms: C7_7  and  C8_8 
ROOT
HETATM    1  C8  UNL     1     -35.209  15.054  -4.522  1.00 20.00     0.072 C 
ENDROOT
BRANCH   1   2
HETATM    2  C1  UNL     1     -36.197  13.889  -4.457  1.00 20.00     0.223 C 
HETATM    3  O9  UNL     1     -35.828  12.719  -4.510  1.00 20.00    -0.279 OA
HETATM    4 CL10 UNL     1     -37.849  14.419  -4.305  1.00 20.00    -0.043 Cl
ENDBRANCH   1   2
BRANCH   1   5
HETATM    5  C5  UNL     1     -34.400  15.121  -3.214  1.00 20.00     0.009 C 
HETATM    6  C3  UNL     1     -35.046  16.018  -2.167  1.00 20.00     0.006 C 
ENDBRANCH   1   5
BRANCH   1   7
HETATM    7  C7  UNL     1     -34.263  14.866  -5.724  1.00 20.00     0.013 C 
BRANCH   7   8
HETATM    8  C6  UNL     1     -34.950  15.157  -7.064  1.00 20.00     0.000 C 
BRANCH   8   9
HETATM    9  C4  UNL     1     -34.288  16.293  -7.847  1.00 20.00    -0.005 C 
HETATM   10  C2  UNL     1     -34.298  17.623  -7.109  1.00 20.00     0.005 C 
ENDBRANCH   8   9
ENDBRANCH   7   8
ENDBRANCH   1   7
TORSDOF 5
ENDMDL
