MODEL 1
REMARK VINA RESULT:      -3.7      0.000      0.000
REMARK  1 active torsions:
REMARK  status: ('A' for Active; 'I' for Inactive)
REMARK    1  A    between atoms: C3_3  and  C5_5 
ROOT
HETATM    1  C1  UNL     1     -22.769  17.540  10.847  1.00 20.00     0.065 A 
HETATM    2  C2  UNL     1     -25.012  18.500  10.535  1.00 20.00     0.069 A 
HETATM    3  C3  UNL     1     -23.001  17.896   9.537  1.00 20.00     0.026 A 
HETATM    4  C4  UNL     1     -24.301  18.452   9.356  1.00 20.00     0.031 A 
HETATM    5  S7  UNL     1     -24.113  17.875  11.852  1.00 20.00    -0.111 SA
HETATM    6 BR8  UNL     1     -24.960  19.049   7.692  1.00 20.00    -0.050 Br
ENDROOT
BRANCH   3   7
HETATM    7  C5  UNL     1     -22.002  17.702   8.515  1.00 20.00     0.271 C 
HETATM    8  O6  UNL     1     -22.055  16.798   7.668  1.00 20.00    -0.301 OA
ENDBRANCH   3   7
TORSDOF 1
ENDMDL
MODEL 2
REMARK VINA RESULT:      -3.6     17.684     18.212
REMARK  1 active torsions:
REMARK  status: ('A' for Active; 'I' for Inactive)
REMARK    1  A    between atoms: C3_3  and  C5_5 
ROOT
HETATM    1  C1  UNL     1     -35.164  15.240  -2.776  1.00 20.00     0.065 A 
HETATM    2  C2  UNL     1     -33.621  16.483  -4.233  1.00 20.00     0.069 A 
HETATM    3  C3  UNL     1     -35.227  14.809  -4.083  1.00 20.00     0.026 A 
HETATM    4  C4  UNL     1     -34.333  15.530  -4.927  1.00 20.00     0.031 A 
HETATM    5  S7  UNL     1     -34.033  16.507  -2.571  1.00 20.00    -0.111 SA
HETATM    6 BR8  UNL     1     -34.155  15.208  -6.778  1.00 20.00    -0.050 Br
ENDROOT
BRANCH   3   7
HETATM    7  C5  UNL     1     -36.116  13.747  -4.485  1.00 20.00     0.271 C 
HETATM    8  O6  UNL     1     -35.805  12.546  -4.458  1.00 20.00    -0.301 OA
ENDBRANCH   3   7
TORSDOF 1
ENDMDL
MODEL 3
REMARK VINA RESULT:      -3.6     18.630     19.183
REMARK  1 active torsions:
REMARK  status: ('A' for Active; 'I' for Inactive)
REMARK    1  A    between atoms: C3_3  and  C5_5 
ROOT
HETATM    1  C1  UNL     1     -35.590  14.987  -6.544  1.00 20.00     0.065 A 
HETATM    2  C2  UNL     1     -34.444  16.775  -5.303  1.00 20.00     0.069 A 
HETATM    3  C3  UNL     1     -35.644  14.789  -5.182  1.00 20.00     0.026 A 
HETATM    4  C4  UNL     1     -34.980  15.824  -4.464  1.00 20.00     0.031 A 
HETATM    5  S7  UNL     1     -34.741  16.417  -6.951  1.00 20.00    -0.111 SA
HETATM    6 BR8  UNL     1     -34.856  15.875  -2.582  1.00 20.00    -0.050 Br
ENDROOT
BRANCH   3   7
HETATM    7  C5  UNL     1     -36.312  13.643  -4.615  1.00 20.00     0.271 C 
HETATM    8  O6  UNL     1     -35.772  12.536  -4.470  1.00 20.00    -0.301 OA
ENDBRANCH   3   7
TORSDOF 1
ENDMDL
MODEL 4
REMARK VINA RESULT:      -3.4      1.996      2.339
REMARK  1 active torsions:
REMARK  status: ('A' for Active; 'I' for Inactive)
REMARK    1  A    between atoms: C3_3  and  C5_5 
ROOT
HETATM    1  C1  UNL     1     -22.944  17.995  10.331  1.00 20.00     0.065 A 
HETATM    2  C2  UNL     1     -24.371  18.111  12.332  1.00 20.00     0.069 A 
HETATM    3  C3  UNL     1     -24.209  18.458  10.039  1.00 20.00     0.026 A 
HETATM    4  C4  UNL     1     -25.034  18.524  11.198  1.00 20.00     0.031 A 
HETATM    5  S7  UNL     1     -22.758  17.644  11.996  1.00 20.00    -0.111 SA
HETATM    6 BR8  UNL     1     -26.827  19.112  11.171  1.00 20.00    -0.050 Br
ENDROOT
BRANCH   3   7
HETATM    7  C5  UNL     1     -24.587  18.816   8.695  1.00 20.00     0.271 C 
HETATM    8  O6  UNL     1     -23.770  19.051   7.792  1.00 20.00    -0.301 OA
ENDBRANCH   3   7
TORSDOF 1
ENDMDL
MODEL 5
REMARK VINA RESULT:      -3.4     16.641     17.105
REMARK  1 active torsions:
REMARK  status: ('A' for Active; 'I' for Inactive)
REMARK    1  A    between atoms: C3_3  and  C5_5 
ROOT
HETATM    1  C1  UNL     1     -33.195  16.333  -2.826  1.00 20.00     0.065 A 
HETATM    2  C2  UNL     1     -35.619  16.408  -2.414  1.00 20.00     0.069 A 
HETATM    3  C3  UNL     1     -33.880  15.426  -3.604  1.00 20.00     0.026 A 
HETATM    4  C4  UNL     1     -35.284  15.469  -3.365  1.00 20.00     0.031 A 
HETATM    5  S7  UNL     1     -34.243  17.231  -1.813  1.00 20.00    -0.111 SA
HETATM    6 BR8  UNL     1     -36.529  14.365  -4.253  1.00 20.00    -0.050 Br
ENDROOT
BRANCH   3   7
HETATM    7  C5  UNL     1     -33.195  14.562  -4.533  1.00 20.00     0.271 C 
HETATM    8  O6  UNL     1     -33.035  13.345  -4.348  1.00 20.00    -0.301 OA
ENDBRANCH   3   7
TORSDOF 1
ENDMDL
MODEL 6
REMARK VINA RESULT:      -3.4     17.728     18.239
REMARK  1 active torsions:
REMARK  status: ('A' for Active; 'I' for Inactive)
REMARK    1  A    between atoms: C3_3  and  C5_5 
ROOT
HETATM    1  C1  UNL     1     -34.113  14.753  -3.752  1.00 20.00     0.065 A 
HETATM    2  C2  UNL     1     -35.005  16.970  -3.171  1.00 20.00     0.069 A 
HETATM    3  C3  UNL     1     -35.464  14.849  -4.004  1.00 20.00     0.026 A 
HETATM    4  C4  UNL     1     -35.980  16.134  -3.667  1.00 20.00     0.031 A 
HETATM    5  S7  UNL     1     -33.474  16.206  -3.112  1.00 20.00    -0.111 SA
HETATM    6 BR8  UNL     1     -37.791  16.620  -3.879  1.00 20.00    -0.050 Br
ENDROOT
BRANCH   3   7
HETATM    7  C5  UNL     1     -36.210  13.740  -4.546  1.00 20.00     0.271 C 
HETATM    8  O6  UNL     1     -35.823  12.563  -4.492  1.00 20.00    -0.301 OA
ENDBRANCH   3   7
TORSDOF 1
ENDMDL
MODEL 7
REMARK VINA RESULT:      -3.4     18.215     18.742
REMARK  1 active torsions:
REMARK  status: ('A' for Active; 'I' for Inactive)
REMARK    1  A    between atoms: C3_3  and  C5_5 
ROOT
HETATM    1  C1  UNL     1     -37.481  14.940  -4.419  1.00 20.00     0.065 A 
HETATM    2  C2  UNL     1     -36.812  17.006  -3.262  1.00 20.00     0.069 A 
HETATM    3  C3  UNL     1     -36.199  14.863  -3.921  1.00 20.00     0.026 A 
HETATM    4  C4  UNL     1     -35.812  16.060  -3.252  1.00 20.00     0.031 A 
HETATM    5  S7  UNL     1     -38.211  16.450  -4.079  1.00 20.00    -0.111 SA
HETATM    6 BR8  UNL     1     -34.122  16.307  -2.449  1.00 20.00    -0.050 Br
ENDROOT
BRANCH   3   7
HETATM    7  C5  UNL     1     -35.395  13.678  -4.093  1.00 20.00     0.271 C 
HETATM    8  O6  UNL     1     -35.827  12.620  -4.575  1.00 20.00    -0.301 OA
ENDBRANCH   3   7
TORSDOF 1
ENDMDL
MODEL 8
REMARK VINA RESULT:      -3.2     14.132     14.672
REMARK  1 active torsions:
REMARK  status: ('A' for Active; 'I' for Inactive)
REMARK    1  A    between atoms: C3_3  and  C5_5 
ROOT
HETATM    1  C1  UNL     1     -33.849  18.345   0.092  1.00 20.00     0.065 A 
HETATM    2  C2  UNL     1     -35.091  16.665  -1.206  1.00 20.00     0.069 A 
HETATM    3  C3  UNL     1     -33.168  17.960  -1.042  1.00 20.00     0.026 A 
HETATM    4  C4  UNL     1     -33.888  16.987  -1.793  1.00 20.00     0.031 A 
HETATM    5  S7  UNL     1     -35.348  17.535   0.247  1.00 20.00    -0.111 SA
HETATM    6 BR8  UNL     1     -33.255  16.234  -3.404  1.00 20.00    -0.050 Br
ENDROOT
BRANCH   3   7
HETATM    7  C5  UNL     1     -31.879  18.517  -1.372  1.00 20.00     0.271 C 
HETATM    8  O6  UNL     1     -30.853  18.312  -0.706  1.00 20.00    -0.301 OA
ENDBRANCH   3   7
TORSDOF 1
ENDMDL
MODEL 9
REMARK VINA RESULT:      -3.1     14.128     14.681
REMARK  1 active torsions:
REMARK  status: ('A' for Active; 'I' for Inactive)
REMARK    1  A    between atoms: C3_3  and  C5_5 
ROOT
HETATM    1  C1  UNL     1     -33.010  17.005  -2.512  1.00 20.00     0.065 A 
HETATM    2  C2  UNL     1     -35.014  16.893  -1.089  1.00 20.00     0.069 A 
HETATM    3  C3  UNL     1     -32.927  17.857  -1.433  1.00 20.00     0.026 A 
HETATM    4  C4  UNL     1     -34.088  17.792  -0.609  1.00 20.00     0.031 A 
HETATM    5  S7  UNL     1     -34.483  16.133  -2.529  1.00 20.00    -0.111 SA
HETATM    6 BR8  UNL     1     -34.317  18.822   0.955  1.00 20.00    -0.050 Br
ENDROOT
BRANCH   3   7
HETATM    7  C5  UNL     1     -31.770  18.691  -1.220  1.00 20.00     0.271 C 
HETATM    8  O6  UNL     1     -30.734  18.297  -0.664  1.00 20.00    -0.301 OA
ENDBRANCH   3   7
TORSDOF 1
ENDMDL
