MODEL 1
REMARK VINA RESULT:      -3.9      0.000      0.000
REMARK  2 active torsions:
REMARK  status: ('A' for Active; 'I' for Inactive)
REMARK    1  A    between atoms: C1_1  and  C5_5 
REMARK    2  A    between atoms: C5_5  and  C6_6 
ROOT
HETATM    1  C5  UNL     1     -35.815  14.948  -3.763  1.00 20.00     0.104 C 
ENDROOT
BRANCH   1   2
HETATM    2  C1  UNL     1     -35.843  13.826  -4.789  1.00 20.00     0.219 C 
HETATM    3  O7  UNL     1     -35.858  12.647  -4.450  1.00 20.00    -0.280 OA
HETATM    4 CL8  UNL     1     -35.856  14.407  -6.430  1.00 20.00    -0.044 Cl
ENDBRANCH   1   2
BRANCH   1   5
HETATM    5  C6  UNL     1     -34.488  15.740  -3.697  1.00 20.00    -0.044 C 
HETATM    6  C2  UNL     1     -34.543  16.995  -4.583  1.00 20.00     0.015 C 
HETATM    7  C3  UNL     1     -34.269  16.182  -2.237  1.00 20.00     0.015 C 
HETATM    8  C4  UNL     1     -33.294  14.869  -4.122  1.00 20.00     0.015 C 
ENDBRANCH   1   5
TORSDOF 2
ENDMDL
MODEL 2
REMARK VINA RESULT:      -3.9      1.275      1.949
REMARK  2 active torsions:
REMARK  status: ('A' for Active; 'I' for Inactive)
REMARK    1  A    between atoms: C1_1  and  C5_5 
REMARK    2  A    between atoms: C5_5  and  C6_6 
ROOT
HETATM    1  C5  UNL     1     -35.397  14.896  -5.233  1.00 20.00     0.104 C 
ENDROOT
BRANCH   1   2
HETATM    2  C1  UNL     1     -36.297  13.812  -4.660  1.00 20.00     0.219 C 
HETATM    3  O7  UNL     1     -35.897  12.662  -4.506  1.00 20.00    -0.280 OA
HETATM    4 CL8  UNL     1     -37.890  14.391  -4.264  1.00 20.00    -0.044 Cl
ENDBRANCH   1   2
BRANCH   1   5
HETATM    5  C6  UNL     1     -34.369  15.485  -4.239  1.00 20.00    -0.044 C 
HETATM    6  C2  UNL     1     -33.037  14.719  -4.295  1.00 20.00     0.015 C 
HETATM    7  C3  UNL     1     -34.107  16.951  -4.636  1.00 20.00     0.015 C 
HETATM    8  C4  UNL     1     -34.907  15.464  -2.799  1.00 20.00     0.015 C 
ENDBRANCH   1   5
TORSDOF 2
ENDMDL
MODEL 3
REMARK VINA RESULT:      -3.9     18.164     18.782
REMARK  2 active torsions:
REMARK  status: ('A' for Active; 'I' for Inactive)
REMARK    1  A    between atoms: C1_1  and  C5_5 
REMARK    2  A    between atoms: C5_5  and  C6_6 
ROOT
HETATM    1  C5  UNL     1     -23.130  17.100   9.591  1.00 20.00     0.104 C 
ENDROOT
BRANCH   1   2
HETATM    2  C1  UNL     1     -22.923  18.399   8.829  1.00 20.00     0.219 C 
HETATM    3  O7  UNL     1     -21.955  19.123   9.046  1.00 20.00    -0.280 OA
HETATM    4 CL8  UNL     1     -24.174  18.707   7.659  1.00 20.00    -0.044 Cl
ENDBRANCH   1   2
BRANCH   1   5
HETATM    5  C6  UNL     1     -23.771  17.259  10.990  1.00 20.00    -0.044 C 
HETATM    6  C2  UNL     1     -24.850  18.354  10.989  1.00 20.00     0.015 C 
HETATM    7  C3  UNL     1     -24.435  15.920  11.365  1.00 20.00     0.015 C 
HETATM    8  C4  UNL     1     -22.713  17.589  12.056  1.00 20.00     0.015 C 
ENDBRANCH   1   5
TORSDOF 2
ENDMDL
MODEL 4
REMARK VINA RESULT:      -3.9      0.080      1.534
REMARK  2 active torsions:
REMARK  status: ('A' for Active; 'I' for Inactive)
REMARK    1  A    between atoms: C1_1  and  C5_5 
REMARK    2  A    between atoms: C5_5  and  C6_6 
ROOT
HETATM    1  C5  UNL     1     -35.905  14.978  -3.800  1.00 20.00     0.104 C 
ENDROOT
BRANCH   1   2
HETATM    2  C1  UNL     1     -35.885  13.847  -4.816  1.00 20.00     0.219 C 
HETATM    3  O7  UNL     1     -35.895  12.671  -4.466  1.00 20.00    -0.280 OA
HETATM    4 CL8  UNL     1     -35.853  14.413  -6.461  1.00 20.00    -0.044 Cl
ENDBRANCH   1   2
BRANCH   1   5
HETATM    5  C6  UNL     1     -34.566  15.735  -3.638  1.00 20.00    -0.044 C 
HETATM    6  C2  UNL     1     -33.377  14.867  -4.083  1.00 20.00     0.015 C 
HETATM    7  C3  UNL     1     -34.616  16.989  -4.534  1.00 20.00     0.015 C 
HETATM    8  C4  UNL     1     -34.349  16.188  -2.185  1.00 20.00     0.015 C 
ENDBRANCH   1   5
TORSDOF 2
ENDMDL
MODEL 5
REMARK VINA RESULT:      -3.8     18.502     19.193
REMARK  2 active torsions:
REMARK  status: ('A' for Active; 'I' for Inactive)
REMARK    1  A    between atoms: C1_1  and  C5_5 
REMARK    2  A    between atoms: C5_5  and  C6_6 
ROOT
HETATM    1  C5  UNL     1     -23.966  17.846  10.038  1.00 20.00     0.104 C 
ENDROOT
BRANCH   1   2
HETATM    2  C1  UNL     1     -22.705  17.387   9.323  1.00 20.00     0.219 C 
HETATM    3  O7  UNL     1     -22.611  16.260   8.846  1.00 20.00    -0.280 OA
HETATM    4 CL8  UNL     1     -21.472  18.615   9.265  1.00 20.00    -0.044 Cl
ENDBRANCH   1   2
BRANCH   1   5
HETATM    5  C6  UNL     1     -24.083  17.391  11.511  1.00 20.00    -0.044 C 
HETATM    6  C2  UNL     1     -22.730  17.490  12.235  1.00 20.00     0.015 C 
HETATM    7  C3  UNL     1     -25.085  18.324  12.220  1.00 20.00     0.015 C 
HETATM    8  C4  UNL     1     -24.609  15.950  11.613  1.00 20.00     0.015 C 
ENDBRANCH   1   5
TORSDOF 2
ENDMDL
MODEL 6
REMARK VINA RESULT:      -3.8     10.375     11.394
REMARK  2 active torsions:
REMARK  status: ('A' for Active; 'I' for Inactive)
REMARK    1  A    between atoms: C1_1  and  C5_5 
REMARK    2  A    between atoms: C5_5  and  C6_6 
ROOT
HETATM    1  C5  UNL     1     -41.176   7.117   0.652  1.00 20.00     0.104 C 
ENDROOT
BRANCH   1   2
HETATM    2  C1  UNL     1     -41.636   5.715   0.286  1.00 20.00     0.219 C 
HETATM    3  O7  UNL     1     -42.490   5.127   0.944  1.00 20.00    -0.280 OA
HETATM    4 CL8  UNL     1     -40.837   5.085  -1.126  1.00 20.00    -0.044 Cl
ENDBRANCH   1   2
BRANCH   1   5
HETATM    5  C6  UNL     1     -41.987   8.261   0.001  1.00 20.00    -0.044 C 
HETATM    6  C2  UNL     1     -43.416   8.325   0.566  1.00 20.00     0.015 C 
HETATM    7  C3  UNL     1     -41.277   9.591   0.321  1.00 20.00     0.015 C 
HETATM    8  C4  UNL     1     -42.052   8.104  -1.527  1.00 20.00     0.015 C 
ENDBRANCH   1   5
TORSDOF 2
ENDMDL
MODEL 7
REMARK VINA RESULT:      -3.6     10.371     11.523
REMARK  2 active torsions:
REMARK  status: ('A' for Active; 'I' for Inactive)
REMARK    1  A    between atoms: C1_1  and  C5_5 
REMARK    2  A    between atoms: C5_5  and  C6_6 
ROOT
HETATM    1  C5  UNL     1     -41.661   7.815  -1.181  1.00 20.00     0.104 C 
ENDROOT
BRANCH   1   2
HETATM    2  C1  UNL     1     -42.230   8.964  -0.363  1.00 20.00     0.219 C 
HETATM    3  O7  UNL     1     -43.417   9.269  -0.424  1.00 20.00    -0.280 OA
HETATM    4 CL8  UNL     1     -41.034   9.748   0.630  1.00 20.00    -0.044 Cl
ENDBRANCH   1   2
BRANCH   1   5
HETATM    5  C6  UNL     1     -42.084   6.405  -0.707  1.00 20.00    -0.044 C 
HETATM    6  C2  UNL     1     -43.341   5.921  -1.448  1.00 20.00     0.015 C 
HETATM    7  C3  UNL     1     -40.930   5.431  -1.019  1.00 20.00     0.015 C 
HETATM    8  C4  UNL     1     -42.344   6.376   0.807  1.00 20.00     0.015 C 
ENDBRANCH   1   5
TORSDOF 2
ENDMDL
MODEL 8
REMARK VINA RESULT:      -3.6     10.389     11.459
REMARK  2 active torsions:
REMARK  status: ('A' for Active; 'I' for Inactive)
REMARK    1  A    between atoms: C1_1  and  C5_5 
REMARK    2  A    between atoms: C5_5  and  C6_6 
ROOT
HETATM    1  C5  UNL     1     -41.197   7.049   0.585  1.00 20.00     0.104 C 
ENDROOT
BRANCH   1   2
HETATM    2  C1  UNL     1     -41.477   5.720  -0.099  1.00 20.00     0.219 C 
HETATM    3  O7  UNL     1     -40.725   5.269  -0.958  1.00 20.00    -0.280 OA
HETATM    4 CL8  UNL     1     -42.933   4.956   0.473  1.00 20.00    -0.044 Cl
ENDBRANCH   1   2
BRANCH   1   5
HETATM    5  C6  UNL     1     -41.972   8.256   0.009  1.00 20.00    -0.044 C 
HETATM    6  C2  UNL     1     -41.258   9.581   0.327  1.00 20.00     0.015 C 
HETATM    7  C3  UNL     1     -42.037   8.094  -1.522  1.00 20.00     0.015 C 
HETATM    8  C4  UNL     1     -43.409   8.311   0.551  1.00 20.00     0.015 C 
ENDBRANCH   1   5
TORSDOF 2
ENDMDL
MODEL 9
REMARK VINA RESULT:      -3.6     10.365     11.500
REMARK  2 active torsions:
REMARK  status: ('A' for Active; 'I' for Inactive)
REMARK    1  A    between atoms: C1_1  and  C5_5 
REMARK    2  A    between atoms: C5_5  and  C6_6 
ROOT
HETATM    1  C5  UNL     1     -41.659   7.828  -1.195  1.00 20.00     0.104 C 
ENDROOT
BRANCH   1   2
HETATM    2  C1  UNL     1     -42.227   8.966  -0.362  1.00 20.00     0.219 C 
HETATM    3  O7  UNL     1     -43.417   9.265  -0.409  1.00 20.00    -0.280 OA
HETATM    4 CL8  UNL     1     -41.026   9.749   0.626  1.00 20.00    -0.044 Cl
ENDBRANCH   1   2
BRANCH   1   5
HETATM    5  C6  UNL     1     -42.045   6.411  -0.713  1.00 20.00    -0.044 C 
HETATM    6  C2  UNL     1     -42.321   6.392   0.799  1.00 20.00     0.015 C 
HETATM    7  C3  UNL     1     -43.332   5.990  -1.449  1.00 20.00     0.015 C 
HETATM    8  C4  UNL     1     -40.945   5.388  -1.041  1.00 20.00     0.015 C 
ENDBRANCH   1   5
TORSDOF 2
ENDMDL
