MODEL 1
REMARK VINA RESULT:      -4.6      0.000      0.000
REMARK  2 active torsions:
REMARK  status: ('A' for Active; 'I' for Inactive)
REMARK    1  A    between atoms: C3_3  and  C4_4 
REMARK    2  A    between atoms: C4_4  and  C5_5 
ROOT
HETATM    1  C1  UNL     1     -32.571   6.948   2.509  1.00 20.00     0.012 C 
HETATM    2  C2  UNL     1     -33.210   5.993   2.861  1.00 20.00    -0.117 C 
HETATM    3  C3  UNL     1     -33.989   4.822   3.287  1.00 20.00     0.094 C 
ENDROOT
BRANCH   3   4
HETATM    4  C4  UNL     1     -35.125   5.195   4.243  1.00 20.00     0.027 C 
BRANCH   4   5
HETATM    5  C5  UNL     1     -34.738   5.253   5.720  1.00 20.00     0.115 C 
HETATM    6 CL6  UNL     1     -33.979   6.801   6.156  1.00 20.00    -0.130 Cl
ENDBRANCH   4   5
ENDBRANCH   3   4
TORSDOF 2
ENDMDL
MODEL 2
REMARK VINA RESULT:      -4.3      2.139      3.308
REMARK  2 active torsions:
REMARK  status: ('A' for Active; 'I' for Inactive)
REMARK    1  A    between atoms: C3_3  and  C4_4 
REMARK    2  A    between atoms: C4_4  and  C5_5 
ROOT
HETATM    1  C1  UNL     1     -34.381   6.264   6.064  1.00 20.00     0.012 C 
HETATM    2  C2  UNL     1     -34.446   5.683   5.015  1.00 20.00    -0.117 C 
HETATM    3  C3  UNL     1     -34.530   4.970   3.733  1.00 20.00     0.094 C 
ENDROOT
BRANCH   3   4
HETATM    4  C4  UNL     1     -33.411   5.373   2.768  1.00 20.00     0.027 C 
BRANCH   4   5
HETATM    5  C5  UNL     1     -32.785   6.741   3.035  1.00 20.00     0.115 C 
HETATM    6 CL6  UNL     1     -32.552   7.675   1.540  1.00 20.00    -0.130 Cl
ENDBRANCH   4   5
ENDBRANCH   3   4
TORSDOF 2
ENDMDL
MODEL 3
REMARK VINA RESULT:      -4.2      1.881      3.034
REMARK  2 active torsions:
REMARK  status: ('A' for Active; 'I' for Inactive)
REMARK    1  A    between atoms: C3_3  and  C4_4 
REMARK    2  A    between atoms: C4_4  and  C5_5 
ROOT
HETATM    1  C1  UNL     1     -34.095   6.800   6.190  1.00 20.00     0.012 C 
HETATM    2  C2  UNL     1     -34.536   5.990   5.420  1.00 20.00    -0.117 C 
HETATM    3  C3  UNL     1     -35.081   4.999   4.482  1.00 20.00     0.094 C 
ENDROOT
BRANCH   3   4
HETATM    4  C4  UNL     1     -33.982   4.248   3.725  1.00 20.00     0.027 C 
BRANCH   4   5
HETATM    5  C5  UNL     1     -33.511   4.915   2.433  1.00 20.00     0.115 C 
HETATM    6 CL6  UNL     1     -32.688   6.461   2.737  1.00 20.00    -0.130 Cl
ENDBRANCH   4   5
ENDBRANCH   3   4
TORSDOF 2
ENDMDL
MODEL 4
REMARK VINA RESULT:      -4.1      1.189      2.079
REMARK  2 active torsions:
REMARK  status: ('A' for Active; 'I' for Inactive)
REMARK    1  A    between atoms: C3_3  and  C4_4 
REMARK    2  A    between atoms: C4_4  and  C5_5 
ROOT
HETATM    1  C1  UNL     1     -32.628   8.374   0.807  1.00 20.00     0.012 C 
HETATM    2  C2  UNL     1     -32.633   7.656   1.771  1.00 20.00    -0.117 C 
HETATM    3  C3  UNL     1     -32.633   6.782   2.952  1.00 20.00     0.094 C 
ENDROOT
BRANCH   3   4
HETATM    4  C4  UNL     1     -33.375   5.466   2.701  1.00 20.00     0.027 C 
BRANCH   4   5
HETATM    5  C5  UNL     1     -34.391   5.078   3.774  1.00 20.00     0.115 C 
HETATM    6 CL6  UNL     1     -34.320   6.156   5.186  1.00 20.00    -0.130 Cl
ENDBRANCH   4   5
ENDBRANCH   3   4
TORSDOF 2
ENDMDL
MODEL 5
REMARK VINA RESULT:      -4.1      1.164      1.596
REMARK  2 active torsions:
REMARK  status: ('A' for Active; 'I' for Inactive)
REMARK    1  A    between atoms: C3_3  and  C4_4 
REMARK    2  A    between atoms: C4_4  and  C5_5 
ROOT
HETATM    1  C1  UNL     1     -33.195   4.854   2.462  1.00 20.00     0.012 C 
HETATM    2  C2  UNL     1     -34.082   4.948   3.267  1.00 20.00    -0.117 C 
HETATM    3  C3  UNL     1     -35.170   5.064   4.247  1.00 20.00     0.094 C 
ENDROOT
BRANCH   3   4
HETATM    4  C4  UNL     1     -34.654   5.107   5.688  1.00 20.00     0.027 C 
BRANCH   4   5
HETATM    5  C5  UNL     1     -34.351   6.504   6.228  1.00 20.00     0.115 C 
HETATM    6 CL6  UNL     1     -33.083   7.326   5.291  1.00 20.00    -0.130 Cl
ENDBRANCH   4   5
ENDBRANCH   3   4
TORSDOF 2
ENDMDL
MODEL 6
REMARK VINA RESULT:      -4.0      2.434      3.918
REMARK  2 active torsions:
REMARK  status: ('A' for Active; 'I' for Inactive)
REMARK    1  A    between atoms: C3_3  and  C4_4 
REMARK    2  A    between atoms: C4_4  and  C5_5 
ROOT
HETATM    1  C1  UNL     1     -34.988   4.990   4.633  1.00 20.00     0.012 C 
HETATM    2  C2  UNL     1     -34.244   5.253   3.727  1.00 20.00    -0.117 C 
HETATM    3  C3  UNL     1     -33.334   5.569   2.617  1.00 20.00     0.094 C 
ENDROOT
BRANCH   3   4
HETATM    4  C4  UNL     1     -32.771   6.989   2.714  1.00 20.00     0.027 C 
BRANCH   4   5
HETATM    5  C5  UNL     1     -32.268   7.580   1.397  1.00 20.00     0.115 C 
HETATM    6 CL6  UNL     1     -33.097   9.097   0.982  1.00 20.00    -0.130 Cl
ENDBRANCH   4   5
ENDBRANCH   3   4
TORSDOF 2
ENDMDL
MODEL 7
REMARK VINA RESULT:      -3.9      1.917      2.327
REMARK  2 active torsions:
REMARK  status: ('A' for Active; 'I' for Inactive)
REMARK    1  A    between atoms: C3_3  and  C4_4 
REMARK    2  A    between atoms: C4_4  and  C5_5 
ROOT
HETATM    1  C1  UNL     1     -32.627   7.079   3.193  1.00 20.00     0.012 C 
HETATM    2  C2  UNL     1     -33.139   7.045   4.279  1.00 20.00    -0.117 C 
HETATM    3  C3  UNL     1     -33.762   7.009   5.610  1.00 20.00     0.094 C 
ENDROOT
BRANCH   3   4
HETATM    4  C4  UNL     1     -34.549   5.718   5.849  1.00 20.00     0.027 C 
BRANCH   4   5
HETATM    5  C5  UNL     1     -35.223   5.128   4.610  1.00 20.00     0.115 C 
HETATM    6 CL6  UNL     1     -34.221   3.884   3.829  1.00 20.00    -0.130 Cl
ENDBRANCH   4   5
ENDBRANCH   3   4
TORSDOF 2
ENDMDL
MODEL 8
REMARK VINA RESULT:      -3.6      2.160      3.646
REMARK  2 active torsions:
REMARK  status: ('A' for Active; 'I' for Inactive)
REMARK    1  A    between atoms: C3_3  and  C4_4 
REMARK    2  A    between atoms: C4_4  and  C5_5 
ROOT
HETATM    1  C1  UNL     1     -34.832   5.113   5.905  1.00 20.00     0.012 C 
HETATM    2  C2  UNL     1     -34.232   6.092   5.553  1.00 20.00    -0.117 C 
HETATM    3  C3  UNL     1     -33.501   7.293   5.125  1.00 20.00     0.094 C 
ENDROOT
BRANCH   3   4
HETATM    4  C4  UNL     1     -32.553   7.011   3.956  1.00 20.00     0.027 C 
BRANCH   4   5
HETATM    5  C5  UNL     1     -33.229   6.542   2.669  1.00 20.00     0.115 C 
HETATM    6 CL6  UNL     1     -33.126   4.779   2.462  1.00 20.00    -0.130 Cl
ENDBRANCH   4   5
ENDBRANCH   3   4
TORSDOF 2
ENDMDL
MODEL 9
REMARK VINA RESULT:      -3.2     12.146     12.547
REMARK  2 active torsions:
REMARK  status: ('A' for Active; 'I' for Inactive)
REMARK    1  A    between atoms: C3_3  and  C4_4 
REMARK    2  A    between atoms: C4_4  and  C5_5 
ROOT
HETATM    1  C1  UNL     1     -35.045  16.407  -1.549  1.00 20.00     0.012 C 
HETATM    2  C2  UNL     1     -34.220  16.170  -2.389  1.00 20.00    -0.117 C 
HETATM    3  C3  UNL     1     -33.208  15.885  -3.416  1.00 20.00     0.094 C 
ENDROOT
BRANCH   3   4
HETATM    4  C4  UNL     1     -33.563  14.657  -4.259  1.00 20.00     0.027 C 
BRANCH   4   5
HETATM    5  C5  UNL     1     -34.883  14.753  -5.022  1.00 20.00     0.115 C 
HETATM    6 CL6  UNL     1     -36.084  13.578  -4.437  1.00 20.00    -0.130 Cl
ENDBRANCH   4   5
ENDBRANCH   3   4
TORSDOF 2
ENDMDL
