MODEL 1
REMARK VINA RESULT:      -5.4      0.000      0.000
REMARK  4 active torsions:
REMARK  status: ('A' for Active; 'I' for Inactive)
REMARK    1  A    between atoms: C3_3  and  C4_4 
REMARK    2  A    between atoms: C4_4  and  C5_5 
REMARK    3  A    between atoms: C5_5  and  C6_6 
REMARK    4  A    between atoms: C6_6  and  C7_7 
ROOT
HETATM    1  C1  UNL     1     -32.705   7.288   1.972  1.00 20.00    -0.176 C 
HETATM    2  C2  UNL     1     -32.507   8.240   1.112  1.00 20.00     0.091 C 
HETATM    3  C3  UNL     1     -32.903   6.333   2.835  1.00 20.00     0.066 C 
ENDROOT
BRANCH   3   4
HETATM    4  C4  UNL     1     -33.383   4.954   2.490  1.00 20.00     0.017 C 
BRANCH   4   5
HETATM    5  C5  UNL     1     -34.062   4.285   3.687  1.00 20.00     0.002 C 
BRANCH   5   6
HETATM    6  C6  UNL     1     -35.085   5.218   4.338  1.00 20.00     0.015 C 
BRANCH   6   7
HETATM    7  C7  UNL     1     -34.814   5.372   5.829  1.00 20.00     0.114 C 
HETATM    8 CL8  UNL     1     -33.904   6.867   6.144  1.00 20.00    -0.130 Cl
ENDBRANCH   6   7
ENDBRANCH   5   6
ENDBRANCH   4   5
ENDBRANCH   3   4
TORSDOF 4
ENDMDL
MODEL 2
REMARK VINA RESULT:      -5.3      0.820      1.447
REMARK  4 active torsions:
REMARK  status: ('A' for Active; 'I' for Inactive)
REMARK    1  A    between atoms: C3_3  and  C4_4 
REMARK    2  A    between atoms: C4_4  and  C5_5 
REMARK    3  A    between atoms: C5_5  and  C6_6 
REMARK    4  A    between atoms: C6_6  and  C7_7 
ROOT
HETATM    1  C1  UNL     1     -32.657   8.135   1.240  1.00 20.00    -0.176 C 
HETATM    2  C2  UNL     1     -33.063   8.929   0.296  1.00 20.00     0.091 C 
HETATM    3  C3  UNL     1     -32.249   7.340   2.187  1.00 20.00     0.066 C 
ENDROOT
BRANCH   3   4
HETATM    4  C4  UNL     1     -33.151   6.605   3.134  1.00 20.00     0.017 C 
BRANCH   4   5
HETATM    5  C5  UNL     1     -33.430   5.183   2.646  1.00 20.00     0.002 C 
BRANCH   5   6
HETATM    6  C6  UNL     1     -34.170   4.366   3.708  1.00 20.00     0.015 C 
BRANCH   6   7
HETATM    7  C7  UNL     1     -35.185   5.226   4.450  1.00 20.00     0.114 C 
HETATM    8 CL8  UNL     1     -34.697   5.438   6.148  1.00 20.00    -0.130 Cl
ENDBRANCH   6   7
ENDBRANCH   5   6
ENDBRANCH   4   5
ENDBRANCH   3   4
TORSDOF 4
ENDMDL
MODEL 3
REMARK VINA RESULT:      -4.9      1.358      1.524
REMARK  4 active torsions:
REMARK  status: ('A' for Active; 'I' for Inactive)
REMARK    1  A    between atoms: C3_3  and  C4_4 
REMARK    2  A    between atoms: C4_4  and  C5_5 
REMARK    3  A    between atoms: C5_5  and  C6_6 
REMARK    4  A    between atoms: C6_6  and  C7_7 
ROOT
HETATM    1  C1  UNL     1     -32.682   8.026   1.300  1.00 20.00    -0.176 C 
HETATM    2  C2  UNL     1     -32.954   8.829   0.316  1.00 20.00     0.091 C 
HETATM    3  C3  UNL     1     -32.410   7.222   2.287  1.00 20.00     0.066 C 
ENDROOT
BRANCH   3   4
HETATM    4  C4  UNL     1     -33.013   5.861   2.473  1.00 20.00     0.017 C 
BRANCH   4   5
HETATM    5  C5  UNL     1     -33.986   5.840   3.653  1.00 20.00     0.002 C 
BRANCH   5   6
HETATM    6  C6  UNL     1     -33.665   6.949   4.657  1.00 20.00     0.015 C 
BRANCH   6   7
HETATM    7  C7  UNL     1     -34.111   6.562   6.062  1.00 20.00     0.114 C 
HETATM    8 CL8  UNL     1     -34.896   4.966   6.047  1.00 20.00    -0.130 Cl
ENDBRANCH   6   7
ENDBRANCH   5   6
ENDBRANCH   4   5
ENDBRANCH   3   4
TORSDOF 4
ENDMDL
MODEL 4
REMARK VINA RESULT:      -4.9      2.443      4.539
REMARK  4 active torsions:
REMARK  status: ('A' for Active; 'I' for Inactive)
REMARK    1  A    between atoms: C3_3  and  C4_4 
REMARK    2  A    between atoms: C4_4  and  C5_5 
REMARK    3  A    between atoms: C5_5  and  C6_6 
REMARK    4  A    between atoms: C6_6  and  C7_7 
ROOT
HETATM    1  C1  UNL     1     -34.574   5.194   4.823  1.00 20.00    -0.176 C 
HETATM    2  C2  UNL     1     -34.747   5.612   6.040  1.00 20.00     0.091 C 
HETATM    3  C3  UNL     1     -34.400   4.775   3.603  1.00 20.00     0.066 C 
ENDROOT
BRANCH   3   4
HETATM    4  C4  UNL     1     -33.345   5.284   2.665  1.00 20.00     0.017 C 
BRANCH   4   5
HETATM    5  C5  UNL     1     -32.990   6.742   2.964  1.00 20.00     0.002 C 
BRANCH   5   6
HETATM    6  C6  UNL     1     -32.248   7.385   1.791  1.00 20.00     0.015 C 
BRANCH   6   7
HETATM    7  C7  UNL     1     -32.928   8.675   1.354  1.00 20.00     0.114 C 
HETATM    8 CL8  UNL     1     -33.355   8.599  -0.371  1.00 20.00    -0.130 Cl
ENDBRANCH   6   7
ENDBRANCH   5   6
ENDBRANCH   4   5
ENDBRANCH   3   4
TORSDOF 4
ENDMDL
MODEL 5
REMARK VINA RESULT:      -4.7      2.098      3.858
REMARK  4 active torsions:
REMARK  status: ('A' for Active; 'I' for Inactive)
REMARK    1  A    between atoms: C3_3  and  C4_4 
REMARK    2  A    between atoms: C4_4  and  C5_5 
REMARK    3  A    between atoms: C5_5  and  C6_6 
REMARK    4  A    between atoms: C6_6  and  C7_7 
ROOT
HETATM    1  C1  UNL     1     -34.306   6.105   5.900  1.00 20.00    -0.176 C 
HETATM    2  C2  UNL     1     -33.843   7.252   6.298  1.00 20.00     0.091 C 
HETATM    3  C3  UNL     1     -34.770   4.957   5.501  1.00 20.00     0.066 C 
ENDROOT
BRANCH   3   4
HETATM    4  C4  UNL     1     -34.461   4.321   4.177  1.00 20.00     0.017 C 
BRANCH   4   5
HETATM    5  C5  UNL     1     -34.400   5.364   3.060  1.00 20.00     0.002 C 
BRANCH   5   6
HETATM    6  C6  UNL     1     -32.971   5.542   2.543  1.00 20.00     0.015 C 
BRANCH   6   7
HETATM    7  C7  UNL     1     -32.476   6.963   2.781  1.00 20.00     0.114 C 
HETATM    8 CL8  UNL     1     -32.595   7.921   1.288  1.00 20.00    -0.130 Cl
ENDBRANCH   6   7
ENDBRANCH   5   6
ENDBRANCH   4   5
ENDBRANCH   3   4
TORSDOF 4
ENDMDL
MODEL 6
REMARK VINA RESULT:      -3.8      1.059      3.702
REMARK  4 active torsions:
REMARK  status: ('A' for Active; 'I' for Inactive)
REMARK    1  A    between atoms: C3_3  and  C4_4 
REMARK    2  A    between atoms: C4_4  and  C5_5 
REMARK    3  A    between atoms: C5_5  and  C6_6 
REMARK    4  A    between atoms: C6_6  and  C7_7 
ROOT
HETATM    1  C1  UNL     1     -34.614   4.733   4.911  1.00 20.00    -0.176 C 
HETATM    2  C2  UNL     1     -34.960   5.298   6.028  1.00 20.00     0.091 C 
HETATM    3  C3  UNL     1     -34.267   4.166   3.792  1.00 20.00     0.066 C 
ENDROOT
BRANCH   3   4
HETATM    4  C4  UNL     1     -33.479   4.832   2.703  1.00 20.00     0.017 C 
BRANCH   4   5
HETATM    5  C5  UNL     1     -33.652   6.351   2.740  1.00 20.00     0.002 C 
BRANCH   5   6
HETATM    6  C6  UNL     1     -32.371   7.067   2.305  1.00 20.00     0.015 C 
BRANCH   6   7
HETATM    7  C7  UNL     1     -31.641   7.659   3.504  1.00 20.00     0.114 C 
HETATM    8 CL8  UNL     1     -32.687   7.639   4.942  1.00 20.00    -0.130 Cl
ENDBRANCH   6   7
ENDBRANCH   5   6
ENDBRANCH   4   5
ENDBRANCH   3   4
TORSDOF 4
ENDMDL
MODEL 7
REMARK VINA RESULT:      -3.8      2.219      3.504
REMARK  4 active torsions:
REMARK  status: ('A' for Active; 'I' for Inactive)
REMARK    1  A    between atoms: C3_3  and  C4_4 
REMARK    2  A    between atoms: C4_4  and  C5_5 
REMARK    3  A    between atoms: C5_5  and  C6_6 
REMARK    4  A    between atoms: C6_6  and  C7_7 
ROOT
HETATM    1  C1  UNL     1     -33.711   6.952   5.856  1.00 20.00    -0.176 C 
HETATM    2  C2  UNL     1     -32.844   7.788   5.371  1.00 20.00     0.091 C 
HETATM    3  C3  UNL     1     -34.581   6.114   6.342  1.00 20.00     0.066 C 
ENDROOT
BRANCH   3   4
HETATM    4  C4  UNL     1     -35.010   4.841   5.675  1.00 20.00     0.017 C 
BRANCH   4   5
HETATM    5  C5  UNL     1     -35.010   4.984   4.152  1.00 20.00     0.002 C 
BRANCH   5   6
HETATM    6  C6  UNL     1     -33.853   4.206   3.521  1.00 20.00     0.015 C 
BRANCH   6   7
HETATM    7  C7  UNL     1     -33.443   4.820   2.188  1.00 20.00     0.114 C 
HETATM    8 CL8  UNL     1     -32.709   6.420   2.441  1.00 20.00    -0.130 Cl
ENDBRANCH   6   7
ENDBRANCH   5   6
ENDBRANCH   4   5
ENDBRANCH   3   4
TORSDOF 4
ENDMDL
MODEL 8
REMARK VINA RESULT:      -3.6      2.098      3.630
REMARK  4 active torsions:
REMARK  status: ('A' for Active; 'I' for Inactive)
REMARK    1  A    between atoms: C3_3  and  C4_4 
REMARK    2  A    between atoms: C4_4  and  C5_5 
REMARK    3  A    between atoms: C5_5  and  C6_6 
REMARK    4  A    between atoms: C6_6  and  C7_7 
ROOT
HETATM    1  C1  UNL     1     -34.330   4.599   3.640  1.00 20.00    -0.176 C 
HETATM    2  C2  UNL     1     -33.518   4.137   2.738  1.00 20.00     0.091 C 
HETATM    3  C3  UNL     1     -35.145   5.061   4.544  1.00 20.00     0.066 C 
ENDROOT
BRANCH   3   4
HETATM    4  C4  UNL     1     -34.743   5.466   5.932  1.00 20.00     0.017 C 
BRANCH   4   5
HETATM    5  C5  UNL     1     -33.678   6.563   5.905  1.00 20.00     0.002 C 
BRANCH   5   6
HETATM    6  C6  UNL     1     -33.720   7.346   4.592  1.00 20.00     0.015 C 
BRANCH   6   7
HETATM    7  C7  UNL     1     -32.326   7.494   3.997  1.00 20.00     0.114 C 
HETATM    8 CL8  UNL     1     -32.398   7.432   2.221  1.00 20.00    -0.130 Cl
ENDBRANCH   6   7
ENDBRANCH   5   6
ENDBRANCH   4   5
ENDBRANCH   3   4
TORSDOF 4
ENDMDL
MODEL 9
REMARK VINA RESULT:      -3.6     11.415     12.101
REMARK  4 active torsions:
REMARK  status: ('A' for Active; 'I' for Inactive)
REMARK    1  A    between atoms: C3_3  and  C4_4 
REMARK    2  A    between atoms: C4_4  and  C5_5 
REMARK    3  A    between atoms: C5_5  and  C6_6 
REMARK    4  A    between atoms: C6_6  and  C7_7 
ROOT
HETATM    1  C1  UNL     1     -34.291  16.187  -2.347  1.00 20.00    -0.176 C 
HETATM    2  C2  UNL     1     -35.123  16.545  -1.417  1.00 20.00     0.091 C 
HETATM    3  C3  UNL     1     -33.456  15.828  -3.279  1.00 20.00     0.066 C 
ENDROOT
BRANCH   3   4
HETATM    4  C4  UNL     1     -33.724  14.770  -4.308  1.00 20.00     0.017 C 
BRANCH   4   5
HETATM    5  C5  UNL     1     -34.851  13.836  -3.864  1.00 20.00     0.002 C 
BRANCH   5   6
HETATM    6  C6  UNL     1     -36.033  13.892  -4.834  1.00 20.00     0.015 C 
BRANCH   6   7
HETATM    7  C7  UNL     1     -37.213  14.632  -4.216  1.00 20.00     0.114 C 
HETATM    8 CL8  UNL     1     -37.152  16.359  -4.638  1.00 20.00    -0.130 Cl
ENDBRANCH   6   7
ENDBRANCH   5   6
ENDBRANCH   4   5
ENDBRANCH   3   4
TORSDOF 4
ENDMDL
