MODEL 1
REMARK VINA RESULT:      -4.8      0.000      0.000
REMARK  1 active torsions:
REMARK  status: ('A' for Active; 'I' for Inactive)
REMARK    1  A    between atoms: C2_2  and  C3_3 
ROOT
HETATM    1  C3  UNL     1     -34.071   5.812   4.485  1.00 20.00     0.101 C 
HETATM    2  C4  UNL     1     -34.494   5.990   5.744  1.00 20.00     0.288 C 
HETATM    3  F5  UNL     1     -35.124   4.995   6.406  1.00 20.00    -0.171 F 
HETATM    4  F6  UNL     1     -34.297   7.169   6.376  1.00 20.00    -0.171 F 
HETATM    5 CL7  UNL     1     -34.351   4.274   3.727  1.00 20.00    -0.079 Cl
ENDROOT
BRANCH   1   6
HETATM    6  C2  UNL     1     -33.391   6.859   3.744  1.00 20.00     0.019 C 
HETATM    7  C1  UNL     1     -32.647   6.718   2.640  1.00 20.00     0.013 C 
ENDBRANCH   1   6
TORSDOF 1
ENDMDL
MODEL 2
REMARK VINA RESULT:      -4.8      2.661      3.340
REMARK  1 active torsions:
REMARK  status: ('A' for Active; 'I' for Inactive)
REMARK    1  A    between atoms: C2_2  and  C3_3 
ROOT
HETATM    1  C3  UNL     1     -33.576   6.060   3.523  1.00 20.00     0.101 C 
HETATM    2  C4  UNL     1     -33.648   4.772   3.160  1.00 20.00     0.288 C 
HETATM    3  F5  UNL     1     -32.940   4.313   2.104  1.00 20.00    -0.171 F 
HETATM    4  F6  UNL     1     -34.430   3.907   3.844  1.00 20.00    -0.171 F 
HETATM    5 CL7  UNL     1     -32.551   7.123   2.605  1.00 20.00    -0.079 Cl
ENDROOT
BRANCH   1   6
HETATM    6  C2  UNL     1     -34.322   6.587   4.651  1.00 20.00     0.019 C 
HETATM    7  C1  UNL     1     -33.992   6.511   5.947  1.00 20.00     0.013 C 
ENDBRANCH   1   6
TORSDOF 1
ENDMDL
MODEL 3
REMARK VINA RESULT:      -4.6      1.349      1.532
REMARK  1 active torsions:
REMARK  status: ('A' for Active; 'I' for Inactive)
REMARK    1  A    between atoms: C2_2  and  C3_3 
ROOT
HETATM    1  C3  UNL     1     -34.118   6.126   4.360  1.00 20.00     0.101 C 
HETATM    2  C4  UNL     1     -33.741   6.841   5.429  1.00 20.00     0.288 C 
HETATM    3  F5  UNL     1     -34.496   6.854   6.550  1.00 20.00    -0.171 F 
HETATM    4  F6  UNL     1     -32.599   7.564   5.405  1.00 20.00    -0.171 F 
HETATM    5 CL7  UNL     1     -35.596   5.216   4.451  1.00 20.00    -0.079 Cl
ENDROOT
BRANCH   1   6
HETATM    6  C2  UNL     1     -33.332   6.090   3.140  1.00 20.00     0.019 C 
HETATM    7  C1  UNL     1     -33.148   5.044   2.325  1.00 20.00     0.013 C 
ENDBRANCH   1   6
TORSDOF 1
ENDMDL
MODEL 4
REMARK VINA RESULT:      -4.6      1.812      2.121
REMARK  1 active torsions:
REMARK  status: ('A' for Active; 'I' for Inactive)
REMARK    1  A    between atoms: C2_2  and  C3_3 
ROOT
HETATM    1  C3  UNL     1     -33.996   6.235   4.652  1.00 20.00     0.101 C 
HETATM    2  C4  UNL     1     -34.787   5.204   4.978  1.00 20.00     0.288 C 
HETATM    3  F5  UNL     1     -35.219   5.042   6.248  1.00 20.00    -0.171 F 
HETATM    4  F6  UNL     1     -35.168   4.306   4.042  1.00 20.00    -0.171 F 
HETATM    5 CL7  UNL     1     -33.541   7.357   5.898  1.00 20.00    -0.079 Cl
ENDROOT
BRANCH   1   6
HETATM    6  C2  UNL     1     -33.513   6.439   3.297  1.00 20.00     0.019 C 
HETATM    7  C1  UNL     1     -32.390   7.065   2.924  1.00 20.00     0.013 C 
ENDBRANCH   1   6
TORSDOF 1
ENDMDL
MODEL 5
REMARK VINA RESULT:      -4.6      2.451      2.782
REMARK  1 active torsions:
REMARK  status: ('A' for Active; 'I' for Inactive)
REMARK    1  A    between atoms: C2_2  and  C3_3 
ROOT
HETATM    1  C3  UNL     1     -33.385   6.184   3.668  1.00 20.00     0.101 C 
HETATM    2  C4  UNL     1     -33.787   4.978   3.242  1.00 20.00     0.288 C 
HETATM    3  F5  UNL     1     -34.684   4.260   3.954  1.00 20.00    -0.171 F 
HETATM    4  F6  UNL     1     -33.303   4.459   2.092  1.00 20.00    -0.171 F 
HETATM    5 CL7  UNL     1     -34.043   6.799   5.154  1.00 20.00    -0.079 Cl
ENDROOT
BRANCH   1   6
HETATM    6  C2  UNL     1     -32.423   6.982   2.929  1.00 20.00     0.019 C 
HETATM    7  C1  UNL     1     -32.624   7.625   1.772  1.00 20.00     0.013 C 
ENDBRANCH   1   6
TORSDOF 1
ENDMDL
MODEL 6
REMARK VINA RESULT:      -4.5      2.654      3.176
REMARK  1 active torsions:
REMARK  status: ('A' for Active; 'I' for Inactive)
REMARK    1  A    between atoms: C2_2  and  C3_3 
ROOT
HETATM    1  C3  UNL     1     -33.852   5.693   3.858  1.00 20.00     0.101 C 
HETATM    2  C4  UNL     1     -33.174   5.610   2.705  1.00 20.00     0.288 C 
HETATM    3  F5  UNL     1     -33.226   4.487   1.955  1.00 20.00    -0.171 F 
HETATM    4  F6  UNL     1     -32.425   6.648   2.271  1.00 20.00    -0.171 F 
HETATM    5 CL7  UNL     1     -34.798   4.326   4.363  1.00 20.00    -0.079 Cl
ENDROOT
BRANCH   1   6
HETATM    6  C2  UNL     1     -33.818   6.884   4.688  1.00 20.00     0.019 C 
HETATM    7  C1  UNL     1     -33.892   6.942   6.024  1.00 20.00     0.013 C 
ENDBRANCH   1   6
TORSDOF 1
ENDMDL
MODEL 7
REMARK VINA RESULT:      -4.4      2.885      3.759
REMARK  1 active torsions:
REMARK  status: ('A' for Active; 'I' for Inactive)
REMARK    1  A    between atoms: C2_2  and  C3_3 
ROOT
HETATM    1  C3  UNL     1     -33.707   6.278   4.116  1.00 20.00     0.101 C 
HETATM    2  C4  UNL     1     -33.187   6.139   2.889  1.00 20.00     0.288 C 
HETATM    3  F5  UNL     1     -32.189   6.947   2.468  1.00 20.00    -0.171 F 
HETATM    4  F6  UNL     1     -33.651   5.187   2.049  1.00 20.00    -0.171 F 
HETATM    5 CL7  UNL     1     -33.068   7.519   5.151  1.00 20.00    -0.079 Cl
ENDROOT
BRANCH   1   6
HETATM    6  C2  UNL     1     -34.780   5.427   4.600  1.00 20.00     0.019 C 
HETATM    7  C1  UNL     1     -34.947   4.965   5.845  1.00 20.00     0.013 C 
ENDBRANCH   1   6
TORSDOF 1
ENDMDL
MODEL 8
REMARK VINA RESULT:      -4.4      1.643      2.127
REMARK  1 active torsions:
REMARK  status: ('A' for Active; 'I' for Inactive)
REMARK    1  A    between atoms: C2_2  and  C3_3 
ROOT
HETATM    1  C3  UNL     1     -33.890   6.060   4.418  1.00 20.00     0.101 C 
HETATM    2  C4  UNL     1     -34.475   6.066   5.624  1.00 20.00     0.288 C 
HETATM    3  F5  UNL     1     -34.236   7.067   6.501  1.00 20.00    -0.171 F 
HETATM    4  F6  UNL     1     -35.315   5.071   5.986  1.00 20.00    -0.171 F 
HETATM    5 CL7  UNL     1     -32.821   7.368   4.010  1.00 20.00    -0.079 Cl
ENDROOT
BRANCH   1   6
HETATM    6  C2  UNL     1     -34.125   5.002   3.453  1.00 20.00     0.019 C 
HETATM    7  C1  UNL     1     -33.332   4.644   2.435  1.00 20.00     0.013 C 
ENDBRANCH   1   6
TORSDOF 1
ENDMDL
MODEL 9
REMARK VINA RESULT:      -4.4      1.834      2.936
REMARK  1 active torsions:
REMARK  status: ('A' for Active; 'I' for Inactive)
REMARK    1  A    between atoms: C2_2  and  C3_3 
ROOT
HETATM    1  C3  UNL     1     -33.848   5.577   3.703  1.00 20.00     0.101 C 
HETATM    2  C4  UNL     1     -33.247   6.752   3.940  1.00 20.00     0.288 C 
HETATM    3  F5  UNL     1     -32.279   7.208   3.114  1.00 20.00    -0.171 F 
HETATM    4  F6  UNL     1     -33.597   7.501   5.009  1.00 20.00    -0.171 F 
HETATM    5 CL7  UNL     1     -33.356   4.660   2.312  1.00 20.00    -0.079 Cl
ENDROOT
BRANCH   1   6
HETATM    6  C2  UNL     1     -34.891   5.057   4.570  1.00 20.00     0.019 C 
HETATM    7  C1  UNL     1     -34.872   4.986   5.907  1.00 20.00     0.013 C 
ENDBRANCH   1   6
TORSDOF 1
ENDMDL
