MODEL 1
REMARK VINA RESULT:      -5.4      0.000      0.000
REMARK  0 active torsions:
REMARK  status: ('A' for Active; 'I' for Inactive)
ROOT
HETATM    1  C1  UNL     1     -33.956   6.330   3.887  1.00 20.00     0.288 C 
HETATM    2  C2  UNL     1     -34.106   6.886   5.320  1.00 20.00     0.288 C 
HETATM    3  C3  UNL     1     -34.952   5.215   4.283  1.00 20.00     0.343 C 
HETATM    4  C4  UNL     1     -34.543   5.468   5.755  1.00 20.00     0.343 C 
HETATM    5  F5  UNL     1     -32.713   5.903   3.560  1.00 20.00    -0.240 F 
HETATM    6  F6  UNL     1     -32.975   7.355   5.892  1.00 20.00    -0.240 F 
HETATM    7  F7  UNL     1     -34.676   3.982   3.802  1.00 20.00    -0.196 F 
HETATM    8  F8  UNL     1     -36.249   5.467   3.994  1.00 20.00    -0.196 F 
HETATM    9  F9  UNL     1     -33.550   4.676   6.222  1.00 20.00    -0.196 F 
HETATM   10  F10 UNL     1     -35.546   5.413   6.659  1.00 20.00    -0.196 F 
ENDROOT
TORSDOF 0
ENDMDL
MODEL 2
REMARK VINA RESULT:      -5.1      0.764      2.769
REMARK  0 active torsions:
REMARK  status: ('A' for Active; 'I' for Inactive)
ROOT
HETATM    1  C1  UNL     1     -33.720   6.670   5.657  1.00 20.00     0.288 C 
HETATM    2  C2  UNL     1     -33.515   6.139   4.220  1.00 20.00     0.288 C 
HETATM    3  C3  UNL     1     -34.501   5.370   5.959  1.00 20.00     0.343 C 
HETATM    4  C4  UNL     1     -34.768   5.259   4.437  1.00 20.00     0.343 C 
HETATM    5  F5  UNL     1     -34.442   7.812   5.753  1.00 20.00    -0.240 F 
HETATM    6  F6  UNL     1     -33.605   7.058   3.234  1.00 20.00    -0.240 F 
HETATM    7  F7  UNL     1     -35.597   5.510   6.737  1.00 20.00    -0.196 F 
HETATM    8  F8  UNL     1     -33.768   4.364   6.490  1.00 20.00    -0.196 F 
HETATM    9  F9  UNL     1     -35.934   5.801   4.016  1.00 20.00    -0.196 F 
HETATM   10  F10 UNL     1     -34.707   4.012   3.922  1.00 20.00    -0.196 F 
ENDROOT
TORSDOF 0
ENDMDL
MODEL 3
REMARK VINA RESULT:      -4.9      1.241      2.599
REMARK  0 active torsions:
REMARK  status: ('A' for Active; 'I' for Inactive)
ROOT
HETATM    1  C1  UNL     1     -34.395   4.210   3.883  1.00 20.00     0.288 C 
HETATM    2  C2  UNL     1     -33.729   5.258   2.962  1.00 20.00     0.288 C 
HETATM    3  C3  UNL     1     -35.139   5.380   4.569  1.00 20.00     0.343 C 
HETATM    4  C4  UNL     1     -34.005   6.307   4.064  1.00 20.00     0.343 C 
HETATM    5  F5  UNL     1     -33.546   3.520   4.680  1.00 20.00    -0.240 F 
HETATM    6  F6  UNL     1     -32.429   5.042   2.667  1.00 20.00    -0.240 F 
HETATM    7  F7  UNL     1     -35.265   5.288   5.912  1.00 20.00    -0.196 F 
HETATM    8  F8  UNL     1     -36.369   5.653   4.076  1.00 20.00    -0.196 F 
HETATM    9  F9  UNL     1     -32.992   6.506   4.938  1.00 20.00    -0.196 F 
HETATM   10  F10 UNL     1     -34.395   7.526   3.632  1.00 20.00    -0.196 F 
ENDROOT
TORSDOF 0
ENDMDL
MODEL 4
REMARK VINA RESULT:      -4.8      1.225      2.819
REMARK  0 active torsions:
REMARK  status: ('A' for Active; 'I' for Inactive)
ROOT
HETATM    1  C1  UNL     1     -33.279   5.502   3.313  1.00 20.00     0.288 C 
HETATM    2  C2  UNL     1     -33.855   4.408   4.240  1.00 20.00     0.288 C 
HETATM    3  C3  UNL     1     -33.890   6.549   4.274  1.00 20.00     0.343 C 
HETATM    4  C4  UNL     1     -34.888   5.453   4.723  1.00 20.00     0.343 C 
HETATM    5  F5  UNL     1     -33.778   5.514   2.055  1.00 20.00    -0.240 F 
HETATM    6  F6  UNL     1     -34.363   3.319   3.622  1.00 20.00    -0.240 F 
HETATM    7  F7  UNL     1     -34.439   7.635   3.686  1.00 20.00    -0.196 F 
HETATM    8  F8  UNL     1     -33.059   7.003   5.240  1.00 20.00    -0.196 F 
HETATM    9  F9  UNL     1     -36.069   5.444   4.063  1.00 20.00    -0.196 F 
HETATM   10  F10 UNL     1     -35.176   5.429   6.042  1.00 20.00    -0.196 F 
ENDROOT
TORSDOF 0
ENDMDL
MODEL 5
REMARK VINA RESULT:      -4.7      1.555      3.118
REMARK  0 active torsions:
REMARK  status: ('A' for Active; 'I' for Inactive)
ROOT
HETATM    1  C1  UNL     1     -34.505   5.124   4.102  1.00 20.00     0.288 C 
HETATM    2  C2  UNL     1     -33.603   6.164   4.804  1.00 20.00     0.288 C 
HETATM    3  C3  UNL     1     -33.594   5.266   2.860  1.00 20.00     0.343 C 
HETATM    4  C4  UNL     1     -33.194   6.663   3.399  1.00 20.00     0.343 C 
HETATM    5  F5  UNL     1     -35.791   5.506   3.919  1.00 20.00    -0.240 F 
HETATM    6  F6  UNL     1     -34.239   7.064   5.586  1.00 20.00    -0.240 F 
HETATM    7  F7  UNL     1     -34.224   5.258   1.665  1.00 20.00    -0.196 F 
HETATM    8  F8  UNL     1     -32.584   4.370   2.778  1.00 20.00    -0.196 F 
HETATM    9  F9  UNL     1     -33.923   7.696   2.918  1.00 20.00    -0.196 F 
HETATM   10  F10 UNL     1     -31.894   6.997   3.249  1.00 20.00    -0.196 F 
ENDROOT
TORSDOF 0
ENDMDL
MODEL 6
REMARK VINA RESULT:      -4.6      8.664      9.665
REMARK  0 active torsions:
REMARK  status: ('A' for Active; 'I' for Inactive)
ROOT
HETATM    1  C1  UNL     1     -42.235   7.135   0.468  1.00 20.00     0.288 C 
HETATM    2  C2  UNL     1     -42.493   5.612   0.434  1.00 20.00     0.288 C 
HETATM    3  C3  UNL     1     -42.144   7.091  -1.075  1.00 20.00     0.343 C 
HETATM    4  C4  UNL     1     -41.787   5.589  -0.943  1.00 20.00     0.343 C 
HETATM    5  F5  UNL     1     -41.100   7.514   1.102  1.00 20.00    -0.240 F 
HETATM    6  F6  UNL     1     -41.900   4.891   1.411  1.00 20.00    -0.240 F 
HETATM    7  F7  UNL     1     -41.191   7.872  -1.630  1.00 20.00    -0.196 F 
HETATM    8  F8  UNL     1     -43.297   7.353  -1.731  1.00 20.00    -0.196 F 
HETATM    9  F9  UNL     1     -40.463   5.313  -0.907  1.00 20.00    -0.196 F 
HETATM   10  F10 UNL     1     -42.333   4.774  -1.870  1.00 20.00    -0.196 F 
ENDROOT
TORSDOF 0
ENDMDL
MODEL 7
REMARK VINA RESULT:      -4.5      8.435      9.898
REMARK  0 active torsions:
REMARK  status: ('A' for Active; 'I' for Inactive)
ROOT
HETATM    1  C1  UNL     1     -42.843   6.324   0.751  1.00 20.00     0.288 C 
HETATM    2  C2  UNL     1     -43.115   6.266  -0.769  1.00 20.00     0.288 C 
HETATM    3  C3  UNL     1     -41.926   7.538   0.477  1.00 20.00     0.343 C 
HETATM    4  C4  UNL     1     -41.774   7.009  -0.971  1.00 20.00     0.343 C 
HETATM    5  F5  UNL     1     -42.223   5.237   1.269  1.00 20.00    -0.240 F 
HETATM    6  F6  UNL     1     -43.189   5.029  -1.308  1.00 20.00    -0.240 F 
HETATM    7  F7  UNL     1     -40.787   7.590   1.204  1.00 20.00    -0.196 F 
HETATM    8  F8  UNL     1     -42.519   8.749   0.589  1.00 20.00    -0.196 F 
HETATM    9  F9  UNL     1     -40.700   6.214  -1.184  1.00 20.00    -0.196 F 
HETATM   10  F10 UNL     1     -41.763   7.950  -1.940  1.00 20.00    -0.196 F 
ENDROOT
TORSDOF 0
ENDMDL
MODEL 8
REMARK VINA RESULT:      -4.5      8.017      9.680
REMARK  0 active torsions:
REMARK  status: ('A' for Active; 'I' for Inactive)
ROOT
HETATM    1  C1  UNL     1     -42.273   7.647  -1.395  1.00 20.00     0.288 C 
HETATM    2  C2  UNL     1     -41.060   6.817  -0.918  1.00 20.00     0.288 C 
HETATM    3  C3  UNL     1     -42.185   8.425  -0.061  1.00 20.00     0.343 C 
HETATM    4  C4  UNL     1     -41.454   7.193   0.529  1.00 20.00     0.343 C 
HETATM    5  F5  UNL     1     -43.417   6.945  -1.578  1.00 20.00    -0.240 F 
HETATM    6  F6  UNL     1     -41.095   5.499  -1.214  1.00 20.00    -0.240 F 
HETATM    7  F7  UNL     1     -43.366   8.736   0.517  1.00 20.00    -0.196 F 
HETATM    8  F8  UNL     1     -41.455   9.563  -0.102  1.00 20.00    -0.196 F 
HETATM    9  F9  UNL     1     -42.249   6.300   1.162  1.00 20.00    -0.196 F 
HETATM   10  F10 UNL     1     -40.428   7.467   1.365  1.00 20.00    -0.196 F 
ENDROOT
TORSDOF 0
ENDMDL
MODEL 9
REMARK VINA RESULT:      -4.4      1.508      3.328
REMARK  0 active torsions:
REMARK  status: ('A' for Active; 'I' for Inactive)
ROOT
HETATM    1  C1  UNL     1     -33.935   6.728   4.431  1.00 20.00     0.288 C 
HETATM    2  C2  UNL     1     -34.744   5.578   3.789  1.00 20.00     0.288 C 
HETATM    3  C3  UNL     1     -33.084   6.764   3.141  1.00 20.00     0.343 C 
HETATM    4  C4  UNL     1     -33.512   5.296   2.898  1.00 20.00     0.343 C 
HETATM    5  F5  UNL     1     -33.260   6.399   5.558  1.00 20.00    -0.240 F 
HETATM    6  F6  UNL     1     -35.111   4.578   4.621  1.00 20.00    -0.240 F 
HETATM    7  F7  UNL     1     -31.759   6.966   3.316  1.00 20.00    -0.196 F 
HETATM    8  F8  UNL     1     -33.494   7.647   2.201  1.00 20.00    -0.196 F 
HETATM    9  F9  UNL     1     -32.658   4.360   3.374  1.00 20.00    -0.196 F 
HETATM   10  F10 UNL     1     -33.778   4.967   1.615  1.00 20.00    -0.196 F 
ENDROOT
TORSDOF 0
ENDMDL
