MODEL 1
REMARK VINA RESULT:      -4.7      0.000      0.000
REMARK  4 active torsions:
REMARK  status: ('A' for Active; 'I' for Inactive)
REMARK    1  A    between atoms: C1_1  and  C5_5 
REMARK    2  A    between atoms: C1_1  and  C8_8 
REMARK    3  A    between atoms: C6_6  and  C8_8 
REMARK    4  A    between atoms: C7_7  and  C8_8 
ROOT
HETATM    1  C8  UNL     1     -33.809   6.707   3.756  1.00 20.00     0.054 C 
ENDROOT
BRANCH   1   2
HETATM    2  C1  UNL     1     -32.537   7.215   3.068  1.00 20.00     0.130 C 
HETATM    3  O9  UNL     1     -31.516   7.475   3.704  1.00 20.00    -0.298 OA
BRANCH   2   4
HETATM    4  C5  UNL     1     -32.601   7.356   1.555  1.00 20.00     0.074 C 
HETATM    5  C2  UNL     1     -32.899   8.778   1.113  1.00 20.00     0.013 C 
ENDBRANCH   2   4
ENDBRANCH   1   2
BRANCH   1   6
HETATM    6  C6  UNL     1     -33.709   6.795   5.287  1.00 20.00     0.007 C 
HETATM    7  C3  UNL     1     -34.564   5.745   5.987  1.00 20.00     0.006 C 
ENDBRANCH   1   6
BRANCH   1   8
HETATM    8  C7  UNL     1     -34.146   5.288   3.264  1.00 20.00     0.007 C 
HETATM    9  C4  UNL     1     -32.997   4.552   2.587  1.00 20.00     0.006 C 
ENDBRANCH   1   8
TORSDOF 4
ENDMDL
MODEL 2
REMARK VINA RESULT:      -4.4     10.820     11.683
REMARK  4 active torsions:
REMARK  status: ('A' for Active; 'I' for Inactive)
REMARK    1  A    between atoms: C1_1  and  C5_5 
REMARK    2  A    between atoms: C1_1  and  C8_8 
REMARK    3  A    between atoms: C6_6  and  C8_8 
REMARK    4  A    between atoms: C7_7  and  C8_8 
ROOT
HETATM    1  C8  UNL     1     -34.530  14.428  -3.674  1.00 20.00     0.054 C 
ENDROOT
BRANCH   1   2
HETATM    2  C1  UNL     1     -35.866  14.000  -4.291  1.00 20.00     0.130 C 
HETATM    3  O9  UNL     1     -36.070  12.841  -4.654  1.00 20.00    -0.298 OA
BRANCH   2   4
HETATM    4  C5  UNL     1     -36.930  15.080  -4.407  1.00 20.00     0.074 C 
HETATM    5  C2  UNL     1     -38.339  14.530  -4.267  1.00 20.00     0.013 C 
ENDBRANCH   2   4
ENDBRANCH   1   2
BRANCH   1   6
HETATM    6  C6  UNL     1     -34.674  15.695  -2.815  1.00 20.00     0.007 C 
HETATM    7  C3  UNL     1     -33.373  16.484  -2.720  1.00 20.00     0.006 C 
ENDBRANCH   1   6
BRANCH   1   8
HETATM    8  C7  UNL     1     -33.464  14.577  -4.774  1.00 20.00     0.007 C 
HETATM    9  C4  UNL     1     -33.991  15.052  -6.122  1.00 20.00     0.006 C 
ENDBRANCH   1   8
TORSDOF 4
ENDMDL
MODEL 3
REMARK VINA RESULT:      -4.4     11.029     12.207
REMARK  4 active torsions:
REMARK  status: ('A' for Active; 'I' for Inactive)
REMARK    1  A    between atoms: C1_1  and  C5_5 
REMARK    2  A    between atoms: C1_1  and  C8_8 
REMARK    3  A    between atoms: C6_6  and  C8_8 
REMARK    4  A    between atoms: C7_7  and  C8_8 
ROOT
HETATM    1  C8  UNL     1     -35.158  15.072  -4.615  1.00 20.00     0.054 C 
ENDROOT
BRANCH   1   2
HETATM    2  C1  UNL     1     -36.207  13.959  -4.505  1.00 20.00     0.130 C 
HETATM    3  O9  UNL     1     -35.895  12.769  -4.541  1.00 20.00    -0.298 OA
BRANCH   2   4
HETATM    4  C5  UNL     1     -37.648  14.410  -4.326  1.00 20.00     0.074 C 
HETATM    5  C2  UNL     1     -37.837  15.890  -4.607  1.00 20.00     0.013 C 
ENDBRANCH   2   4
ENDBRANCH   1   2
BRANCH   1   6
HETATM    6  C6  UNL     1     -34.302  14.932  -5.884  1.00 20.00     0.007 C 
HETATM    7  C3  UNL     1     -35.110  15.152  -7.157  1.00 20.00     0.006 C 
ENDBRANCH   1   6
BRANCH   1   8
HETATM    8  C7  UNL     1     -34.310  15.128  -3.332  1.00 20.00     0.007 C 
HETATM    9  C4  UNL     1     -34.896  15.975  -2.209  1.00 20.00     0.006 C 
ENDBRANCH   1   8
TORSDOF 4
ENDMDL
MODEL 4
REMARK VINA RESULT:      -4.4      0.772      2.165
REMARK  4 active torsions:
REMARK  status: ('A' for Active; 'I' for Inactive)
REMARK    1  A    between atoms: C1_1  and  C5_5 
REMARK    2  A    between atoms: C1_1  and  C8_8 
REMARK    3  A    between atoms: C6_6  and  C8_8 
REMARK    4  A    between atoms: C7_7  and  C8_8 
ROOT
HETATM    1  C8  UNL     1     -33.059   6.138   3.628  1.00 20.00     0.054 C 
ENDROOT
BRANCH   1   2
HETATM    2  C1  UNL     1     -32.289   7.242   2.895  1.00 20.00     0.130 C 
HETATM    3  O9  UNL     1     -31.476   7.961   3.477  1.00 20.00    -0.298 OA
BRANCH   2   4
HETATM    4  C5  UNL     1     -32.569   7.383   1.407  1.00 20.00     0.074 C 
HETATM    5  C2  UNL     1     -32.846   8.818   0.998  1.00 20.00     0.013 C 
ENDBRANCH   2   4
ENDBRANCH   1   2
BRANCH   1   6
HETATM    6  C6  UNL     1     -33.545   5.041   2.668  1.00 20.00     0.007 C 
HETATM    7  C3  UNL     1     -34.061   3.810   3.404  1.00 20.00     0.006 C 
ENDBRANCH   1   6
BRANCH   1   8
HETATM    8  C7  UNL     1     -34.202   6.752   4.455  1.00 20.00     0.007 C 
HETATM    9  C4  UNL     1     -34.069   6.584   5.963  1.00 20.00     0.006 C 
ENDBRANCH   1   8
TORSDOF 4
ENDMDL
MODEL 5
REMARK VINA RESULT:      -4.3      1.110      3.764
REMARK  4 active torsions:
REMARK  status: ('A' for Active; 'I' for Inactive)
REMARK    1  A    between atoms: C1_1  and  C5_5 
REMARK    2  A    between atoms: C1_1  and  C8_8 
REMARK    3  A    between atoms: C6_6  and  C8_8 
REMARK    4  A    between atoms: C7_7  and  C8_8 
ROOT
HETATM    1  C8  UNL     1     -33.321   6.353   2.929  1.00 20.00     0.054 C 
ENDROOT
BRANCH   1   2
HETATM    2  C1  UNL     1     -33.782   6.521   4.381  1.00 20.00     0.130 C 
HETATM    3  O9  UNL     1     -33.212   7.287   5.157  1.00 20.00    -0.298 OA
BRANCH   2   4
HETATM    4  C5  UNL     1     -34.995   5.704   4.799  1.00 20.00     0.074 C 
HETATM    5  C2  UNL     1     -34.801   5.013   6.137  1.00 20.00     0.013 C 
ENDBRANCH   2   4
ENDBRANCH   1   2
BRANCH   1   6
HETATM    6  C6  UNL     1     -32.746   4.952   2.666  1.00 20.00     0.007 C 
HETATM    7  C3  UNL     1     -33.670   4.095   1.808  1.00 20.00     0.006 C 
ENDBRANCH   1   6
BRANCH   1   8
HETATM    8  C7  UNL     1     -32.339   7.476   2.553  1.00 20.00     0.007 C 
HETATM    9  C4  UNL     1     -32.603   8.140   1.207  1.00 20.00     0.006 C 
ENDBRANCH   1   8
TORSDOF 4
ENDMDL
MODEL 6
REMARK VINA RESULT:      -4.3      1.161      3.550
REMARK  4 active torsions:
REMARK  status: ('A' for Active; 'I' for Inactive)
REMARK    1  A    between atoms: C1_1  and  C5_5 
REMARK    2  A    between atoms: C1_1  and  C8_8 
REMARK    3  A    between atoms: C6_6  and  C8_8 
REMARK    4  A    between atoms: C7_7  and  C8_8 
ROOT
HETATM    1  C8  UNL     1     -32.793   6.502   3.164  1.00 20.00     0.054 C 
ENDROOT
BRANCH   1   2
HETATM    2  C1  UNL     1     -33.538   6.645   4.496  1.00 20.00     0.130 C 
HETATM    3  O9  UNL     1     -33.127   7.383   5.392  1.00 20.00    -0.298 OA
BRANCH   2   4
HETATM    4  C5  UNL     1     -34.823   5.845   4.637  1.00 20.00     0.074 C 
HETATM    5  C2  UNL     1     -34.874   5.044   5.927  1.00 20.00     0.013 C 
ENDBRANCH   2   4
ENDBRANCH   1   2
BRANCH   1   6
HETATM    6  C6  UNL     1     -32.526   7.864   2.505  1.00 20.00     0.007 C 
HETATM    7  C3  UNL     1     -32.525   7.783   0.983  1.00 20.00     0.006 C 
ENDBRANCH   1   6
BRANCH   1   8
HETATM    8  C7  UNL     1     -33.549   5.533   2.238  1.00 20.00     0.007 C 
HETATM    9  C4  UNL     1     -32.999   4.113   2.203  1.00 20.00     0.006 C 
ENDBRANCH   1   8
TORSDOF 4
ENDMDL
MODEL 7
REMARK VINA RESULT:      -4.2     10.938     11.731
REMARK  4 active torsions:
REMARK  status: ('A' for Active; 'I' for Inactive)
REMARK    1  A    between atoms: C1_1  and  C5_5 
REMARK    2  A    between atoms: C1_1  and  C8_8 
REMARK    3  A    between atoms: C6_6  and  C8_8 
REMARK    4  A    between atoms: C7_7  and  C8_8 
ROOT
HETATM    1  C8  UNL     1     -33.976  15.632  -2.937  1.00 20.00     0.054 C 
ENDROOT
BRANCH   1   2
HETATM    2  C1  UNL     1     -34.131  14.504  -3.964  1.00 20.00     0.130 C 
HETATM    3  O9  UNL     1     -33.155  13.982  -4.504  1.00 20.00    -0.298 OA
BRANCH   2   4
HETATM    4  C5  UNL     1     -35.553  14.055  -4.259  1.00 20.00     0.074 C 
HETATM    5  C2  UNL     1     -35.991  14.394  -5.673  1.00 20.00     0.013 C 
ENDBRANCH   2   4
ENDBRANCH   1   2
BRANCH   1   6
HETATM    6  C6  UNL     1     -35.318  16.009  -2.290  1.00 20.00     0.007 C 
HETATM    7  C3  UNL     1     -35.141  16.851  -1.032  1.00 20.00     0.006 C 
ENDBRANCH   1   6
BRANCH   1   8
HETATM    8  C7  UNL     1     -33.270  16.839  -3.580  1.00 20.00     0.007 C 
HETATM    9  C4  UNL     1     -34.097  17.595  -4.612  1.00 20.00     0.006 C 
ENDBRANCH   1   8
TORSDOF 4
ENDMDL
MODEL 8
REMARK VINA RESULT:      -4.1     10.866     11.873
REMARK  4 active torsions:
REMARK  status: ('A' for Active; 'I' for Inactive)
REMARK    1  A    between atoms: C1_1  and  C5_5 
REMARK    2  A    between atoms: C1_1  and  C8_8 
REMARK    3  A    between atoms: C6_6  and  C8_8 
REMARK    4  A    between atoms: C7_7  and  C8_8 
ROOT
HETATM    1  C8  UNL     1     -35.897  14.822  -4.920  1.00 20.00     0.054 C 
ENDROOT
BRANCH   1   2
HETATM    2  C1  UNL     1     -34.745  14.321  -4.042  1.00 20.00     0.130 C 
HETATM    3  O9  UNL     1     -34.412  13.135  -4.025  1.00 20.00    -0.298 OA
BRANCH   2   4
HETATM    4  C5  UNL     1     -34.025  15.372  -3.212  1.00 20.00     0.074 C 
HETATM    5  C2  UNL     1     -34.925  16.009  -2.168  1.00 20.00     0.013 C 
ENDBRANCH   2   4
ENDBRANCH   1   2
BRANCH   1   6
HETATM    6  C6  UNL     1     -37.250  14.242  -4.480  1.00 20.00     0.007 C 
HETATM    7  C3  UNL     1     -38.307  15.322  -4.274  1.00 20.00     0.006 C 
ENDBRANCH   1   6
BRANCH   1   8
HETATM    8  C7  UNL     1     -35.589  14.548  -6.403  1.00 20.00     0.007 C 
HETATM    9  C4  UNL     1     -34.306  15.185  -6.923  1.00 20.00     0.006 C 
ENDBRANCH   1   8
TORSDOF 4
ENDMDL
MODEL 9
REMARK VINA RESULT:      -4.1     10.956     11.869
REMARK  4 active torsions:
REMARK  status: ('A' for Active; 'I' for Inactive)
REMARK    1  A    between atoms: C1_1  and  C5_5 
REMARK    2  A    between atoms: C1_1  and  C8_8 
REMARK    3  A    between atoms: C6_6  and  C8_8 
REMARK    4  A    between atoms: C7_7  and  C8_8 
ROOT
HETATM    1  C8  UNL     1     -34.189  15.402  -2.967  1.00 20.00     0.054 C 
ENDROOT
BRANCH   1   2
HETATM    2  C1  UNL     1     -34.319  14.431  -4.145  1.00 20.00     0.130 C 
HETATM    3  O9  UNL     1     -34.960  13.383  -4.053  1.00 20.00    -0.298 OA
BRANCH   2   4
HETATM    4  C5  UNL     1     -33.631  14.844  -5.436  1.00 20.00     0.074 C 
HETATM    5  C2  UNL     1     -34.604  15.011  -6.589  1.00 20.00     0.013 C 
ENDBRANCH   2   4
ENDBRANCH   1   2
BRANCH   1   6
HETATM    6  C6  UNL     1     -35.547  15.992  -2.555  1.00 20.00     0.007 C 
HETATM    7  C3  UNL     1     -36.217  16.759  -3.689  1.00 20.00     0.006 C 
ENDBRANCH   1   6
BRANCH   1   8
HETATM    8  C7  UNL     1     -33.146  16.487  -3.288  1.00 20.00     0.007 C 
HETATM    9  C4  UNL     1     -32.860  17.462  -2.154  1.00 20.00     0.006 C 
ENDBRANCH   1   8
TORSDOF 4
ENDMDL
