MODEL 1
REMARK VINA RESULT:      -3.9      0.000      0.000
REMARK  0 active torsions:
REMARK  status: ('A' for Active; 'I' for Inactive)
ROOT
HETATM    1  C1  UNL     1     -34.014   5.263   3.550  1.00 20.00     0.134 C 
HETATM    2  C2  UNL     1     -33.234   6.941   5.090  1.00 20.00     0.134 C 
HETATM    3  C3  UNL     1     -35.084   4.870   4.564  1.00 20.00     0.183 C 
HETATM    4  C4  UNL     1     -34.322   6.508   6.068  1.00 20.00     0.183 C 
HETATM    5  N5  UNL     1     -33.662   6.677   3.711  1.00 20.00    -0.224 NA
HETATM    6  O6  UNL     1     -34.626   5.124   5.893  1.00 20.00    -0.389 OA
HETATM    7 CL7  UNL     1     -32.451   7.197   2.533  1.00 20.00    -0.022 Cl
ENDROOT
TORSDOF 0
ENDMDL
MODEL 2
REMARK VINA RESULT:      -3.7      1.077      2.022
REMARK  0 active torsions:
REMARK  status: ('A' for Active; 'I' for Inactive)
ROOT
HETATM    1  C1  UNL     1     -34.046   6.788   4.291  1.00 20.00     0.134 C 
HETATM    2  C2  UNL     1     -33.602   5.033   2.704  1.00 20.00     0.134 C 
HETATM    3  C3  UNL     1     -34.528   5.731   5.281  1.00 20.00     0.183 C 
HETATM    4  C4  UNL     1     -34.093   4.018   3.732  1.00 20.00     0.183 C 
HETATM    5  N5  UNL     1     -33.050   6.211   3.383  1.00 20.00    -0.224 NA
HETATM    6  O6  UNL     1     -35.073   4.610   4.586  1.00 20.00    -0.389 OA
HETATM    7 CL7  UNL     1     -32.430   7.405   2.236  1.00 20.00    -0.022 Cl
ENDROOT
TORSDOF 0
ENDMDL
MODEL 3
REMARK VINA RESULT:      -3.4      2.646      3.406
REMARK  0 active torsions:
REMARK  status: ('A' for Active; 'I' for Inactive)
ROOT
HETATM    1  C1  UNL     1     -33.434   6.707   4.505  1.00 20.00     0.134 C 
HETATM    2  C2  UNL     1     -34.093   4.476   3.882  1.00 20.00     0.134 C 
HETATM    3  C3  UNL     1     -32.992   6.947   3.065  1.00 20.00     0.183 C 
HETATM    4  C4  UNL     1     -33.636   4.770   2.456  1.00 20.00     0.183 C 
HETATM    5  N5  UNL     1     -34.516   5.717   4.541  1.00 20.00    -0.224 NA
HETATM    6  O6  UNL     1     -32.573   5.723   2.462  1.00 20.00    -0.389 OA
HETATM    7 CL7  UNL     1     -35.093   5.427   6.187  1.00 20.00    -0.022 Cl
ENDROOT
TORSDOF 0
ENDMDL
MODEL 4
REMARK VINA RESULT:      -3.4      9.285      9.418
REMARK  0 active torsions:
REMARK  status: ('A' for Active; 'I' for Inactive)
ROOT
HETATM    1  C1  UNL     1     -42.690   7.193   0.877  1.00 20.00     0.134 C 
HETATM    2  C2  UNL     1     -41.210   7.163  -1.022  1.00 20.00     0.134 C 
HETATM    3  C3  UNL     1     -42.653   5.668   0.894  1.00 20.00     0.183 C 
HETATM    4  C4  UNL     1     -41.208   5.638  -0.959  1.00 20.00     0.183 C 
HETATM    5  N5  UNL     1     -41.442   7.721   0.316  1.00 20.00    -0.224 NA
HETATM    6  O6  UNL     1     -42.443   5.161  -0.423  1.00 20.00    -0.389 OA
HETATM    7 CL7  UNL     1     -41.417   9.489   0.306  1.00 20.00    -0.022 Cl
ENDROOT
TORSDOF 0
ENDMDL
MODEL 5
REMARK VINA RESULT:      -3.3     16.413     16.938
REMARK  0 active torsions:
REMARK  status: ('A' for Active; 'I' for Inactive)
ROOT
HETATM    1  C1  UNL     1     -24.541  18.098   9.644  1.00 20.00     0.134 C 
HETATM    2  C2  UNL     1     -22.403  17.388  10.493  1.00 20.00     0.134 C 
HETATM    3  C3  UNL     1     -23.818  18.838   8.523  1.00 20.00     0.183 C 
HETATM    4  C4  UNL     1     -21.731  18.144   9.351  1.00 20.00     0.183 C 
HETATM    5  N5  UNL     1     -23.743  16.950  10.087  1.00 20.00    -0.224 NA
HETATM    6  O6  UNL     1     -22.527  19.263   8.959  1.00 20.00    -0.389 OA
HETATM    7 CL7  UNL     1     -24.553  16.033  11.363  1.00 20.00    -0.022 Cl
ENDROOT
TORSDOF 0
ENDMDL
MODEL 6
REMARK VINA RESULT:      -3.3     12.761     13.064
REMARK  0 active torsions:
REMARK  status: ('A' for Active; 'I' for Inactive)
ROOT
HETATM    1  C1  UNL     1     -34.158  15.195  -5.872  1.00 20.00     0.134 C 
HETATM    2  C2  UNL     1     -35.085  14.160  -3.906  1.00 20.00     0.134 C 
HETATM    3  C3  UNL     1     -35.439  14.846  -6.624  1.00 20.00     0.183 C 
HETATM    4  C4  UNL     1     -36.344  13.836  -4.705  1.00 20.00     0.183 C 
HETATM    5  N5  UNL     1     -34.444  15.366  -4.444  1.00 20.00    -0.224 NA
HETATM    6  O6  UNL     1     -36.025  13.661  -6.086  1.00 20.00    -0.389 OA
HETATM    7 CL7  UNL     1     -32.998  15.808  -3.528  1.00 20.00    -0.022 Cl
ENDROOT
TORSDOF 0
ENDMDL
MODEL 7
REMARK VINA RESULT:      -3.3     16.819     16.950
REMARK  0 active torsions:
REMARK  status: ('A' for Active; 'I' for Inactive)
ROOT
HETATM    1  C1  UNL     1     -22.388  16.962   9.245  1.00 20.00     0.134 C 
HETATM    2  C2  UNL     1     -24.201  18.455   9.774  1.00 20.00     0.134 C 
HETATM    3  C3  UNL     1     -22.167  17.735   7.949  1.00 20.00     0.183 C 
HETATM    4  C4  UNL     1     -23.936  19.194   8.466  1.00 20.00     0.183 C 
HETATM    5  N5  UNL     1     -22.961  17.844  10.267  1.00 20.00    -0.224 NA
HETATM    6  O6  UNL     1     -23.395  18.301   7.492  1.00 20.00    -0.389 OA
HETATM    7 CL7  UNL     1     -23.204  17.006  11.804  1.00 20.00    -0.022 Cl
ENDROOT
TORSDOF 0
ENDMDL
MODEL 8
REMARK VINA RESULT:      -3.2     16.063     16.797
REMARK  0 active torsions:
REMARK  status: ('A' for Active; 'I' for Inactive)
ROOT
HETATM    1  C1  UNL     1     -22.092  17.944  10.699  1.00 20.00     0.134 C 
HETATM    2  C2  UNL     1     -24.080  16.775  10.009  1.00 20.00     0.134 C 
HETATM    3  C3  UNL     1     -22.397  17.553  12.141  1.00 20.00     0.183 C 
HETATM    4  C4  UNL     1     -24.338  16.411  11.468  1.00 20.00     0.183 C 
HETATM    5  N5  UNL     1     -22.641  16.943   9.778  1.00 20.00    -0.224 NA
HETATM    6  O6  UNL     1     -23.805  17.416  12.332  1.00 20.00    -0.389 OA
HETATM    7 CL7  UNL     1     -22.283  17.328   8.091  1.00 20.00    -0.022 Cl
ENDROOT
TORSDOF 0
ENDMDL
MODEL 9
REMARK VINA RESULT:      -3.2     12.780     13.106
REMARK  0 active torsions:
REMARK  status: ('A' for Active; 'I' for Inactive)
ROOT
HETATM    1  C1  UNL     1     -35.131  14.202  -4.038  1.00 20.00     0.134 C 
HETATM    2  C2  UNL     1     -34.359  15.137  -6.119  1.00 20.00     0.134 C 
HETATM    3  C3  UNL     1     -36.425  13.794  -4.735  1.00 20.00     0.183 C 
HETATM    4  C4  UNL     1     -35.672  14.705  -6.766  1.00 20.00     0.183 C 
HETATM    5  N5  UNL     1     -34.029  14.240  -5.005  1.00 20.00    -0.224 NA
HETATM    6  O6  UNL     1     -36.723  14.697  -5.800  1.00 20.00    -0.389 OA
HETATM    7 CL7  UNL     1     -32.494  14.674  -4.242  1.00 20.00    -0.022 Cl
ENDROOT
TORSDOF 0
ENDMDL
