MODEL 1
REMARK VINA RESULT:      -4.5      0.000      0.000
REMARK  4 active torsions:
REMARK  status: ('A' for Active; 'I' for Inactive)
REMARK    1  A    between atoms: C1_1  and  C4_4 
REMARK    2  A    between atoms: C2_2  and  C8_8 
REMARK    3  A    between atoms: C8_8  and  C9_9 
REMARK    4  A    between atoms: C8_8  and  O10_10 
ROOT
HETATM    1  C8  UNL     1     -33.448   5.515   3.847  1.00 20.00     0.200 C 
ENDROOT
BRANCH   1   2
HETATM    2  C2  UNL     1     -33.108   6.484   2.796  1.00 20.00    -0.069 C 
HETATM    3  C1  UNL     1     -32.832   7.277   1.937  1.00 20.00    -0.070 C 
BRANCH   3   4
HETATM    4  C4  UNL     1     -32.506   8.219   0.915  1.00 20.00    -0.018 C 
HETATM    5  C3  UNL     1     -31.664   7.858  -0.065  1.00 20.00     0.028 C 
HETATM    6  C5  UNL     1     -33.117   9.588   0.968  1.00 20.00     0.057 C 
ENDBRANCH   3   4
ENDBRANCH   1   2
BRANCH   1   7
HETATM    7  C9  UNL     1     -34.347   6.105   4.954  1.00 20.00     0.018 C 
HETATM    8  C6  UNL     1     -33.636   7.161   5.809  1.00 20.00     0.013 C 
HETATM    9  C7  UNL     1     -34.951   5.016   5.845  1.00 20.00     0.013 C 
ENDBRANCH   1   7
BRANCH   1  10
HETATM   10  O10 UNL     1     -34.095   4.396   3.244  1.00 20.00    -0.383 OA
HETATM   11  H24 UNL     1     -34.780   4.107   3.866  1.00 20.00     0.211 HD
ENDBRANCH   1  10
TORSDOF 4
ENDMDL
MODEL 2
REMARK VINA RESULT:      -4.4     10.909     11.927
REMARK  4 active torsions:
REMARK  status: ('A' for Active; 'I' for Inactive)
REMARK    1  A    between atoms: C1_1  and  C4_4 
REMARK    2  A    between atoms: C2_2  and  C8_8 
REMARK    3  A    between atoms: C8_8  and  C9_9 
REMARK    4  A    between atoms: C8_8  and  O10_10 
ROOT
HETATM    1  C8  UNL     1     -36.196  14.138  -4.750  1.00 20.00     0.200 C 
ENDROOT
BRANCH   1   2
HETATM    2  C2  UNL     1     -35.599  15.005  -3.725  1.00 20.00    -0.069 C 
HETATM    3  C1  UNL     1     -35.110  15.716  -2.889  1.00 20.00    -0.070 C 
BRANCH   3   4
HETATM    4  C4  UNL     1     -34.528  16.559  -1.896  1.00 20.00    -0.018 C 
HETATM    5  C3  UNL     1     -33.294  17.050  -2.094  1.00 20.00     0.028 C 
HETATM    6  C5  UNL     1     -35.314  16.873  -0.658  1.00 20.00     0.057 C 
ENDBRANCH   3   4
ENDBRANCH   1   2
BRANCH   1   7
HETATM    7  C9  UNL     1     -35.805  14.535  -6.190  1.00 20.00     0.018 C 
HETATM    8  C6  UNL     1     -34.306  14.811  -6.352  1.00 20.00     0.013 C 
HETATM    9  C7  UNL     1     -36.625  15.722  -6.701  1.00 20.00     0.013 C 
ENDBRANCH   1   7
BRANCH   1  10
HETATM   10  O10 UNL     1     -35.801  12.791  -4.496  1.00 20.00    -0.383 OA
HETATM   11  H24 UNL     1     -36.533  12.229  -4.792  1.00 20.00     0.211 HD
ENDBRANCH   1  10
TORSDOF 4
ENDMDL
MODEL 3
REMARK VINA RESULT:      -4.3     11.274     11.988
REMARK  4 active torsions:
REMARK  status: ('A' for Active; 'I' for Inactive)
REMARK    1  A    between atoms: C1_1  and  C4_4 
REMARK    2  A    between atoms: C2_2  and  C8_8 
REMARK    3  A    between atoms: C8_8  and  C9_9 
REMARK    4  A    between atoms: C8_8  and  O10_10 
ROOT
HETATM    1  C8  UNL     1     -31.908  18.780  -0.802  1.00 20.00     0.200 C 
ENDROOT
BRANCH   1   2
HETATM    2  C2  UNL     1     -32.627  17.756  -1.573  1.00 20.00    -0.069 C 
HETATM    3  C1  UNL     1     -33.213  16.916  -2.202  1.00 20.00    -0.070 C 
BRANCH   3   4
HETATM    4  C4  UNL     1     -33.908  15.920  -2.950  1.00 20.00    -0.018 C 
HETATM    5  C3  UNL     1     -35.197  15.671  -2.674  1.00 20.00     0.028 C 
HETATM    6  C5  UNL     1     -33.173  15.177  -4.027  1.00 20.00     0.057 C 
ENDBRANCH   3   4
ENDBRANCH   1   2
BRANCH   1   7
HETATM    7  C9  UNL     1     -32.469  18.978   0.622  1.00 20.00     0.018 C 
HETATM    8  C6  UNL     1     -31.616  18.306   1.705  1.00 20.00     0.013 C 
HETATM    9  C7  UNL     1     -33.927  18.525   0.734  1.00 20.00     0.013 C 
ENDBRANCH   1   7
BRANCH   1  10
HETATM   10  O10 UNL     1     -30.531  18.415  -0.733  1.00 20.00    -0.383 OA
HETATM   11  H24 UNL     1     -30.478  17.485  -1.001  1.00 20.00     0.211 HD
ENDBRANCH   1  10
TORSDOF 4
ENDMDL
MODEL 4
REMARK VINA RESULT:      -4.2     11.038     11.839
REMARK  4 active torsions:
REMARK  status: ('A' for Active; 'I' for Inactive)
REMARK    1  A    between atoms: C1_1  and  C4_4 
REMARK    2  A    between atoms: C2_2  and  C8_8 
REMARK    3  A    between atoms: C8_8  and  C9_9 
REMARK    4  A    between atoms: C8_8  and  O10_10 
ROOT
HETATM    1  C8  UNL     1     -33.983  14.419  -4.425  1.00 20.00     0.200 C 
ENDROOT
BRANCH   1   2
HETATM    2  C2  UNL     1     -33.823  15.479  -3.419  1.00 20.00    -0.069 C 
HETATM    3  C1  UNL     1     -33.695  16.345  -2.597  1.00 20.00    -0.070 C 
BRANCH   3   4
HETATM    4  C4  UNL     1     -33.544  17.376  -1.622  1.00 20.00    -0.018 C 
HETATM    5  C3  UNL     1     -34.531  17.594  -0.739  1.00 20.00     0.028 C 
HETATM    6  C5  UNL     1     -32.282  18.186  -1.613  1.00 20.00     0.057 C 
ENDBRANCH   3   4
ENDBRANCH   1   2
BRANCH   1   7
HETATM    7  C9  UNL     1     -35.300  14.527  -5.223  1.00 20.00     0.018 C 
HETATM    8  C6  UNL     1     -35.590  15.949  -5.716  1.00 20.00     0.013 C 
HETATM    9  C7  UNL     1     -36.494  13.981  -4.437  1.00 20.00     0.013 C 
ENDBRANCH   1   7
BRANCH   1  10
HETATM   10  O10 UNL     1     -32.871  14.466  -5.318  1.00 20.00    -0.383 OA
HETATM   11  H24 UNL     1     -32.686  15.404  -5.478  1.00 20.00     0.211 HD
ENDBRANCH   1  10
TORSDOF 4
ENDMDL
MODEL 5
REMARK VINA RESULT:      -4.0     10.914     11.385
REMARK  4 active torsions:
REMARK  status: ('A' for Active; 'I' for Inactive)
REMARK    1  A    between atoms: C1_1  and  C4_4 
REMARK    2  A    between atoms: C2_2  and  C8_8 
REMARK    3  A    between atoms: C8_8  and  C9_9 
REMARK    4  A    between atoms: C8_8  and  O10_10 
ROOT
HETATM    1  C8  UNL     1     -35.252  16.982  -0.643  1.00 20.00     0.200 C 
ENDROOT
BRANCH   1   2
HETATM    2  C2  UNL     1     -35.028  16.120  -1.812  1.00 20.00    -0.069 C 
HETATM    3  C1  UNL     1     -34.842  15.414  -2.766  1.00 20.00    -0.070 C 
BRANCH   3   4
HETATM    4  C4  UNL     1     -34.620  14.576  -3.900  1.00 20.00    -0.018 C 
HETATM    5  C3  UNL     1     -33.410  14.566  -4.480  1.00 20.00     0.028 C 
HETATM    6  C5  UNL     1     -35.749  13.731  -4.410  1.00 20.00     0.057 C 
ENDBRANCH   3   4
ENDBRANCH   1   2
BRANCH   1   7
HETATM    7  C9  UNL     1     -34.246  18.149  -0.541  1.00 20.00     0.018 C 
HETATM    8  C6  UNL     1     -32.939  17.884  -1.298  1.00 20.00     0.013 C 
HETATM    9  C7  UNL     1     -33.954  18.530   0.912  1.00 20.00     0.013 C 
ENDBRANCH   1   7
BRANCH   1  10
HETATM   10  O10 UNL     1     -36.582  17.494  -0.702  1.00 20.00    -0.383 OA
HETATM   11  H24 UNL     1     -37.129  16.904  -0.161  1.00 20.00     0.211 HD
ENDBRANCH   1  10
TORSDOF 4
ENDMDL
MODEL 6
REMARK VINA RESULT:      -3.9     10.776     11.655
REMARK  4 active torsions:
REMARK  status: ('A' for Active; 'I' for Inactive)
REMARK    1  A    between atoms: C1_1  and  C4_4 
REMARK    2  A    between atoms: C2_2  and  C8_8 
REMARK    3  A    between atoms: C8_8  and  C9_9 
REMARK    4  A    between atoms: C8_8  and  O10_10 
ROOT
HETATM    1  C8  UNL     1     -35.297  15.948  -3.345  1.00 20.00     0.200 C 
ENDROOT
BRANCH   1   2
HETATM    2  C2  UNL     1     -34.469  16.694  -2.387  1.00 20.00    -0.069 C 
HETATM    3  C1  UNL     1     -33.794  17.305  -1.603  1.00 20.00    -0.070 C 
BRANCH   3   4
HETATM    4  C4  UNL     1     -32.992  18.033  -0.674  1.00 20.00    -0.018 C 
HETATM    5  C3  UNL     1     -31.732  18.355  -1.007  1.00 20.00     0.028 C 
HETATM    6  C5  UNL     1     -33.583  18.417   0.650  1.00 20.00     0.057 C 
ENDBRANCH   3   4
ENDBRANCH   1   2
BRANCH   1   7
HETATM    7  C9  UNL     1     -34.762  14.531  -3.643  1.00 20.00     0.018 C 
HETATM    8  C6  UNL     1     -33.411  14.537  -4.367  1.00 20.00     0.013 C 
HETATM    9  C7  UNL     1     -35.777  13.683  -4.414  1.00 20.00     0.013 C 
ENDBRANCH   1   7
BRANCH   1  10
HETATM   10  O10 UNL     1     -36.625  15.865  -2.832  1.00 20.00    -0.383 OA
HETATM   11  H24 UNL     1     -36.639  15.109  -2.225  1.00 20.00     0.211 HD
ENDBRANCH   1  10
TORSDOF 4
ENDMDL
MODEL 7
REMARK VINA RESULT:      -3.9     10.556     11.968
REMARK  4 active torsions:
REMARK  status: ('A' for Active; 'I' for Inactive)
REMARK    1  A    between atoms: C1_1  and  C4_4 
REMARK    2  A    between atoms: C2_2  and  C8_8 
REMARK    3  A    between atoms: C8_8  and  C9_9 
REMARK    4  A    between atoms: C8_8  and  O10_10 
ROOT
HETATM    1  C8  UNL     1     -35.857  14.002  -4.576  1.00 20.00     0.200 C 
ENDROOT
BRANCH   1   2
HETATM    2  C2  UNL     1     -37.230  14.494  -4.395  1.00 20.00    -0.069 C 
HETATM    3  C1  UNL     1     -38.351  14.900  -4.248  1.00 20.00    -0.070 C 
BRANCH   3   4
HETATM    4  C4  UNL     1     -39.683  15.381  -4.070  1.00 20.00    -0.018 C 
HETATM    5  C3  UNL     1     -39.918  16.340  -3.161  1.00 20.00     0.028 C 
HETATM    6  C5  UNL     1     -40.783  14.798  -4.907  1.00 20.00     0.057 C 
ENDBRANCH   3   4
ENDBRANCH   1   2
BRANCH   1   7
HETATM    7  C9  UNL     1     -34.861  14.576  -3.545  1.00 20.00     0.018 C 
HETATM    8  C6  UNL     1     -35.388  15.826  -2.831  1.00 20.00     0.013 C 
HETATM    9  C7  UNL     1     -33.489  14.853  -4.165  1.00 20.00     0.013 C 
ENDBRANCH   1   7
BRANCH   1  10
HETATM   10  O10 UNL     1     -35.868  12.578  -4.495  1.00 20.00    -0.383 OA
HETATM   11  H24 UNL     1     -36.769  12.297  -4.718  1.00 20.00     0.211 HD
ENDBRANCH   1  10
TORSDOF 4
ENDMDL
MODEL 8
REMARK VINA RESULT:      -3.8     10.857     12.072
REMARK  4 active torsions:
REMARK  status: ('A' for Active; 'I' for Inactive)
REMARK    1  A    between atoms: C1_1  and  C4_4 
REMARK    2  A    between atoms: C2_2  and  C8_8 
REMARK    3  A    between atoms: C8_8  and  C9_9 
REMARK    4  A    between atoms: C8_8  and  O10_10 
ROOT
HETATM    1  C8  UNL     1     -33.666  15.760  -3.617  1.00 20.00     0.200 C 
ENDROOT
BRANCH   1   2
HETATM    2  C2  UNL     1     -33.236  16.707  -2.578  1.00 20.00    -0.069 C 
HETATM    3  C1  UNL     1     -32.884  17.483  -1.732  1.00 20.00    -0.070 C 
BRANCH   3   4
HETATM    4  C4  UNL     1     -32.463  18.404  -0.726  1.00 20.00    -0.018 C 
HETATM    5  C3  UNL     1     -33.357  19.258  -0.204  1.00 20.00     0.028 C 
HETATM    6  C5  UNL     1     -31.030  18.390  -0.282  1.00 20.00     0.057 C 
ENDBRANCH   3   4
ENDBRANCH   1   2
BRANCH   1   7
HETATM    7  C9  UNL     1     -35.060  15.151  -3.349  1.00 20.00     0.018 C 
HETATM    8  C6  UNL     1     -35.290  13.826  -4.086  1.00 20.00     0.013 C 
HETATM    9  C7  UNL     1     -36.187  16.139  -3.661  1.00 20.00     0.013 C 
ENDBRANCH   1   7
BRANCH   1  10
HETATM   10  O10 UNL     1     -33.665  16.431  -4.875  1.00 20.00    -0.383 OA
HETATM   11  H24 UNL     1     -33.085  17.201  -4.776  1.00 20.00     0.211 HD
ENDBRANCH   1  10
TORSDOF 4
ENDMDL
MODEL 9
REMARK VINA RESULT:      -3.7     10.836     11.768
REMARK  4 active torsions:
REMARK  status: ('A' for Active; 'I' for Inactive)
REMARK    1  A    between atoms: C1_1  and  C4_4 
REMARK    2  A    between atoms: C2_2  and  C8_8 
REMARK    3  A    between atoms: C8_8  and  C9_9 
REMARK    4  A    between atoms: C8_8  and  O10_10 
ROOT
HETATM    1  C8  UNL     1     -35.403  16.626  -2.489  1.00 20.00     0.200 C 
ENDROOT
BRANCH   1   2
HETATM    2  C2  UNL     1     -35.320  17.057  -1.086  1.00 20.00    -0.069 C 
HETATM    3  C1  UNL     1     -35.252  17.406   0.061  1.00 20.00    -0.070 C 
BRANCH   3   4
HETATM    4  C4  UNL     1     -35.174  17.820   1.424  1.00 20.00    -0.018 C 
HETATM    5  C3  UNL     1     -33.970  18.016   1.982  1.00 20.00     0.028 C 
HETATM    6  C5  UNL     1     -36.445  18.025   2.195  1.00 20.00     0.057 C 
ENDBRANCH   3   4
ENDBRANCH   1   2
BRANCH   1   7
HETATM    7  C9  UNL     1     -34.400  15.507  -2.845  1.00 20.00     0.018 C 
HETATM    8  C6  UNL     1     -33.071  16.040  -3.392  1.00 20.00     0.013 C 
HETATM    9  C7  UNL     1     -35.002  14.482  -3.810  1.00 20.00     0.013 C 
ENDBRANCH   1   7
BRANCH   1  10
HETATM   10  O10 UNL     1     -36.733  16.184  -2.753  1.00 20.00    -0.383 OA
HETATM   11  H24 UNL     1     -36.656  15.416  -3.339  1.00 20.00     0.211 HD
ENDBRANCH   1  10
TORSDOF 4
ENDMDL
