MODEL 1
REMARK VINA RESULT:      -5.6      0.000      0.000
REMARK  3 active torsions:
REMARK  status: ('A' for Active; 'I' for Inactive)
REMARK    1  A    between atoms: C2_2  and  O5_5 
REMARK    2  A    between atoms: C3_3  and  C4_4 
REMARK    3  A    between atoms: C3_3  and  O5_5 
ROOT
HETATM    1  C3  UNL     1     -34.654   5.512   4.434  1.00 20.00     0.454 C 
HETATM    2  F6  UNL     1     -35.974   5.590   4.143  1.00 20.00    -0.166 F 
HETATM    3  F7  UNL     1     -34.192   4.330   3.963  1.00 20.00    -0.166 F 
ENDROOT
BRANCH   1   4
HETATM    4  C4  UNL     1     -34.455   5.580   5.921  1.00 20.00     0.484 C 
HETATM    5  F8  UNL     1     -33.838   4.469   6.375  1.00 20.00    -0.163 F 
HETATM    6  F9  UNL     1     -33.696   6.643   6.263  1.00 20.00    -0.163 F 
HETATM    7  F10 UNL     1     -35.636   5.689   6.566  1.00 20.00    -0.163 F 
ENDBRANCH   1   4
BRANCH   1   8
HETATM    8  O5  UNL     1     -33.966   6.578   3.790  1.00 20.00    -0.319 OA
BRANCH   8   9
HETATM    9  C2  UNL     1     -33.021   6.117   2.835  1.00 20.00     0.170 C 
HETATM   10  C1  UNL     1     -32.453   7.307   2.091  1.00 20.00     0.033 C 
ENDBRANCH   8   9
ENDBRANCH   1   8
TORSDOF 3
ENDMDL
MODEL 2
REMARK VINA RESULT:      -5.6      0.005      1.194
REMARK  3 active torsions:
REMARK  status: ('A' for Active; 'I' for Inactive)
REMARK    1  A    between atoms: C2_2  and  O5_5 
REMARK    2  A    between atoms: C3_3  and  C4_4 
REMARK    3  A    between atoms: C3_3  and  O5_5 
ROOT
HETATM    1  C3  UNL     1     -34.652   5.510   4.435  1.00 20.00     0.454 C 
HETATM    2  F6  UNL     1     -35.973   5.587   4.144  1.00 20.00    -0.166 F 
HETATM    3  F7  UNL     1     -34.190   4.327   3.964  1.00 20.00    -0.166 F 
ENDROOT
BRANCH   1   4
HETATM    4  C4  UNL     1     -34.453   5.578   5.922  1.00 20.00     0.484 C 
HETATM    5  F8  UNL     1     -33.693   6.642   6.257  1.00 20.00    -0.163 F 
HETATM    6  F9  UNL     1     -35.634   5.695   6.566  1.00 20.00    -0.163 F 
HETATM    7  F10 UNL     1     -33.837   4.469   6.383  1.00 20.00    -0.163 F 
ENDBRANCH   1   4
BRANCH   1   8
HETATM    8  O5  UNL     1     -33.964   6.576   3.792  1.00 20.00    -0.319 OA
BRANCH   8   9
HETATM    9  C2  UNL     1     -33.021   6.116   2.834  1.00 20.00     0.170 C 
HETATM   10  C1  UNL     1     -32.458   7.305   2.087  1.00 20.00     0.033 C 
ENDBRANCH   8   9
ENDBRANCH   1   8
TORSDOF 3
ENDMDL
MODEL 3
REMARK VINA RESULT:      -5.6      0.020      1.194
REMARK  3 active torsions:
REMARK  status: ('A' for Active; 'I' for Inactive)
REMARK    1  A    between atoms: C2_2  and  O5_5 
REMARK    2  A    between atoms: C3_3  and  C4_4 
REMARK    3  A    between atoms: C3_3  and  O5_5 
ROOT
HETATM    1  C3  UNL     1     -34.655   5.526   4.443  1.00 20.00     0.454 C 
HETATM    2  F6  UNL     1     -35.975   5.615   4.152  1.00 20.00    -0.166 F 
HETATM    3  F7  UNL     1     -34.202   4.343   3.965  1.00 20.00    -0.166 F 
ENDROOT
BRANCH   1   4
HETATM    4  C4  UNL     1     -34.457   5.584   5.931  1.00 20.00     0.484 C 
HETATM    5  F8  UNL     1     -35.641   5.689   6.570  1.00 20.00    -0.163 F 
HETATM    6  F9  UNL     1     -33.840   4.472   6.384  1.00 20.00    -0.163 F 
HETATM    7  F10 UNL     1     -33.704   6.649   6.280  1.00 20.00    -0.163 F 
ENDBRANCH   1   4
BRANCH   1   8
HETATM    8  O5  UNL     1     -33.959   6.590   3.806  1.00 20.00    -0.319 OA
BRANCH   8   9
HETATM    9  C2  UNL     1     -33.005   6.128   2.861  1.00 20.00     0.170 C 
HETATM   10  C1  UNL     1     -32.473   7.311   2.080  1.00 20.00     0.033 C 
ENDBRANCH   8   9
ENDBRANCH   1   8
TORSDOF 3
ENDMDL
MODEL 4
REMARK VINA RESULT:      -5.2      1.039      2.235
REMARK  3 active torsions:
REMARK  status: ('A' for Active; 'I' for Inactive)
REMARK    1  A    between atoms: C2_2  and  O5_5 
REMARK    2  A    between atoms: C3_3  and  C4_4 
REMARK    3  A    between atoms: C3_3  and  O5_5 
ROOT
HETATM    1  C3  UNL     1     -34.012   6.391   4.370  1.00 20.00     0.454 C 
HETATM    2  F6  UNL     1     -33.311   6.745   5.473  1.00 20.00    -0.166 F 
HETATM    3  F7  UNL     1     -34.784   7.444   4.012  1.00 20.00    -0.166 F 
ENDROOT
BRANCH   1   4
HETATM    4  C4  UNL     1     -34.880   5.204   4.678  1.00 20.00     0.484 C 
HETATM    5  F8  UNL     1     -36.100   5.343   4.117  1.00 20.00    -0.163 F 
HETATM    6  F9  UNL     1     -34.335   4.065   4.202  1.00 20.00    -0.163 F 
HETATM    7  F10 UNL     1     -35.052   5.058   6.009  1.00 20.00    -0.163 F 
ENDBRANCH   1   4
BRANCH   1   8
HETATM    8  O5  UNL     1     -33.109   6.086   3.315  1.00 20.00    -0.319 OA
BRANCH   8   9
HETATM    9  C2  UNL     1     -32.233   7.164   3.019  1.00 20.00     0.170 C 
HETATM   10  C1  UNL     1     -32.499   7.644   1.608  1.00 20.00     0.033 C 
ENDBRANCH   8   9
ENDBRANCH   1   8
TORSDOF 3
ENDMDL
MODEL 5
REMARK VINA RESULT:      -4.7      1.267      2.194
REMARK  3 active torsions:
REMARK  status: ('A' for Active; 'I' for Inactive)
REMARK    1  A    between atoms: C2_2  and  O5_5 
REMARK    2  A    between atoms: C3_3  and  C4_4 
REMARK    3  A    between atoms: C3_3  and  O5_5 
ROOT
HETATM    1  C3  UNL     1     -33.642   5.512   2.986  1.00 20.00     0.454 C 
HETATM    2  F6  UNL     1     -34.354   5.360   1.843  1.00 20.00    -0.166 F 
HETATM    3  F7  UNL     1     -32.551   4.714   2.906  1.00 20.00    -0.166 F 
ENDROOT
BRANCH   1   4
HETATM    4  C4  UNL     1     -34.481   5.110   4.165  1.00 20.00     0.484 C 
HETATM    5  F8  UNL     1     -34.165   5.845   5.252  1.00 20.00    -0.163 F 
HETATM    6  F9  UNL     1     -35.795   5.291   3.912  1.00 20.00    -0.163 F 
HETATM    7  F10 UNL     1     -34.294   3.810   4.476  1.00 20.00    -0.163 F 
ENDBRANCH   1   4
BRANCH   1   8
HETATM    8  O5  UNL     1     -33.228   6.867   3.107  1.00 20.00    -0.319 OA
BRANCH   8   9
HETATM    9  C2  UNL     1     -32.199   7.206   2.190  1.00 20.00     0.170 C 
HETATM   10  C1  UNL     1     -32.736   8.215   1.197  1.00 20.00     0.033 C 
ENDBRANCH   8   9
ENDBRANCH   1   8
TORSDOF 3
ENDMDL
MODEL 6
REMARK VINA RESULT:      -4.5      2.351      3.842
REMARK  3 active torsions:
REMARK  status: ('A' for Active; 'I' for Inactive)
REMARK    1  A    between atoms: C2_2  and  O5_5 
REMARK    2  A    between atoms: C3_3  and  C4_4 
REMARK    3  A    between atoms: C3_3  and  O5_5 
ROOT
HETATM    1  C3  UNL     1     -33.518   6.724   3.883  1.00 20.00     0.454 C 
HETATM    2  F6  UNL     1     -34.616   7.499   3.713  1.00 20.00    -0.166 F 
HETATM    3  F7  UNL     1     -32.939   7.075   5.056  1.00 20.00    -0.166 F 
ENDROOT
BRANCH   1   4
HETATM    4  C4  UNL     1     -32.556   6.949   2.753  1.00 20.00     0.484 C 
HETATM    5  F8  UNL     1     -32.355   5.808   2.059  1.00 20.00    -0.163 F 
HETATM    6  F9  UNL     1     -33.022   7.879   1.894  1.00 20.00    -0.163 F 
HETATM    7  F10 UNL     1     -31.357   7.369   3.210  1.00 20.00    -0.163 F 
ENDBRANCH   1   4
BRANCH   1   8
HETATM    8  O5  UNL     1     -33.910   5.358   3.940  1.00 20.00    -0.319 OA
BRANCH   8   9
HETATM    9  C2  UNL     1     -35.142   5.172   4.620  1.00 20.00     0.170 C 
HETATM   10  C1  UNL     1     -34.879   5.116   6.110  1.00 20.00     0.033 C 
ENDBRANCH   8   9
ENDBRANCH   1   8
TORSDOF 3
ENDMDL
MODEL 7
REMARK VINA RESULT:      -4.4      2.615      4.076
REMARK  3 active torsions:
REMARK  status: ('A' for Active; 'I' for Inactive)
REMARK    1  A    between atoms: C2_2  and  O5_5 
REMARK    2  A    between atoms: C3_3  and  C4_4 
REMARK    3  A    between atoms: C3_3  and  O5_5 
ROOT
HETATM    1  C3  UNL     1     -33.232   6.007   2.707  1.00 20.00     0.454 C 
HETATM    2  F6  UNL     1     -32.373   4.980   2.913  1.00 20.00    -0.166 F 
HETATM    3  F7  UNL     1     -34.078   5.650   1.712  1.00 20.00    -0.166 F 
ENDROOT
BRANCH   1   4
HETATM    4  C4  UNL     1     -32.469   7.238   2.309  1.00 20.00     0.484 C 
HETATM    5  F8  UNL     1     -31.777   7.026   1.169  1.00 20.00    -0.163 F 
HETATM    6  F9  UNL     1     -33.300   8.280   2.100  1.00 20.00    -0.163 F 
HETATM    7  F10 UNL     1     -31.587   7.595   3.267  1.00 20.00    -0.163 F 
ENDBRANCH   1   4
BRANCH   1   8
HETATM    8  O5  UNL     1     -33.975   6.246   3.896  1.00 20.00    -0.319 OA
BRANCH   8   9
HETATM    9  C2  UNL     1     -34.716   5.108   4.313  1.00 20.00     0.170 C 
HETATM   10  C1  UNL     1     -34.824   5.116   5.823  1.00 20.00     0.033 C 
ENDBRANCH   8   9
ENDBRANCH   1   8
TORSDOF 3
ENDMDL
MODEL 8
REMARK VINA RESULT:      -4.3      2.012      2.874
REMARK  3 active torsions:
REMARK  status: ('A' for Active; 'I' for Inactive)
REMARK    1  A    between atoms: C2_2  and  O5_5 
REMARK    2  A    between atoms: C3_3  and  C4_4 
REMARK    3  A    between atoms: C3_3  and  O5_5 
ROOT
HETATM    1  C3  UNL     1     -32.782   6.726   3.029  1.00 20.00     0.454 C 
HETATM    2  F6  UNL     1     -32.505   5.533   2.451  1.00 20.00    -0.166 F 
HETATM    3  F7  UNL     1     -31.617   7.254   3.474  1.00 20.00    -0.166 F 
ENDROOT
BRANCH   1   4
HETATM    4  C4  UNL     1     -33.725   6.528   4.181  1.00 20.00     0.484 C 
HETATM    5  F8  UNL     1     -33.169   6.953   5.335  1.00 20.00    -0.163 F 
HETATM    6  F9  UNL     1     -34.872   7.215   3.996  1.00 20.00    -0.163 F 
HETATM    7  F10 UNL     1     -34.042   5.224   4.331  1.00 20.00    -0.163 F 
ENDBRANCH   1   4
BRANCH   1   8
HETATM    8  O5  UNL     1     -33.355   7.597   2.061  1.00 20.00    -0.319 OA
BRANCH   8   9
HETATM    9  C2  UNL     1     -32.403   8.061   1.114  1.00 20.00     0.170 C 
HETATM   10  C1  UNL     1     -33.127   8.804   0.012  1.00 20.00     0.033 C 
ENDBRANCH   8   9
ENDBRANCH   1   8
TORSDOF 3
ENDMDL
MODEL 9
REMARK VINA RESULT:      -4.3      2.013      3.425
REMARK  3 active torsions:
REMARK  status: ('A' for Active; 'I' for Inactive)
REMARK    1  A    between atoms: C2_2  and  O5_5 
REMARK    2  A    between atoms: C3_3  and  C4_4 
REMARK    3  A    between atoms: C3_3  and  O5_5 
ROOT
HETATM    1  C3  UNL     1     -34.347   4.701   3.865  1.00 20.00     0.454 C 
HETATM    2  F6  UNL     1     -34.482   3.365   3.688  1.00 20.00    -0.166 F 
HETATM    3  F7  UNL     1     -35.579   5.258   3.795  1.00 20.00    -0.166 F 
ENDROOT
BRANCH   1   4
HETATM    4  C4  UNL     1     -33.468   5.271   2.789  1.00 20.00     0.484 C 
HETATM    5  F8  UNL     1     -32.526   4.380   2.416  1.00 20.00    -0.163 F 
HETATM    6  F9  UNL     1     -34.187   5.596   1.694  1.00 20.00    -0.163 F 
HETATM    7  F10 UNL     1     -32.836   6.386   3.215  1.00 20.00    -0.163 F 
ENDBRANCH   1   4
BRANCH   1   8
HETATM    8  O5  UNL     1     -33.788   4.952   5.149  1.00 20.00    -0.319 OA
BRANCH   8   9
HETATM    9  C2  UNL     1     -34.631   5.755   5.962  1.00 20.00     0.170 C 
HETATM   10  C1  UNL     1     -33.981   7.108   6.161  1.00 20.00     0.033 C 
ENDBRANCH   8   9
ENDBRANCH   1   8
TORSDOF 3
ENDMDL
