MODEL 1
REMARK VINA RESULT:      -4.3      0.000      0.000
REMARK  0 active torsions:
REMARK  status: ('A' for Active; 'I' for Inactive)
ROOT
HETATM    1  C1  UNL     1     -21.902  17.132   8.471  1.00 20.00     0.014 C 
HETATM    2  C2  UNL     1     -22.611  17.280   9.428  1.00 20.00    -0.091 C 
HETATM    3  C3  UNL     1     -25.750  17.712  12.332  1.00 20.00     0.000 C 
HETATM    4  C4  UNL     1     -25.225  16.298  12.083  1.00 20.00     0.003 C 
HETATM    5  C5  UNL     1     -25.784  18.544  11.059  1.00 20.00     0.003 C 
HETATM    6  C6  UNL     1     -24.293  16.188  10.871  1.00 20.00     0.039 C 
HETATM    7  C7  UNL     1     -24.404  18.682  10.403  1.00 20.00     0.039 C 
HETATM    8  C8  UNL     1     -23.481  17.463  10.603  1.00 20.00     0.099 C 
HETATM    9 CL9  UNL     1     -22.361  17.759  11.986  1.00 20.00    -0.105 Cl
ENDROOT
TORSDOF 0
ENDMDL
MODEL 2
REMARK VINA RESULT:      -4.3     15.846     16.500
REMARK  0 active torsions:
REMARK  status: ('A' for Active; 'I' for Inactive)
ROOT
HETATM    1  C1  UNL     1     -32.590   7.918   1.436  1.00 20.00     0.014 C 
HETATM    2  C2  UNL     1     -32.963   7.202   2.325  1.00 20.00    -0.091 C 
HETATM    3  C3  UNL     1     -34.696   5.287   5.760  1.00 20.00     0.000 C 
HETATM    4  C4  UNL     1     -35.499   5.238   4.460  1.00 20.00     0.003 C 
HETATM    5  C5  UNL     1     -33.956   6.605   5.927  1.00 20.00     0.003 C 
HETATM    6  C6  UNL     1     -34.943   6.144   3.355  1.00 20.00     0.039 C 
HETATM    7  C7  UNL     1     -32.977   6.887   4.781  1.00 20.00     0.039 C 
HETATM    8  C8  UNL     1     -33.420   6.323   3.415  1.00 20.00     0.099 C 
HETATM    9 CL9  UNL     1     -32.620   4.735   3.117  1.00 20.00    -0.105 Cl
ENDROOT
TORSDOF 0
ENDMDL
MODEL 3
REMARK VINA RESULT:      -4.2     18.174     18.589
REMARK  0 active torsions:
REMARK  status: ('A' for Active; 'I' for Inactive)
ROOT
HETATM    1  C1  UNL     1     -34.042  15.138  -7.227  1.00 20.00     0.014 C 
HETATM    2  C2  UNL     1     -34.288  15.225  -6.055  1.00 20.00    -0.091 C 
HETATM    3  C3  UNL     1     -34.837  16.263  -1.921  1.00 20.00     0.000 C 
HETATM    4  C4  UNL     1     -35.963  16.636  -2.884  1.00 20.00     0.003 C 
HETATM    5  C5  UNL     1     -33.464  16.412  -2.557  1.00 20.00     0.003 C 
HETATM    6  C6  UNL     1     -35.595  16.461  -4.363  1.00 20.00     0.039 C 
HETATM    7  C7  UNL     1     -33.293  15.544  -3.810  1.00 20.00     0.039 C 
HETATM    8  C8  UNL     1     -34.589  15.331  -4.617  1.00 20.00     0.099 C 
HETATM    9 CL9  UNL     1     -35.340  13.753  -4.168  1.00 20.00    -0.105 Cl
ENDROOT
TORSDOF 0
ENDMDL
MODEL 4
REMARK VINA RESULT:      -4.1     17.033     17.514
REMARK  0 active torsions:
REMARK  status: ('A' for Active; 'I' for Inactive)
ROOT
HETATM    1  C1  UNL     1     -32.285  18.011  -1.342  1.00 20.00     0.014 C 
HETATM    2  C2  UNL     1     -32.954  17.384  -2.116  1.00 20.00    -0.091 C 
HETATM    3  C3  UNL     1     -35.125  14.503  -4.452  1.00 20.00     0.000 C 
HETATM    4  C4  UNL     1     -35.858  15.128  -3.265  1.00 20.00     0.003 C 
HETATM    5  C5  UNL     1     -33.650  14.276  -4.160  1.00 20.00     0.003 C 
HETATM    6  C6  UNL     1     -34.952  15.950  -2.341  1.00 20.00     0.039 C 
HETATM    7  C7  UNL     1     -32.910  15.571  -3.802  1.00 20.00     0.039 C 
HETATM    8  C8  UNL     1     -33.775  16.615  -3.067  1.00 20.00     0.099 C 
HETATM    9 CL9  UNL     1     -34.407  17.827  -4.243  1.00 20.00    -0.105 Cl
ENDROOT
TORSDOF 0
ENDMDL
MODEL 5
REMARK VINA RESULT:      -4.1     17.733     18.184
REMARK  0 active torsions:
REMARK  status: ('A' for Active; 'I' for Inactive)
ROOT
HETATM    1  C1  UNL     1     -36.266  13.604  -4.537  1.00 20.00     0.014 C 
HETATM    2  C2  UNL     1     -35.412  14.417  -4.312  1.00 20.00    -0.091 C 
HETATM    3  C3  UNL     1     -32.970  17.826  -3.370  1.00 20.00     0.000 C 
HETATM    4  C4  UNL     1     -33.372  16.918  -2.208  1.00 20.00     0.003 C 
HETATM    5  C5  UNL     1     -34.076  17.956  -4.405  1.00 20.00     0.003 C 
HETATM    6  C6  UNL     1     -34.436  15.876  -2.575  1.00 20.00     0.039 C 
HETATM    7  C7  UNL     1     -34.490  16.607  -5.007  1.00 20.00     0.039 C 
HETATM    8  C8  UNL     1     -34.364  15.415  -4.037  1.00 20.00     0.099 C 
HETATM    9 CL9  UNL     1     -32.802  14.557  -4.316  1.00 20.00    -0.105 Cl
ENDROOT
TORSDOF 0
ENDMDL
MODEL 6
REMARK VINA RESULT:      -4.1     23.305     23.888
REMARK  0 active torsions:
REMARK  status: ('A' for Active; 'I' for Inactive)
ROOT
HETATM    1  C1  UNL     1     -41.147   9.886   0.676  1.00 20.00     0.014 C 
HETATM    2  C2  UNL     1     -41.587   8.873   0.207  1.00 20.00    -0.091 C 
HETATM    3  C3  UNL     1     -42.610   4.883  -1.020  1.00 20.00     0.000 C 
HETATM    4  C4  UNL     1     -43.335   5.439   0.206  1.00 20.00     0.003 C 
HETATM    5  C5  UNL     1     -41.162   5.342  -1.087  1.00 20.00     0.003 C 
HETATM    6  C6  UNL     1     -42.748   6.756   0.728  1.00 20.00     0.039 C 
HETATM    7  C7  UNL     1     -41.024   6.868  -1.134  1.00 20.00     0.039 C 
HETATM    8  C8  UNL     1     -42.127   7.629  -0.370  1.00 20.00     0.099 C 
HETATM    9 CL9  UNL     1     -43.417   8.155  -1.516  1.00 20.00    -0.105 Cl
ENDROOT
TORSDOF 0
ENDMDL
MODEL 7
REMARK VINA RESULT:      -4.0     18.593     19.145
REMARK  0 active torsions:
REMARK  status: ('A' for Active; 'I' for Inactive)
ROOT
HETATM    1  C1  UNL     1     -38.615  14.726  -4.234  1.00 20.00     0.014 C 
HETATM    2  C2  UNL     1     -37.458  15.044  -4.206  1.00 20.00    -0.091 C 
HETATM    3  C3  UNL     1     -33.298  15.776  -3.412  1.00 20.00     0.000 C 
HETATM    4  C4  UNL     1     -33.641  14.515  -4.205  1.00 20.00     0.003 C 
HETATM    5  C5  UNL     1     -34.333  16.078  -2.340  1.00 20.00     0.003 C 
HETATM    6  C6  UNL     1     -35.140  14.191  -4.235  1.00 20.00     0.039 C 
HETATM    7  C7  UNL     1     -35.742  16.273  -2.912  1.00 20.00     0.039 C 
HETATM    8  C8  UNL     1     -36.038  15.434  -4.171  1.00 20.00     0.099 C 
HETATM    9 CL9  UNL     1     -35.780  16.433  -5.651  1.00 20.00    -0.105 Cl
ENDROOT
TORSDOF 0
ENDMDL
MODEL 8
REMARK VINA RESULT:      -4.0     18.241     18.688
REMARK  0 active torsions:
REMARK  status: ('A' for Active; 'I' for Inactive)
ROOT
HETATM    1  C1  UNL     1     -32.902  17.280  -2.260  1.00 20.00     0.014 C 
HETATM    2  C2  UNL     1     -33.427  16.511  -3.019  1.00 20.00    -0.091 C 
HETATM    3  C3  UNL     1     -35.962  14.200  -5.607  1.00 20.00     0.000 C 
HETATM    4  C4  UNL     1     -35.223  15.382  -6.235  1.00 20.00     0.003 C 
HETATM    5  C5  UNL     1     -36.409  14.494  -4.184  1.00 20.00     0.003 C 
HETATM    6  C6  UNL     1     -34.542  16.300  -5.213  1.00 20.00     0.039 C 
HETATM    7  C7  UNL     1     -35.240  14.841  -3.254  1.00 20.00     0.039 C 
HETATM    8  C8  UNL     1     -34.070  15.568  -3.949  1.00 20.00     0.099 C 
HETATM    9 CL9  UNL     1     -32.786  14.381  -4.391  1.00 20.00    -0.105 Cl
ENDROOT
TORSDOF 0
ENDMDL
MODEL 9
REMARK VINA RESULT:      -4.0     17.418     18.040
REMARK  0 active torsions:
REMARK  status: ('A' for Active; 'I' for Inactive)
ROOT
HETATM    1  C1  UNL     1     -35.259  17.017  -0.411  1.00 20.00     0.014 C 
HETATM    2  C2  UNL     1     -35.033  16.689  -1.543  1.00 20.00    -0.091 C 
HETATM    3  C3  UNL     1     -33.909  14.853  -5.263  1.00 20.00     0.000 C 
HETATM    4  C4  UNL     1     -35.303  14.533  -4.725  1.00 20.00     0.003 C 
HETATM    5  C5  UNL     1     -32.882  14.987  -4.151  1.00 20.00     0.003 C 
HETATM    6  C6  UNL     1     -35.540  15.017  -3.289  1.00 20.00     0.039 C 
HETATM    7  C7  UNL     1     -33.239  16.084  -3.140  1.00 20.00     0.039 C 
HETATM    8  C8  UNL     1     -34.754  16.286  -2.933  1.00 20.00     0.099 C 
HETATM    9 CL9  UNL     1     -35.337  17.655  -3.953  1.00 20.00    -0.105 Cl
ENDROOT
TORSDOF 0
ENDMDL
