MODEL 1
REMARK VINA RESULT:      -4.7      0.000      0.000
REMARK  2 active torsions:
REMARK  status: ('A' for Active; 'I' for Inactive)
REMARK    1  A    between atoms: C1_1  and  C5_5 
REMARK    2  A    between atoms: C4_4  and  C5_5 
ROOT
HETATM    1  C1  UNL     1     -34.560   5.489   4.503  1.00 20.00     0.164 C 
HETATM    2  C2  UNL     1     -34.541   5.746   5.814  1.00 20.00     0.301 C 
HETATM    3  F7  UNL     1     -34.867   4.230   4.111  1.00 20.00    -0.205 F 
HETATM    4  F8  UNL     1     -34.830   4.762   6.692  1.00 20.00    -0.170 F 
HETATM    5  F9  UNL     1     -34.238   6.980   6.271  1.00 20.00    -0.170 F 
ENDROOT
BRANCH   1   6
HETATM    6  C5  UNL     1     -34.251   6.497   3.436  1.00 20.00     0.110 C 
BRANCH   6   7
HETATM    7  C4  UNL     1     -32.864   6.399   2.877  1.00 20.00     0.151 A 
HETATM    8  C3  UNL     1     -31.840   7.467   3.144  1.00 20.00     0.200 A 
HETATM    9  O6  UNL     1     -32.548   7.393   1.896  1.00 20.00    -0.381 OA
ENDBRANCH   6   7
ENDBRANCH   1   6
TORSDOF 2
ENDMDL
MODEL 2
REMARK VINA RESULT:      -4.6      1.062      1.898
REMARK  2 active torsions:
REMARK  status: ('A' for Active; 'I' for Inactive)
REMARK    1  A    between atoms: C1_1  and  C5_5 
REMARK    2  A    between atoms: C4_4  and  C5_5 
ROOT
HETATM    1  C1  UNL     1     -34.039   6.452   5.281  1.00 20.00     0.164 C 
HETATM    2  C2  UNL     1     -34.902   5.433   5.240  1.00 20.00     0.301 C 
HETATM    3  F7  UNL     1     -33.407   6.697   6.452  1.00 20.00    -0.205 F 
HETATM    4  F8  UNL     1     -35.109   4.688   6.347  1.00 20.00    -0.170 F 
HETATM    5  F9  UNL     1     -35.569   5.139   4.104  1.00 20.00    -0.170 F 
ENDROOT
BRANCH   1   6
HETATM    6  C5  UNL     1     -33.733   7.351   4.120  1.00 20.00     0.110 C 
BRANCH   6   7
HETATM    7  C4  UNL     1     -32.577   6.902   3.278  1.00 20.00     0.151 A 
HETATM    8  C3  UNL     1     -32.468   7.298   1.832  1.00 20.00     0.200 A 
HETATM    9  O6  UNL     1     -32.925   5.995   2.227  1.00 20.00    -0.381 OA
ENDBRANCH   6   7
ENDBRANCH   1   6
TORSDOF 2
ENDMDL
MODEL 3
REMARK VINA RESULT:      -4.5      2.871      3.856
REMARK  2 active torsions:
REMARK  status: ('A' for Active; 'I' for Inactive)
REMARK    1  A    between atoms: C1_1  and  C5_5 
REMARK    2  A    between atoms: C4_4  and  C5_5 
ROOT
HETATM    1  C1  UNL     1     -33.371   5.662   2.665  1.00 20.00     0.164 C 
HETATM    2  C2  UNL     1     -32.600   6.754   2.673  1.00 20.00     0.301 C 
HETATM    3  F7  UNL     1     -33.786   5.192   1.466  1.00 20.00    -0.205 F 
HETATM    4  F8  UNL     1     -32.259   7.339   1.505  1.00 20.00    -0.170 F 
HETATM    5  F9  UNL     1     -32.156   7.276   3.836  1.00 20.00    -0.170 F 
ENDROOT
BRANCH   1   6
HETATM    6  C5  UNL     1     -33.818   4.931   3.896  1.00 20.00     0.110 C 
BRANCH   6   7
HETATM    7  C4  UNL     1     -34.775   5.700   4.757  1.00 20.00     0.151 A 
HETATM    8  C3  UNL     1     -34.319   6.355   6.032  1.00 20.00     0.200 A 
HETATM    9  O6  UNL     1     -35.030   5.107   6.036  1.00 20.00    -0.381 OA
ENDBRANCH   6   7
ENDBRANCH   1   6
TORSDOF 2
ENDMDL
MODEL 4
REMARK VINA RESULT:      -4.2     11.751     12.491
REMARK  2 active torsions:
REMARK  status: ('A' for Active; 'I' for Inactive)
REMARK    1  A    between atoms: C1_1  and  C5_5 
REMARK    2  A    between atoms: C4_4  and  C5_5 
ROOT
HETATM    1  C1  UNL     1     -34.179  14.670  -4.047  1.00 20.00     0.164 C 
HETATM    2  C2  UNL     1     -33.962  15.555  -3.069  1.00 20.00     0.301 C 
HETATM    3  F7  UNL     1     -33.290  14.627  -5.067  1.00 20.00    -0.205 F 
HETATM    4  F8  UNL     1     -32.878  16.358  -3.123  1.00 20.00    -0.170 F 
HETATM    5  F9  UNL     1     -34.813  15.651  -2.025  1.00 20.00    -0.170 F 
ENDROOT
BRANCH   1   6
HETATM    6  C5  UNL     1     -35.349  13.733  -4.098  1.00 20.00     0.110 C 
BRANCH   6   7
HETATM    7  C4  UNL     1     -36.531  14.261  -4.854  1.00 20.00     0.151 A 
HETATM    8  C3  UNL     1     -37.582  15.092  -4.173  1.00 20.00     0.200 A 
HETATM    9  O6  UNL     1     -37.787  13.699  -4.459  1.00 20.00    -0.381 OA
ENDBRANCH   6   7
ENDBRANCH   1   6
TORSDOF 2
ENDMDL
MODEL 5
REMARK VINA RESULT:      -4.2      2.638      3.478
REMARK  2 active torsions:
REMARK  status: ('A' for Active; 'I' for Inactive)
REMARK    1  A    between atoms: C1_1  and  C5_5 
REMARK    2  A    between atoms: C4_4  and  C5_5 
ROOT
HETATM    1  C1  UNL     1     -34.228   4.666   3.607  1.00 20.00     0.164 C 
HETATM    2  C2  UNL     1     -33.361   5.167   2.723  1.00 20.00     0.301 C 
HETATM    3  F7  UNL     1     -34.196   3.332   3.836  1.00 20.00    -0.205 F 
HETATM    4  F8  UNL     1     -32.489   4.344   2.101  1.00 20.00    -0.170 F 
HETATM    5  F9  UNL     1     -33.344   6.488   2.445  1.00 20.00    -0.170 F 
ENDROOT
BRANCH   1   6
HETATM    6  C5  UNL     1     -35.244   5.479   4.352  1.00 20.00     0.110 C 
BRANCH   6   7
HETATM    7  C4  UNL     1     -34.898   5.736   5.788  1.00 20.00     0.151 A 
HETATM    8  C3  UNL     1     -34.036   6.902   6.183  1.00 20.00     0.200 A 
HETATM    9  O6  UNL     1     -33.512   5.567   6.104  1.00 20.00    -0.381 OA
ENDBRANCH   6   7
ENDBRANCH   1   6
TORSDOF 2
ENDMDL
MODEL 6
REMARK VINA RESULT:      -4.1      2.028      3.020
REMARK  2 active torsions:
REMARK  status: ('A' for Active; 'I' for Inactive)
REMARK    1  A    between atoms: C1_1  and  C5_5 
REMARK    2  A    between atoms: C4_4  and  C5_5 
ROOT
HETATM    1  C1  UNL     1     -33.336   6.362   3.222  1.00 20.00     0.164 C 
HETATM    2  C2  UNL     1     -33.537   5.058   3.005  1.00 20.00     0.301 C 
HETATM    3  F7  UNL     1     -33.968   6.930   4.275  1.00 20.00    -0.205 F 
HETATM    4  F8  UNL     1     -34.343   4.360   3.832  1.00 20.00    -0.170 F 
HETATM    5  F9  UNL     1     -32.939   4.432   1.969  1.00 20.00    -0.170 F 
ENDROOT
BRANCH   1   6
HETATM    6  C5  UNL     1     -32.469   7.240   2.369  1.00 20.00     0.110 C 
BRANCH   6   7
HETATM    7  C4  UNL     1     -33.210   7.994   1.307  1.00 20.00     0.151 A 
HETATM    8  C3  UNL     1     -32.515   8.463   0.058  1.00 20.00     0.200 A 
HETATM    9  O6  UNL     1     -32.796   9.356   1.148  1.00 20.00    -0.381 OA
ENDBRANCH   6   7
ENDBRANCH   1   6
TORSDOF 2
ENDMDL
MODEL 7
REMARK VINA RESULT:      -4.1      2.601      3.842
REMARK  2 active torsions:
REMARK  status: ('A' for Active; 'I' for Inactive)
REMARK    1  A    between atoms: C1_1  and  C5_5 
REMARK    2  A    between atoms: C4_4  and  C5_5 
ROOT
HETATM    1  C1  UNL     1     -33.239   6.000   2.900  1.00 20.00     0.164 C 
HETATM    2  C2  UNL     1     -33.394   4.691   2.680  1.00 20.00     0.301 C 
HETATM    3  F7  UNL     1     -32.397   6.681   2.089  1.00 20.00    -0.205 F 
HETATM    4  F8  UNL     1     -32.723   4.100   1.668  1.00 20.00    -0.170 F 
HETATM    5  F9  UNL     1     -34.216   3.953   3.456  1.00 20.00    -0.170 F 
ENDROOT
BRANCH   1   6
HETATM    6  C5  UNL     1     -33.925   6.762   3.995  1.00 20.00     0.110 C 
BRANCH   6   7
HETATM    7  C4  UNL     1     -33.658   6.238   5.374  1.00 20.00     0.151 A 
HETATM    8  C3  UNL     1     -34.720   5.506   6.147  1.00 20.00     0.200 A 
HETATM    9  O6  UNL     1     -34.407   6.883   6.410  1.00 20.00    -0.381 OA
ENDBRANCH   6   7
ENDBRANCH   1   6
TORSDOF 2
ENDMDL
MODEL 8
REMARK VINA RESULT:      -4.1      1.918      2.395
REMARK  2 active torsions:
REMARK  status: ('A' for Active; 'I' for Inactive)
REMARK    1  A    between atoms: C1_1  and  C5_5 
REMARK    2  A    between atoms: C4_4  and  C5_5 
ROOT
HETATM    1  C1  UNL     1     -33.125   5.863   2.807  1.00 20.00     0.164 C 
HETATM    2  C2  UNL     1     -33.988   5.744   3.821  1.00 20.00     0.301 C 
HETATM    3  F7  UNL     1     -32.814   4.744   2.111  1.00 20.00    -0.205 F 
HETATM    4  F8  UNL     1     -34.518   4.537   4.110  1.00 20.00    -0.170 F 
HETATM    5  F9  UNL     1     -34.337   6.820   4.558  1.00 20.00    -0.170 F 
ENDROOT
BRANCH   1   6
HETATM    6  C5  UNL     1     -32.469   7.147   2.398  1.00 20.00     0.110 C 
BRANCH   6   7
HETATM    7  C4  UNL     1     -33.196   7.897   1.322  1.00 20.00     0.151 A 
HETATM    8  C3  UNL     1     -32.469   8.429   0.118  1.00 20.00     0.200 A 
HETATM    9  O6  UNL     1     -32.837   9.279   1.216  1.00 20.00    -0.381 OA
ENDBRANCH   6   7
ENDBRANCH   1   6
TORSDOF 2
ENDMDL
MODEL 9
REMARK VINA RESULT:      -3.9     12.061     12.416
REMARK  2 active torsions:
REMARK  status: ('A' for Active; 'I' for Inactive)
REMARK    1  A    between atoms: C1_1  and  C5_5 
REMARK    2  A    between atoms: C4_4  and  C5_5 
ROOT
HETATM    1  C1  UNL     1     -33.690  15.881  -2.946  1.00 20.00     0.164 C 
HETATM    2  C2  UNL     1     -33.523  16.887  -2.082  1.00 20.00     0.301 C 
HETATM    3  F7  UNL     1     -32.646  15.557  -3.744  1.00 20.00    -0.205 F 
HETATM    4  F8  UNL     1     -32.338  17.531  -2.026  1.00 20.00    -0.170 F 
HETATM    5  F9  UNL     1     -34.527  17.263  -1.261  1.00 20.00    -0.170 F 
ENDROOT
BRANCH   1   6
HETATM    6  C5  UNL     1     -34.959  15.098  -3.102  1.00 20.00     0.110 C 
BRANCH   6   7
HETATM    7  C4  UNL     1     -35.041  14.300  -4.368  1.00 20.00     0.151 A 
HETATM    8  C3  UNL     1     -36.328  13.653  -4.797  1.00 20.00     0.200 A 
HETATM    9  O6  UNL     1     -35.275  12.901  -4.174  1.00 20.00    -0.381 OA
ENDBRANCH   6   7
ENDBRANCH   1   6
TORSDOF 2
ENDMDL
