MODEL 1
REMARK VINA RESULT:      -3.5      0.000      0.000
REMARK  0 active torsions:
REMARK  status: ('A' for Active; 'I' for Inactive)
REMARK       I    between atoms: C2_2  and  N4_4 
ROOT
HETATM    1  C1  UNL     1     -32.552   7.831   1.681  1.00 20.00     0.166 C 
HETATM    2  C2  UNL     1     -33.196   6.366   3.174  1.00 20.00     0.240 C 
HETATM    3  C3  UNL     1     -33.349   5.013   2.556  1.00 20.00     0.119 C 
HETATM    4  N4  UNL     1     -32.228   7.143   2.574  1.00 20.00    -0.200 NA
HETATM    5  O5  UNL     1     -33.914   6.665   4.124  1.00 20.00    -0.272 OA
HETATM    6  S6  UNL     1     -32.954   8.777   0.464  1.00 20.00    -0.055 SA
ENDROOT
TORSDOF 0
ENDMDL
MODEL 2
REMARK VINA RESULT:      -3.4     10.934     11.335
REMARK  0 active torsions:
REMARK  status: ('A' for Active; 'I' for Inactive)
REMARK       I    between atoms: C2_2  and  N4_4 
ROOT
HETATM    1  C1  UNL     1     -38.189  14.746  -4.298  1.00 20.00     0.166 C 
HETATM    2  C2  UNL     1     -36.287  13.895  -4.967  1.00 20.00     0.240 C 
HETATM    3  C3  UNL     1     -35.211  14.147  -3.959  1.00 20.00     0.119 C 
HETATM    4  N4  UNL     1     -37.544  13.773  -4.415  1.00 20.00    -0.200 NA
HETATM    5  O5  UNL     1     -35.979  13.821  -6.152  1.00 20.00    -0.272 OA
HETATM    6  S6  UNL     1     -39.093  16.045  -4.121  1.00 20.00    -0.055 SA
ENDROOT
TORSDOF 0
ENDMDL
MODEL 3
REMARK VINA RESULT:      -3.4     10.999     11.295
REMARK  0 active torsions:
REMARK  status: ('A' for Active; 'I' for Inactive)
REMARK       I    between atoms: C2_2  and  N4_4 
ROOT
HETATM    1  C1  UNL     1     -35.373  14.753  -6.662  1.00 20.00     0.166 C 
HETATM    2  C2  UNL     1     -36.175  13.801  -4.862  1.00 20.00     0.240 C 
HETATM    3  C3  UNL     1     -36.425  14.817  -3.793  1.00 20.00     0.119 C 
HETATM    4  N4  UNL     1     -36.320  14.296  -6.140  1.00 20.00    -0.200 NA
HETATM    5  O5  UNL     1     -35.875  12.658  -4.531  1.00 20.00    -0.272 OA
HETATM    6  S6  UNL     1     -34.110  15.382  -7.402  1.00 20.00    -0.055 SA
ENDROOT
TORSDOF 0
ENDMDL
MODEL 4
REMARK VINA RESULT:      -3.3     10.194     10.615
REMARK  0 active torsions:
REMARK  status: ('A' for Active; 'I' for Inactive)
REMARK       I    between atoms: C2_2  and  N4_4 
ROOT
HETATM    1  C1  UNL     1     -34.690  14.739  -3.497  1.00 20.00     0.166 C 
HETATM    2  C2  UNL     1     -36.154  13.879  -4.878  1.00 20.00     0.240 C 
HETATM    3  C3  UNL     1     -35.932  14.386  -6.268  1.00 20.00     0.119 C 
HETATM    4  N4  UNL     1     -35.001  13.799  -4.127  1.00 20.00    -0.200 NA
HETATM    5  O5  UNL     1     -37.295  13.587  -4.532  1.00 20.00    -0.272 OA
HETATM    6  S6  UNL     1     -34.237  15.996  -2.630  1.00 20.00    -0.055 SA
ENDROOT
TORSDOF 0
ENDMDL
MODEL 5
REMARK VINA RESULT:      -3.3      2.680      2.925
REMARK  0 active torsions:
REMARK  status: ('A' for Active; 'I' for Inactive)
REMARK       I    between atoms: C2_2  and  N4_4 
ROOT
HETATM    1  C1  UNL     1     -33.581   6.541   3.409  1.00 20.00     0.166 C 
HETATM    2  C2  UNL     1     -34.584   4.973   4.560  1.00 20.00     0.240 C 
HETATM    3  C3  UNL     1     -34.661   5.346   6.007  1.00 20.00     0.119 C 
HETATM    4  N4  UNL     1     -34.607   6.055   3.708  1.00 20.00    -0.200 NA
HETATM    5  O5  UNL     1     -34.509   3.785   4.261  1.00 20.00    -0.272 OA
HETATM    6  S6  UNL     1     -32.209   7.227   2.982  1.00 20.00    -0.055 SA
ENDROOT
TORSDOF 0
ENDMDL
MODEL 6
REMARK VINA RESULT:      -3.3     10.335     10.531
REMARK  0 active torsions:
REMARK  status: ('A' for Active; 'I' for Inactive)
REMARK       I    between atoms: C2_2  and  N4_4 
ROOT
HETATM    1  C1  UNL     1     -34.237  15.079  -4.474  1.00 20.00     0.166 C 
HETATM    2  C2  UNL     1     -35.909  13.681  -4.674  1.00 20.00     0.240 C 
HETATM    3  C3  UNL     1     -37.211  14.372  -4.417  1.00 20.00     0.119 C 
HETATM    4  N4  UNL     1     -34.943  14.503  -5.213  1.00 20.00    -0.200 NA
HETATM    5  O5  UNL     1     -35.809  12.490  -4.396  1.00 20.00    -0.272 OA
HETATM    6  S6  UNL     1     -33.262  15.879  -3.501  1.00 20.00    -0.055 SA
ENDROOT
TORSDOF 0
ENDMDL
MODEL 7
REMARK VINA RESULT:      -3.1     16.529     16.860
REMARK  0 active torsions:
REMARK  status: ('A' for Active; 'I' for Inactive)
REMARK       I    between atoms: C2_2  and  N4_4 
ROOT
HETATM    1  C1  UNL     1     -22.330  17.951  10.584  1.00 20.00     0.166 C 
HETATM    2  C2  UNL     1     -22.544  17.779   8.413  1.00 20.00     0.240 C 
HETATM    3  C3  UNL     1     -23.749  18.528   7.939  1.00 20.00     0.119 C 
HETATM    4  N4  UNL     1     -21.959  18.324   9.535  1.00 20.00    -0.200 NA
HETATM    5  O5  UNL     1     -22.189  16.781   7.792  1.00 20.00    -0.272 OA
HETATM    6  S6  UNL     1     -22.808  17.470  12.025  1.00 20.00    -0.055 SA
ENDROOT
TORSDOF 0
ENDMDL
MODEL 8
REMARK VINA RESULT:      -3.0     15.865     16.069
REMARK  0 active torsions:
REMARK  status: ('A' for Active; 'I' for Inactive)
REMARK       I    between atoms: C2_2  and  N4_4 
ROOT
HETATM    1  C1  UNL     1     -24.029  17.864   9.511  1.00 20.00     0.166 C 
HETATM    2  C2  UNL     1     -23.529  16.736  11.318  1.00 20.00     0.240 C 
HETATM    3  C3  UNL     1     -24.664  15.847  11.717  1.00 20.00     0.119 C 
HETATM    4  N4  UNL     1     -23.446  16.950   9.959  1.00 20.00    -0.200 NA
HETATM    5  O5  UNL     1     -22.795  17.184  12.193  1.00 20.00    -0.272 OA
HETATM    6  S6  UNL     1     -24.808  19.095   8.866  1.00 20.00    -0.055 SA
ENDROOT
TORSDOF 0
ENDMDL
MODEL 9
REMARK VINA RESULT:      -3.0     10.407     10.666
REMARK  0 active torsions:
REMARK  status: ('A' for Active; 'I' for Inactive)
REMARK       I    between atoms: C2_2  and  N4_4 
ROOT
HETATM    1  C1  UNL     1     -33.894  15.960  -2.882  1.00 20.00     0.166 C 
HETATM    2  C2  UNL     1     -33.393  14.588  -4.513  1.00 20.00     0.240 C 
HETATM    3  C3  UNL     1     -34.031  15.031  -5.791  1.00 20.00     0.119 C 
HETATM    4  N4  UNL     1     -33.082  15.626  -3.661  1.00 20.00    -0.200 NA
HETATM    5  O5  UNL     1     -33.207  13.388  -4.331  1.00 20.00    -0.272 OA
HETATM    6  S6  UNL     1     -34.972  16.440  -1.813  1.00 20.00    -0.055 SA
ENDROOT
TORSDOF 0
ENDMDL
