MODEL 1
REMARK VINA RESULT:      -5.3      0.000      0.000
REMARK  3 active torsions:
REMARK  status: ('A' for Active; 'I' for Inactive)
REMARK    1  A    between atoms: C2_2  and  C3_3 
REMARK    2  A    between atoms: C2_2  and  C4_4 
REMARK    3  A    between atoms: C3_3  and  O5_5 
ROOT
HETATM    1  C2  UNL     1     -34.000   6.451   4.082  1.00 20.00     0.379 C 
HETATM    2  F6  UNL     1     -33.176   6.773   5.118  1.00 20.00    -0.231 F 
ENDROOT
BRANCH   1   3
HETATM    3  C3  UNL     1     -33.132   6.113   2.885  1.00 20.00     0.393 C 
HETATM    4  F7  UNL     1     -33.924   5.883   1.807  1.00 20.00    -0.172 F 
HETATM    5  F8  UNL     1     -32.424   4.982   3.124  1.00 20.00    -0.172 F 
BRANCH   3   6
HETATM    6  O5  UNL     1     -32.237   7.174   2.579  1.00 20.00    -0.329 OA
HETATM    7  C1  UNL     1     -32.616   7.892   1.412  1.00 20.00     0.208 C 
ENDBRANCH   3   6
ENDBRANCH   1   3
BRANCH   1   8
HETATM    8  C4  UNL     1     -34.891   5.316   4.535  1.00 20.00     0.426 C 
HETATM    9  F9  UNL     1     -36.143   5.477   4.051  1.00 20.00    -0.168 F 
HETATM   10  F10 UNL     1     -34.981   5.262   5.880  1.00 20.00    -0.168 F 
HETATM   11  F11 UNL     1     -34.432   4.124   4.101  1.00 20.00    -0.168 F 
ENDBRANCH   1   8
TORSDOF 3
ENDMDL
MODEL 2
REMARK VINA RESULT:      -5.1      1.875      3.508
REMARK  3 active torsions:
REMARK  status: ('A' for Active; 'I' for Inactive)
REMARK    1  A    between atoms: C2_2  and  C3_3 
REMARK    2  A    between atoms: C2_2  and  C4_4 
REMARK    3  A    between atoms: C3_3  and  O5_5 
ROOT
HETATM    1  C2  UNL     1     -33.768   6.069   3.879  1.00 20.00     0.379 C 
HETATM    2  F6  UNL     1     -34.327   7.295   3.677  1.00 20.00    -0.231 F 
ENDROOT
BRANCH   1   3
HETATM    3  C3  UNL     1     -34.838   5.156   4.445  1.00 20.00     0.393 C 
HETATM    4  F7  UNL     1     -34.578   3.877   4.076  1.00 20.00    -0.172 F 
HETATM    5  F8  UNL     1     -36.052   5.490   3.945  1.00 20.00    -0.172 F 
BRANCH   3   6
HETATM    6  O5  UNL     1     -34.878   5.225   5.865  1.00 20.00    -0.329 OA
HETATM    7  C1  UNL     1     -34.222   6.378   6.376  1.00 20.00     0.208 C 
ENDBRANCH   3   6
ENDBRANCH   1   3
BRANCH   1   8
HETATM    8  C4  UNL     1     -33.196   5.600   2.560  1.00 20.00     0.426 C 
HETATM    9  F9  UNL     1     -32.446   6.574   1.997  1.00 20.00    -0.168 F 
HETATM   10  F10 UNL     1     -34.170   5.281   1.681  1.00 20.00    -0.168 F 
HETATM   11  F11 UNL     1     -32.409   4.515   2.719  1.00 20.00    -0.168 F 
ENDBRANCH   1   8
TORSDOF 3
ENDMDL
MODEL 3
REMARK VINA RESULT:      -5.0      1.681      3.499
REMARK  3 active torsions:
REMARK  status: ('A' for Active; 'I' for Inactive)
REMARK    1  A    between atoms: C2_2  and  C3_3 
REMARK    2  A    between atoms: C2_2  and  C4_4 
REMARK    3  A    between atoms: C3_3  and  O5_5 
ROOT
HETATM    1  C2  UNL     1     -34.326   4.338   3.685  1.00 20.00     0.379 C 
HETATM    2  F6  UNL     1     -33.561   3.548   4.489  1.00 20.00    -0.231 F 
ENDROOT
BRANCH   1   3
HETATM    3  C3  UNL     1     -34.990   5.386   4.558  1.00 20.00     0.393 C 
HETATM    4  F7  UNL     1     -35.164   4.884   5.807  1.00 20.00    -0.172 F 
HETATM    5  F8  UNL     1     -36.213   5.700   4.067  1.00 20.00    -0.172 F 
BRANCH   3   6
HETATM    6  O5  UNL     1     -34.198   6.564   4.644  1.00 20.00    -0.329 OA
HETATM    7  C1  UNL     1     -33.833   6.883   5.980  1.00 20.00     0.208 C 
ENDBRANCH   3   6
ENDBRANCH   1   3
BRANCH   1   8
HETATM    8  C4  UNL     1     -33.428   4.913   2.612  1.00 20.00     0.426 C 
HETATM    9  F9  UNL     1     -32.808   3.920   1.935  1.00 20.00    -0.168 F 
HETATM   10  F10 UNL     1     -32.469   5.704   3.138  1.00 20.00    -0.168 F 
HETATM   11  F11 UNL     1     -34.129   5.644   1.721  1.00 20.00    -0.168 F 
ENDBRANCH   1   8
TORSDOF 3
ENDMDL
MODEL 4
REMARK VINA RESULT:      -5.0      1.131      2.176
REMARK  3 active torsions:
REMARK  status: ('A' for Active; 'I' for Inactive)
REMARK    1  A    between atoms: C2_2  and  C3_3 
REMARK    2  A    between atoms: C2_2  and  C4_4 
REMARK    3  A    between atoms: C3_3  and  O5_5 
ROOT
HETATM    1  C2  UNL     1     -33.564   5.486   3.661  1.00 20.00     0.379 C 
HETATM    2  F6  UNL     1     -34.036   4.922   2.514  1.00 20.00    -0.231 F 
ENDROOT
BRANCH   1   3
HETATM    3  C3  UNL     1     -33.093   6.889   3.332  1.00 20.00     0.393 C 
HETATM    4  F7  UNL     1     -32.298   7.342   4.333  1.00 20.00    -0.172 F 
HETATM    5  F8  UNL     1     -34.152   7.728   3.235  1.00 20.00    -0.172 F 
BRANCH   3   6
HETATM    6  O5  UNL     1     -32.358   6.914   2.115  1.00 20.00    -0.329 OA
HETATM    7  C1  UNL     1     -32.646   8.061   1.325  1.00 20.00     0.208 C 
ENDBRANCH   3   6
ENDBRANCH   1   3
BRANCH   1   8
HETATM    8  C4  UNL     1     -34.671   5.435   4.691  1.00 20.00     0.426 C 
HETATM    9  F9  UNL     1     -34.655   4.252   5.344  1.00 20.00    -0.168 F 
HETATM   10  F10 UNL     1     -35.887   5.565   4.119  1.00 20.00    -0.168 F 
HETATM   11  F11 UNL     1     -34.537   6.414   5.610  1.00 20.00    -0.168 F 
ENDBRANCH   1   8
TORSDOF 3
ENDMDL
MODEL 5
REMARK VINA RESULT:      -5.0      1.126      2.058
REMARK  3 active torsions:
REMARK  status: ('A' for Active; 'I' for Inactive)
REMARK    1  A    between atoms: C2_2  and  C3_3 
REMARK    2  A    between atoms: C2_2  and  C4_4 
REMARK    3  A    between atoms: C3_3  and  O5_5 
ROOT
HETATM    1  C2  UNL     1     -33.593   5.476   3.688  1.00 20.00     0.379 C 
HETATM    2  F6  UNL     1     -34.065   4.912   2.541  1.00 20.00    -0.231 F 
ENDROOT
BRANCH   1   3
HETATM    3  C3  UNL     1     -33.112   6.875   3.356  1.00 20.00     0.393 C 
HETATM    4  F7  UNL     1     -32.321   7.328   4.361  1.00 20.00    -0.172 F 
HETATM    5  F8  UNL     1     -34.165   7.720   3.248  1.00 20.00    -0.172 F 
BRANCH   3   6
HETATM    6  O5  UNL     1     -32.368   6.891   2.144  1.00 20.00    -0.329 OA
HETATM    7  C1  UNL     1     -32.642   8.037   1.348  1.00 20.00     0.208 C 
ENDBRANCH   3   6
ENDBRANCH   1   3
BRANCH   1   8
HETATM    8  C4  UNL     1     -34.704   5.436   4.713  1.00 20.00     0.426 C 
HETATM    9  F9  UNL     1     -34.551   6.432   5.615  1.00 20.00    -0.168 F 
HETATM   10  F10 UNL     1     -34.710   4.271   5.395  1.00 20.00    -0.168 F 
HETATM   11  F11 UNL     1     -35.915   5.587   4.136  1.00 20.00    -0.168 F 
ENDBRANCH   1   8
TORSDOF 3
ENDMDL
MODEL 6
REMARK VINA RESULT:      -4.9      1.871      2.808
REMARK  3 active torsions:
REMARK  status: ('A' for Active; 'I' for Inactive)
REMARK    1  A    between atoms: C2_2  and  C3_3 
REMARK    2  A    between atoms: C2_2  and  C4_4 
REMARK    3  A    between atoms: C3_3  and  O5_5 
ROOT
HETATM    1  C2  UNL     1     -34.228   5.332   5.536  1.00 20.00     0.379 C 
HETATM    2  F6  UNL     1     -35.234   4.944   6.369  1.00 20.00    -0.231 F 
ENDROOT
BRANCH   1   3
HETATM    3  C3  UNL     1     -34.599   4.909   4.128  1.00 20.00     0.393 C 
HETATM    4  F7  UNL     1     -35.917   5.156   3.918  1.00 20.00    -0.172 F 
HETATM    5  F8  UNL     1     -34.400   3.578   3.971  1.00 20.00    -0.172 F 
BRANCH   3   6
HETATM    6  O5  UNL     1     -33.839   5.618   3.158  1.00 20.00    -0.329 OA
HETATM    7  C1  UNL     1     -33.061   4.757   2.336  1.00 20.00     0.208 C 
ENDBRANCH   3   6
ENDBRANCH   1   3
BRANCH   1   8
HETATM    8  C4  UNL     1     -34.043   6.824   5.700  1.00 20.00     0.426 C 
HETATM    9  F9  UNL     1     -34.720   7.492   4.739  1.00 20.00    -0.168 F 
HETATM   10  F10 UNL     1     -32.744   7.178   5.600  1.00 20.00    -0.168 F 
HETATM   11  F11 UNL     1     -34.499   7.251   6.897  1.00 20.00    -0.168 F 
ENDBRANCH   1   8
TORSDOF 3
ENDMDL
MODEL 7
REMARK VINA RESULT:      -4.9      1.688      3.652
REMARK  3 active torsions:
REMARK  status: ('A' for Active; 'I' for Inactive)
REMARK    1  A    between atoms: C2_2  and  C3_3 
REMARK    2  A    between atoms: C2_2  and  C4_4 
REMARK    3  A    between atoms: C3_3  and  O5_5 
ROOT
HETATM    1  C2  UNL     1     -33.568   5.441   2.606  1.00 20.00     0.379 C 
HETATM    2  F6  UNL     1     -32.539   4.558   2.469  1.00 20.00    -0.231 F 
ENDROOT
BRANCH   1   3
HETATM    3  C3  UNL     1     -34.350   5.056   3.847  1.00 20.00     0.393 C 
HETATM    4  F7  UNL     1     -34.259   3.716   4.037  1.00 20.00    -0.172 F 
HETATM    5  F8  UNL     1     -35.661   5.360   3.687  1.00 20.00    -0.172 F 
BRANCH   3   6
HETATM    6  O5  UNL     1     -33.849   5.719   5.001  1.00 20.00    -0.329 OA
HETATM    7  C1  UNL     1     -34.713   5.594   6.122  1.00 20.00     0.208 C 
ENDBRANCH   3   6
ENDBRANCH   1   3
BRANCH   1   8
HETATM    8  C4  UNL     1     -32.977   6.832   2.660  1.00 20.00     0.426 C 
HETATM    9  F9  UNL     1     -32.796   7.317   1.411  1.00 20.00    -0.168 F 
HETATM   10  F10 UNL     1     -31.775   6.838   3.274  1.00 20.00    -0.168 F 
HETATM   11  F11 UNL     1     -33.785   7.688   3.320  1.00 20.00    -0.168 F 
ENDBRANCH   1   8
TORSDOF 3
ENDMDL
MODEL 8
REMARK VINA RESULT:      -4.6     16.180     17.455
REMARK  3 active torsions:
REMARK  status: ('A' for Active; 'I' for Inactive)
REMARK    1  A    between atoms: C2_2  and  C3_3 
REMARK    2  A    between atoms: C2_2  and  C4_4 
REMARK    3  A    between atoms: C3_3  and  O5_5 
ROOT
HETATM    1  C2  UNL     1     -22.999  17.102   9.884  1.00 20.00     0.379 C 
HETATM    2  F6  UNL     1     -24.204  16.480   9.748  1.00 20.00    -0.231 F 
ENDROOT
BRANCH   1   3
HETATM    3  C3  UNL     1     -22.990  18.307   8.964  1.00 20.00     0.393 C 
HETATM    4  F7  UNL     1     -22.012  19.163   9.354  1.00 20.00    -0.172 F 
HETATM    5  F8  UNL     1     -24.171  18.967   9.044  1.00 20.00    -0.172 F 
BRANCH   3   6
HETATM    6  O5  UNL     1     -22.754  17.925   7.614  1.00 20.00    -0.329 OA
HETATM    7  C1  UNL     1     -21.507  17.265   7.442  1.00 20.00     0.208 C 
ENDBRANCH   3   6
ENDBRANCH   1   3
BRANCH   1   8
HETATM    8  C4  UNL     1     -22.818  17.444  11.346  1.00 20.00     0.426 C 
HETATM    9  F9  UNL     1     -21.541  17.816  11.589  1.00 20.00    -0.168 F 
HETATM   10  F10 UNL     1     -23.089  16.387  12.141  1.00 20.00    -0.168 F 
HETATM   11  F11 UNL     1     -23.622  18.462  11.718  1.00 20.00    -0.168 F 
ENDBRANCH   1   8
TORSDOF 3
ENDMDL
MODEL 9
REMARK VINA RESULT:      -4.5     11.008     12.126
REMARK  3 active torsions:
REMARK  status: ('A' for Active; 'I' for Inactive)
REMARK    1  A    between atoms: C2_2  and  C3_3 
REMARK    2  A    between atoms: C2_2  and  C4_4 
REMARK    3  A    between atoms: C3_3  and  O5_5 
ROOT
HETATM    1  C2  UNL     1     -34.204  14.792  -4.445  1.00 20.00     0.379 C 
HETATM    2  F6  UNL     1     -33.144  13.943  -4.333  1.00 20.00    -0.231 F 
ENDROOT
BRANCH   1   3
HETATM    3  C3  UNL     1     -35.471  13.960  -4.422  1.00 20.00     0.393 C 
HETATM    4  F7  UNL     1     -36.425  14.616  -3.714  1.00 20.00    -0.172 F 
HETATM    5  F8  UNL     1     -35.244  12.775  -3.805  1.00 20.00    -0.172 F 
BRANCH   3   6
HETATM    6  O5  UNL     1     -35.958  13.722  -5.737  1.00 20.00    -0.329 OA
HETATM    7  C1  UNL     1     -35.612  14.760  -6.644  1.00 20.00     0.208 C 
ENDBRANCH   3   6
ENDBRANCH   1   3
BRANCH   1   8
HETATM    8  C4  UNL     1     -34.109  15.799  -3.320  1.00 20.00     0.426 C 
HETATM    9  F9  UNL     1     -32.816  16.084  -3.049  1.00 20.00    -0.168 F 
HETATM   10  F10 UNL     1     -34.666  15.329  -2.184  1.00 20.00    -0.168 F 
HETATM   11  F11 UNL     1     -34.727  16.956  -3.639  1.00 20.00    -0.168 F 
ENDBRANCH   1   8
TORSDOF 3
ENDMDL
