MODEL 1
REMARK VINA RESULT:      -4.9      0.000      0.000
REMARK  2 active torsions:
REMARK  status: ('A' for Active; 'I' for Inactive)
REMARK    1  A    between atoms: C1_1  and  C2_2 
REMARK    2  A    between atoms: C1_1  and  C3_3 
ROOT
HETATM    1  C1  UNL     1     -33.817   6.150   4.169  1.00 20.00     0.245 C 
HETATM    2  O4  UNL     1     -33.504   7.067   4.927  1.00 20.00    -0.287 OA
ENDROOT
BRANCH   1   3
HETATM    3  C2  UNL     1     -33.186   5.934   2.814  1.00 20.00     0.202 C 
HETATM    4 CL8  UNL     1     -32.435   7.425   2.227  1.00 20.00    -0.122 Cl
ENDBRANCH   1   3
BRANCH   1   5
HETATM    5  C3  UNL     1     -34.879   5.162   4.562  1.00 20.00     0.452 C 
HETATM    6  F5  UNL     1     -34.600   3.915   4.106  1.00 20.00    -0.163 F 
HETATM    7  F6  UNL     1     -36.094   5.503   4.064  1.00 20.00    -0.163 F 
HETATM    8  F7  UNL     1     -35.018   5.067   5.908  1.00 20.00    -0.163 F 
ENDBRANCH   1   5
TORSDOF 2
ENDMDL
MODEL 2
REMARK VINA RESULT:      -4.9      0.018      1.335
REMARK  2 active torsions:
REMARK  status: ('A' for Active; 'I' for Inactive)
REMARK    1  A    between atoms: C1_1  and  C2_2 
REMARK    2  A    between atoms: C1_1  and  C3_3 
ROOT
HETATM    1  C1  UNL     1     -33.812   6.149   4.157  1.00 20.00     0.245 C 
HETATM    2  O4  UNL     1     -33.499   7.068   4.913  1.00 20.00    -0.287 OA
ENDROOT
BRANCH   1   3
HETATM    3  C2  UNL     1     -33.177   5.926   2.806  1.00 20.00     0.202 C 
HETATM    4 CL8  UNL     1     -32.458   7.424   2.196  1.00 20.00    -0.122 Cl
ENDBRANCH   1   3
BRANCH   1   5
HETATM    5  C3  UNL     1     -34.877   5.165   4.551  1.00 20.00     0.452 C 
HETATM    6  F5  UNL     1     -35.009   5.076   5.898  1.00 20.00    -0.163 F 
HETATM    7  F6  UNL     1     -34.603   3.916   4.097  1.00 20.00    -0.163 F 
HETATM    8  F7  UNL     1     -36.096   5.504   4.058  1.00 20.00    -0.163 F 
ENDBRANCH   1   5
TORSDOF 2
ENDMDL
MODEL 3
REMARK VINA RESULT:      -4.9      0.009      1.336
REMARK  2 active torsions:
REMARK  status: ('A' for Active; 'I' for Inactive)
REMARK    1  A    between atoms: C1_1  and  C2_2 
REMARK    2  A    between atoms: C1_1  and  C3_3 
ROOT
HETATM    1  C1  UNL     1     -33.814   6.152   4.163  1.00 20.00     0.245 C 
HETATM    2  O4  UNL     1     -33.501   7.070   4.921  1.00 20.00    -0.287 OA
ENDROOT
BRANCH   1   3
HETATM    3  C2  UNL     1     -33.182   5.934   2.809  1.00 20.00     0.202 C 
HETATM    4 CL8  UNL     1     -32.440   7.428   2.216  1.00 20.00    -0.122 Cl
ENDBRANCH   1   3
BRANCH   1   5
HETATM    5  C3  UNL     1     -34.875   5.163   4.558  1.00 20.00     0.452 C 
HETATM    6  F5  UNL     1     -36.091   5.505   4.063  1.00 20.00    -0.163 F 
HETATM    7  F6  UNL     1     -35.005   5.073   5.905  1.00 20.00    -0.163 F 
HETATM    8  F7  UNL     1     -34.603   3.912   4.105  1.00 20.00    -0.163 F 
ENDBRANCH   1   5
TORSDOF 2
ENDMDL
MODEL 4
REMARK VINA RESULT:      -4.6      1.447      1.771
REMARK  2 active torsions:
REMARK  status: ('A' for Active; 'I' for Inactive)
REMARK    1  A    between atoms: C1_1  and  C2_2 
REMARK    2  A    between atoms: C1_1  and  C3_3 
ROOT
HETATM    1  C1  UNL     1     -33.672   5.645   3.393  1.00 20.00     0.245 C 
HETATM    2  O4  UNL     1     -33.544   4.789   2.518  1.00 20.00    -0.287 OA
ENDROOT
BRANCH   1   3
HETATM    3  C2  UNL     1     -32.880   6.931   3.425  1.00 20.00     0.202 C 
HETATM    4 CL8  UNL     1     -32.505   7.478   1.784  1.00 20.00    -0.122 Cl
ENDBRANCH   1   3
BRANCH   1   5
HETATM    5  C3  UNL     1     -34.656   5.454   4.513  1.00 20.00     0.452 C 
HETATM    6  F5  UNL     1     -35.938   5.556   4.079  1.00 20.00    -0.163 F 
HETATM    7  F6  UNL     1     -34.493   6.380   5.490  1.00 20.00    -0.163 F 
HETATM    8  F7  UNL     1     -34.534   4.236   5.100  1.00 20.00    -0.163 F 
ENDBRANCH   1   5
TORSDOF 2
ENDMDL
MODEL 5
REMARK VINA RESULT:      -4.6      1.444      1.974
REMARK  2 active torsions:
REMARK  status: ('A' for Active; 'I' for Inactive)
REMARK    1  A    between atoms: C1_1  and  C2_2 
REMARK    2  A    between atoms: C1_1  and  C3_3 
ROOT
HETATM    1  C1  UNL     1     -33.666   5.638   3.392  1.00 20.00     0.245 C 
HETATM    2  O4  UNL     1     -33.528   4.779   2.523  1.00 20.00    -0.287 OA
ENDROOT
BRANCH   1   3
HETATM    3  C2  UNL     1     -32.881   6.928   3.424  1.00 20.00     0.202 C 
HETATM    4 CL8  UNL     1     -32.502   7.471   1.783  1.00 20.00    -0.122 Cl
ENDBRANCH   1   3
BRANCH   1   5
HETATM    5  C3  UNL     1     -34.656   5.446   4.507  1.00 20.00     0.452 C 
HETATM    6  F5  UNL     1     -34.493   6.368   5.489  1.00 20.00    -0.163 F 
HETATM    7  F6  UNL     1     -34.534   4.225   5.085  1.00 20.00    -0.163 F 
HETATM    8  F7  UNL     1     -35.939   5.552   4.077  1.00 20.00    -0.163 F 
ENDBRANCH   1   5
TORSDOF 2
ENDMDL
MODEL 6
REMARK VINA RESULT:      -4.6      1.443      1.452
REMARK  2 active torsions:
REMARK  status: ('A' for Active; 'I' for Inactive)
REMARK    1  A    between atoms: C1_1  and  C2_2 
REMARK    2  A    between atoms: C1_1  and  C3_3 
ROOT
HETATM    1  C1  UNL     1     -33.669   5.639   3.395  1.00 20.00     0.245 C 
HETATM    2  O4  UNL     1     -33.535   4.782   2.523  1.00 20.00    -0.287 OA
ENDROOT
BRANCH   1   3
HETATM    3  C2  UNL     1     -32.882   6.927   3.429  1.00 20.00     0.202 C 
HETATM    4 CL8  UNL     1     -32.506   7.475   1.788  1.00 20.00    -0.122 Cl
ENDBRANCH   1   3
BRANCH   1   5
HETATM    5  C3  UNL     1     -34.657   5.446   4.511  1.00 20.00     0.452 C 
HETATM    6  F5  UNL     1     -34.535   4.222   5.086  1.00 20.00    -0.163 F 
HETATM    7  F6  UNL     1     -35.937   5.554   4.076  1.00 20.00    -0.163 F 
HETATM    8  F7  UNL     1     -34.499   6.362   5.500  1.00 20.00    -0.163 F 
ENDBRANCH   1   5
TORSDOF 2
ENDMDL
MODEL 7
REMARK VINA RESULT:      -4.4      2.054      2.243
REMARK  2 active torsions:
REMARK  status: ('A' for Active; 'I' for Inactive)
REMARK    1  A    between atoms: C1_1  and  C2_2 
REMARK    2  A    between atoms: C1_1  and  C3_3 
ROOT
HETATM    1  C1  UNL     1     -34.670   5.714   4.462  1.00 20.00     0.245 C 
HETATM    2  O4  UNL     1     -35.780   5.323   4.103  1.00 20.00    -0.287 OA
ENDROOT
BRANCH   1   3
HETATM    3  C2  UNL     1     -33.579   6.128   3.502  1.00 20.00     0.202 C 
HETATM    4 CL8  UNL     1     -33.126   4.780   2.449  1.00 20.00    -0.122 Cl
ENDBRANCH   1   3
BRANCH   1   5
HETATM    5  C3  UNL     1     -34.327   5.804   5.922  1.00 20.00     0.452 C 
HETATM    6  F5  UNL     1     -33.856   4.626   6.403  1.00 20.00    -0.163 F 
HETATM    7  F6  UNL     1     -35.406   6.136   6.674  1.00 20.00    -0.163 F 
HETATM    8  F7  UNL     1     -33.374   6.739   6.168  1.00 20.00    -0.163 F 
ENDBRANCH   1   5
TORSDOF 2
ENDMDL
MODEL 8
REMARK VINA RESULT:      -4.3      3.062      3.514
REMARK  2 active torsions:
REMARK  status: ('A' for Active; 'I' for Inactive)
REMARK    1  A    between atoms: C1_1  and  C2_2 
REMARK    2  A    between atoms: C1_1  and  C3_3 
ROOT
HETATM    1  C1  UNL     1     -33.527   6.636   4.277  1.00 20.00     0.245 C 
HETATM    2  O4  UNL     1     -33.259   7.319   5.265  1.00 20.00    -0.287 OA
ENDROOT
BRANCH   1   3
HETATM    3  C2  UNL     1     -34.635   5.610   4.245  1.00 20.00     0.202 C 
HETATM    4 CL8  UNL     1     -34.985   5.016   5.875  1.00 20.00    -0.122 Cl
ENDBRANCH   1   3
BRANCH   1   5
HETATM    5  C3  UNL     1     -32.742   6.792   3.005  1.00 20.00     0.452 C 
HETATM    6  F5  UNL     1     -32.623   5.615   2.339  1.00 20.00    -0.163 F 
HETATM    7  F6  UNL     1     -31.484   7.242   3.240  1.00 20.00    -0.163 F 
HETATM    8  F7  UNL     1     -33.321   7.672   2.149  1.00 20.00    -0.163 F 
ENDBRANCH   1   5
TORSDOF 2
ENDMDL
MODEL 9
REMARK VINA RESULT:      -4.3      3.061      3.472
REMARK  2 active torsions:
REMARK  status: ('A' for Active; 'I' for Inactive)
REMARK    1  A    between atoms: C1_1  and  C2_2 
REMARK    2  A    between atoms: C1_1  and  C3_3 
ROOT
HETATM    1  C1  UNL     1     -33.527   6.638   4.280  1.00 20.00     0.245 C 
HETATM    2  O4  UNL     1     -33.255   7.320   5.267  1.00 20.00    -0.287 OA
ENDROOT
BRANCH   1   3
HETATM    3  C2  UNL     1     -34.640   5.617   4.250  1.00 20.00     0.202 C 
HETATM    4 CL8  UNL     1     -34.982   5.015   5.879  1.00 20.00    -0.122 Cl
ENDBRANCH   1   3
BRANCH   1   5
HETATM    5  C3  UNL     1     -32.743   6.789   3.007  1.00 20.00     0.452 C 
HETATM    6  F5  UNL     1     -31.485   7.242   3.241  1.00 20.00    -0.163 F 
HETATM    7  F6  UNL     1     -33.328   7.668   2.155  1.00 20.00    -0.163 F 
HETATM    8  F7  UNL     1     -32.621   5.615   2.337  1.00 20.00    -0.163 F 
ENDBRANCH   1   5
TORSDOF 2
ENDMDL
