MODEL 1
REMARK VINA RESULT:      -4.3      0.000      0.000
REMARK  5 active torsions:
REMARK  status: ('A' for Active; 'I' for Inactive)
REMARK    1  A    between atoms: C1_1  and  C2_2 
REMARK    2  A    between atoms: C1_1  and  C3_3 
REMARK    3  A    between atoms: C2_2  and  P11_11 
REMARK    4  A    between atoms: C8_8  and  P11_11 
REMARK    5  A    between atoms: C9_9  and  P11_11 
ROOT
HETATM    1  O10 UNL     1     -37.506  13.694  -4.469  1.00 20.00    -0.317 OA
HETATM    2  P11 UNL     1     -36.309  14.579  -4.704  1.00 20.00     0.105 P 
ENDROOT
BRANCH   2   3
HETATM    3  C2  UNL     1     -34.847  14.468  -3.773  1.00 20.00     0.096 C 
BRANCH   3   4
HETATM    4  C1  UNL     1     -34.555  15.440  -2.961  1.00 20.00    -0.141 C 
BRANCH   4   5
HETATM    5  C3  UNL     1     -34.267  16.417  -2.146  1.00 20.00     0.026 C 
HETATM    6  C4  UNL     1     -35.171  16.809  -1.012  1.00 20.00     0.030 C 
HETATM    7  C5  UNL     1     -33.009  17.227  -2.279  1.00 20.00     0.030 C 
ENDBRANCH   4   5
ENDBRANCH   3   4
ENDBRANCH   2   3
BRANCH   2   8
HETATM    8  C8  UNL     1     -36.763  16.310  -4.567  1.00 20.00     0.073 C 
HETATM    9  C6  UNL     1     -38.076  16.507  -3.840  1.00 20.00     0.013 C 
ENDBRANCH   2   8
BRANCH   2  10
HETATM   10  C9  UNL     1     -35.739  14.439  -6.399  1.00 20.00     0.073 C 
HETATM   11  C7  UNL     1     -34.403  15.118  -6.618  1.00 20.00     0.013 C 
ENDBRANCH   2  10
TORSDOF 5
ENDMDL
MODEL 2
REMARK VINA RESULT:      -4.3      0.063      1.085
REMARK  5 active torsions:
REMARK  status: ('A' for Active; 'I' for Inactive)
REMARK    1  A    between atoms: C1_1  and  C2_2 
REMARK    2  A    between atoms: C1_1  and  C3_3 
REMARK    3  A    between atoms: C2_2  and  P11_11 
REMARK    4  A    between atoms: C8_8  and  P11_11 
REMARK    5  A    between atoms: C9_9  and  P11_11 
ROOT
HETATM    1  O10 UNL     1     -37.443  13.640  -4.536  1.00 20.00    -0.317 OA
HETATM    2  P11 UNL     1     -36.261  14.554  -4.735  1.00 20.00     0.105 P 
ENDROOT
BRANCH   2   3
HETATM    3  C2  UNL     1     -34.812  14.456  -3.784  1.00 20.00     0.096 C 
BRANCH   3   4
HETATM    4  C1  UNL     1     -34.537  15.433  -2.971  1.00 20.00    -0.141 C 
BRANCH   4   5
HETATM    5  C3  UNL     1     -34.262  16.417  -2.161  1.00 20.00     0.026 C 
HETATM    6  C4  UNL     1     -32.995  17.216  -2.268  1.00 20.00     0.030 C 
HETATM    7  C5  UNL     1     -35.192  16.828  -1.055  1.00 20.00     0.030 C 
ENDBRANCH   4   5
ENDBRANCH   3   4
ENDBRANCH   2   3
BRANCH   2   8
HETATM    8  C8  UNL     1     -36.753  16.272  -4.574  1.00 20.00     0.073 C 
HETATM    9  C6  UNL     1     -38.054  16.432  -3.816  1.00 20.00     0.013 C 
ENDBRANCH   2   8
BRANCH   2  10
HETATM   10  C9  UNL     1     -35.661  14.458  -6.424  1.00 20.00     0.073 C 
HETATM   11  C7  UNL     1     -34.348  15.188  -6.613  1.00 20.00     0.013 C 
ENDBRANCH   2  10
TORSDOF 5
ENDMDL
MODEL 3
REMARK VINA RESULT:      -3.8      2.062      2.400
REMARK  5 active torsions:
REMARK  status: ('A' for Active; 'I' for Inactive)
REMARK    1  A    between atoms: C1_1  and  C2_2 
REMARK    2  A    between atoms: C1_1  and  C3_3 
REMARK    3  A    between atoms: C2_2  and  P11_11 
REMARK    4  A    between atoms: C8_8  and  P11_11 
REMARK    5  A    between atoms: C9_9  and  P11_11 
ROOT
HETATM    1  O10 UNL     1     -33.897  14.707  -6.871  1.00 20.00    -0.317 OA
HETATM    2  P11 UNL     1     -34.354  15.304  -5.565  1.00 20.00     0.105 P 
ENDROOT
BRANCH   2   3
HETATM    3  C2  UNL     1     -33.550  15.012  -4.053  1.00 20.00     0.096 C 
BRANCH   3   4
HETATM    4  C1  UNL     1     -33.743  15.850  -3.078  1.00 20.00    -0.141 C 
BRANCH   4   5
HETATM    5  C3  UNL     1     -33.933  16.687  -2.096  1.00 20.00     0.026 C 
HETATM    6  C4  UNL     1     -35.192  16.694  -1.277  1.00 20.00     0.030 C 
HETATM    7  C5  UNL     1     -32.905  17.712  -1.708  1.00 20.00     0.030 C 
ENDBRANCH   4   5
ENDBRANCH   3   4
ENDBRANCH   2   3
BRANCH   2   8
HETATM    8  C8  UNL     1     -36.059  14.861  -5.226  1.00 20.00     0.073 C 
HETATM    9  C6  UNL     1     -36.181  13.532  -4.512  1.00 20.00     0.013 C 
ENDBRANCH   2   8
BRANCH   2  10
HETATM   10  C9  UNL     1     -34.411  17.094  -5.671  1.00 20.00     0.073 C 
HETATM   11  C7  UNL     1     -35.821  17.635  -5.565  1.00 20.00     0.013 C 
ENDBRANCH   2  10
TORSDOF 5
ENDMDL
MODEL 4
REMARK VINA RESULT:      -3.7      1.049      2.109
REMARK  5 active torsions:
REMARK  status: ('A' for Active; 'I' for Inactive)
REMARK    1  A    between atoms: C1_1  and  C2_2 
REMARK    2  A    between atoms: C1_1  and  C3_3 
REMARK    3  A    between atoms: C2_2  and  P11_11 
REMARK    4  A    between atoms: C8_8  and  P11_11 
REMARK    5  A    between atoms: C9_9  and  P11_11 
ROOT
HETATM    1  O10 UNL     1     -37.391  13.600  -4.460  1.00 20.00    -0.317 OA
HETATM    2  P11 UNL     1     -36.367  14.705  -4.503  1.00 20.00     0.105 P 
ENDROOT
BRANCH   2   3
HETATM    3  C2  UNL     1     -36.575  16.226  -3.692  1.00 20.00     0.096 C 
BRANCH   3   4
HETATM    4  C1  UNL     1     -35.746  16.540  -2.741  1.00 20.00    -0.141 C 
BRANCH   4   5
HETATM    5  C3  UNL     1     -34.912  16.849  -1.788  1.00 20.00     0.026 C 
HETATM    6  C4  UNL     1     -33.448  17.073  -2.042  1.00 20.00     0.030 C 
HETATM    7  C5  UNL     1     -35.349  17.005  -0.359  1.00 20.00     0.030 C 
ENDBRANCH   4   5
ENDBRANCH   3   4
ENDBRANCH   2   3
BRANCH   2   8
HETATM    8  C8  UNL     1     -36.013  15.177  -6.197  1.00 20.00     0.073 C 
HETATM    9  C6  UNL     1     -36.308  16.637  -6.464  1.00 20.00     0.013 C 
ENDBRANCH   2   8
BRANCH   2  10
HETATM   10  C9  UNL     1     -34.780  14.123  -3.901  1.00 20.00     0.073 C 
HETATM   11  C7  UNL     1     -33.631  14.557  -4.788  1.00 20.00     0.013 C 
ENDBRANCH   2  10
TORSDOF 5
ENDMDL
MODEL 5
REMARK VINA RESULT:      -3.7      1.290      1.893
REMARK  5 active torsions:
REMARK  status: ('A' for Active; 'I' for Inactive)
REMARK    1  A    between atoms: C1_1  and  C2_2 
REMARK    2  A    between atoms: C1_1  and  C3_3 
REMARK    3  A    between atoms: C2_2  and  P11_11 
REMARK    4  A    between atoms: C8_8  and  P11_11 
REMARK    5  A    between atoms: C9_9  and  P11_11 
ROOT
HETATM    1  O10 UNL     1     -37.433  13.641  -4.540  1.00 20.00    -0.317 OA
HETATM    2  P11 UNL     1     -37.188  15.125  -4.436  1.00 20.00     0.105 P 
ENDROOT
BRANCH   2   3
HETATM    3  C2  UNL     1     -36.314  15.855  -3.125  1.00 20.00     0.096 C 
BRANCH   3   4
HETATM    4  C1  UNL     1     -35.017  15.900  -3.195  1.00 20.00    -0.141 C 
BRANCH   4   5
HETATM    5  C3  UNL     1     -33.715  15.945  -3.260  1.00 20.00     0.026 C 
HETATM    6  C4  UNL     1     -32.918  14.981  -4.093  1.00 20.00     0.030 C 
HETATM    7  C5  UNL     1     -32.910  16.964  -2.505  1.00 20.00     0.030 C 
ENDBRANCH   4   5
ENDBRANCH   3   4
ENDBRANCH   2   3
BRANCH   2   8
HETATM    8  C8  UNL     1     -38.738  16.028  -4.462  1.00 20.00     0.073 C 
HETATM    9  C6  UNL     1     -39.932  15.134  -4.206  1.00 20.00     0.013 C 
ENDBRANCH   2   8
BRANCH   2  10
HETATM   10  C9  UNL     1     -36.338  15.731  -5.896  1.00 20.00     0.073 C 
HETATM   11  C7  UNL     1     -35.622  14.628  -6.647  1.00 20.00     0.013 C 
ENDBRANCH   2  10
TORSDOF 5
ENDMDL
MODEL 6
REMARK VINA RESULT:      -3.7      2.979      4.925
REMARK  5 active torsions:
REMARK  status: ('A' for Active; 'I' for Inactive)
REMARK    1  A    between atoms: C1_1  and  C2_2 
REMARK    2  A    between atoms: C1_1  and  C3_3 
REMARK    3  A    between atoms: C2_2  and  P11_11 
REMARK    4  A    between atoms: C8_8  and  P11_11 
REMARK    5  A    between atoms: C9_9  and  P11_11 
ROOT
HETATM    1  O10 UNL     1     -35.030  19.098  -2.598  1.00 20.00    -0.317 OA
HETATM    2  P11 UNL     1     -34.450  18.008  -1.734  1.00 20.00     0.105 P 
ENDROOT
BRANCH   2   3
HETATM    3  C2  UNL     1     -35.089  16.394  -1.681  1.00 20.00     0.096 C 
BRANCH   3   4
HETATM    4  C1  UNL     1     -34.817  15.589  -2.664  1.00 20.00    -0.141 C 
BRANCH   4   5
HETATM    5  C3  UNL     1     -34.548  14.783  -3.654  1.00 20.00     0.026 C 
HETATM    6  C4  UNL     1     -33.188  14.717  -4.288  1.00 20.00     0.030 C 
HETATM    7  C5  UNL     1     -35.578  13.859  -4.238  1.00 20.00     0.030 C 
ENDBRANCH   4   5
ENDBRANCH   3   4
ENDBRANCH   2   3
BRANCH   2   8
HETATM    8  C8  UNL     1     -34.429  18.508  -0.011  1.00 20.00     0.073 C 
HETATM    9  C6  UNL     1     -35.140  17.519   0.887  1.00 20.00     0.013 C 
ENDBRANCH   2   8
BRANCH   2  10
HETATM   10  C9  UNL     1     -32.713  17.759  -2.108  1.00 20.00     0.073 C 
HETATM   11  C7  UNL     1     -31.806  18.277  -1.010  1.00 20.00     0.013 C 
ENDBRANCH   2  10
TORSDOF 5
ENDMDL
MODEL 7
REMARK VINA RESULT:      -3.6      1.685      2.925
REMARK  5 active torsions:
REMARK  status: ('A' for Active; 'I' for Inactive)
REMARK    1  A    between atoms: C1_1  and  C2_2 
REMARK    2  A    between atoms: C1_1  and  C3_3 
REMARK    3  A    between atoms: C2_2  and  P11_11 
REMARK    4  A    between atoms: C8_8  and  P11_11 
REMARK    5  A    between atoms: C9_9  and  P11_11 
ROOT
HETATM    1  O10 UNL     1     -35.588  16.701  -5.491  1.00 20.00    -0.317 OA
HETATM    2  P11 UNL     1     -34.906  15.385  -5.221  1.00 20.00     0.105 P 
ENDROOT
BRANCH   2   3
HETATM    3  C2  UNL     1     -33.940  15.086  -3.810  1.00 20.00     0.096 C 
BRANCH   3   4
HETATM    4  C1  UNL     1     -33.981  15.948  -2.838  1.00 20.00    -0.141 C 
BRANCH   4   5
HETATM    5  C3  UNL     1     -34.016  16.814  -1.863  1.00 20.00     0.026 C 
HETATM    6  C4  UNL     1     -32.882  17.759  -1.586  1.00 20.00     0.030 C 
HETATM    7  C5  UNL     1     -35.195  16.934  -0.940  1.00 20.00     0.030 C 
ENDBRANCH   4   5
ENDBRANCH   3   4
ENDBRANCH   2   3
BRANCH   2   8
HETATM    8  C8  UNL     1     -33.815  14.947  -6.577  1.00 20.00     0.073 C 
HETATM    9  C6  UNL     1     -34.313  15.461  -7.910  1.00 20.00     0.013 C 
ENDBRANCH   2   8
BRANCH   2  10
HETATM   10  C9  UNL     1     -36.097  14.043  -5.206  1.00 20.00     0.073 C 
HETATM   11  C7  UNL     1     -37.317  14.363  -4.368  1.00 20.00     0.013 C 
ENDBRANCH   2  10
TORSDOF 5
ENDMDL
MODEL 8
REMARK VINA RESULT:      -3.5      1.841      4.084
REMARK  5 active torsions:
REMARK  status: ('A' for Active; 'I' for Inactive)
REMARK    1  A    between atoms: C1_1  and  C2_2 
REMARK    2  A    between atoms: C1_1  and  C3_3 
REMARK    3  A    between atoms: C2_2  and  P11_11 
REMARK    4  A    between atoms: C8_8  and  P11_11 
REMARK    5  A    between atoms: C9_9  and  P11_11 
ROOT
HETATM    1  O10 UNL     1     -33.248  13.670  -4.430  1.00 20.00    -0.317 OA
HETATM    2  P11 UNL     1     -34.508  14.494  -4.362  1.00 20.00     0.105 P 
ENDROOT
BRANCH   2   3
HETATM    3  C2  UNL     1     -36.100  13.807  -4.458  1.00 20.00     0.096 C 
BRANCH   3   4
HETATM    4  C1  UNL     1     -37.123  14.605  -4.395  1.00 20.00    -0.141 C 
BRANCH   4   5
HETATM    5  C3  UNL     1     -38.151  15.405  -4.327  1.00 20.00     0.026 C 
HETATM    6  C4  UNL     1     -39.564  14.897  -4.296  1.00 20.00     0.030 C 
HETATM    7  C5  UNL     1     -38.002  16.899  -4.273  1.00 20.00     0.030 C 
ENDBRANCH   4   5
ENDBRANCH   3   4
ENDBRANCH   2   3
BRANCH   2   8
HETATM    8  C8  UNL     1     -34.515  15.749  -5.643  1.00 20.00     0.073 C 
HETATM    9  C6  UNL     1     -34.099  15.202  -6.992  1.00 20.00     0.013 C 
ENDBRANCH   2   8
BRANCH   2  10
HETATM   10  C9  UNL     1     -34.556  15.455  -2.848  1.00 20.00     0.073 C 
HETATM   11  C7  UNL     1     -33.443  16.479  -2.778  1.00 20.00     0.013 C 
ENDBRANCH   2  10
TORSDOF 5
ENDMDL
MODEL 9
REMARK VINA RESULT:      -3.5      1.800      2.355
REMARK  5 active torsions:
REMARK  status: ('A' for Active; 'I' for Inactive)
REMARK    1  A    between atoms: C1_1  and  C2_2 
REMARK    2  A    between atoms: C1_1  and  C3_3 
REMARK    3  A    between atoms: C2_2  and  P11_11 
REMARK    4  A    between atoms: C8_8  and  P11_11 
REMARK    5  A    between atoms: C9_9  and  P11_11 
ROOT
HETATM    1  O10 UNL     1     -36.067  14.504  -7.473  1.00 20.00    -0.317 OA
HETATM    2  P11 UNL     1     -35.843  15.091  -6.102  1.00 20.00     0.105 P 
ENDROOT
BRANCH   2   3
HETATM    3  C2  UNL     1     -34.273  15.515  -5.495  1.00 20.00     0.096 C 
BRANCH   3   4
HETATM    4  C1  UNL     1     -34.174  15.919  -4.263  1.00 20.00    -0.141 C 
BRANCH   4   5
HETATM    5  C3  UNL     1     -34.078  16.320  -3.026  1.00 20.00     0.026 C 
HETATM    6  C4  UNL     1     -32.867  17.040  -2.506  1.00 20.00     0.030 C 
HETATM    7  C5  UNL     1     -35.173  16.092  -2.022  1.00 20.00     0.030 C 
ENDBRANCH   4   5
ENDBRANCH   3   4
ENDBRANCH   2   3
BRANCH   2   8
HETATM    8  C8  UNL     1     -36.507  14.011  -4.833  1.00 20.00     0.073 C 
HETATM    9  C6  UNL     1     -37.817  14.518  -4.269  1.00 20.00     0.013 C 
ENDBRANCH   2   8
BRANCH   2  10
HETATM   10  C9  UNL     1     -36.794  16.598  -5.894  1.00 20.00     0.073 C 
HETATM   11  C7  UNL     1     -36.205  17.764  -6.660  1.00 20.00     0.013 C 
ENDBRANCH   2  10
TORSDOF 5
ENDMDL
