MODEL 1
REMARK VINA RESULT:      -4.7      0.000      0.000
REMARK  2 active torsions:
REMARK  status: ('A' for Active; 'I' for Inactive)
REMARK    1  A    between atoms: C3_3  and  C7_7 
REMARK    2  A    between atoms: C7_7  and  C8_8 
ROOT
HETATM    1  C1  UNL     1     -36.398  13.685  -4.412  1.00 20.00     0.263 C 
HETATM    2  C2  UNL     1     -36.840  15.985  -4.438  1.00 20.00     0.046 C 
HETATM    3  C3  UNL     1     -35.751  15.000  -4.057  1.00 20.00     0.088 C 
HETATM    4  C4  UNL     1     -38.094  15.197  -4.128  1.00 20.00     0.128 C 
HETATM    5  C5  UNL     1     -39.298  15.647  -4.932  1.00 20.00     0.040 C 
HETATM    6  O9  UNL     1     -35.821  12.624  -4.596  1.00 20.00    -0.265 OA
HETATM    7  O10 UNL     1     -37.758  13.845  -4.470  1.00 20.00    -0.316 OA
ENDROOT
BRANCH   3   8
HETATM    8  C7  UNL     1     -34.454  15.240  -4.806  1.00 20.00     0.014 C 
BRANCH   8   9
HETATM    9  C8  UNL     1     -33.260  15.318  -3.854  1.00 20.00    -0.004 C 
HETATM   10  C6  UNL     1     -33.491  16.337  -2.750  1.00 20.00     0.005 C 
ENDBRANCH   8   9
ENDBRANCH   3   8
TORSDOF 2
ENDMDL
MODEL 2
REMARK VINA RESULT:      -4.6      1.629      2.270
REMARK  2 active torsions:
REMARK  status: ('A' for Active; 'I' for Inactive)
REMARK    1  A    between atoms: C3_3  and  C7_7 
REMARK    2  A    between atoms: C7_7  and  C8_8 
ROOT
HETATM    1  C1  UNL     1     -35.919  13.795  -5.062  1.00 20.00     0.263 C 
HETATM    2  C2  UNL     1     -35.451  16.062  -5.419  1.00 20.00     0.046 C 
HETATM    3  C3  UNL     1     -35.953  15.120  -4.342  1.00 20.00     0.088 C 
HETATM    4  C4  UNL     1     -35.998  15.419  -6.674  1.00 20.00     0.128 C 
HETATM    5  C5  UNL     1     -35.200  15.759  -7.918  1.00 20.00     0.040 C 
HETATM    6  O9  UNL     1     -35.918  12.691  -4.540  1.00 20.00    -0.265 OA
HETATM    7  O10 UNL     1     -35.919  14.011  -6.415  1.00 20.00    -0.316 OA
ENDROOT
BRANCH   3   8
HETATM    8  C7  UNL     1     -35.087  15.136  -3.096  1.00 20.00     0.014 C 
BRANCH   8   9
HETATM    9  C8  UNL     1     -33.643  15.519  -3.420  1.00 20.00    -0.004 C 
HETATM   10  C6  UNL     1     -33.208  16.759  -2.656  1.00 20.00     0.005 C 
ENDBRANCH   8   9
ENDBRANCH   3   8
TORSDOF 2
ENDMDL
MODEL 3
REMARK VINA RESULT:      -4.5     15.848     18.282
REMARK  2 active torsions:
REMARK  status: ('A' for Active; 'I' for Inactive)
REMARK    1  A    between atoms: C3_3  and  C7_7 
REMARK    2  A    between atoms: C7_7  and  C8_8 
ROOT
HETATM    1  C1  UNL     1     -22.709  17.348   8.426  1.00 20.00     0.263 C 
HETATM    2  C2  UNL     1     -24.481  18.171   9.718  1.00 20.00     0.046 C 
HETATM    3  C3  UNL     1     -23.518  18.605   8.631  1.00 20.00     0.088 C 
HETATM    4  C4  UNL     1     -23.634  17.203  10.516  1.00 20.00     0.128 C 
HETATM    5  C5  UNL     1     -24.452  16.178  11.277  1.00 20.00     0.040 C 
HETATM    6  O9  UNL     1     -22.030  17.079   7.448  1.00 20.00    -0.265 OA
HETATM    7  O10 UNL     1     -22.823  16.547   9.533  1.00 20.00    -0.316 OA
ENDROOT
BRANCH   3   8
HETATM    8  C7  UNL     1     -24.223  19.063   7.368  1.00 20.00     0.014 C 
BRANCH   8   9
HETATM    9  C8  UNL     1     -25.744  19.009   7.522  1.00 20.00    -0.004 C 
HETATM   10  C6  UNL     1     -26.429  18.695   6.203  1.00 20.00     0.005 C 
ENDBRANCH   8   9
ENDBRANCH   3   8
TORSDOF 2
ENDMDL
MODEL 4
REMARK VINA RESULT:      -4.3      1.477      2.106
REMARK  2 active torsions:
REMARK  status: ('A' for Active; 'I' for Inactive)
REMARK    1  A    between atoms: C3_3  and  C7_7 
REMARK    2  A    between atoms: C7_7  and  C8_8 
ROOT
HETATM    1  C1  UNL     1     -34.541  14.575  -5.351  1.00 20.00     0.263 C 
HETATM    2  C2  UNL     1     -35.644  14.975  -3.323  1.00 20.00     0.046 C 
HETATM    3  C3  UNL     1     -34.261  14.682  -3.872  1.00 20.00     0.088 C 
HETATM    4  C4  UNL     1     -36.527  14.198  -4.275  1.00 20.00     0.128 C 
HETATM    5  C5  UNL     1     -37.938  14.749  -4.367  1.00 20.00     0.040 C 
HETATM    6  O9  UNL     1     -33.719  14.671  -6.249  1.00 20.00    -0.265 OA
HETATM    7  O10 UNL     1     -35.874  14.320  -5.545  1.00 20.00    -0.316 OA
ENDROOT
BRANCH   3   8
HETATM    8  C7  UNL     1     -33.254  15.768  -3.541  1.00 20.00     0.014 C 
BRANCH   8   9
HETATM    9  C8  UNL     1     -33.711  16.615  -2.353  1.00 20.00    -0.004 C 
HETATM   10  C6  UNL     1     -32.691  17.685  -2.003  1.00 20.00     0.005 C 
ENDBRANCH   8   9
ENDBRANCH   3   8
TORSDOF 2
ENDMDL
MODEL 5
REMARK VINA RESULT:      -4.2      4.912      6.705
REMARK  2 active torsions:
REMARK  status: ('A' for Active; 'I' for Inactive)
REMARK    1  A    between atoms: C3_3  and  C7_7 
REMARK    2  A    between atoms: C7_7  and  C8_8 
ROOT
HETATM    1  C1  UNL     1     -31.737  18.380  -0.299  1.00 20.00     0.263 C 
HETATM    2  C2  UNL     1     -34.038  18.015  -0.060  1.00 20.00     0.046 C 
HETATM    3  C3  UNL     1     -32.998  18.310  -1.123  1.00 20.00     0.088 C 
HETATM    4  C4  UNL     1     -33.482  18.760   1.134  1.00 20.00     0.128 C 
HETATM    5  C5  UNL     1     -33.945  18.193   2.462  1.00 20.00     0.040 C 
HETATM    6  O9  UNL     1     -30.595  18.272  -0.718  1.00 20.00    -0.265 OA
HETATM    7  O10 UNL     1     -32.061  18.616   1.012  1.00 20.00    -0.316 OA
ENDROOT
BRANCH   3   8
HETATM    8  C7  UNL     1     -32.939  17.243  -2.200  1.00 20.00     0.014 C 
BRANCH   8   9
HETATM    9  C8  UNL     1     -34.182  16.354  -2.180  1.00 20.00    -0.004 C 
HETATM   10  C6  UNL     1     -34.173  15.353  -3.324  1.00 20.00     0.005 C 
ENDBRANCH   8   9
ENDBRANCH   3   8
TORSDOF 2
ENDMDL
MODEL 6
REMARK VINA RESULT:      -4.1     18.706     19.694
REMARK  2 active torsions:
REMARK  status: ('A' for Active; 'I' for Inactive)
REMARK    1  A    between atoms: C3_3  and  C7_7 
REMARK    2  A    between atoms: C7_7  and  C8_8 
ROOT
HETATM    1  C1  UNL     1     -24.940  16.551  12.001  1.00 20.00     0.263 C 
HETATM    2  C2  UNL     1     -24.991  18.892  11.981  1.00 20.00     0.046 C 
HETATM    3  C3  UNL     1     -24.071  17.739  12.332  1.00 20.00     0.088 C 
HETATM    4  C4  UNL     1     -26.349  18.325  12.332  1.00 20.00     0.128 C 
HETATM    5  C5  UNL     1     -27.485  18.972  11.563  1.00 20.00     0.040 C 
HETATM    6  O9  UNL     1     -24.554  15.409  11.803  1.00 20.00    -0.265 OA
HETATM    7  O10 UNL     1     -26.255  16.937  11.984  1.00 20.00    -0.316 OA
ENDROOT
BRANCH   3   8
HETATM    8  C7  UNL     1     -22.776  17.759  11.543  1.00 20.00     0.014 C 
BRANCH   8   9
HETATM    9  C8  UNL     1     -23.017  18.105  10.073  1.00 20.00    -0.004 C 
HETATM   10  C6  UNL     1     -22.437  17.050   9.147  1.00 20.00     0.005 C 
ENDBRANCH   8   9
ENDBRANCH   3   8
TORSDOF 2
ENDMDL
MODEL 7
REMARK VINA RESULT:      -4.0      3.315      4.959
REMARK  2 active torsions:
REMARK  status: ('A' for Active; 'I' for Inactive)
REMARK    1  A    between atoms: C3_3  and  C7_7 
REMARK    2  A    between atoms: C7_7  and  C8_8 
ROOT
HETATM    1  C1  UNL     1     -34.906  16.849  -1.105  1.00 20.00     0.263 C 
HETATM    2  C2  UNL     1     -33.064  17.124  -2.527  1.00 20.00     0.046 C 
HETATM    3  C3  UNL     1     -33.872  17.878  -1.488  1.00 20.00     0.088 C 
HETATM    4  C4  UNL     1     -34.122  16.258  -3.175  1.00 20.00     0.128 C 
HETATM    5  C5  UNL     1     -33.560  15.000  -3.808  1.00 20.00     0.040 C 
HETATM    6  O9  UNL     1     -35.580  16.848  -0.087  1.00 20.00    -0.265 OA
HETATM    7  O10 UNL     1     -35.003  15.909  -2.098  1.00 20.00    -0.316 OA
ENDROOT
BRANCH   3   8
HETATM    8  C7  UNL     1     -33.034  18.337  -0.310  1.00 20.00     0.014 C 
BRANCH   8   9
HETATM    9  C8  UNL     1     -31.541  18.323  -0.642  1.00 20.00    -0.004 C 
HETATM   10  C6  UNL     1     -30.689  18.258   0.614  1.00 20.00     0.005 C 
ENDBRANCH   8   9
ENDBRANCH   3   8
TORSDOF 2
ENDMDL
MODEL 8
REMARK VINA RESULT:      -4.0     10.634     12.067
REMARK  2 active torsions:
REMARK  status: ('A' for Active; 'I' for Inactive)
REMARK    1  A    between atoms: C3_3  and  C7_7 
REMARK    2  A    between atoms: C7_7  and  C8_8 
ROOT
HETATM    1  C1  UNL     1     -42.467   5.805   0.743  1.00 20.00     0.263 C 
HETATM    2  C2  UNL     1     -41.626   6.974  -1.104  1.00 20.00     0.046 C 
HETATM    3  C3  UNL     1     -41.874   5.558  -0.622  1.00 20.00     0.088 C 
HETATM    4  C4  UNL     1     -41.288   7.688   0.187  1.00 20.00     0.128 C 
HETATM    5  C5  UNL     1     -41.573   9.177   0.140  1.00 20.00     0.040 C 
HETATM    6  O9  UNL     1     -43.127   5.012   1.395  1.00 20.00    -0.265 OA
HETATM    7  O10 UNL     1     -42.127   7.063   1.167  1.00 20.00    -0.316 OA
ENDROOT
BRANCH   3   8
HETATM    8  C7  UNL     1     -42.802   4.780  -1.536  1.00 20.00     0.014 C 
BRANCH   8   9
HETATM    9  C8  UNL     1     -42.025   3.834  -2.453  1.00 20.00    -0.004 C 
HETATM   10  C6  UNL     1     -42.905   2.709  -2.970  1.00 20.00     0.005 C 
ENDBRANCH   8   9
ENDBRANCH   3   8
TORSDOF 2
ENDMDL
MODEL 9
REMARK VINA RESULT:      -3.9      2.752      4.276
REMARK  2 active torsions:
REMARK  status: ('A' for Active; 'I' for Inactive)
REMARK    1  A    between atoms: C3_3  and  C7_7 
REMARK    2  A    between atoms: C7_7  and  C8_8 
ROOT
HETATM    1  C1  UNL     1     -33.224  15.543  -3.612  1.00 20.00     0.263 C 
HETATM    2  C2  UNL     1     -35.142  16.086  -2.381  1.00 20.00     0.046 C 
HETATM    3  C3  UNL     1     -34.725  15.400  -3.667  1.00 20.00     0.088 C 
HETATM    4  C4  UNL     1     -34.091  17.168  -2.251  1.00 20.00     0.128 C 
HETATM    5  C5  UNL     1     -33.873  17.622  -0.821  1.00 20.00     0.040 C 
HETATM    6  O9  UNL     1     -32.414  14.881  -4.241  1.00 20.00    -0.265 OA
HETATM    7  O10 UNL     1     -32.894  16.563  -2.758  1.00 20.00    -0.316 OA
ENDROOT
BRANCH   3   8
HETATM    8  C7  UNL     1     -35.177  13.953  -3.735  1.00 20.00     0.014 C 
BRANCH   8   9
HETATM    9  C8  UNL     1     -36.207  13.737  -4.843  1.00 20.00    -0.004 C 
HETATM   10  C6  UNL     1     -35.832  14.486  -6.111  1.00 20.00     0.005 C 
ENDBRANCH   8   9
ENDBRANCH   3   8
TORSDOF 2
ENDMDL
