MODEL 1
REMARK VINA RESULT:      -3.8      0.000      0.000
REMARK  1 active torsions:
REMARK  status: ('A' for Active; 'I' for Inactive)
REMARK    1  A    between atoms: C2_2  and  C7_7 
ROOT
HETATM    1  C1  UNL     1     -32.942   6.885   2.786  1.00 20.00    -0.110 C 
HETATM    2  C2  UNL     1     -33.621   6.255   3.551  1.00 20.00    -0.098 C 
HETATM    3  C3  UNL     1     -32.117   7.653   1.855  1.00 20.00     0.112 C 
ENDROOT
BRANCH   2   4
HETATM    4  C7  UNL     1     -34.457   5.478   4.493  1.00 20.00     0.013 C 
HETATM    5  C4  UNL     1     -34.322   6.072   5.903  1.00 20.00     0.028 C 
HETATM    6  C5  UNL     1     -33.986   4.017   4.505  1.00 20.00     0.028 C 
HETATM    7  C6  UNL     1     -35.923   5.542   4.048  1.00 20.00     0.028 C 
ENDBRANCH   2   4
TORSDOF 1
ENDMDL
MODEL 2
REMARK VINA RESULT:      -3.8      0.016      1.644
REMARK  1 active torsions:
REMARK  status: ('A' for Active; 'I' for Inactive)
REMARK    1  A    between atoms: C2_2  and  C7_7 
ROOT
HETATM    1  C1  UNL     1     -32.947   6.885   2.782  1.00 20.00    -0.110 C 
HETATM    2  C2  UNL     1     -33.629   6.254   3.544  1.00 20.00    -0.098 C 
HETATM    3  C3  UNL     1     -32.118   7.654   1.854  1.00 20.00     0.112 C 
ENDROOT
BRANCH   2   4
HETATM    4  C7  UNL     1     -34.468   5.476   4.481  1.00 20.00     0.013 C 
HETATM    5  C4  UNL     1     -34.004   4.012   4.486  1.00 20.00     0.028 C 
HETATM    6  C5  UNL     1     -35.934   5.548   4.033  1.00 20.00     0.028 C 
HETATM    7  C6  UNL     1     -34.333   6.061   5.893  1.00 20.00     0.028 C 
ENDBRANCH   2   4
TORSDOF 1
ENDMDL
MODEL 3
REMARK VINA RESULT:      -3.5     15.805     16.847
REMARK  1 active torsions:
REMARK  status: ('A' for Active; 'I' for Inactive)
REMARK    1  A    between atoms: C2_2  and  C7_7 
ROOT
HETATM    1  C1  UNL     1     -24.352  18.493   8.968  1.00 20.00    -0.110 C 
HETATM    2  C2  UNL     1     -24.325  18.084  10.096  1.00 20.00    -0.098 C 
HETATM    3  C3  UNL     1     -24.385  18.994   7.594  1.00 20.00     0.112 C 
ENDROOT
BRANCH   2   4
HETATM    4  C7  UNL     1     -24.292  17.578  11.487  1.00 20.00     0.013 C 
HETATM    5  C4  UNL     1     -24.633  16.080  11.492  1.00 20.00     0.028 C 
HETATM    6  C5  UNL     1     -25.322  18.341  12.330  1.00 20.00     0.028 C 
HETATM    7  C6  UNL     1     -22.890  17.787  12.073  1.00 20.00     0.028 C 
ENDBRANCH   2   4
TORSDOF 1
ENDMDL
MODEL 4
REMARK VINA RESULT:      -3.5     15.794     16.753
REMARK  1 active torsions:
REMARK  status: ('A' for Active; 'I' for Inactive)
REMARK    1  A    between atoms: C2_2  and  C7_7 
ROOT
HETATM    1  C1  UNL     1     -24.304  18.431   8.966  1.00 20.00    -0.110 C 
HETATM    2  C2  UNL     1     -24.280  18.023  10.096  1.00 20.00    -0.098 C 
HETATM    3  C3  UNL     1     -24.334  18.928   7.591  1.00 20.00     0.112 C 
ENDROOT
BRANCH   2   4
HETATM    4  C7  UNL     1     -24.250  17.521  11.487  1.00 20.00     0.013 C 
HETATM    5  C4  UNL     1     -22.845  17.726  12.072  1.00 20.00     0.028 C 
HETATM    6  C5  UNL     1     -24.596  16.025  11.496  1.00 20.00     0.028 C 
HETATM    7  C6  UNL     1     -25.275  18.290  12.331  1.00 20.00     0.028 C 
ENDBRANCH   2   4
TORSDOF 1
ENDMDL
MODEL 5
REMARK VINA RESULT:      -3.5     15.815     16.775
REMARK  1 active torsions:
REMARK  status: ('A' for Active; 'I' for Inactive)
REMARK    1  A    between atoms: C2_2  and  C7_7 
ROOT
HETATM    1  C1  UNL     1     -24.319  18.423   8.962  1.00 20.00    -0.110 C 
HETATM    2  C2  UNL     1     -24.287  18.026  10.095  1.00 20.00    -0.098 C 
HETATM    3  C3  UNL     1     -24.358  18.908   7.583  1.00 20.00     0.112 C 
ENDROOT
BRANCH   2   4
HETATM    4  C7  UNL     1     -24.248  17.536  11.491  1.00 20.00     0.013 C 
HETATM    5  C4  UNL     1     -25.274  18.311  12.331  1.00 20.00     0.028 C 
HETATM    6  C5  UNL     1     -22.843  17.754  12.068  1.00 20.00     0.028 C 
HETATM    7  C6  UNL     1     -24.589  16.040  11.517  1.00 20.00     0.028 C 
ENDBRANCH   2   4
TORSDOF 1
ENDMDL
MODEL 6
REMARK VINA RESULT:      -3.5     11.433     12.297
REMARK  1 active torsions:
REMARK  status: ('A' for Active; 'I' for Inactive)
REMARK    1  A    between atoms: C2_2  and  C7_7 
ROOT
HETATM    1  C1  UNL     1     -35.009  16.241  -1.867  1.00 20.00    -0.110 C 
HETATM    2  C2  UNL     1     -34.834  15.661  -2.903  1.00 20.00    -0.098 C 
HETATM    3  C3  UNL     1     -35.223  16.948  -0.604  1.00 20.00     0.112 C 
ENDROOT
BRANCH   2   4
HETATM    4  C7  UNL     1     -34.618  14.946  -4.181  1.00 20.00     0.013 C 
HETATM    5  C4  UNL     1     -35.477  13.673  -4.204  1.00 20.00     0.028 C 
HETATM    6  C5  UNL     1     -33.136  14.568  -4.308  1.00 20.00     0.028 C 
HETATM    7  C6  UNL     1     -35.019  15.856  -5.349  1.00 20.00     0.028 C 
ENDBRANCH   2   4
TORSDOF 1
ENDMDL
MODEL 7
REMARK VINA RESULT:      -3.5     11.413     12.316
REMARK  1 active torsions:
REMARK  status: ('A' for Active; 'I' for Inactive)
REMARK    1  A    between atoms: C2_2  and  C7_7 
ROOT
HETATM    1  C1  UNL     1     -34.993  16.244  -1.878  1.00 20.00    -0.110 C 
HETATM    2  C2  UNL     1     -34.816  15.656  -2.910  1.00 20.00    -0.098 C 
HETATM    3  C3  UNL     1     -35.209  16.959  -0.620  1.00 20.00     0.112 C 
ENDROOT
BRANCH   2   4
HETATM    4  C7  UNL     1     -34.599  14.933  -4.182  1.00 20.00     0.013 C 
HETATM    5  C4  UNL     1     -33.114  14.560  -4.309  1.00 20.00     0.028 C 
HETATM    6  C5  UNL     1     -35.004  15.834  -5.357  1.00 20.00     0.028 C 
HETATM    7  C6  UNL     1     -35.450  13.656  -4.196  1.00 20.00     0.028 C 
ENDBRANCH   2   4
TORSDOF 1
ENDMDL
MODEL 8
REMARK VINA RESULT:      -3.5     11.439     12.338
REMARK  1 active torsions:
REMARK  status: ('A' for Active; 'I' for Inactive)
REMARK    1  A    between atoms: C2_2  and  C7_7 
ROOT
HETATM    1  C1  UNL     1     -35.007  16.243  -1.869  1.00 20.00    -0.110 C 
HETATM    2  C2  UNL     1     -34.827  15.662  -2.904  1.00 20.00    -0.098 C 
HETATM    3  C3  UNL     1     -35.226  16.950  -0.607  1.00 20.00     0.112 C 
ENDROOT
BRANCH   2   4
HETATM    4  C7  UNL     1     -34.606  14.947  -4.181  1.00 20.00     0.013 C 
HETATM    5  C4  UNL     1     -34.998  15.860  -5.351  1.00 20.00     0.028 C 
HETATM    6  C5  UNL     1     -35.470  13.678  -4.209  1.00 20.00     0.028 C 
HETATM    7  C6  UNL     1     -33.126  14.564  -4.302  1.00 20.00     0.028 C 
ENDBRANCH   2   4
TORSDOF 1
ENDMDL
MODEL 9
REMARK VINA RESULT:      -3.5      8.826      9.366
REMARK  1 active torsions:
REMARK  status: ('A' for Active; 'I' for Inactive)
REMARK    1  A    between atoms: C2_2  and  C7_7 
ROOT
HETATM    1  C1  UNL     1     -41.538   8.478   0.130  1.00 20.00    -0.110 C 
HETATM    2  C2  UNL     1     -41.826   7.342  -0.129  1.00 20.00    -0.098 C 
HETATM    3  C3  UNL     1     -41.186   9.863   0.447  1.00 20.00     0.112 C 
ENDROOT
BRANCH   2   4
HETATM    4  C7  UNL     1     -42.182   5.941  -0.448  1.00 20.00     0.013 C 
HETATM    5  C4  UNL     1     -40.968   5.237  -1.073  1.00 20.00     0.028 C 
HETATM    6  C5  UNL     1     -43.351   5.927  -1.442  1.00 20.00     0.028 C 
HETATM    7  C6  UNL     1     -42.592   5.212   0.838  1.00 20.00     0.028 C 
ENDBRANCH   2   4
TORSDOF 1
ENDMDL
