MODEL 1
REMARK VINA RESULT:      -3.5      0.000      0.000
REMARK  2 active torsions:
REMARK  status: ('A' for Active; 'I' for Inactive)
REMARK    1  A    between atoms: C2_2  and  C3_3 
REMARK    2  A    between atoms: C2_2  and  N4_4 
ROOT
HETATM    1  C1  UNL     1     -33.122   5.733   2.673  1.00 20.00     0.157 C 
HETATM    2  N4  UNL     1     -33.634   4.676   2.666  1.00 20.00    -0.274 NA
HETATM    3  S5  UNL     1     -32.421   7.164   2.654  1.00 20.00    -0.055 SA
ENDROOT
BRANCH   2   4
HETATM    4  C2  UNL     1     -34.196   4.256   3.952  1.00 20.00     0.165 C 
BRANCH   4   5
HETATM    5  C3  UNL     1     -35.114   5.339   4.492  1.00 20.00     0.136 C 
HETATM    6 CL6  UNL     1     -34.529   5.964   6.053  1.00 20.00    -0.129 Cl
ENDBRANCH   4   5
ENDBRANCH   2   4
TORSDOF 2
ENDMDL
MODEL 2
REMARK VINA RESULT:      -3.1      1.972      2.150
REMARK  2 active torsions:
REMARK  status: ('A' for Active; 'I' for Inactive)
REMARK    1  A    between atoms: C2_2  and  C3_3 
REMARK    2  A    between atoms: C2_2  and  N4_4 
ROOT
HETATM    1  C1  UNL     1     -32.558   7.674   1.778  1.00 20.00     0.157 C 
HETATM    2  N4  UNL     1     -32.306   6.946   2.665  1.00 20.00    -0.274 NA
HETATM    3  S5  UNL     1     -32.873   8.674   0.579  1.00 20.00    -0.055 SA
ENDROOT
BRANCH   2   4
HETATM    4  C2  UNL     1     -33.353   5.970   2.976  1.00 20.00     0.165 C 
BRANCH   4   5
HETATM    5  C3  UNL     1     -34.073   6.375   4.250  1.00 20.00     0.136 C 
HETATM    6 CL6  UNL     1     -34.972   5.005   4.948  1.00 20.00    -0.129 Cl
ENDBRANCH   4   5
ENDBRANCH   2   4
TORSDOF 2
ENDMDL
MODEL 3
REMARK VINA RESULT:      -3.0      2.889      3.352
REMARK  2 active torsions:
REMARK  status: ('A' for Active; 'I' for Inactive)
REMARK    1  A    between atoms: C2_2  and  C3_3 
REMARK    2  A    between atoms: C2_2  and  N4_4 
ROOT
HETATM    1  C1  UNL     1     -34.528   5.202   4.357  1.00 20.00     0.157 C 
HETATM    2  N4  UNL     1     -34.409   5.027   3.201  1.00 20.00    -0.274 NA
HETATM    3  S5  UNL     1     -34.715   5.429   5.922  1.00 20.00    -0.055 SA
ENDROOT
BRANCH   2   4
HETATM    4  C2  UNL     1     -33.093   5.369   2.658  1.00 20.00     0.165 C 
BRANCH   4   5
HETATM    5  C3  UNL     1     -32.768   6.819   2.969  1.00 20.00     0.136 C 
HETATM    6 CL6  UNL     1     -32.510   7.758   1.478  1.00 20.00    -0.129 Cl
ENDBRANCH   4   5
ENDBRANCH   2   4
TORSDOF 2
ENDMDL
MODEL 4
REMARK VINA RESULT:      -3.0      3.303      3.949
REMARK  2 active torsions:
REMARK  status: ('A' for Active; 'I' for Inactive)
REMARK    1  A    between atoms: C2_2  and  C3_3 
REMARK    2  A    between atoms: C2_2  and  N4_4 
ROOT
HETATM    1  C1  UNL     1     -33.839   5.520   3.378  1.00 20.00     0.157 C 
HETATM    2  N4  UNL     1     -33.017   5.782   2.581  1.00 20.00    -0.274 NA
HETATM    3  S5  UNL     1     -34.951   5.137   4.452  1.00 20.00    -0.055 SA
ENDROOT
BRANCH   2   4
HETATM    4  C2  UNL     1     -32.603   7.186   2.561  1.00 20.00     0.165 C 
BRANCH   4   5
HETATM    5  C3  UNL     1     -32.400   7.644   1.128  1.00 20.00     0.136 C 
HETATM    6 CL6  UNL     1     -33.016   9.297   0.884  1.00 20.00    -0.129 Cl
ENDBRANCH   4   5
ENDBRANCH   2   4
TORSDOF 2
ENDMDL
MODEL 5
REMARK VINA RESULT:      -2.8     12.264     12.679
REMARK  2 active torsions:
REMARK  status: ('A' for Active; 'I' for Inactive)
REMARK    1  A    between atoms: C2_2  and  C3_3 
REMARK    2  A    between atoms: C2_2  and  N4_4 
ROOT
HETATM    1  C1  UNL     1     -38.176  14.614  -4.304  1.00 20.00     0.157 C 
HETATM    2  N4  UNL     1     -37.372  13.767  -4.430  1.00 20.00    -0.274 NA
HETATM    3  S5  UNL     1     -39.284  15.744  -4.122  1.00 20.00    -0.055 SA
ENDROOT
BRANCH   2   4
HETATM    4  C2  UNL     1     -36.093  14.210  -4.990  1.00 20.00     0.165 C 
BRANCH   4   5
HETATM    5  C3  UNL     1     -34.980  13.975  -3.984  1.00 20.00     0.136 C 
HETATM    6 CL6  UNL     1     -34.786  15.373  -2.897  1.00 20.00    -0.129 Cl
ENDBRANCH   4   5
ENDBRANCH   2   4
TORSDOF 2
ENDMDL
MODEL 6
REMARK VINA RESULT:      -2.7      1.884      2.079
REMARK  2 active torsions:
REMARK  status: ('A' for Active; 'I' for Inactive)
REMARK    1  A    between atoms: C2_2  and  C3_3 
REMARK    2  A    between atoms: C2_2  and  N4_4 
ROOT
HETATM    1  C1  UNL     1     -34.283   4.751   3.659  1.00 20.00     0.157 C 
HETATM    2  N4  UNL     1     -35.036   4.548   4.538  1.00 20.00    -0.274 NA
HETATM    3  S5  UNL     1     -33.282   5.018   2.449  1.00 20.00    -0.055 SA
ENDROOT
BRANCH   2   4
HETATM    4  C2  UNL     1     -34.522   4.860   5.873  1.00 20.00     0.165 C 
BRANCH   4   5
HETATM    5  C3  UNL     1     -34.615   6.355   6.125  1.00 20.00     0.136 C 
HETATM    6 CL6  UNL     1     -33.176   7.204   5.509  1.00 20.00    -0.129 Cl
ENDBRANCH   4   5
ENDBRANCH   2   4
TORSDOF 2
ENDMDL
MODEL 7
REMARK VINA RESULT:      -2.7      2.231      2.359
REMARK  2 active torsions:
REMARK  status: ('A' for Active; 'I' for Inactive)
REMARK    1  A    between atoms: C2_2  and  C3_3 
REMARK    2  A    between atoms: C2_2  and  N4_4 
ROOT
HETATM    1  C1  UNL     1     -33.289   7.018   4.416  1.00 20.00     0.157 C 
HETATM    2  N4  UNL     1     -33.799   7.022   5.474  1.00 20.00    -0.274 NA
HETATM    3  S5  UNL     1     -32.587   7.039   2.986  1.00 20.00    -0.055 SA
ENDROOT
BRANCH   2   4
HETATM    4  C2  UNL     1     -34.474   5.774   5.837  1.00 20.00     0.165 C 
BRANCH   4   5
HETATM    5  C3  UNL     1     -35.193   5.205   4.627  1.00 20.00     0.136 C 
HETATM    6 CL6  UNL     1     -34.255   3.892   3.875  1.00 20.00    -0.129 Cl
ENDBRANCH   4   5
ENDBRANCH   2   4
TORSDOF 2
ENDMDL
MODEL 8
REMARK VINA RESULT:      -2.7     12.472     12.919
REMARK  2 active torsions:
REMARK  status: ('A' for Active; 'I' for Inactive)
REMARK    1  A    between atoms: C2_2  and  C3_3 
REMARK    2  A    between atoms: C2_2  and  N4_4 
ROOT
HETATM    1  C1  UNL     1     -35.378  14.764  -6.514  1.00 20.00     0.157 C 
HETATM    2  N4  UNL     1     -35.998  13.891  -6.029  1.00 20.00    -0.274 NA
HETATM    3  S5  UNL     1     -34.543  15.935  -7.198  1.00 20.00    -0.055 SA
ENDROOT
BRANCH   2   4
HETATM    4  C2  UNL     1     -36.151  13.980  -4.575  1.00 20.00     0.165 C 
BRANCH   4   5
HETATM    5  C3  UNL     1     -34.786  14.063  -3.916  1.00 20.00     0.136 C 
HETATM    6 CL6  UNL     1     -34.697  15.433  -2.782  1.00 20.00    -0.129 Cl
ENDBRANCH   4   5
ENDBRANCH   2   4
TORSDOF 2
ENDMDL
MODEL 9
REMARK VINA RESULT:      -2.7     17.915     17.971
REMARK  2 active torsions:
REMARK  status: ('A' for Active; 'I' for Inactive)
REMARK    1  A    between atoms: C2_2  and  C3_3 
REMARK    2  A    between atoms: C2_2  and  N4_4 
ROOT
HETATM    1  C1  UNL     1     -23.540  19.096   8.678  1.00 20.00     0.157 C 
HETATM    2  N4  UNL     1     -22.423  18.997   9.028  1.00 20.00    -0.274 NA
HETATM    3  S5  UNL     1     -25.049  19.257   8.193  1.00 20.00    -0.055 SA
ENDROOT
BRANCH   2   4
HETATM    4  C2  UNL     1     -22.072  17.698   9.605  1.00 20.00     0.165 C 
BRANCH   4   5
HETATM    5  C3  UNL     1     -22.932  17.427  10.827  1.00 20.00     0.136 C 
HETATM    6 CL6  UNL     1     -22.043  17.765  12.332  1.00 20.00    -0.129 Cl
ENDBRANCH   4   5
ENDBRANCH   2   4
TORSDOF 2
ENDMDL
