MODEL 1
REMARK VINA RESULT:      -4.9      0.000      0.000
REMARK  0 active torsions:
REMARK  status: ('A' for Active; 'I' for Inactive)
ROOT
HETATM    1  C1  UNL     1     -23.470  18.490   7.618  1.00 20.00     0.031 A 
HETATM    2  C2  UNL     1     -25.651  19.094   8.506  1.00 20.00     0.043 A 
HETATM    3  C3  UNL     1     -23.876  18.387   9.968  1.00 20.00     0.033 A 
HETATM    4  C4  UNL     1     -23.002  18.215   8.903  1.00 20.00    -0.045 A 
HETATM    5  C5  UNL     1     -25.184  18.820   9.783  1.00 20.00     0.017 A 
HETATM    6  C6  UNL     1     -24.787  18.927   7.419  1.00 20.00     0.035 A 
HETATM    7  C7  UNL     1     -23.553  18.145  11.378  1.00 20.00     0.171 A 
HETATM    8  C8  UNL     1     -24.706  18.417  12.316  1.00 20.00     0.163 A 
HETATM    9  C9  UNL     1     -21.597  17.750   9.071  1.00 20.00     0.049 C 
HETATM   10  O10 UNL     1     -22.457  17.761  11.760  1.00 20.00    -0.291 OA
HETATM   11  S11 UNL     1     -26.101  18.961  11.286  1.00 20.00    -0.121 SA
HETATM   12 CL12 UNL     1     -25.345  19.263   5.824  1.00 20.00    -0.084 Cl
ENDROOT
TORSDOF 0
ENDMDL
MODEL 2
REMARK VINA RESULT:      -4.9      2.202      3.027
REMARK  0 active torsions:
REMARK  status: ('A' for Active; 'I' for Inactive)
ROOT
HETATM    1  C1  UNL     1     -23.826  18.330   7.680  1.00 20.00     0.031 A 
HETATM    2  C2  UNL     1     -22.488  17.582   9.568  1.00 20.00     0.043 A 
HETATM    3  C3  UNL     1     -24.700  18.472   9.898  1.00 20.00     0.033 A 
HETATM    4  C4  UNL     1     -24.871  18.680   8.536  1.00 20.00    -0.045 A 
HETATM    5  C5  UNL     1     -23.529  17.931  10.417  1.00 20.00     0.017 A 
HETATM    6  C6  UNL     1     -22.641  17.784   8.193  1.00 20.00     0.035 A 
HETATM    7  C7  UNL     1     -25.690  18.782  10.934  1.00 20.00     0.171 A 
HETATM    8  C8  UNL     1     -25.224  18.447  12.332  1.00 20.00     0.163 A 
HETATM    9  C9  UNL     1     -26.113  19.260   7.951  1.00 20.00     0.049 C 
HETATM   10  O10 UNL     1     -26.787  19.263  10.693  1.00 20.00    -0.291 OA
HETATM   11  S11 UNL     1     -23.547  17.763  12.175  1.00 20.00    -0.121 SA
HETATM   12 CL12 UNL     1     -21.363  17.356   7.120  1.00 20.00    -0.084 Cl
ENDROOT
TORSDOF 0
ENDMDL
MODEL 3
REMARK VINA RESULT:      -4.7     16.529     17.970
REMARK  0 active torsions:
REMARK  status: ('A' for Active; 'I' for Inactive)
ROOT
HETATM    1  C1  UNL     1     -33.955  15.540  -3.049  1.00 20.00     0.031 A 
HETATM    2  C2  UNL     1     -35.346  17.501  -2.687  1.00 20.00     0.043 A 
HETATM    3  C3  UNL     1     -36.273  15.485  -3.617  1.00 20.00     0.033 A 
HETATM    4  C4  UNL     1     -35.047  14.836  -3.556  1.00 20.00    -0.045 A 
HETATM    5  C5  UNL     1     -36.431  16.799  -3.191  1.00 20.00     0.017 A 
HETATM    6  C6  UNL     1     -34.102  16.865  -2.616  1.00 20.00     0.035 A 
HETATM    7  C7  UNL     1     -37.519  14.898  -4.120  1.00 20.00     0.171 A 
HETATM    8  C8  UNL     1     -38.696  15.844  -4.066  1.00 20.00     0.163 A 
HETATM    9  C9  UNL     1     -34.848  13.430  -4.007  1.00 20.00     0.049 C 
HETATM   10  O10 UNL     1     -37.601  13.754  -4.542  1.00 20.00    -0.291 OA
HETATM   11  S11 UNL     1     -38.080  17.406  -3.369  1.00 20.00    -0.121 SA
HETATM   12 CL12 UNL     1     -32.742  17.716  -1.991  1.00 20.00    -0.084 Cl
ENDROOT
TORSDOF 0
ENDMDL
MODEL 4
REMARK VINA RESULT:      -4.5     11.015     12.543
REMARK  0 active torsions:
REMARK  status: ('A' for Active; 'I' for Inactive)
ROOT
HETATM    1  C1  UNL     1     -34.694  17.896   0.437  1.00 20.00     0.031 A 
HETATM    2  C2  UNL     1     -33.981  18.553   2.667  1.00 20.00     0.043 A 
HETATM    3  C3  UNL     1     -32.405  18.431   0.853  1.00 20.00     0.033 A 
HETATM    4  C4  UNL     1     -33.390  18.035  -0.040  1.00 20.00    -0.045 A 
HETATM    5  C5  UNL     1     -32.685  18.690   2.190  1.00 20.00     0.017 A 
HETATM    6  C6  UNL     1     -34.988  18.155   1.783  1.00 20.00     0.035 A 
HETATM    7  C7  UNL     1     -30.989  18.625   0.523  1.00 20.00     0.171 A 
HETATM    8  C8  UNL     1     -30.149  19.059   1.701  1.00 20.00     0.163 A 
HETATM    9  C9  UNL     1     -33.119  17.749  -1.477  1.00 20.00     0.049 C 
HETATM   10  O10 UNL     1     -30.530  18.452  -0.597  1.00 20.00    -0.291 OA
HETATM   11  S11 UNL     1     -31.270  19.178   3.128  1.00 20.00    -0.121 SA
HETATM   12 CL12 UNL     1     -36.604  17.980   2.353  1.00 20.00    -0.084 Cl
ENDROOT
TORSDOF 0
ENDMDL
MODEL 5
REMARK VINA RESULT:      -4.5     16.760     18.197
REMARK  0 active torsions:
REMARK  status: ('A' for Active; 'I' for Inactive)
ROOT
HETATM    1  C1  UNL     1     -34.112  15.846  -2.559  1.00 20.00     0.031 A 
HETATM    2  C2  UNL     1     -36.310  16.731  -3.102  1.00 20.00     0.043 A 
HETATM    3  C3  UNL     1     -34.965  15.652  -4.781  1.00 20.00     0.033 A 
HETATM    4  C4  UNL     1     -33.941  15.414  -3.875  1.00 20.00    -0.045 A 
HETATM    5  C5  UNL     1     -36.138  16.300  -4.409  1.00 20.00     0.017 A 
HETATM    6  C6  UNL     1     -35.290  16.501  -2.174  1.00 20.00     0.035 A 
HETATM    7  C7  UNL     1     -34.953  15.268  -6.196  1.00 20.00     0.171 A 
HETATM    8  C8  UNL     1     -36.209  15.659  -6.937  1.00 20.00     0.163 A 
HETATM    9  C9  UNL     1     -32.673  14.724  -4.244  1.00 20.00     0.049 C 
HETATM   10  O10 UNL     1     -34.018  14.687  -6.726  1.00 20.00    -0.291 OA
HETATM   11  S11 UNL     1     -37.291  16.488  -5.734  1.00 20.00    -0.121 SA
HETATM   12 CL12 UNL     1     -35.482  17.025  -0.545  1.00 20.00    -0.084 Cl
ENDROOT
TORSDOF 0
ENDMDL
MODEL 6
REMARK VINA RESULT:      -4.3     16.793     18.391
REMARK  0 active torsions:
REMARK  status: ('A' for Active; 'I' for Inactive)
ROOT
HETATM    1  C1  UNL     1     -33.798  15.719  -3.102  1.00 20.00     0.031 A 
HETATM    2  C2  UNL     1     -33.807  17.745  -4.446  1.00 20.00     0.043 A 
HETATM    3  C3  UNL     1     -34.838  15.725  -5.251  1.00 20.00     0.033 A 
HETATM    4  C4  UNL     1     -34.497  15.034  -4.096  1.00 20.00    -0.045 A 
HETATM    5  C5  UNL     1     -34.502  17.062  -5.433  1.00 20.00     0.017 A 
HETATM    6  C6  UNL     1     -33.455  17.067  -3.275  1.00 20.00     0.035 A 
HETATM    7  C7  UNL     1     -35.568  15.163  -6.391  1.00 20.00     0.171 A 
HETATM    8  C8  UNL     1     -35.795  16.154  -7.509  1.00 20.00     0.163 A 
HETATM    9  C9  UNL     1     -34.841  13.601  -3.874  1.00 20.00     0.049 C 
HETATM   10  O10 UNL     1     -35.958  14.006  -6.436  1.00 20.00    -0.291 OA
HETATM   11  S11 UNL     1     -35.041  17.721  -6.980  1.00 20.00    -0.121 SA
HETATM   12 CL12 UNL     1     -32.592  17.895  -2.035  1.00 20.00    -0.084 Cl
ENDROOT
TORSDOF 0
ENDMDL
MODEL 7
REMARK VINA RESULT:      -4.2     13.127     14.154
REMARK  0 active torsions:
REMARK  status: ('A' for Active; 'I' for Inactive)
ROOT
HETATM    1  C1  UNL     1     -32.936  17.121  -2.166  1.00 20.00     0.031 A 
HETATM    2  C2  UNL     1     -35.236  16.650  -1.533  1.00 20.00     0.043 A 
HETATM    3  C3  UNL     1     -33.806  17.956  -0.105  1.00 20.00     0.033 A 
HETATM    4  C4  UNL     1     -32.741  17.845  -0.990  1.00 20.00    -0.045 A 
HETATM    5  C5  UNL     1     -35.040  17.371  -0.364  1.00 20.00     0.017 A 
HETATM    6  C6  UNL     1     -34.177  16.527  -2.438  1.00 20.00     0.035 A 
HETATM    7  C7  UNL     1     -33.776  18.676   1.172  1.00 20.00     0.171 A 
HETATM    8  C8  UNL     1     -35.085  18.624   1.923  1.00 20.00     0.163 A 
HETATM    9  C9  UNL     1     -31.407  18.459  -0.739  1.00 20.00     0.049 C 
HETATM   10  O10 UNL     1     -32.789  19.263   1.590  1.00 20.00    -0.291 OA
HETATM   11  S11 UNL     1     -36.234  17.648   0.907  1.00 20.00    -0.121 SA
HETATM   12 CL12 UNL     1     -34.398  15.639  -3.897  1.00 20.00    -0.084 Cl
ENDROOT
TORSDOF 0
ENDMDL
MODEL 8
REMARK VINA RESULT:      -4.1     11.701     13.251
REMARK  0 active torsions:
REMARK  status: ('A' for Active; 'I' for Inactive)
ROOT
HETATM    1  C1  UNL     1     -33.449  18.677   2.520  1.00 20.00     0.031 A 
HETATM    2  C2  UNL     1     -35.090  18.201   0.789  1.00 20.00     0.043 A 
HETATM    3  C3  UNL     1     -32.747  18.356   0.261  1.00 20.00     0.033 A 
HETATM    4  C4  UNL     1     -32.418  18.622   1.583  1.00 20.00    -0.045 A 
HETATM    5  C5  UNL     1     -34.062  18.146  -0.141  1.00 20.00     0.017 A 
HETATM    6  C6  UNL     1     -34.778  18.468   2.126  1.00 20.00     0.035 A 
HETATM    7  C7  UNL     1     -31.793  18.262  -0.849  1.00 20.00     0.171 A 
HETATM    8  C8  UNL     1     -32.444  17.961  -2.179  1.00 20.00     0.163 A 
HETATM    9  C9  UNL     1     -31.019  18.852   2.042  1.00 20.00     0.049 C 
HETATM   10  O10 UNL     1     -30.588  18.412  -0.714  1.00 20.00    -0.291 OA
HETATM   11  S11 UNL     1     -34.230  17.827  -1.870  1.00 20.00    -0.121 SA
HETATM   12 CL12 UNL     1     -36.038  18.539   3.299  1.00 20.00    -0.084 Cl
ENDROOT
TORSDOF 0
ENDMDL
MODEL 9
REMARK VINA RESULT:      -4.0     11.527     13.019
REMARK  0 active torsions:
REMARK  status: ('A' for Active; 'I' for Inactive)
ROOT
HETATM    1  C1  UNL     1     -34.216  17.584  -1.092  1.00 20.00     0.031 A 
HETATM    2  C2  UNL     1     -31.879  18.253  -1.106  1.00 20.00     0.043 A 
HETATM    3  C3  UNL     1     -33.159  18.287   0.931  1.00 20.00     0.033 A 
HETATM    4  C4  UNL     1     -34.297  17.831   0.279  1.00 20.00    -0.045 A 
HETATM    5  C5  UNL     1     -31.962  18.498   0.257  1.00 20.00     0.017 A 
HETATM    6  C6  UNL     1     -33.013  17.793  -1.781  1.00 20.00     0.035 A 
HETATM    7  C7  UNL     1     -33.068  18.596   2.361  1.00 20.00     0.171 A 
HETATM    8  C8  UNL     1     -31.700  19.075   2.788  1.00 20.00     0.163 A 
HETATM    9  C9  UNL     1     -35.594  17.597   0.974  1.00 20.00     0.049 C 
HETATM   10  O10 UNL     1     -34.006  18.478   3.136  1.00 20.00    -0.291 OA
HETATM   11  S11 UNL     1     -30.658  19.080   1.297  1.00 20.00    -0.121 SA
HETATM   12 CL12 UNL     1     -32.933  17.481  -3.473  1.00 20.00    -0.084 Cl
ENDROOT
TORSDOF 0
ENDMDL
