MODEL 1
REMARK VINA RESULT:      -4.4      0.000      0.000
REMARK  4 active torsions:
REMARK  status: ('A' for Active; 'I' for Inactive)
REMARK    1  A    between atoms: C1_1  and  C6_6 
REMARK    2  A    between atoms: C6_6  and  C8_8 
REMARK    3  A    between atoms: C7_7  and  C8_8 
REMARK    4  A    between atoms: C7_7  and  C9_9 
ROOT
HETATM    1  C2  UNL     1     -34.031  15.576  -7.411  1.00 20.00     0.010 C 
HETATM    2  C8  UNL     1     -34.492  15.093  -6.029  1.00 20.00    -0.010 C 
ENDROOT
BRANCH   2   3
HETATM    3  C6  UNL     1     -35.860  14.399  -6.196  1.00 20.00     0.100 C 
BRANCH   3   4
HETATM    4  C1  UNL     1     -36.348  13.710  -4.930  1.00 20.00     0.219 C 
HETATM    5  O10 UNL     1     -35.831  12.691  -4.484  1.00 20.00    -0.280 OA
HETATM    6 CL11 UNL     1     -37.737  14.514  -4.254  1.00 20.00    -0.044 Cl
ENDBRANCH   3   4
ENDBRANCH   2   3
BRANCH   2   7
HETATM    7  C7  UNL     1     -34.596  16.275  -5.030  1.00 20.00     0.013 C 
BRANCH   7   8
HETATM    8  C9  UNL     1     -33.793  16.158  -3.701  1.00 20.00    -0.051 C 
HETATM    9  C3  UNL     1     -32.753  15.031  -3.872  1.00 20.00     0.014 C 
HETATM   10  C4  UNL     1     -34.687  15.810  -2.502  1.00 20.00     0.014 C 
HETATM   11  C5  UNL     1     -33.037  17.464  -3.401  1.00 20.00     0.014 C 
ENDBRANCH   7   8
ENDBRANCH   2   7
TORSDOF 4
ENDMDL
MODEL 2
REMARK VINA RESULT:      -4.4      0.072      1.309
REMARK  4 active torsions:
REMARK  status: ('A' for Active; 'I' for Inactive)
REMARK    1  A    between atoms: C1_1  and  C6_6 
REMARK    2  A    between atoms: C6_6  and  C8_8 
REMARK    3  A    between atoms: C7_7  and  C8_8 
REMARK    4  A    between atoms: C7_7  and  C9_9 
ROOT
HETATM    1  C2  UNL     1     -34.092  15.723  -7.365  1.00 20.00     0.010 C 
HETATM    2  C8  UNL     1     -34.515  15.155  -6.003  1.00 20.00    -0.010 C 
ENDROOT
BRANCH   2   3
HETATM    3  C6  UNL     1     -35.859  14.419  -6.188  1.00 20.00     0.100 C 
BRANCH   3   4
HETATM    4  C1  UNL     1     -36.338  13.707  -4.931  1.00 20.00     0.219 C 
HETATM    5  O10 UNL     1     -35.802  12.694  -4.495  1.00 20.00    -0.280 OA
HETATM    6 CL11 UNL     1     -37.743  14.478  -4.250  1.00 20.00    -0.044 Cl
ENDBRANCH   3   4
ENDBRANCH   2   3
BRANCH   2   7
HETATM    7  C7  UNL     1     -34.650  16.281  -4.945  1.00 20.00     0.013 C 
BRANCH   7   8
HETATM    8  C9  UNL     1     -33.770  16.167  -3.666  1.00 20.00    -0.051 C 
HETATM    9  C3  UNL     1     -34.699  15.835  -2.479  1.00 20.00     0.014 C 
HETATM   10  C4  UNL     1     -33.026  17.470  -3.344  1.00 20.00     0.014 C 
HETATM   11  C5  UNL     1     -32.747  15.025  -3.804  1.00 20.00     0.014 C 
ENDBRANCH   7   8
ENDBRANCH   2   7
TORSDOF 4
ENDMDL
MODEL 3
REMARK VINA RESULT:      -4.3      1.755      2.624
REMARK  4 active torsions:
REMARK  status: ('A' for Active; 'I' for Inactive)
REMARK    1  A    between atoms: C1_1  and  C6_6 
REMARK    2  A    between atoms: C6_6  and  C8_8 
REMARK    3  A    between atoms: C7_7  and  C8_8 
REMARK    4  A    between atoms: C7_7  and  C9_9 
ROOT
HETATM    1  C2  UNL     1     -37.648  16.970  -3.389  1.00 20.00     0.010 C 
HETATM    2  C8  UNL     1     -36.522  16.052  -3.884  1.00 20.00    -0.010 C 
ENDROOT
BRANCH   2   3
HETATM    3  C6  UNL     1     -37.122  14.652  -4.137  1.00 20.00     0.100 C 
BRANCH   3   4
HETATM    4  C1  UNL     1     -36.202  13.732  -4.926  1.00 20.00     0.219 C 
HETATM    5  O10 UNL     1     -35.866  12.623  -4.526  1.00 20.00    -0.280 OA
HETATM    6 CL11 UNL     1     -35.668  14.474  -6.409  1.00 20.00    -0.044 Cl
ENDBRANCH   3   4
ENDBRANCH   2   3
BRANCH   2   7
HETATM    7  C7  UNL     1     -35.368  15.973  -2.851  1.00 20.00     0.013 C 
BRANCH   7   8
HETATM    8  C9  UNL     1     -33.957  16.431  -3.322  1.00 20.00    -0.051 C 
HETATM    9  C3  UNL     1     -34.145  17.448  -4.467  1.00 20.00     0.014 C 
HETATM   10  C4  UNL     1     -33.106  15.267  -3.848  1.00 20.00     0.014 C 
HETATM   11  C5  UNL     1     -33.198  17.133  -2.182  1.00 20.00     0.014 C 
ENDBRANCH   7   8
ENDBRANCH   2   7
TORSDOF 4
ENDMDL
MODEL 4
REMARK VINA RESULT:      -4.3      1.240      2.051
REMARK  4 active torsions:
REMARK  status: ('A' for Active; 'I' for Inactive)
REMARK    1  A    between atoms: C1_1  and  C6_6 
REMARK    2  A    between atoms: C6_6  and  C8_8 
REMARK    3  A    between atoms: C7_7  and  C8_8 
REMARK    4  A    between atoms: C7_7  and  C9_9 
ROOT
HETATM    1  C2  UNL     1     -32.776  14.419  -4.403  1.00 20.00     0.010 C 
HETATM    2  C8  UNL     1     -34.069  15.128  -3.975  1.00 20.00    -0.010 C 
ENDROOT
BRANCH   2   3
HETATM    3  C6  UNL     1     -35.157  14.814  -5.024  1.00 20.00     0.100 C 
BRANCH   3   4
HETATM    4  C1  UNL     1     -36.147  13.751  -4.571  1.00 20.00     0.219 C 
HETATM    5  O10 UNL     1     -35.852  12.565  -4.470  1.00 20.00    -0.280 OA
HETATM    6 CL11 UNL     1     -37.725  14.426  -4.274  1.00 20.00    -0.044 Cl
ENDBRANCH   3   4
ENDBRANCH   2   3
BRANCH   2   7
HETATM    7  C7  UNL     1     -33.853  16.659  -3.853  1.00 20.00     0.013 C 
BRANCH   7   8
HETATM    8  C9  UNL     1     -34.191  17.319  -2.484  1.00 20.00    -0.051 C 
HETATM    9  C3  UNL     1     -35.028  16.315  -1.666  1.00 20.00     0.014 C 
HETATM   10  C4  UNL     1     -35.006  18.611  -2.639  1.00 20.00     0.014 C 
HETATM   11  C5  UNL     1     -32.908  17.627  -1.692  1.00 20.00     0.014 C 
ENDBRANCH   7   8
ENDBRANCH   2   7
TORSDOF 4
ENDMDL
MODEL 5
REMARK VINA RESULT:      -4.1     17.107     18.828
REMARK  4 active torsions:
REMARK  status: ('A' for Active; 'I' for Inactive)
REMARK    1  A    between atoms: C1_1  and  C6_6 
REMARK    2  A    between atoms: C6_6  and  C8_8 
REMARK    3  A    between atoms: C7_7  and  C8_8 
REMARK    4  A    between atoms: C7_7  and  C9_9 
ROOT
HETATM    1  C2  UNL     1     -25.285  19.050   8.189  1.00 20.00     0.010 C 
HETATM    2  C8  UNL     1     -24.322  18.862   9.370  1.00 20.00    -0.010 C 
ENDROOT
BRANCH   2   3
HETATM    3  C6  UNL     1     -22.892  19.166   8.876  1.00 20.00     0.100 C 
BRANCH   3   4
HETATM    4  C1  UNL     1     -22.258  18.015   8.109  1.00 20.00     0.219 C 
HETATM    5  O10 UNL     1     -22.448  17.826   6.913  1.00 20.00    -0.280 OA
HETATM    6 CL11 UNL     1     -21.296  17.002   9.150  1.00 20.00    -0.044 Cl
ENDBRANCH   3   4
ENDBRANCH   2   3
BRANCH   2   7
HETATM    7  C7  UNL     1     -24.409  17.421   9.938  1.00 20.00     0.013 C 
BRANCH   7   8
HETATM    8  C9  UNL     1     -24.475  17.268  11.486  1.00 20.00    -0.051 C 
HETATM    9  C3  UNL     1     -25.658  18.116  11.998  1.00 20.00     0.014 C 
HETATM   10  C4  UNL     1     -23.197  17.758  12.181  1.00 20.00     0.014 C 
HETATM   11  C5  UNL     1     -24.732  15.803  11.882  1.00 20.00     0.014 C 
ENDBRANCH   7   8
ENDBRANCH   2   7
TORSDOF 4
ENDMDL
MODEL 6
REMARK VINA RESULT:      -3.8      1.725      1.814
REMARK  4 active torsions:
REMARK  status: ('A' for Active; 'I' for Inactive)
REMARK    1  A    between atoms: C1_1  and  C6_6 
REMARK    2  A    between atoms: C6_6  and  C8_8 
REMARK    3  A    between atoms: C7_7  and  C8_8 
REMARK    4  A    between atoms: C7_7  and  C9_9 
ROOT
HETATM    1  C2  UNL     1     -35.725  15.449  -7.223  1.00 20.00     0.010 C 
HETATM    2  C8  UNL     1     -36.050  15.376  -5.725  1.00 20.00    -0.010 C 
ENDROOT
BRANCH   2   3
HETATM    3  C6  UNL     1     -37.498  15.871  -5.524  1.00 20.00     0.100 C 
BRANCH   3   4
HETATM    4  C1  UNL     1     -38.272  15.076  -4.483  1.00 20.00     0.219 C 
HETATM    5  O10 UNL     1     -38.117  13.871  -4.314  1.00 20.00    -0.280 OA
HETATM    6 CL11 UNL     1     -39.412  16.075  -3.627  1.00 20.00    -0.044 Cl
ENDBRANCH   3   4
ENDBRANCH   2   3
BRANCH   2   7
HETATM    7  C7  UNL     1     -35.059  16.233  -4.895  1.00 20.00     0.013 C 
BRANCH   7   8
HETATM    8  C9  UNL     1     -34.459  15.588  -3.611  1.00 20.00    -0.051 C 
HETATM    9  C3  UNL     1     -34.467  14.057  -3.801  1.00 20.00     0.014 C 
HETATM   10  C4  UNL     1     -35.271  15.920  -2.351  1.00 20.00     0.014 C 
HETATM   11  C5  UNL     1     -33.002  16.035  -3.402  1.00 20.00     0.014 C 
ENDBRANCH   7   8
ENDBRANCH   2   7
TORSDOF 4
ENDMDL
MODEL 7
REMARK VINA RESULT:      -3.8      1.492      3.077
REMARK  4 active torsions:
REMARK  status: ('A' for Active; 'I' for Inactive)
REMARK    1  A    between atoms: C1_1  and  C6_6 
REMARK    2  A    between atoms: C6_6  and  C8_8 
REMARK    3  A    between atoms: C7_7  and  C8_8 
REMARK    4  A    between atoms: C7_7  and  C9_9 
ROOT
HETATM    1  C2  UNL     1     -34.980  16.240  -1.865  1.00 20.00     0.010 C 
HETATM    2  C8  UNL     1     -35.032  16.015  -3.383  1.00 20.00    -0.010 C 
ENDROOT
BRANCH   2   3
HETATM    3  C6  UNL     1     -34.709  14.531  -3.657  1.00 20.00     0.100 C 
BRANCH   3   4
HETATM    4  C1  UNL     1     -35.869  13.762  -4.273  1.00 20.00     0.219 C 
HETATM    5  O10 UNL     1     -35.809  12.566  -4.540  1.00 20.00    -0.280 OA
HETATM    6 CL11 UNL     1     -37.234  14.797  -4.585  1.00 20.00    -0.044 Cl
ENDBRANCH   3   4
ENDBRANCH   2   3
BRANCH   2   7
HETATM    7  C7  UNL     1     -34.028  16.938  -4.121  1.00 20.00     0.013 C 
BRANCH   7   8
HETATM    8  C9  UNL     1     -34.555  17.716  -5.363  1.00 20.00    -0.051 C 
HETATM    9  C3  UNL     1     -36.000  18.166  -5.063  1.00 20.00     0.014 C 
HETATM   10  C4  UNL     1     -34.573  16.854  -6.633  1.00 20.00     0.014 C 
HETATM   11  C5  UNL     1     -33.708  18.975  -5.621  1.00 20.00     0.014 C 
ENDBRANCH   7   8
ENDBRANCH   2   7
TORSDOF 4
ENDMDL
MODEL 8
REMARK VINA RESULT:      -3.8      2.113      2.818
REMARK  4 active torsions:
REMARK  status: ('A' for Active; 'I' for Inactive)
REMARK    1  A    between atoms: C1_1  and  C6_6 
REMARK    2  A    between atoms: C6_6  and  C8_8 
REMARK    3  A    between atoms: C7_7  and  C8_8 
REMARK    4  A    between atoms: C7_7  and  C9_9 
ROOT
HETATM    1  C2  UNL     1     -37.807  14.685  -4.301  1.00 20.00     0.010 C 
HETATM    2  C8  UNL     1     -36.417  15.254  -4.618  1.00 20.00    -0.010 C 
ENDROOT
BRANCH   2   3
HETATM    3  C6  UNL     1     -35.873  14.520  -5.862  1.00 20.00     0.100 C 
BRANCH   3   4
HETATM    4  C1  UNL     1     -34.577  15.112  -6.396  1.00 20.00     0.219 C 
HETATM    5  O10 UNL     1     -33.494  14.545  -6.295  1.00 20.00    -0.280 OA
HETATM    6 CL11 UNL     1     -34.830  16.684  -7.102  1.00 20.00    -0.044 Cl
ENDBRANCH   3   4
ENDBRANCH   2   3
BRANCH   2   7
HETATM    7  C7  UNL     1     -35.454  15.081  -3.415  1.00 20.00     0.013 C 
BRANCH   7   8
HETATM    8  C9  UNL     1     -34.791  16.367  -2.842  1.00 20.00    -0.051 C 
HETATM    9  C3  UNL     1     -33.265  16.238  -3.027  1.00 20.00     0.014 C 
HETATM   10  C4  UNL     1     -35.079  16.561  -1.346  1.00 20.00     0.014 C 
HETATM   11  C5  UNL     1     -35.260  17.615  -3.610  1.00 20.00     0.014 C 
ENDBRANCH   7   8
ENDBRANCH   2   7
TORSDOF 4
ENDMDL
MODEL 9
REMARK VINA RESULT:      -3.8      1.989      2.750
REMARK  4 active torsions:
REMARK  status: ('A' for Active; 'I' for Inactive)
REMARK    1  A    between atoms: C1_1  and  C6_6 
REMARK    2  A    between atoms: C6_6  and  C8_8 
REMARK    3  A    between atoms: C7_7  and  C8_8 
REMARK    4  A    between atoms: C7_7  and  C9_9 
ROOT
HETATM    1  C2  UNL     1     -33.285  15.491  -3.889  1.00 20.00     0.010 C 
HETATM    2  C8  UNL     1     -34.618  15.115  -3.227  1.00 20.00    -0.010 C 
ENDROOT
BRANCH   2   3
HETATM    3  C6  UNL     1     -35.094  13.779  -3.837  1.00 20.00     0.100 C 
BRANCH   3   4
HETATM    4  C1  UNL     1     -36.261  13.935  -4.800  1.00 20.00     0.219 C 
HETATM    5  O10 UNL     1     -37.422  13.689  -4.487  1.00 20.00    -0.280 OA
HETATM    6 CL11 UNL     1     -35.730  14.443  -6.379  1.00 20.00    -0.044 Cl
ENDBRANCH   3   4
ENDBRANCH   2   3
BRANCH   2   7
HETATM    7  C7  UNL     1     -35.681  16.223  -3.442  1.00 20.00     0.013 C 
BRANCH   7   8
HETATM    8  C9  UNL     1     -35.770  17.344  -2.364  1.00 20.00    -0.051 C 
HETATM    9  C3  UNL     1     -35.242  16.767  -1.034  1.00 20.00     0.014 C 
HETATM   10  C4  UNL     1     -37.207  17.833  -2.140  1.00 20.00     0.014 C 
HETATM   11  C5  UNL     1     -34.885  18.544  -2.747  1.00 20.00     0.014 C 
ENDBRANCH   7   8
ENDBRANCH   2   7
TORSDOF 4
ENDMDL
