MODEL 1
REMARK VINA RESULT:      -4.2      0.000      0.000
REMARK  1 active torsions:
REMARK  status: ('A' for Active; 'I' for Inactive)
REMARK    1  A    between atoms: C1_1  and  C6_6 
ROOT
HETATM    1  C2  UNL     1     -33.068   7.112   4.914  1.00 20.00     0.022 C 
HETATM    2  C3  UNL     1     -33.890   5.299   3.326  1.00 20.00     0.022 C 
HETATM    3  C4  UNL     1     -34.163   6.856   5.941  1.00 20.00     0.074 C 
HETATM    4  C5  UNL     1     -35.053   4.893   4.223  1.00 20.00     0.074 C 
HETATM    5  C6  UNL     1     -33.497   6.769   3.486  1.00 20.00     0.048 C 
HETATM    6  S8  UNL     1     -34.656   5.109   5.982  1.00 20.00    -0.169 SA
ENDROOT
BRANCH   5   7
HETATM    7  C1  UNL     1     -32.374   7.074   2.543  1.00 20.00     0.235 C 
HETATM    8  O7  UNL     1     -32.511   7.737   1.520  1.00 20.00    -0.306 OA
ENDBRANCH   5   7
TORSDOF 1
ENDMDL
MODEL 2
REMARK VINA RESULT:      -3.9     11.753     12.086
REMARK  1 active torsions:
REMARK  status: ('A' for Active; 'I' for Inactive)
REMARK    1  A    between atoms: C1_1  and  C6_6 
ROOT
HETATM    1  C2  UNL     1     -35.746  15.464  -3.114  1.00 20.00     0.022 C 
HETATM    2  C3  UNL     1     -34.038  14.656  -4.820  1.00 20.00     0.022 C 
HETATM    3  C4  UNL     1     -34.695  16.061  -2.188  1.00 20.00     0.074 C 
HETATM    4  C5  UNL     1     -32.845  15.187  -4.035  1.00 20.00     0.074 C 
HETATM    5  C6  UNL     1     -35.221  14.279  -3.927  1.00 20.00     0.048 C 
HETATM    6  S8  UNL     1     -33.263  16.692  -3.109  1.00 20.00    -0.169 SA
ENDROOT
BRANCH   5   7
HETATM    7  C1  UNL     1     -36.323  13.740  -4.788  1.00 20.00     0.235 C 
HETATM    8  O7  UNL     1     -37.501  13.717  -4.443  1.00 20.00    -0.306 OA
ENDBRANCH   5   7
TORSDOF 1
ENDMDL
MODEL 3
REMARK VINA RESULT:      -3.8      9.253      9.655
REMARK  1 active torsions:
REMARK  status: ('A' for Active; 'I' for Inactive)
REMARK    1  A    between atoms: C1_1  and  C6_6 
ROOT
HETATM    1  C2  UNL     1     -41.195   7.055  -0.989  1.00 20.00     0.022 C 
HETATM    2  C3  UNL     1     -42.876   7.277   0.911  1.00 20.00     0.022 C 
HETATM    3  C4  UNL     1     -41.318   5.539  -1.062  1.00 20.00     0.074 C 
HETATM    4  C5  UNL     1     -43.139   5.778   0.994  1.00 20.00     0.074 C 
HETATM    5  C6  UNL     1     -41.470   7.610   0.410  1.00 20.00     0.048 C 
HETATM    6  S8  UNL     1     -42.989   4.975  -0.628  1.00 20.00    -0.169 SA
ENDROOT
BRANCH   5   7
HETATM    7  C1  UNL     1     -41.302   9.099   0.397  1.00 20.00     0.235 C 
HETATM    8  O7  UNL     1     -42.193   9.877   0.076  1.00 20.00    -0.306 OA
ENDBRANCH   5   7
TORSDOF 1
ENDMDL
MODEL 4
REMARK VINA RESULT:      -3.8      0.912      2.043
REMARK  1 active torsions:
REMARK  status: ('A' for Active; 'I' for Inactive)
REMARK    1  A    between atoms: C1_1  and  C6_6 
ROOT
HETATM    1  C2  UNL     1     -33.536   5.244   2.584  1.00 20.00     0.022 C 
HETATM    2  C3  UNL     1     -33.537   7.258   4.141  1.00 20.00     0.022 C 
HETATM    3  C4  UNL     1     -34.031   4.282   3.656  1.00 20.00     0.074 C 
HETATM    4  C5  UNL     1     -34.033   6.463   5.342  1.00 20.00     0.074 C 
HETATM    5  C6  UNL     1     -32.729   6.412   3.156  1.00 20.00     0.048 C 
HETATM    6  S8  UNL     1     -35.131   5.104   4.845  1.00 20.00    -0.169 SA
ENDROOT
BRANCH   5   7
HETATM    7  C1  UNL     1     -32.262   7.289   2.035  1.00 20.00     0.235 C 
HETATM    8  O7  UNL     1     -32.981   8.106   1.470  1.00 20.00    -0.306 OA
ENDBRANCH   5   7
TORSDOF 1
ENDMDL
MODEL 5
REMARK VINA RESULT:      -3.7     16.090     16.556
REMARK  1 active torsions:
REMARK  status: ('A' for Active; 'I' for Inactive)
REMARK    1  A    between atoms: C1_1  and  C6_6 
ROOT
HETATM    1  C2  UNL     1     -22.770  17.424  10.694  1.00 20.00     0.022 C 
HETATM    2  C3  UNL     1     -24.428  18.378   9.013  1.00 20.00     0.022 C 
HETATM    3  C4  UNL     1     -23.510  17.985  11.901  1.00 20.00     0.074 C 
HETATM    4  C5  UNL     1     -25.306  19.017  10.083  1.00 20.00     0.074 C 
HETATM    5  C6  UNL     1     -22.961  18.268   9.432  1.00 20.00     0.048 C 
HETATM    6  S8  UNL     1     -25.303  18.054  11.622  1.00 20.00    -0.169 SA
ENDROOT
BRANCH   5   7
HETATM    7  C1  UNL     1     -22.181  17.661   8.305  1.00 20.00     0.235 C 
HETATM    8  O7  UNL     1     -22.382  17.925   7.124  1.00 20.00    -0.306 OA
ENDBRANCH   5   7
TORSDOF 1
ENDMDL
MODEL 6
REMARK VINA RESULT:      -3.7     11.850     12.762
REMARK  1 active torsions:
REMARK  status: ('A' for Active; 'I' for Inactive)
REMARK    1  A    between atoms: C1_1  and  C6_6 
ROOT
HETATM    1  C2  UNL     1     -34.649  15.239  -3.031  1.00 20.00     0.022 C 
HETATM    2  C3  UNL     1     -35.465  16.044  -5.305  1.00 20.00     0.022 C 
HETATM    3  C4  UNL     1     -33.537  16.276  -2.945  1.00 20.00     0.074 C 
HETATM    4  C5  UNL     1     -34.420  17.149  -5.406  1.00 20.00     0.074 C 
HETATM    5  C6  UNL     1     -34.994  14.852  -4.470  1.00 20.00     0.048 C 
HETATM    6  S8  UNL     1     -33.992  17.826  -3.776  1.00 20.00    -0.169 SA
ENDROOT
BRANCH   5   7
HETATM    7  C1  UNL     1     -36.074  13.813  -4.460  1.00 20.00     0.235 C 
HETATM    8  O7  UNL     1     -35.852  12.607  -4.478  1.00 20.00    -0.306 OA
ENDBRANCH   5   7
TORSDOF 1
ENDMDL
MODEL 7
REMARK VINA RESULT:      -3.6     11.908     12.452
REMARK  1 active torsions:
REMARK  status: ('A' for Active; 'I' for Inactive)
REMARK    1  A    between atoms: C1_1  and  C6_6 
ROOT
HETATM    1  C2  UNL     1     -36.168  16.120  -3.971  1.00 20.00     0.022 C 
HETATM    2  C3  UNL     1     -33.970  14.846  -4.144  1.00 20.00     0.022 C 
HETATM    3  C4  UNL     1     -35.554  17.283  -3.204  1.00 20.00     0.074 C 
HETATM    4  C5  UNL     1     -33.174  15.905  -3.392  1.00 20.00     0.074 C 
HETATM    5  C6  UNL     1     -35.441  14.795  -3.729  1.00 20.00     0.048 C 
HETATM    6  S8  UNL     1     -33.827  17.574  -3.684  1.00 20.00    -0.169 SA
ENDROOT
BRANCH   5   7
HETATM    7  C1  UNL     1     -36.124  13.706  -4.498  1.00 20.00     0.235 C 
HETATM    8  O7  UNL     1     -35.785  12.528  -4.447  1.00 20.00    -0.306 OA
ENDBRANCH   5   7
TORSDOF 1
ENDMDL
MODEL 8
REMARK VINA RESULT:      -3.6      9.124      9.747
REMARK  1 active torsions:
REMARK  status: ('A' for Active; 'I' for Inactive)
REMARK    1  A    between atoms: C1_1  and  C6_6 
ROOT
HETATM    1  C2  UNL     1     -41.152   6.729   0.533  1.00 20.00     0.022 C 
HETATM    2  C3  UNL     1     -42.497   7.887  -1.293  1.00 20.00     0.022 C 
HETATM    3  C4  UNL     1     -41.961   5.441   0.459  1.00 20.00     0.074 C 
HETATM    4  C5  UNL     1     -43.417   6.693  -1.518  1.00 20.00     0.074 C 
HETATM    5  C6  UNL     1     -41.961   7.966   0.138  1.00 20.00     0.048 C 
HETATM    6  S8  UNL     1     -42.564   5.118  -1.223  1.00 20.00    -0.169 SA
ENDROOT
BRANCH   5   7
HETATM    7  C1  UNL     1     -41.099   9.185   0.264  1.00 20.00     0.235 C 
HETATM    8  O7  UNL     1     -41.546  10.325   0.334  1.00 20.00    -0.306 OA
ENDBRANCH   5   7
TORSDOF 1
ENDMDL
MODEL 9
REMARK VINA RESULT:      -3.5     11.876     12.680
REMARK  1 active torsions:
REMARK  status: ('A' for Active; 'I' for Inactive)
REMARK    1  A    between atoms: C1_1  and  C6_6 
ROOT
HETATM    1  C2  UNL     1     -35.586  14.624  -5.708  1.00 20.00     0.022 C 
HETATM    2  C3  UNL     1     -35.572  15.164  -3.219  1.00 20.00     0.022 C 
HETATM    3  C4  UNL     1     -34.124  15.003  -5.905  1.00 20.00     0.074 C 
HETATM    4  C5  UNL     1     -34.108  15.587  -3.211  1.00 20.00     0.074 C 
HETATM    5  C6  UNL     1     -36.254  15.396  -4.569  1.00 20.00     0.048 C 
HETATM    6  S8  UNL     1     -33.130  14.656  -4.426  1.00 20.00    -0.169 SA
ENDROOT
BRANCH   5   7
HETATM    7  C1  UNL     1     -37.690  14.982  -4.462  1.00 20.00     0.235 C 
HETATM    8  O7  UNL     1     -38.050  13.816  -4.335  1.00 20.00    -0.306 OA
ENDBRANCH   5   7
TORSDOF 1
ENDMDL
