MODEL 1
REMARK VINA RESULT:      -4.8      0.000      0.000
REMARK  1 active torsions:
REMARK  status: ('A' for Active; 'I' for Inactive)
REMARK    1  A    between atoms: C4_4  and  C7_7 
ROOT
HETATM    1  C1  UNL     1     -31.562  18.474  -0.637  1.00 20.00     0.063 C 
HETATM    2  C7  UNL     1     -32.945  18.728  -1.070  1.00 20.00     0.165 C 
HETATM    3  N8  UNL     1     -30.471  18.274  -0.297  1.00 20.00    -0.197 NA
ENDROOT
BRANCH   2   4
HETATM    4  C4  UNL     1     -33.502  17.539  -1.775  1.00 20.00    -0.006 A 
HETATM    5  C3  UNL     1     -32.817  17.006  -2.856  1.00 20.00     0.128 A 
HETATM    6  N9  UNL     1     -33.236  15.932  -3.562  1.00 20.00    -0.248 NA
HETATM    7  C6  UNL     1     -34.398  15.368  -3.164  1.00 20.00     0.127 A 
HETATM    8  C2  UNL     1     -35.157  15.824  -2.098  1.00 20.00     0.068 A 
HETATM    9 CL11 UNL     1     -34.892  14.009  -4.088  1.00 20.00    -0.062 Cl
HETATM   10  C5  UNL     1     -34.693  16.931  -1.395  1.00 20.00     0.045 A 
HETATM   11 CL10 UNL     1     -35.618  17.520  -0.064  1.00 20.00    -0.084 Cl
ENDBRANCH   2   4
TORSDOF 1
ENDMDL
MODEL 2
REMARK VINA RESULT:      -4.6      2.450      5.281
REMARK  1 active torsions:
REMARK  status: ('A' for Active; 'I' for Inactive)
REMARK    1  A    between atoms: C4_4  and  C7_7 
ROOT
HETATM    1  C1  UNL     1     -36.773  13.971  -4.308  1.00 20.00     0.063 C 
HETATM    2  C7  UNL     1     -35.311  13.910  -4.150  1.00 20.00     0.165 C 
HETATM    3  N8  UNL     1     -37.925  14.019  -4.433  1.00 20.00    -0.197 NA
ENDROOT
BRANCH   2   4
HETATM    4  C4  UNL     1     -34.810  15.109  -3.421  1.00 20.00    -0.006 A 
HETATM    5  C3  UNL     1     -35.695  15.870  -2.674  1.00 20.00     0.128 A 
HETATM    6  N9  UNL     1     -35.343  16.974  -1.978  1.00 20.00    -0.248 NA
HETATM    7  C6  UNL     1     -34.040  17.330  -2.035  1.00 20.00     0.127 A 
HETATM    8  C2  UNL     1     -33.078  16.637  -2.752  1.00 20.00     0.068 A 
HETATM    9 CL11 UNL     1     -33.637  18.736  -1.139  1.00 20.00    -0.062 Cl
HETATM   10  C5  UNL     1     -33.479  15.505  -3.455  1.00 20.00     0.045 A 
HETATM   11 CL10 UNL     1     -32.301  14.624  -4.356  1.00 20.00    -0.084 Cl
ENDBRANCH   2   4
TORSDOF 1
ENDMDL
MODEL 3
REMARK VINA RESULT:      -4.4      2.438      5.055
REMARK  1 active torsions:
REMARK  status: ('A' for Active; 'I' for Inactive)
REMARK    1  A    between atoms: C4_4  and  C7_7 
ROOT
HETATM    1  C1  UNL     1     -36.143  13.855  -4.330  1.00 20.00     0.063 C 
HETATM    2  C7  UNL     1     -36.507  15.246  -4.018  1.00 20.00     0.165 C 
HETATM    3  N8  UNL     1     -35.855  12.758  -4.576  1.00 20.00    -0.197 NA
ENDROOT
BRANCH   2   4
HETATM    4  C4  UNL     1     -35.344  15.976  -3.438  1.00 20.00    -0.006 A 
HETATM    5  C3  UNL     1     -35.264  16.149  -2.066  1.00 20.00     0.128 A 
HETATM    6  N9  UNL     1     -34.254  16.795  -1.442  1.00 20.00    -0.248 NA
HETATM    7  C6  UNL     1     -33.278  17.292  -2.236  1.00 20.00     0.127 A 
HETATM    8  C2  UNL     1     -33.265  17.173  -3.616  1.00 20.00     0.068 A 
HETATM    9 CL11 UNL     1     -32.016  18.104  -1.404  1.00 20.00    -0.062 Cl
HETATM   10  C5  UNL     1     -34.322  16.500  -4.221  1.00 20.00     0.045 A 
HETATM   11 CL10 UNL     1     -34.331  16.338  -5.939  1.00 20.00    -0.084 Cl
ENDBRANCH   2   4
TORSDOF 1
ENDMDL
MODEL 4
REMARK VINA RESULT:      -4.3      2.450      5.241
REMARK  1 active torsions:
REMARK  status: ('A' for Active; 'I' for Inactive)
REMARK    1  A    between atoms: C4_4  and  C7_7 
ROOT
HETATM    1  C1  UNL     1     -35.924  14.348  -5.559  1.00 20.00     0.063 C 
HETATM    2  C7  UNL     1     -35.631  13.997  -4.160  1.00 20.00     0.165 C 
HETATM    3  N8  UNL     1     -36.155  14.625  -6.661  1.00 20.00    -0.197 NA
ENDROOT
BRANCH   2   4
HETATM    4  C4  UNL     1     -35.008  15.149  -3.448  1.00 20.00    -0.006 A 
HETATM    5  C3  UNL     1     -35.805  15.995  -2.694  1.00 20.00     0.128 A 
HETATM    6  N9  UNL     1     -35.339  17.065  -2.013  1.00 20.00    -0.248 NA
HETATM    7  C6  UNL     1     -34.009  17.296  -2.094  1.00 20.00     0.127 A 
HETATM    8  C2  UNL     1     -33.128  16.511  -2.820  1.00 20.00     0.068 A 
HETATM    9 CL11 UNL     1     -33.461  18.664  -1.215  1.00 20.00    -0.062 Cl
HETATM   10  C5  UNL     1     -33.645  15.418  -3.507  1.00 20.00     0.045 A 
HETATM   11 CL10 UNL     1     -32.570  14.423  -4.419  1.00 20.00    -0.084 Cl
ENDBRANCH   2   4
TORSDOF 1
ENDMDL
MODEL 5
REMARK VINA RESULT:      -4.2     11.235     12.189
REMARK  1 active torsions:
REMARK  status: ('A' for Active; 'I' for Inactive)
REMARK    1  A    between atoms: C4_4  and  C7_7 
ROOT
HETATM    1  C1  UNL     1     -32.779   8.256   1.126  1.00 20.00     0.063 C 
HETATM    2  C7  UNL     1     -32.143   7.042   1.662  1.00 20.00     0.165 C 
HETATM    3  N8  UNL     1     -33.279   9.213   0.703  1.00 20.00    -0.197 NA
ENDROOT
BRANCH   2   4
HETATM    4  C4  UNL     1     -32.928   6.500   2.808  1.00 20.00    -0.006 A 
HETATM    5  C3  UNL     1     -33.139   7.294   3.924  1.00 20.00     0.128 A 
HETATM    6  N9  UNL     1     -33.834   6.898   5.013  1.00 20.00    -0.248 NA
HETATM    7  C6  UNL     1     -34.341   5.646   4.979  1.00 20.00     0.127 A 
HETATM    8  C2  UNL     1     -34.187   4.775   3.913  1.00 20.00     0.068 A 
HETATM    9 CL11 UNL     1     -35.216   5.184   6.382  1.00 20.00    -0.062 Cl
HETATM   10  C5  UNL     1     -33.465   5.219   2.809  1.00 20.00     0.045 A 
HETATM   11 CL10 UNL     1     -33.257   4.155   1.467  1.00 20.00    -0.084 Cl
ENDBRANCH   2   4
TORSDOF 1
ENDMDL
MODEL 6
REMARK VINA RESULT:      -4.2      2.269      2.626
REMARK  1 active torsions:
REMARK  status: ('A' for Active; 'I' for Inactive)
REMARK    1  A    between atoms: C4_4  and  C7_7 
ROOT
HETATM    1  C1  UNL     1     -33.761  18.258   1.554  1.00 20.00     0.063 C 
HETATM    2  C7  UNL     1     -34.302  18.790   0.292  1.00 20.00     0.165 C 
HETATM    3  N8  UNL     1     -33.335  17.838   2.548  1.00 20.00    -0.197 NA
ENDROOT
BRANCH   2   4
HETATM    4  C4  UNL     1     -34.194  17.777  -0.795  1.00 20.00    -0.006 A 
HETATM    5  C3  UNL     1     -35.236  16.888  -1.003  1.00 20.00     0.128 A 
HETATM    6  N9  UNL     1     -35.237  15.933  -1.960  1.00 20.00    -0.248 NA
HETATM    7  C6  UNL     1     -34.138  15.868  -2.744  1.00 20.00     0.127 A 
HETATM    8  C2  UNL     1     -33.044  16.709  -2.617  1.00 20.00     0.068 A 
HETATM    9 CL11 UNL     1     -34.180  14.643  -3.944  1.00 20.00    -0.062 Cl
HETATM   10  C5  UNL     1     -33.081  17.680  -1.621  1.00 20.00     0.045 A 
HETATM   11 CL10 UNL     1     -31.732  18.740  -1.442  1.00 20.00    -0.084 Cl
ENDBRANCH   2   4
TORSDOF 1
ENDMDL
MODEL 7
REMARK VINA RESULT:      -4.2      2.353      4.664
REMARK  1 active torsions:
REMARK  status: ('A' for Active; 'I' for Inactive)
REMARK    1  A    between atoms: C4_4  and  C7_7 
ROOT
HETATM    1  C1  UNL     1     -33.906  16.610  -2.392  1.00 20.00     0.063 C 
HETATM    2  C7  UNL     1     -34.205  17.824  -1.615  1.00 20.00     0.165 C 
HETATM    3  N8  UNL     1     -33.671  15.654  -3.005  1.00 20.00    -0.197 NA
ENDROOT
BRANCH   2   4
HETATM    4  C4  UNL     1     -33.095  18.128  -0.668  1.00 20.00    -0.006 A 
HETATM    5  C3  UNL     1     -31.819  18.347  -1.162  1.00 20.00     0.128 A 
HETATM    6  N9  UNL     1     -30.746  18.628  -0.389  1.00 20.00    -0.248 NA
HETATM    7  C6  UNL     1     -30.966  18.693   0.943  1.00 20.00     0.127 A 
HETATM    8  C2  UNL     1     -32.203  18.491   1.536  1.00 20.00     0.068 A 
HETATM    9 CL11 UNL     1     -29.579  19.052   1.886  1.00 20.00    -0.062 Cl
HETATM   10  C5  UNL     1     -33.282  18.203   0.707  1.00 20.00     0.045 A 
HETATM   11 CL10 UNL     1     -34.833  17.947   1.419  1.00 20.00    -0.084 Cl
ENDBRANCH   2   4
TORSDOF 1
ENDMDL
MODEL 8
REMARK VINA RESULT:      -4.2      2.389      4.608
REMARK  1 active torsions:
REMARK  status: ('A' for Active; 'I' for Inactive)
REMARK    1  A    between atoms: C4_4  and  C7_7 
ROOT
HETATM    1  C1  UNL     1     -36.045  13.830  -4.466  1.00 20.00     0.063 C 
HETATM    2  C7  UNL     1     -36.328  15.274  -4.443  1.00 20.00     0.165 C 
HETATM    3  N8  UNL     1     -35.822  12.691  -4.484  1.00 20.00    -0.197 NA
ENDROOT
BRANCH   2   4
HETATM    4  C4  UNL     1     -35.319  15.993  -3.615  1.00 20.00    -0.006 A 
HETATM    5  C3  UNL     1     -33.979  15.664  -3.735  1.00 20.00     0.128 A 
HETATM    6  N9  UNL     1     -32.988  16.254  -3.030  1.00 20.00    -0.248 NA
HETATM    7  C6  UNL     1     -33.362  17.223  -2.164  1.00 20.00     0.127 A 
HETATM    8  C2  UNL     1     -34.674  17.626  -1.971  1.00 20.00     0.068 A 
HETATM    9 CL11 UNL     1     -32.074  17.945  -1.291  1.00 20.00    -0.062 Cl
HETATM   10  C5  UNL     1     -35.665  16.994  -2.715  1.00 20.00     0.045 A 
HETATM   11 CL10 UNL     1     -37.307  17.477  -2.493  1.00 20.00    -0.084 Cl
ENDBRANCH   2   4
TORSDOF 1
ENDMDL
MODEL 9
REMARK VINA RESULT:      -4.1      1.893      4.584
REMARK  1 active torsions:
REMARK  status: ('A' for Active; 'I' for Inactive)
REMARK    1  A    between atoms: C4_4  and  C7_7 
ROOT
HETATM    1  C1  UNL     1     -33.989  15.210  -6.296  1.00 20.00     0.063 C 
HETATM    2  C7  UNL     1     -33.558  14.532  -5.063  1.00 20.00     0.165 C 
HETATM    3  N8  UNL     1     -34.328  15.745  -7.268  1.00 20.00    -0.197 NA
ENDROOT
BRANCH   2   4
HETATM    4  C4  UNL     1     -33.872  15.364  -3.868  1.00 20.00    -0.006 A 
HETATM    5  C3  UNL     1     -32.892  16.185  -3.333  1.00 20.00     0.128 A 
HETATM    6  N9  UNL     1     -33.074  16.977  -2.253  1.00 20.00    -0.248 NA
HETATM    7  C6  UNL     1     -34.300  16.942  -1.684  1.00 20.00     0.127 A 
HETATM    8  C2  UNL     1     -35.346  16.157  -2.141  1.00 20.00     0.068 A 
HETATM    9 CL11 UNL     1     -34.488  17.962  -0.316  1.00 20.00    -0.062 Cl
HETATM   10  C5  UNL     1     -35.119  15.356  -3.256  1.00 20.00     0.045 A 
HETATM   11 CL10 UNL     1     -36.405  14.368  -3.846  1.00 20.00    -0.084 Cl
ENDBRANCH   2   4
TORSDOF 1
ENDMDL
