MODEL 1
REMARK VINA RESULT:      -4.5      0.000      0.000
REMARK  0 active torsions:
REMARK  status: ('A' for Active; 'I' for Inactive)
ROOT
HETATM    1  C1  UNL     1     -33.334   4.940   2.731  1.00 20.00     0.131 C 
HETATM    2  C2  UNL     1     -34.018   4.258   3.892  1.00 20.00     0.087 C 
HETATM    3  C3  UNL     1     -33.807   6.629   4.303  1.00 20.00     0.021 C 
HETATM    4  C4  UNL     1     -33.374   6.449   2.846  1.00 20.00     0.052 C 
HETATM    5  C5  UNL     1     -34.718   5.425   4.611  1.00 20.00    -0.041 C 
HETATM    6  C6  UNL     1     -32.037   7.097   2.542  1.00 20.00     0.018 C 
HETATM    7  C7  UNL     1     -36.135   5.640   4.053  1.00 20.00     0.015 C 
HETATM    8  C8  UNL     1     -34.807   5.176   6.119  1.00 20.00     0.015 C 
HETATM    9  O9  UNL     1     -32.807   4.332   1.807  1.00 20.00    -0.298 OA
ENDROOT
TORSDOF 0
ENDMDL
MODEL 2
REMARK VINA RESULT:      -4.4     11.690     12.908
REMARK  0 active torsions:
REMARK  status: ('A' for Active; 'I' for Inactive)
ROOT
HETATM    1  C1  UNL     1     -36.570  14.471  -4.334  1.00 20.00     0.131 C 
HETATM    2  C2  UNL     1     -35.194  14.168  -3.789  1.00 20.00     0.087 C 
HETATM    3  C3  UNL     1     -35.319  16.454  -4.558  1.00 20.00     0.021 C 
HETATM    4  C4  UNL     1     -36.761  15.944  -4.626  1.00 20.00     0.052 C 
HETATM    5  C5  UNL     1     -34.620  15.568  -3.509  1.00 20.00    -0.041 C 
HETATM    6  C6  UNL     1     -37.414  16.196  -5.971  1.00 20.00     0.018 C 
HETATM    7  C7  UNL     1     -34.960  16.023  -2.079  1.00 20.00     0.015 C 
HETATM    8  C8  UNL     1     -33.101  15.594  -3.694  1.00 20.00     0.015 C 
HETATM    9  O9  UNL     1     -37.426  13.614  -4.518  1.00 20.00    -0.298 OA
ENDROOT
TORSDOF 0
ENDMDL
MODEL 3
REMARK VINA RESULT:      -4.3      8.834      9.478
REMARK  0 active torsions:
REMARK  status: ('A' for Active; 'I' for Inactive)
ROOT
HETATM    1  C1  UNL     1     -42.381   5.960   0.470  1.00 20.00     0.131 C 
HETATM    2  C2  UNL     1     -42.435   7.341   1.078  1.00 20.00     0.087 C 
HETATM    3  C3  UNL     1     -41.224   7.380  -1.012  1.00 20.00     0.021 C 
HETATM    4  C4  UNL     1     -41.824   5.973  -0.938  1.00 20.00     0.052 C 
HETATM    5  C5  UNL     1     -42.125   8.256  -0.121  1.00 20.00    -0.041 C 
HETATM    6  C6  UNL     1     -40.798   4.881  -1.174  1.00 20.00     0.018 C 
HETATM    7  C7  UNL     1     -43.417   8.654  -0.854  1.00 20.00     0.015 C 
HETATM    8  C8  UNL     1     -41.391   9.524   0.323  1.00 20.00     0.015 C 
HETATM    9  O9  UNL     1     -42.746   4.949   1.057  1.00 20.00    -0.298 OA
ENDROOT
TORSDOF 0
ENDMDL
MODEL 4
REMARK VINA RESULT:      -4.2      8.629      9.590
REMARK  0 active torsions:
REMARK  status: ('A' for Active; 'I' for Inactive)
ROOT
HETATM    1  C1  UNL     1     -41.377   6.315  -0.680  1.00 20.00     0.131 C 
HETATM    2  C2  UNL     1     -41.744   7.574  -1.428  1.00 20.00     0.087 C 
HETATM    3  C3  UNL     1     -42.931   7.458   0.672  1.00 20.00     0.021 C 
HETATM    4  C4  UNL     1     -41.926   6.304   0.731  1.00 20.00     0.052 C 
HETATM    5  C5  UNL     1     -42.334   8.470  -0.324  1.00 20.00    -0.041 C 
HETATM    6  C6  UNL     1     -42.567   4.981   1.102  1.00 20.00     0.018 C 
HETATM    7  C7  UNL     1     -41.235   9.321   0.335  1.00 20.00     0.015 C 
HETATM    8  C8  UNL     1     -43.417   9.397  -0.880  1.00 20.00     0.015 C 
HETATM    9  O9  UNL     1     -40.711   5.410  -1.168  1.00 20.00    -0.298 OA
ENDROOT
TORSDOF 0
ENDMDL
MODEL 5
REMARK VINA RESULT:      -4.2     16.289     17.284
REMARK  0 active torsions:
REMARK  status: ('A' for Active; 'I' for Inactive)
ROOT
HETATM    1  C1  UNL     1     -25.418  17.038  11.694  1.00 20.00     0.131 C 
HETATM    2  C2  UNL     1     -24.297  16.273  11.033  1.00 20.00     0.087 C 
HETATM    3  C3  UNL     1     -24.255  18.592  10.360  1.00 20.00     0.021 C 
HETATM    4  C4  UNL     1     -25.303  18.531  11.475  1.00 20.00     0.052 C 
HETATM    5  C5  UNL     1     -23.326  17.388  10.605  1.00 20.00    -0.041 C 
HETATM    6  C6  UNL     1     -26.620  19.171  11.083  1.00 20.00     0.018 C 
HETATM    7  C7  UNL     1     -22.310  17.686  11.721  1.00 20.00     0.015 C 
HETATM    8  C8  UNL     1     -22.571  17.009   9.329  1.00 20.00     0.015 C 
HETATM    9  O9  UNL     1     -26.316  16.502  12.332  1.00 20.00    -0.298 OA
ENDROOT
TORSDOF 0
ENDMDL
MODEL 6
REMARK VINA RESULT:      -4.1     11.775     12.762
REMARK  0 active torsions:
REMARK  status: ('A' for Active; 'I' for Inactive)
ROOT
HETATM    1  C1  UNL     1     -35.767  13.906  -4.316  1.00 20.00     0.131 C 
HETATM    2  C2  UNL     1     -34.482  14.663  -4.557  1.00 20.00     0.087 C 
HETATM    3  C3  UNL     1     -36.276  16.186  -4.010  1.00 20.00     0.021 C 
HETATM    4  C4  UNL     1     -36.861  14.793  -3.761  1.00 20.00     0.052 C 
HETATM    5  C5  UNL     1     -34.750  16.018  -3.878  1.00 20.00    -0.041 C 
HETATM    6  C6  UNL     1     -38.195  14.581  -4.449  1.00 20.00     0.018 C 
HETATM    7  C7  UNL     1     -34.318  15.985  -2.402  1.00 20.00     0.015 C 
HETATM    8  C8  UNL     1     -34.010  17.153  -4.590  1.00 20.00     0.015 C 
HETATM    9  O9  UNL     1     -35.899  12.711  -4.548  1.00 20.00    -0.298 OA
ENDROOT
TORSDOF 0
ENDMDL
MODEL 7
REMARK VINA RESULT:      -4.0     12.117     12.974
REMARK  0 active torsions:
REMARK  status: ('A' for Active; 'I' for Inactive)
ROOT
HETATM    1  C1  UNL     1     -33.455  17.273  -1.954  1.00 20.00     0.131 C 
HETATM    2  C2  UNL     1     -33.001  16.318  -3.032  1.00 20.00     0.087 C 
HETATM    3  C3  UNL     1     -35.269  15.825  -2.360  1.00 20.00     0.021 C 
HETATM    4  C4  UNL     1     -34.934  17.143  -1.657  1.00 20.00     0.052 C 
HETATM    5  C5  UNL     1     -34.328  15.763  -3.579  1.00 20.00    -0.041 C 
HETATM    6  C6  UNL     1     -35.234  17.112  -0.170  1.00 20.00     0.018 C 
HETATM    7  C7  UNL     1     -34.852  16.635  -4.734  1.00 20.00     0.015 C 
HETATM    8  C8  UNL     1     -34.167  14.323  -4.074  1.00 20.00     0.015 C 
HETATM    9  O9  UNL     1     -32.705  18.059  -1.389  1.00 20.00    -0.298 OA
ENDROOT
TORSDOF 0
ENDMDL
MODEL 8
REMARK VINA RESULT:      -4.0     16.288     17.172
REMARK  0 active torsions:
REMARK  status: ('A' for Active; 'I' for Inactive)
ROOT
HETATM    1  C1  UNL     1     -22.936  17.708   8.612  1.00 20.00     0.131 C 
HETATM    2  C2  UNL     1     -22.405  17.508  10.012  1.00 20.00     0.087 C 
HETATM    3  C3  UNL     1     -24.612  18.488  10.072  1.00 20.00     0.021 C 
HETATM    4  C4  UNL     1     -24.394  18.115   8.604  1.00 20.00     0.052 C 
HETATM    5  C5  UNL     1     -23.679  17.559  10.873  1.00 20.00    -0.041 C 
HETATM    6  C6  UNL     1     -24.677  19.263   7.654  1.00 20.00     0.018 C 
HETATM    7  C7  UNL     1     -24.290  16.155  11.029  1.00 20.00     0.015 C 
HETATM    8  C8  UNL     1     -23.390  18.135  12.261  1.00 20.00     0.015 C 
HETATM    9  O9  UNL     1     -22.255  17.557   7.605  1.00 20.00    -0.298 OA
ENDROOT
TORSDOF 0
ENDMDL
MODEL 9
REMARK VINA RESULT:      -4.0     12.177     13.386
REMARK  0 active torsions:
REMARK  status: ('A' for Active; 'I' for Inactive)
ROOT
HETATM    1  C1  UNL     1     -33.974  15.341  -5.067  1.00 20.00     0.131 C 
HETATM    2  C2  UNL     1     -33.188  15.413  -3.779  1.00 20.00     0.087 C 
HETATM    3  C3  UNL     1     -34.433  17.453  -4.131  1.00 20.00     0.021 C 
HETATM    4  C4  UNL     1     -34.934  16.501  -5.220  1.00 20.00     0.052 C 
HETATM    5  C5  UNL     1     -33.894  16.544  -3.010  1.00 20.00    -0.041 C 
HETATM    6  C6  UNL     1     -34.895  17.117  -6.606  1.00 20.00     0.018 C 
HETATM    7  C7  UNL     1     -35.038  15.986  -2.145  1.00 20.00     0.015 C 
HETATM    8  C8  UNL     1     -32.913  17.302  -2.113  1.00 20.00     0.015 C 
HETATM    9  O9  UNL     1     -33.842  14.442  -5.889  1.00 20.00    -0.298 OA
ENDROOT
TORSDOF 0
ENDMDL
