MODEL 1
REMARK VINA RESULT:      -4.9      0.000      0.000
REMARK  1 active torsions:
REMARK  status: ('A' for Active; 'I' for Inactive)
REMARK    1  A    between atoms: C1_1  and  C3_3 
ROOT
HETATM    1  C2  UNL     1     -32.980  15.360  -3.900  1.00 20.00     0.110 C 
HETATM    2  C3  UNL     1     -34.488  15.330  -4.278  1.00 20.00     0.110 C 
HETATM    3  C4  UNL     1     -33.219  16.668  -3.122  1.00 20.00     0.310 C 
HETATM    4  C5  UNL     1     -34.725  16.307  -3.077  1.00 20.00     0.323 C 
HETATM    5  C6  UNL     1     -34.781  15.959  -5.642  1.00 20.00     0.031 C 
HETATM    6  F8  UNL     1     -32.919  17.804  -3.792  1.00 20.00    -0.200 F 
HETATM    7  F9  UNL     1     -32.607  16.753  -1.920  1.00 20.00    -0.200 F 
HETATM    8  F10 UNL     1     -35.131  15.721  -1.926  1.00 20.00    -0.198 F 
HETATM    9  F11 UNL     1     -35.577  17.333  -3.307  1.00 20.00    -0.198 F 
ENDROOT
BRANCH   2  10
HETATM   10  C1  UNL     1     -35.179  13.944  -4.149  1.00 20.00     0.233 C 
HETATM   11  O7  UNL     1     -34.536  12.919  -3.942  1.00 20.00    -0.279 OA
HETATM   12 CL12 UNL     1     -36.904  14.053  -4.332  1.00 20.00    -0.043 Cl
ENDBRANCH   2  10
TORSDOF 1
ENDMDL
MODEL 2
REMARK VINA RESULT:      -4.9      2.377      3.007
REMARK  1 active torsions:
REMARK  status: ('A' for Active; 'I' for Inactive)
REMARK    1  A    between atoms: C1_1  and  C3_3 
ROOT
HETATM    1  C2  UNL     1     -35.027  16.460  -4.215  1.00 20.00     0.110 C 
HETATM    2  C3  UNL     1     -35.498  15.138  -4.887  1.00 20.00     0.110 C 
HETATM    3  C4  UNL     1     -34.252  15.632  -3.171  1.00 20.00     0.310 C 
HETATM    4  C5  UNL     1     -34.304  14.436  -4.156  1.00 20.00     0.323 C 
HETATM    5  C6  UNL     1     -36.871  14.669  -4.400  1.00 20.00     0.031 C 
HETATM    6  F8  UNL     1     -34.891  15.438  -1.995  1.00 20.00    -0.200 F 
HETATM    7  F9  UNL     1     -33.014  16.083  -2.872  1.00 20.00    -0.200 F 
HETATM    8  F10 UNL     1     -33.186  14.270  -4.901  1.00 20.00    -0.198 F 
HETATM    9  F11 UNL     1     -34.575  13.234  -3.597  1.00 20.00    -0.198 F 
ENDROOT
BRANCH   2  10
HETATM   10  C1  UNL     1     -35.426  15.118  -6.439  1.00 20.00     0.233 C 
HETATM   11  O7  UNL     1     -36.072  14.314  -7.104  1.00 20.00    -0.279 OA
HETATM   12 CL12 UNL     1     -34.355  16.337  -7.060  1.00 20.00    -0.043 Cl
ENDBRANCH   2  10
TORSDOF 1
ENDMDL
MODEL 3
REMARK VINA RESULT:      -4.8      2.042      2.313
REMARK  1 active torsions:
REMARK  status: ('A' for Active; 'I' for Inactive)
REMARK    1  A    between atoms: C1_1  and  C3_3 
ROOT
HETATM    1  C2  UNL     1     -33.837  15.221  -5.585  1.00 20.00     0.110 C 
HETATM    2  C3  UNL     1     -35.201  15.359  -4.851  1.00 20.00     0.110 C 
HETATM    3  C4  UNL     1     -33.155  14.955  -4.229  1.00 20.00     0.310 C 
HETATM    4  C5  UNL     1     -34.548  14.582  -3.659  1.00 20.00     0.323 C 
HETATM    5  C6  UNL     1     -35.560  16.807  -4.511  1.00 20.00     0.031 C 
HETATM    6  F8  UNL     1     -32.568  16.030  -3.654  1.00 20.00    -0.200 F 
HETATM    7  F9  UNL     1     -32.240  13.960  -4.220  1.00 20.00    -0.200 F 
HETATM    8  F10 UNL     1     -34.805  13.253  -3.624  1.00 20.00    -0.198 F 
HETATM    9  F11 UNL     1     -34.817  15.058  -2.422  1.00 20.00    -0.198 F 
ENDROOT
BRANCH   2  10
HETATM   10  C1  UNL     1     -36.399  14.639  -5.532  1.00 20.00     0.233 C 
HETATM   11  O7  UNL     1     -36.354  14.283  -6.706  1.00 20.00    -0.279 OA
HETATM   12 CL12 UNL     1     -37.737  14.424  -4.445  1.00 20.00    -0.043 Cl
ENDBRANCH   2  10
TORSDOF 1
ENDMDL
MODEL 4
REMARK VINA RESULT:      -4.7      2.067      2.653
REMARK  1 active torsions:
REMARK  status: ('A' for Active; 'I' for Inactive)
REMARK    1  A    between atoms: C1_1  and  C3_3 
ROOT
HETATM    1  C2  UNL     1     -34.689  15.498  -2.916  1.00 20.00     0.110 C 
HETATM    2  C3  UNL     1     -35.347  14.630  -4.027  1.00 20.00     0.110 C 
HETATM    3  C4  UNL     1     -33.582  15.898  -3.910  1.00 20.00     0.310 C 
HETATM    4  C5  UNL     1     -34.532  15.479  -5.060  1.00 20.00     0.323 C 
HETATM    5  C6  UNL     1     -34.922  13.161  -3.976  1.00 20.00     0.031 C 
HETATM    6  F8  UNL     1     -32.437  15.183  -3.820  1.00 20.00    -0.200 F 
HETATM    7  F9  UNL     1     -33.228  17.202  -3.896  1.00 20.00    -0.200 F 
HETATM    8  F10 UNL     1     -35.210  16.502  -5.632  1.00 20.00    -0.198 F 
HETATM    9  F11 UNL     1     -33.954  14.789  -6.070  1.00 20.00    -0.198 F 
ENDROOT
BRANCH   2  10
HETATM   10  C1  UNL     1     -36.892  14.755  -4.141  1.00 20.00     0.233 C 
HETATM   11  O7  UNL     1     -37.590  13.810  -4.496  1.00 20.00    -0.279 OA
HETATM   12 CL12 UNL     1     -37.454  16.342  -3.714  1.00 20.00    -0.043 Cl
ENDBRANCH   2  10
TORSDOF 1
ENDMDL
MODEL 5
REMARK VINA RESULT:      -4.6      2.459      3.425
REMARK  1 active torsions:
REMARK  status: ('A' for Active; 'I' for Inactive)
REMARK    1  A    between atoms: C1_1  and  C3_3 
ROOT
HETATM    1  C2  UNL     1     -35.909  16.336  -4.938  1.00 20.00     0.110 C 
HETATM    2  C3  UNL     1     -35.251  14.932  -4.814  1.00 20.00     0.110 C 
HETATM    3  C4  UNL     1     -35.041  16.614  -6.180  1.00 20.00     0.310 C 
HETATM    4  C5  UNL     1     -34.835  15.084  -6.316  1.00 20.00     0.323 C 
HETATM    5  C6  UNL     1     -34.060  14.907  -3.852  1.00 20.00     0.031 C 
HETATM    6  F8  UNL     1     -33.915  17.328  -5.952  1.00 20.00    -0.200 F 
HETATM    7  F9  UNL     1     -35.676  17.207  -7.215  1.00 20.00    -0.200 F 
HETATM    8  F10 UNL     1     -35.657  14.481  -7.208  1.00 20.00    -0.198 F 
HETATM    9  F11 UNL     1     -33.578  14.692  -6.627  1.00 20.00    -0.198 F 
ENDROOT
BRANCH   2  10
HETATM   10  C1  UNL     1     -36.228  13.762  -4.513  1.00 20.00     0.233 C 
HETATM   11  O7  UNL     1     -35.847  12.596  -4.478  1.00 20.00    -0.279 OA
HETATM   12 CL12 UNL     1     -37.852  14.319  -4.246  1.00 20.00    -0.043 Cl
ENDBRANCH   2  10
TORSDOF 1
ENDMDL
MODEL 6
REMARK VINA RESULT:      -4.6     15.751     17.031
REMARK  1 active torsions:
REMARK  status: ('A' for Active; 'I' for Inactive)
REMARK    1  A    between atoms: C1_1  and  C3_3 
ROOT
HETATM    1  C2  UNL     1     -22.730  19.246   9.353  1.00 20.00     0.110 C 
HETATM    2  C3  UNL     1     -24.103  18.667   8.908  1.00 20.00     0.110 C 
HETATM    3  C4  UNL     1     -22.532  18.023  10.269  1.00 20.00     0.310 C 
HETATM    4  C5  UNL     1     -23.592  17.277   9.419  1.00 20.00     0.323 C 
HETATM    5  C6  UNL     1     -25.281  19.217   9.715  1.00 20.00     0.031 C 
HETATM    6  F8  UNL     1     -22.862  18.210  11.567  1.00 20.00    -0.200 F 
HETATM    7  F9  UNL     1     -21.294  17.479  10.257  1.00 20.00    -0.200 F 
HETATM    8  F10 UNL     1     -23.080  16.462   8.467  1.00 20.00    -0.198 F 
HETATM    9  F11 UNL     1     -24.483  16.538  10.119  1.00 20.00    -0.198 F 
ENDROOT
BRANCH   2  10
HETATM   10  C1  UNL     1     -24.395  18.743   7.383  1.00 20.00     0.233 C 
HETATM   11  O7  UNL     1     -23.491  18.750   6.553  1.00 20.00    -0.279 OA
HETATM   12 CL12 UNL     1     -26.098  18.815   7.046  1.00 20.00    -0.043 Cl
ENDBRANCH   2  10
TORSDOF 1
ENDMDL
MODEL 7
REMARK VINA RESULT:      -4.6      1.754      1.962
REMARK  1 active torsions:
REMARK  status: ('A' for Active; 'I' for Inactive)
REMARK    1  A    between atoms: C1_1  and  C3_3 
ROOT
HETATM    1  C2  UNL     1     -34.786  14.317  -3.672  1.00 20.00     0.110 C 
HETATM    2  C3  UNL     1     -35.538  15.072  -4.805  1.00 20.00     0.110 C 
HETATM    3  C4  UNL     1     -34.029  15.616  -3.334  1.00 20.00     0.310 C 
HETATM    4  C5  UNL     1     -35.145  16.399  -4.071  1.00 20.00     0.323 C 
HETATM    5  C6  UNL     1     -34.878  14.917  -6.177  1.00 20.00     0.031 C 
HETATM    6  F8  UNL     1     -32.794  15.725  -3.875  1.00 20.00    -0.200 F 
HETATM    7  F9  UNL     1     -33.902  15.891  -2.016  1.00 20.00    -0.200 F 
HETATM    8  F10 UNL     1     -36.099  16.918  -3.262  1.00 20.00    -0.198 F 
HETATM    9  F11 UNL     1     -34.720  17.411  -4.862  1.00 20.00    -0.198 F 
ENDROOT
BRANCH   2  10
HETATM   10  C1  UNL     1     -37.065  14.792  -4.892  1.00 20.00     0.233 C 
HETATM   11  O7  UNL     1     -37.558  13.764  -4.440  1.00 20.00    -0.279 OA
HETATM   12 CL12 UNL     1     -37.922  16.082  -5.680  1.00 20.00    -0.043 Cl
ENDBRANCH   2  10
TORSDOF 1
ENDMDL
MODEL 8
REMARK VINA RESULT:      -4.5      1.873      2.731
REMARK  1 active torsions:
REMARK  status: ('A' for Active; 'I' for Inactive)
REMARK    1  A    between atoms: C1_1  and  C3_3 
ROOT
HETATM    1  C2  UNL     1     -35.377  14.681  -3.500  1.00 20.00     0.110 C 
HETATM    2  C3  UNL     1     -34.406  15.021  -4.666  1.00 20.00     0.110 C 
HETATM    3  C4  UNL     1     -35.088  16.062  -2.882  1.00 20.00     0.310 C 
HETATM    4  C5  UNL     1     -34.589  16.526  -4.273  1.00 20.00     0.323 C 
HETATM    5  C6  UNL     1     -32.984  14.501  -4.439  1.00 20.00     0.031 C 
HETATM    6  F8  UNL     1     -34.156  16.075  -1.901  1.00 20.00    -0.200 F 
HETATM    7  F9  UNL     1     -36.165  16.725  -2.403  1.00 20.00    -0.200 F 
HETATM    8  F10 UNL     1     -35.503  17.208  -5.003  1.00 20.00    -0.198 F 
HETATM    9  F11 UNL     1     -33.464  17.278  -4.267  1.00 20.00    -0.198 F 
ENDROOT
BRANCH   2  10
HETATM   10  C1  UNL     1     -34.912  14.642  -6.086  1.00 20.00     0.233 C 
HETATM   11  O7  UNL     1     -35.940  13.992  -6.252  1.00 20.00    -0.279 OA
HETATM   12 CL12 UNL     1     -33.864  15.241  -7.336  1.00 20.00    -0.043 Cl
ENDBRANCH   2  10
TORSDOF 1
ENDMDL
MODEL 9
REMARK VINA RESULT:      -4.5      2.879      3.668
REMARK  1 active torsions:
REMARK  status: ('A' for Active; 'I' for Inactive)
REMARK    1  A    between atoms: C1_1  and  C3_3 
ROOT
HETATM    1  C2  UNL     1     -34.975  16.317  -5.256  1.00 20.00     0.110 C 
HETATM    2  C3  UNL     1     -34.762  15.902  -3.773  1.00 20.00     0.110 C 
HETATM    3  C4  UNL     1     -34.768  14.850  -5.678  1.00 20.00     0.310 C 
HETATM    4  C5  UNL     1     -35.091  14.438  -4.220  1.00 20.00     0.323 C 
HETATM    5  C6  UNL     1     -33.318  16.084  -3.297  1.00 20.00     0.031 C 
HETATM    6  F8  UNL     1     -33.521  14.540  -6.102  1.00 20.00    -0.200 F 
HETATM    7  F9  UNL     1     -35.624  14.385  -6.615  1.00 20.00    -0.200 F 
HETATM    8  F10 UNL     1     -36.370  14.043  -4.015  1.00 20.00    -0.198 F 
HETATM    9  F11 UNL     1     -34.302  13.468  -3.701  1.00 20.00    -0.198 F 
ENDROOT
BRANCH   2  10
HETATM   10  C1  UNL     1     -35.760  16.523  -2.757  1.00 20.00     0.233 C 
HETATM   11  O7  UNL     1     -36.852  16.958  -3.110  1.00 20.00    -0.279 OA
HETATM   12 CL12 UNL     1     -35.136  16.512  -1.135  1.00 20.00    -0.043 Cl
ENDBRANCH   2  10
TORSDOF 1
ENDMDL
