MODEL 1
REMARK VINA RESULT:      -3.6      0.000      0.000
REMARK  1 active torsions:
REMARK  status: ('A' for Active; 'I' for Inactive)
REMARK    1  A    between atoms: C1_1  and  C5_5 
ROOT
HETATM    1  C2  UNL     1     -34.107   6.537   5.831  1.00 20.00     0.040 C 
HETATM    2  C3  UNL     1     -34.114   5.042   6.071  1.00 20.00     0.168 C 
HETATM    3  C4  UNL     1     -35.272   5.443   4.085  1.00 20.00     0.179 C 
HETATM    4  C5  UNL     1     -34.397   6.646   4.358  1.00 20.00     0.073 C 
HETATM    5  O7  UNL     1     -34.997   4.467   5.102  1.00 20.00    -0.390 OA
ENDROOT
BRANCH   4   6
HETATM    6  C1  UNL     1     -33.098   6.523   3.579  1.00 20.00     0.237 C 
HETATM    7  O6  UNL     1     -32.967   5.805   2.592  1.00 20.00    -0.306 OA
ENDBRANCH   4   6
TORSDOF 1
ENDMDL
MODEL 2
REMARK VINA RESULT:      -3.5     11.906     12.933
REMARK  1 active torsions:
REMARK  status: ('A' for Active; 'I' for Inactive)
REMARK    1  A    between atoms: C1_1  and  C5_5 
ROOT
HETATM    1  C2  UNL     1     -34.736  15.539  -2.940  1.00 20.00     0.040 C 
HETATM    2  C3  UNL     1     -34.887  16.682  -3.922  1.00 20.00     0.168 C 
HETATM    3  C4  UNL     1     -33.743  14.964  -5.011  1.00 20.00     0.179 C 
HETATM    4  C5  UNL     1     -34.473  14.356  -3.835  1.00 20.00     0.073 C 
HETATM    5  O7  UNL     1     -34.097  16.354  -5.071  1.00 20.00    -0.390 OA
ENDROOT
BRANCH   4   6
HETATM    6  C1  UNL     1     -35.797  13.772  -4.298  1.00 20.00     0.237 C 
HETATM    7  O6  UNL     1     -35.946  12.593  -4.606  1.00 20.00    -0.306 OA
ENDBRANCH   4   6
TORSDOF 1
ENDMDL
MODEL 3
REMARK VINA RESULT:      -3.4      1.450      2.520
REMARK  1 active torsions:
REMARK  status: ('A' for Active; 'I' for Inactive)
REMARK    1  A    between atoms: C1_1  and  C5_5 
ROOT
HETATM    1  C2  UNL     1     -35.168   5.321   4.163  1.00 20.00     0.040 C 
HETATM    2  C3  UNL     1     -34.226   4.170   3.875  1.00 20.00     0.168 C 
HETATM    3  C4  UNL     1     -33.295   6.095   2.940  1.00 20.00     0.179 C 
HETATM    4  C5  UNL     1     -34.287   6.531   3.995  1.00 20.00     0.073 C 
HETATM    5  O7  UNL     1     -33.231   4.660   2.970  1.00 20.00    -0.390 OA
ENDROOT
BRANCH   4   6
HETATM    6  C1  UNL     1     -33.561   6.809   5.299  1.00 20.00     0.237 C 
HETATM    7  O6  UNL     1     -34.104   6.768   6.399  1.00 20.00    -0.306 OA
ENDBRANCH   4   6
TORSDOF 1
ENDMDL
MODEL 4
REMARK VINA RESULT:      -3.4     16.804     17.484
REMARK  1 active torsions:
REMARK  status: ('A' for Active; 'I' for Inactive)
REMARK    1  A    between atoms: C1_1  and  C5_5 
ROOT
HETATM    1  C2  UNL     1     -24.171  16.719  10.397  1.00 20.00     0.040 C 
HETATM    2  C3  UNL     1     -24.762  17.548  11.518  1.00 20.00     0.168 C 
HETATM    3  C4  UNL     1     -22.442  17.781  11.616  1.00 20.00     0.179 C 
HETATM    4  C5  UNL     1     -22.798  17.313  10.222  1.00 20.00     0.073 C 
HETATM    5  O7  UNL     1     -23.670  17.994  12.330  1.00 20.00    -0.390 OA
ENDROOT
BRANCH   4   6
HETATM    6  C1  UNL     1     -22.882  18.506   9.285  1.00 20.00     0.237 C 
HETATM    7  O6  UNL     1     -21.919  19.212   9.003  1.00 20.00    -0.306 OA
ENDBRANCH   4   6
TORSDOF 1
ENDMDL
MODEL 5
REMARK VINA RESULT:      -3.4     12.045     13.197
REMARK  1 active torsions:
REMARK  status: ('A' for Active; 'I' for Inactive)
REMARK    1  A    between atoms: C1_1  and  C5_5 
ROOT
HETATM    1  C2  UNL     1     -35.347  15.783  -5.524  1.00 20.00     0.040 C 
HETATM    2  C3  UNL     1     -34.326  15.131  -6.432  1.00 20.00     0.168 C 
HETATM    3  C4  UNL     1     -33.876  14.435  -4.250  1.00 20.00     0.179 C 
HETATM    4  C5  UNL     1     -35.309  14.917  -4.293  1.00 20.00     0.073 C 
HETATM    5  O7  UNL     1     -33.356  14.502  -5.587  1.00 20.00    -0.390 OA
ENDROOT
BRANCH   4   6
HETATM    6  C1  UNL     1     -36.244  13.734  -4.481  1.00 20.00     0.237 C 
HETATM    7  O6  UNL     1     -35.866  12.566  -4.475  1.00 20.00    -0.306 OA
ENDBRANCH   4   6
TORSDOF 1
ENDMDL
MODEL 6
REMARK VINA RESULT:      -3.4      1.322      1.966
REMARK  1 active torsions:
REMARK  status: ('A' for Active; 'I' for Inactive)
REMARK    1  A    between atoms: C1_1  and  C5_5 
ROOT
HETATM    1  C2  UNL     1     -34.503   6.684   4.068  1.00 20.00     0.040 C 
HETATM    2  C3  UNL     1     -33.500   6.930   5.176  1.00 20.00     0.168 C 
HETATM    3  C4  UNL     1     -34.919   5.214   5.877  1.00 20.00     0.179 C 
HETATM    4  C5  UNL     1     -35.009   5.298   4.369  1.00 20.00     0.073 C 
HETATM    5  O7  UNL     1     -33.927   6.161   6.305  1.00 20.00    -0.390 OA
ENDROOT
BRANCH   4   6
HETATM    6  C1  UNL     1     -34.078   4.275   3.741  1.00 20.00     0.237 C 
HETATM    7  O6  UNL     1     -33.409   4.496   2.737  1.00 20.00    -0.306 OA
ENDBRANCH   4   6
TORSDOF 1
ENDMDL
MODEL 7
REMARK VINA RESULT:      -3.4      8.605      9.316
REMARK  1 active torsions:
REMARK  status: ('A' for Active; 'I' for Inactive)
REMARK    1  A    between atoms: C1_1  and  C5_5 
ROOT
HETATM    1  C2  UNL     1     -42.260   6.831   0.662  1.00 20.00     0.040 C 
HETATM    2  C3  UNL     1     -41.066   6.126   0.052  1.00 20.00     0.168 C 
HETATM    3  C4  UNL     1     -41.793   7.734  -1.476  1.00 20.00     0.179 C 
HETATM    4  C5  UNL     1     -42.327   8.120  -0.115  1.00 20.00     0.073 C 
HETATM    5  O7  UNL     1     -40.965   6.573  -1.305  1.00 20.00    -0.390 OA
ENDROOT
BRANCH   4   6
HETATM    6  C1  UNL     1     -41.405   9.143   0.527  1.00 20.00     0.237 C 
HETATM    7  O6  UNL     1     -41.487  10.350   0.322  1.00 20.00    -0.306 OA
ENDBRANCH   4   6
TORSDOF 1
ENDMDL
MODEL 8
REMARK VINA RESULT:      -3.4     16.468     17.167
REMARK  1 active torsions:
REMARK  status: ('A' for Active; 'I' for Inactive)
REMARK    1  A    between atoms: C1_1  and  C5_5 
ROOT
HETATM    1  C2  UNL     1     -22.786  17.753  10.528  1.00 20.00     0.040 C 
HETATM    2  C3  UNL     1     -24.241  17.403  10.295  1.00 20.00     0.168 C 
HETATM    3  C4  UNL     1     -23.707  19.179   8.879  1.00 20.00     0.179 C 
HETATM    4  C5  UNL     1     -22.413  18.506   9.278  1.00 20.00     0.073 C 
HETATM    5  O7  UNL     1     -24.785  18.420   9.447  1.00 20.00    -0.390 OA
ENDROOT
BRANCH   4   6
HETATM    6  C1  UNL     1     -21.994  17.518   8.202  1.00 20.00     0.237 C 
HETATM    7  O6  UNL     1     -22.052  17.762   7.001  1.00 20.00    -0.306 OA
ENDBRANCH   4   6
TORSDOF 1
ENDMDL
MODEL 9
REMARK VINA RESULT:      -3.3     12.065     12.874
REMARK  1 active torsions:
REMARK  status: ('A' for Active; 'I' for Inactive)
REMARK    1  A    between atoms: C1_1  and  C5_5 
ROOT
HETATM    1  C2  UNL     1     -33.839  14.712  -4.111  1.00 20.00     0.040 C 
HETATM    2  C3  UNL     1     -34.221  15.618  -2.959  1.00 20.00     0.168 C 
HETATM    3  C4  UNL     1     -35.568  16.185  -4.779  1.00 20.00     0.179 C 
HETATM    4  C5  UNL     1     -35.041  14.787  -5.015  1.00 20.00     0.073 C 
HETATM    5  O7  UNL     1     -35.116  16.606  -3.482  1.00 20.00    -0.390 OA
ENDROOT
BRANCH   4   6
HETATM    6  C1  UNL     1     -36.073  13.766  -4.566  1.00 20.00     0.237 C 
HETATM    7  O6  UNL     1     -35.837  12.567  -4.463  1.00 20.00    -0.306 OA
ENDBRANCH   4   6
TORSDOF 1
ENDMDL
