MODEL 1
REMARK VINA RESULT:      -4.7      0.000      0.000
REMARK  5 active torsions:
REMARK  status: ('A' for Active; 'I' for Inactive)
REMARK    1  A    between atoms: C3_3  and  C7_7 
REMARK    2  A    between atoms: C4_4  and  C8_8 
REMARK    3  A    between atoms: C7_7  and  C9_9 
REMARK    4  A    between atoms: C8_8  and  C10_10 
REMARK    5  A    between atoms: C9_9  and  C10_10 
ROOT
HETATM    1  C9  UNL     1     -33.653   4.968   2.381  1.00 20.00     0.004 C 
ENDROOT
BRANCH   1   2
HETATM    2  C7  UNL     1     -32.472   5.928   2.537  1.00 20.00     0.026 C 
BRANCH   2   3
HETATM    3  C3  UNL     1     -32.856   7.330   2.163  1.00 20.00    -0.031 C 
HETATM    4  C1  UNL     1     -32.504   7.917   1.010  1.00 20.00    -0.035 C 
HETATM    5  C5  UNL     1     -32.880   9.313   0.640  1.00 20.00     0.035 C 
ENDBRANCH   2   3
ENDBRANCH   1   2
BRANCH   1   6
HETATM    6  C10 UNL     1     -33.898   4.176   3.669  1.00 20.00     0.004 C 
BRANCH   6   7
HETATM    7  C8  UNL     1     -35.130   4.695   4.412  1.00 20.00     0.026 C 
BRANCH   7   8
HETATM    8  C4  UNL     1     -34.741   5.565   5.572  1.00 20.00    -0.031 C 
HETATM    9  C2  UNL     1     -34.050   6.707   5.448  1.00 20.00    -0.035 C 
HETATM   10  C6  UNL     1     -33.667   7.577   6.600  1.00 20.00     0.035 C 
ENDBRANCH   7   8
ENDBRANCH   6   7
ENDBRANCH   1   6
TORSDOF 5
ENDMDL
MODEL 2
REMARK VINA RESULT:      -4.7      0.033      4.359
REMARK  5 active torsions:
REMARK  status: ('A' for Active; 'I' for Inactive)
REMARK    1  A    between atoms: C3_3  and  C7_7 
REMARK    2  A    between atoms: C4_4  and  C8_8 
REMARK    3  A    between atoms: C7_7  and  C9_9 
REMARK    4  A    between atoms: C8_8  and  C10_10 
REMARK    5  A    between atoms: C9_9  and  C10_10 
ROOT
HETATM    1  C9  UNL     1     -33.920   4.160   3.674  1.00 20.00     0.004 C 
ENDROOT
BRANCH   1   2
HETATM    2  C7  UNL     1     -35.146   4.725   4.393  1.00 20.00     0.026 C 
BRANCH   2   3
HETATM    3  C3  UNL     1     -34.747   5.580   5.560  1.00 20.00    -0.031 C 
HETATM    4  C1  UNL     1     -34.065   6.728   5.446  1.00 20.00    -0.035 C 
HETATM    5  C5  UNL     1     -33.663   7.575   6.608  1.00 20.00     0.035 C 
ENDBRANCH   2   3
ENDBRANCH   1   2
BRANCH   1   6
HETATM    6  C10 UNL     1     -33.636   4.924   2.377  1.00 20.00     0.004 C 
BRANCH   6   7
HETATM    7  C8  UNL     1     -32.472   5.901   2.553  1.00 20.00     0.026 C 
BRANCH   7   8
HETATM    8  C4  UNL     1     -32.869   7.297   2.172  1.00 20.00    -0.031 C 
HETATM    9  C2  UNL     1     -32.500   7.892   1.029  1.00 20.00    -0.035 C 
HETATM   10  C6  UNL     1     -32.899   9.279   0.646  1.00 20.00     0.035 C 
ENDBRANCH   7   8
ENDBRANCH   6   7
ENDBRANCH   1   6
TORSDOF 5
ENDMDL
MODEL 3
REMARK VINA RESULT:      -4.3     15.208     16.889
REMARK  5 active torsions:
REMARK  status: ('A' for Active; 'I' for Inactive)
REMARK    1  A    between atoms: C3_3  and  C7_7 
REMARK    2  A    between atoms: C4_4  and  C8_8 
REMARK    3  A    between atoms: C7_7  and  C9_9 
REMARK    4  A    between atoms: C8_8  and  C10_10 
REMARK    5  A    between atoms: C9_9  and  C10_10 
ROOT
HETATM    1  C9  UNL     1     -23.495  16.744  10.540  1.00 20.00     0.004 C 
ENDROOT
BRANCH   1   2
HETATM    2  C7  UNL     1     -23.356  17.319  11.951  1.00 20.00     0.026 C 
BRANCH   2   3
HETATM    3  C3  UNL     1     -24.562  18.126  12.332  1.00 20.00    -0.031 C 
HETATM    4  C1  UNL     1     -25.610  18.331  11.521  1.00 20.00    -0.035 C 
HETATM    5  C5  UNL     1     -26.808  19.139  11.897  1.00 20.00     0.035 C 
ENDBRANCH   2   3
ENDBRANCH   1   2
BRANCH   1   6
HETATM    6  C10 UNL     1     -22.442  17.330   9.595  1.00 20.00     0.004 C 
BRANCH   6   7
HETATM    7  C8  UNL     1     -22.862  18.711   9.087  1.00 20.00     0.026 C 
BRANCH   7   8
HETATM    8  C4  UNL     1     -23.838  18.601   7.952  1.00 20.00    -0.031 C 
HETATM    9  C2  UNL     1     -25.110  19.021   8.018  1.00 20.00    -0.035 C 
HETATM   10  C6  UNL     1     -26.079  18.917   6.888  1.00 20.00     0.035 C 
ENDBRANCH   7   8
ENDBRANCH   6   7
ENDBRANCH   1   6
TORSDOF 5
ENDMDL
MODEL 4
REMARK VINA RESULT:      -4.2     11.236     12.504
REMARK  5 active torsions:
REMARK  status: ('A' for Active; 'I' for Inactive)
REMARK    1  A    between atoms: C3_3  and  C7_7 
REMARK    2  A    between atoms: C4_4  and  C8_8 
REMARK    3  A    between atoms: C7_7  and  C9_9 
REMARK    4  A    between atoms: C8_8  and  C10_10 
REMARK    5  A    between atoms: C9_9  and  C10_10 
ROOT
HETATM    1  C9  UNL     1     -33.663  17.821  -1.134  1.00 20.00     0.004 C 
ENDROOT
BRANCH   1   2
HETATM    2  C7  UNL     1     -32.196  17.997  -1.530  1.00 20.00     0.026 C 
BRANCH   2   3
HETATM    3  C3  UNL     1     -31.444  18.788  -0.500  1.00 20.00    -0.031 C 
HETATM    4  C1  UNL     1     -30.892  18.250   0.597  1.00 20.00    -0.035 C 
HETATM    5  C5  UNL     1     -30.150  19.038   1.625  1.00 20.00     0.035 C 
ENDBRANCH   2   3
ENDBRANCH   1   2
BRANCH   1   6
HETATM    6  C10 UNL     1     -34.309  16.662  -1.899  1.00 20.00     0.004 C 
BRANCH   6   7
HETATM    7  C8  UNL     1     -33.387  16.147  -3.007  1.00 20.00     0.026 C 
BRANCH   7   8
HETATM    8  C4  UNL     1     -34.092  15.156  -3.886  1.00 20.00    -0.031 C 
HETATM    9  C2  UNL     1     -35.306  14.653  -3.620  1.00 20.00    -0.035 C 
HETATM   10  C6  UNL     1     -36.011  13.672  -4.497  1.00 20.00     0.035 C 
ENDBRANCH   7   8
ENDBRANCH   6   7
ENDBRANCH   1   6
TORSDOF 5
ENDMDL
MODEL 5
REMARK VINA RESULT:      -4.2     11.277     12.273
REMARK  5 active torsions:
REMARK  status: ('A' for Active; 'I' for Inactive)
REMARK    1  A    between atoms: C3_3  and  C7_7 
REMARK    2  A    between atoms: C4_4  and  C8_8 
REMARK    3  A    between atoms: C7_7  and  C9_9 
REMARK    4  A    between atoms: C8_8  and  C10_10 
REMARK    5  A    between atoms: C9_9  and  C10_10 
ROOT
HETATM    1  C9  UNL     1     -34.336  16.663  -1.868  1.00 20.00     0.004 C 
ENDROOT
BRANCH   1   2
HETATM    2  C7  UNL     1     -33.445  16.158  -3.004  1.00 20.00     0.026 C 
BRANCH   2   3
HETATM    3  C3  UNL     1     -34.097  15.029  -3.748  1.00 20.00    -0.031 C 
HETATM    4  C1  UNL     1     -35.419  14.801  -3.749  1.00 20.00    -0.035 C 
HETATM    5  C5  UNL     1     -36.067  13.676  -4.484  1.00 20.00     0.035 C 
ENDBRANCH   2   3
ENDBRANCH   1   2
BRANCH   1   6
HETATM    6  C10 UNL     1     -33.648  17.780  -1.078  1.00 20.00     0.004 C 
BRANCH   6   7
HETATM    7  C8  UNL     1     -32.223  18.018  -1.581  1.00 20.00     0.026 C 
BRANCH   7   8
HETATM    8  C4  UNL     1     -31.403  18.760  -0.567  1.00 20.00    -0.031 C 
HETATM    9  C2  UNL     1     -31.022  18.241   0.609  1.00 20.00    -0.035 C 
HETATM   10  C6  UNL     1     -30.202  18.977   1.617  1.00 20.00     0.035 C 
ENDBRANCH   7   8
ENDBRANCH   6   7
ENDBRANCH   1   6
TORSDOF 5
ENDMDL
MODEL 6
REMARK VINA RESULT:      -4.2     10.904     12.130
REMARK  5 active torsions:
REMARK  status: ('A' for Active; 'I' for Inactive)
REMARK    1  A    between atoms: C3_3  and  C7_7 
REMARK    2  A    between atoms: C4_4  and  C8_8 
REMARK    3  A    between atoms: C7_7  and  C9_9 
REMARK    4  A    between atoms: C8_8  and  C10_10 
REMARK    5  A    between atoms: C9_9  and  C10_10 
ROOT
HETATM    1  C9  UNL     1     -32.893  17.615  -1.774  1.00 20.00     0.004 C 
ENDROOT
BRANCH   1   2
HETATM    2  C7  UNL     1     -34.331  17.275  -1.379  1.00 20.00     0.026 C 
BRANCH   2   3
HETATM    3  C3  UNL     1     -34.828  16.067  -2.118  1.00 20.00    -0.031 C 
HETATM    4  C1  UNL     1     -34.171  15.492  -3.136  1.00 20.00    -0.035 C 
HETATM    5  C5  UNL     1     -34.668  14.294  -3.875  1.00 20.00     0.035 C 
ENDBRANCH   2   3
ENDBRANCH   1   2
BRANCH   1   6
HETATM    6  C10 UNL     1     -32.342  18.766  -0.928  1.00 20.00     0.004 C 
BRANCH   6   7
HETATM    7  C8  UNL     1     -31.017  18.382  -0.266  1.00 20.00     0.026 C 
BRANCH   7   8
HETATM    8  C4  UNL     1     -31.186  18.168   1.209  1.00 20.00    -0.031 C 
HETATM    9  C2  UNL     1     -32.370  18.210   1.838  1.00 20.00    -0.035 C 
HETATM   10  C6  UNL     1     -32.541  17.991   3.305  1.00 20.00     0.035 C 
ENDBRANCH   7   8
ENDBRANCH   6   7
ENDBRANCH   1   6
TORSDOF 5
ENDMDL
MODEL 7
REMARK VINA RESULT:      -4.1     10.901     12.489
REMARK  5 active torsions:
REMARK  status: ('A' for Active; 'I' for Inactive)
REMARK    1  A    between atoms: C3_3  and  C7_7 
REMARK    2  A    between atoms: C4_4  and  C8_8 
REMARK    3  A    between atoms: C7_7  and  C9_9 
REMARK    4  A    between atoms: C8_8  and  C10_10 
REMARK    5  A    between atoms: C9_9  and  C10_10 
ROOT
HETATM    1  C9  UNL     1     -32.316  18.775  -0.872  1.00 20.00     0.004 C 
ENDROOT
BRANCH   1   2
HETATM    2  C7  UNL     1     -31.021  18.246  -0.252  1.00 20.00     0.026 C 
BRANCH   2   3
HETATM    3  C3  UNL     1     -31.136  18.139   1.241  1.00 20.00    -0.031 C 
HETATM    4  C1  UNL     1     -32.303  18.081   1.897  1.00 20.00    -0.035 C 
HETATM    5  C5  UNL     1     -32.417  17.981   3.382  1.00 20.00     0.035 C 
ENDBRANCH   2   3
ENDBRANCH   1   2
BRANCH   1   6
HETATM    6  C10 UNL     1     -32.919  17.761  -1.849  1.00 20.00     0.004 C 
BRANCH   6   7
HETATM    7  C8  UNL     1     -34.311  17.317  -1.396  1.00 20.00     0.026 C 
BRANCH   7   8
HETATM    8  C4  UNL     1     -34.735  16.057  -2.092  1.00 20.00    -0.031 C 
HETATM    9  C2  UNL     1     -34.129  15.569  -3.185  1.00 20.00    -0.035 C 
HETATM   10  C6  UNL     1     -34.546  14.312  -3.875  1.00 20.00     0.035 C 
ENDBRANCH   7   8
ENDBRANCH   6   7
ENDBRANCH   1   6
TORSDOF 5
ENDMDL
MODEL 8
REMARK VINA RESULT:      -4.1     15.064     16.580
REMARK  5 active torsions:
REMARK  status: ('A' for Active; 'I' for Inactive)
REMARK    1  A    between atoms: C3_3  and  C7_7 
REMARK    2  A    between atoms: C4_4  and  C8_8 
REMARK    3  A    between atoms: C7_7  and  C9_9 
REMARK    4  A    between atoms: C8_8  and  C10_10 
REMARK    5  A    between atoms: C9_9  and  C10_10 
ROOT
HETATM    1  C9  UNL     1     -22.717  17.491   9.679  1.00 20.00     0.004 C 
ENDROOT
BRANCH   1   2
HETATM    2  C7  UNL     1     -22.979  18.838   9.003  1.00 20.00     0.026 C 
BRANCH   2   3
HETATM    3  C3  UNL     1     -23.952  18.699   7.869  1.00 20.00    -0.031 C 
HETATM    4  C1  UNL     1     -25.257  18.989   7.966  1.00 20.00    -0.035 C 
HETATM    5  C5  UNL     1     -26.227  18.844   6.840  1.00 20.00     0.035 C 
ENDBRANCH   2   3
ENDBRANCH   1   2
BRANCH   1   6
HETATM    6  C10 UNL     1     -22.346  17.673  11.153  1.00 20.00     0.004 C 
BRANCH   6   7
HETATM    7  C8  UNL     1     -23.450  17.147  12.072  1.00 20.00     0.026 C 
BRANCH   7   8
HETATM    8  C4  UNL     1     -24.522  18.176  12.282  1.00 20.00    -0.031 C 
HETATM    9  C2  UNL     1     -25.646  18.242  11.554  1.00 20.00    -0.035 C 
HETATM   10  C6  UNL     1     -26.716  19.261  11.766  1.00 20.00     0.035 C 
ENDBRANCH   7   8
ENDBRANCH   6   7
ENDBRANCH   1   6
TORSDOF 5
ENDMDL
MODEL 9
REMARK VINA RESULT:      -4.0     14.878     16.215
REMARK  5 active torsions:
REMARK  status: ('A' for Active; 'I' for Inactive)
REMARK    1  A    between atoms: C3_3  and  C7_7 
REMARK    2  A    between atoms: C4_4  and  C8_8 
REMARK    3  A    between atoms: C7_7  and  C9_9 
REMARK    4  A    between atoms: C8_8  and  C10_10 
REMARK    5  A    between atoms: C9_9  and  C10_10 
ROOT
HETATM    1  C9  UNL     1     -24.658  18.529   7.964  1.00 20.00     0.004 C 
ENDROOT
BRANCH   1   2
HETATM    2  C7  UNL     1     -23.699  19.049   9.036  1.00 20.00     0.026 C 
BRANCH   2   3
HETATM    3  C3  UNL     1     -23.765  18.211  10.279  1.00 20.00    -0.031 C 
HETATM    4  C1  UNL     1     -24.276  16.972  10.318  1.00 20.00    -0.035 C 
HETATM    5  C5  UNL     1     -24.347  16.140  11.555  1.00 20.00     0.035 C 
ENDBRANCH   2   3
ENDBRANCH   1   2
BRANCH   1   6
HETATM    6  C10 UNL     1     -26.012  19.241   8.038  1.00 20.00     0.004 C 
BRANCH   6   7
HETATM    7  C8  UNL     1     -26.706  19.253   6.675  1.00 20.00     0.026 C 
BRANCH   7   8
HETATM    8  C4  UNL     1     -25.708  19.261   5.554  1.00 20.00    -0.031 C 
HETATM    9  C2  UNL     1     -26.021  19.011   4.274  1.00 20.00    -0.035 C 
HETATM   10  C6  UNL     1     -25.030  19.025   3.158  1.00 20.00     0.035 C 
ENDBRANCH   7   8
ENDBRANCH   6   7
ENDBRANCH   1   6
TORSDOF 5
ENDMDL
