MODEL 1
REMARK VINA RESULT:      -5.4      0.000      0.000
REMARK  1 active torsions:
REMARK  status: ('A' for Active; 'I' for Inactive)
REMARK    1  A    between atoms: C1_1  and  C6_6 
ROOT
HETATM    1  C2  UNL     1     -33.550  16.254  -2.615  1.00 20.00     0.005 C 
HETATM    2  C3  UNL     1     -34.966  16.050  -2.050  1.00 20.00     0.006 C 
HETATM    3  C4  UNL     1     -34.003  14.578  -4.426  1.00 20.00     0.020 C 
HETATM    4  C5  UNL     1     -35.140  16.666  -4.336  1.00 20.00     0.010 C 
HETATM    5  C6  UNL     1     -35.395  14.337  -3.816  1.00 20.00     0.091 C 
HETATM    6  C7  UNL     1     -33.752  16.068  -4.130  1.00 20.00    -0.013 C 
HETATM    7  C8  UNL     1     -35.796  15.738  -3.308  1.00 20.00     0.000 C 
ENDROOT
BRANCH   5   8
HETATM    8  C1  UNL     1     -36.391  13.867  -4.858  1.00 20.00     0.177 C 
HETATM    9  O9  UNL     1     -35.929  13.740  -6.026  1.00 20.00    -0.648 OA
HETATM   10  O10 UNL     1     -37.558  13.664  -4.422  1.00 20.00    -0.648 OA
ENDBRANCH   5   8
TORSDOF 1
ENDMDL
MODEL 2
REMARK VINA RESULT:      -5.1      1.061      1.921
REMARK  1 active torsions:
REMARK  status: ('A' for Active; 'I' for Inactive)
REMARK    1  A    between atoms: C1_1  and  C6_6 
ROOT
HETATM    1  C2  UNL     1     -33.908  17.181  -3.743  1.00 20.00     0.005 C 
HETATM    2  C3  UNL     1     -33.211  15.810  -3.763  1.00 20.00     0.006 C 
HETATM    3  C4  UNL     1     -36.032  16.142  -4.583  1.00 20.00     0.020 C 
HETATM    4  C5  UNL     1     -35.163  15.651  -2.422  1.00 20.00     0.010 C 
HETATM    5  C6  UNL     1     -35.306  14.787  -4.657  1.00 20.00     0.091 C 
HETATM    6  C7  UNL     1     -35.361  16.825  -3.377  1.00 20.00    -0.013 C 
HETATM    7  C8  UNL     1     -34.358  14.837  -3.440  1.00 20.00     0.000 C 
ENDROOT
BRANCH   5   8
HETATM    8  C1  UNL     1     -36.270  13.626  -4.507  1.00 20.00     0.177 C 
HETATM    9  O9  UNL     1     -37.494  13.937  -4.504  1.00 20.00    -0.648 OA
HETATM   10  O10 UNL     1     -35.722  12.493  -4.402  1.00 20.00    -0.648 OA
ENDBRANCH   5   8
TORSDOF 1
ENDMDL
MODEL 3
REMARK VINA RESULT:      -5.0     17.739     18.744
REMARK  1 active torsions:
REMARK  status: ('A' for Active; 'I' for Inactive)
REMARK    1  A    between atoms: C1_1  and  C6_6 
ROOT
HETATM    1  C2  UNL     1     -24.425  18.288  12.327  1.00 20.00     0.005 C 
HETATM    2  C3  UNL     1     -22.955  17.848  12.233  1.00 20.00     0.006 C 
HETATM    3  C4  UNL     1     -24.509  18.633   9.844  1.00 20.00     0.020 C 
HETATM    4  C5  UNL     1     -24.256  16.470  10.802  1.00 20.00     0.010 C 
HETATM    5  C6  UNL     1     -23.021  18.250   9.770  1.00 20.00     0.091 C 
HETATM    6  C7  UNL     1     -25.028  17.770  11.008  1.00 20.00    -0.013 C 
HETATM    7  C8  UNL     1     -22.890  17.162  10.856  1.00 20.00     0.000 C 
ENDROOT
BRANCH   5   8
HETATM    8  C1  UNL     1     -22.659  17.667   8.417  1.00 20.00     0.177 C 
HETATM    9  O9  UNL     1     -21.878  16.675   8.449  1.00 20.00    -0.648 OA
HETATM   10  O10 UNL     1     -23.186  18.251   7.430  1.00 20.00    -0.648 OA
ENDBRANCH   5   8
TORSDOF 1
ENDMDL
MODEL 4
REMARK VINA RESULT:      -4.7     18.301     19.064
REMARK  1 active torsions:
REMARK  status: ('A' for Active; 'I' for Inactive)
REMARK    1  A    between atoms: C1_1  and  C6_6 
ROOT
HETATM    1  C2  UNL     1     -25.401  16.907  12.128  1.00 20.00     0.005 C 
HETATM    2  C3  UNL     1     -25.083  18.380  11.823  1.00 20.00     0.006 C 
HETATM    3  C4  UNL     1     -24.007  16.174  10.175  1.00 20.00     0.020 C 
HETATM    4  C5  UNL     1     -23.040  17.201  12.092  1.00 20.00     0.010 C 
HETATM    5  C6  UNL     1     -23.746  17.653   9.843  1.00 20.00     0.091 C 
HETATM    6  C7  UNL     1     -24.109  16.180  11.712  1.00 20.00    -0.013 C 
HETATM    7  C8  UNL     1     -23.662  18.310  11.237  1.00 20.00     0.000 C 
ENDROOT
BRANCH   5   8
HETATM    8  C1  UNL     1     -22.432  17.840   9.110  1.00 20.00     0.177 C 
HETATM    9  O9  UNL     1     -22.017  19.031   9.042  1.00 20.00    -0.648 OA
HETATM   10  O10 UNL     1     -21.920  16.777   8.659  1.00 20.00    -0.648 OA
ENDBRANCH   5   8
TORSDOF 1
ENDMDL
MODEL 5
REMARK VINA RESULT:      -4.7      1.062      1.792
REMARK  1 active torsions:
REMARK  status: ('A' for Active; 'I' for Inactive)
REMARK    1  A    between atoms: C1_1  and  C6_6 
ROOT
HETATM    1  C2  UNL     1     -34.146  17.165  -3.081  1.00 20.00     0.005 C 
HETATM    2  C3  UNL     1     -34.281  17.282  -4.608  1.00 20.00     0.006 C 
HETATM    3  C4  UNL     1     -35.517  15.063  -3.094  1.00 20.00     0.020 C 
HETATM    4  C5  UNL     1     -33.355  15.159  -4.086  1.00 20.00     0.010 C 
HETATM    5  C6  UNL     1     -35.696  15.224  -4.614  1.00 20.00     0.091 C 
HETATM    6  C7  UNL     1     -34.111  15.643  -2.852  1.00 20.00    -0.013 C 
HETATM    7  C8  UNL     1     -34.341  15.812  -5.061  1.00 20.00     0.000 C 
ENDROOT
BRANCH   5   8
HETATM    8  C1  UNL     1     -35.924  13.889  -5.296  1.00 20.00     0.177 C 
HETATM    9  O9  UNL     1     -35.995  13.932  -6.556  1.00 20.00    -0.648 OA
HETATM   10  O10 UNL     1     -36.015  12.902  -4.513  1.00 20.00    -0.648 OA
ENDBRANCH   5   8
TORSDOF 1
ENDMDL
MODEL 6
REMARK VINA RESULT:      -4.6      1.200      1.434
REMARK  1 active torsions:
REMARK  status: ('A' for Active; 'I' for Inactive)
REMARK    1  A    between atoms: C1_1  and  C6_6 
ROOT
HETATM    1  C2  UNL     1     -33.655  16.908  -3.986  1.00 20.00     0.005 C 
HETATM    2  C3  UNL     1     -35.128  17.254  -4.256  1.00 20.00     0.006 C 
HETATM    3  C4  UNL     1     -34.261  14.501  -3.620  1.00 20.00     0.020 C 
HETATM    4  C5  UNL     1     -34.464  15.536  -5.753  1.00 20.00     0.010 C 
HETATM    5  C6  UNL     1     -35.739  14.871  -3.832  1.00 20.00     0.091 C 
HETATM    6  C7  UNL     1     -33.525  15.482  -4.552  1.00 20.00    -0.013 C 
HETATM    7  C8  UNL     1     -35.668  15.971  -4.912  1.00 20.00     0.000 C 
ENDROOT
BRANCH   5   8
HETATM    8  C1  UNL     1     -36.543  13.695  -4.353  1.00 20.00     0.177 C 
HETATM    9  O9  UNL     1     -35.884  12.636  -4.549  1.00 20.00    -0.648 OA
HETATM   10  O10 UNL     1     -37.772  13.927  -4.524  1.00 20.00    -0.648 OA
ENDBRANCH   5   8
TORSDOF 1
ENDMDL
MODEL 7
REMARK VINA RESULT:      -4.5      1.204      1.428
REMARK  1 active torsions:
REMARK  status: ('A' for Active; 'I' for Inactive)
REMARK    1  A    between atoms: C1_1  and  C6_6 
ROOT
HETATM    1  C2  UNL     1     -33.909  17.296  -1.703  1.00 20.00     0.005 C 
HETATM    2  C3  UNL     1     -35.154  16.418  -1.497  1.00 20.00     0.006 C 
HETATM    3  C4  UNL     1     -33.135  15.806  -3.568  1.00 20.00     0.020 C 
HETATM    4  C5  UNL     1     -35.097  17.140  -3.758  1.00 20.00     0.010 C 
HETATM    5  C6  UNL     1     -34.353  14.902  -3.312  1.00 20.00     0.091 C 
HETATM    6  C7  UNL     1     -33.670  17.208  -3.222  1.00 20.00    -0.013 C 
HETATM    7  C8  UNL     1     -35.454  15.909  -2.919  1.00 20.00     0.000 C 
ENDROOT
BRANCH   5   8
HETATM    8  C1  UNL     1     -34.769  14.154  -4.564  1.00 20.00     0.177 C 
HETATM    9  O9  UNL     1     -34.105  14.429  -5.603  1.00 20.00    -0.648 OA
HETATM   10  O10 UNL     1     -35.730  13.351  -4.407  1.00 20.00    -0.648 OA
ENDBRANCH   5   8
TORSDOF 1
ENDMDL
MODEL 8
REMARK VINA RESULT:      -4.5      1.502      2.648
REMARK  1 active torsions:
REMARK  status: ('A' for Active; 'I' for Inactive)
REMARK    1  A    between atoms: C1_1  and  C6_6 
ROOT
HETATM    1  C2  UNL     1     -34.588  16.012  -2.510  1.00 20.00     0.005 C 
HETATM    2  C3  UNL     1     -33.281  15.946  -3.317  1.00 20.00     0.006 C 
HETATM    3  C4  UNL     1     -35.931  15.815  -4.620  1.00 20.00     0.020 C 
HETATM    4  C5  UNL     1     -34.582  14.025  -3.819  1.00 20.00     0.010 C 
HETATM    5  C6  UNL     1     -34.618  15.811  -5.421  1.00 20.00     0.091 C 
HETATM    6  C7  UNL     1     -35.537  15.103  -3.313  1.00 20.00    -0.013 C 
HETATM    7  C8  UNL     1     -33.653  15.035  -4.500  1.00 20.00     0.000 C 
ENDROOT
BRANCH   5   8
HETATM    8  C1  UNL     1     -34.767  15.077  -6.740  1.00 20.00     0.177 C 
HETATM    9  O9  UNL     1     -35.917  14.608  -6.969  1.00 20.00    -0.648 OA
HETATM   10  O10 UNL     1     -33.718  15.027  -7.441  1.00 20.00    -0.648 OA
ENDBRANCH   5   8
TORSDOF 1
ENDMDL
MODEL 9
REMARK VINA RESULT:      -4.4      1.984      2.679
REMARK  1 active torsions:
REMARK  status: ('A' for Active; 'I' for Inactive)
REMARK    1  A    between atoms: C1_1  and  C6_6 
ROOT
HETATM    1  C2  UNL     1     -34.468  16.904  -6.704  1.00 20.00     0.005 C 
HETATM    2  C3  UNL     1     -35.871  17.138  -6.122  1.00 20.00     0.006 C 
HETATM    3  C4  UNL     1     -34.326  14.686  -5.542  1.00 20.00     0.020 C 
HETATM    4  C5  UNL     1     -35.872  15.081  -7.308  1.00 20.00     0.010 C 
HETATM    5  C6  UNL     1     -35.705  14.958  -4.917  1.00 20.00     0.091 C 
HETATM    6  C7  UNL     1     -34.428  15.379  -6.913  1.00 20.00    -0.013 C 
HETATM    7  C8  UNL     1     -36.449  15.714  -6.037  1.00 20.00     0.000 C 
ENDROOT
BRANCH   5   8
HETATM    8  C1  UNL     1     -36.439  13.670  -4.595  1.00 20.00     0.177 C 
HETATM    9  O9  UNL     1     -35.710  12.644  -4.495  1.00 20.00    -0.648 OA
HETATM   10  O10 UNL     1     -37.690  13.791  -4.468  1.00 20.00    -0.648 OA
ENDBRANCH   5   8
TORSDOF 1
ENDMDL
