MODEL 1
REMARK VINA RESULT:      -4.2      0.000      0.000
REMARK  5 active torsions:
REMARK  status: ('A' for Active; 'I' for Inactive)
REMARK    1  A    between atoms: C1_1  and  C8_8 
REMARK    2  A    between atoms: C4_4  and  C6_6 
REMARK    3  A    between atoms: C5_5  and  C7_7 
REMARK    4  A    between atoms: C6_6  and  C8_8 
REMARK    5  A    between atoms: C7_7  and  C8_8 
ROOT
HETATM    1  C8  UNL     1     -34.784  14.553  -3.722  1.00 20.00     0.072 C 
ENDROOT
BRANCH   1   2
HETATM    2  C1  UNL     1     -35.943  13.706  -4.244  1.00 20.00     0.223 C 
HETATM    3  O9  UNL     1     -35.809  12.514  -4.511  1.00 20.00    -0.279 OA
HETATM    4 CL10 UNL     1     -37.421  14.613  -4.403  1.00 20.00    -0.043 Cl
ENDBRANCH   1   2
BRANCH   1   5
HETATM    5  C6  UNL     1     -33.781  14.820  -4.862  1.00 20.00     0.013 C 
BRANCH   5   6
HETATM    6  C4  UNL     1     -34.310  15.708  -5.994  1.00 20.00    -0.004 C 
HETATM    7  C2  UNL     1     -33.925  15.219  -7.382  1.00 20.00     0.005 C 
ENDBRANCH   5   6
ENDBRANCH   1   5
BRANCH   1   8
HETATM    8  C7  UNL     1     -35.324  15.892  -3.177  1.00 20.00     0.013 C 
BRANCH   8   9
HETATM    9  C5  UNL     1     -34.688  16.357  -1.862  1.00 20.00    -0.004 C 
HETATM   10  C3  UNL     1     -33.426  17.184  -2.055  1.00 20.00     0.005 C 
ENDBRANCH   8   9
ENDBRANCH   1   8
TORSDOF 5
ENDMDL
MODEL 2
REMARK VINA RESULT:      -4.1      1.087      3.152
REMARK  5 active torsions:
REMARK  status: ('A' for Active; 'I' for Inactive)
REMARK    1  A    between atoms: C1_1  and  C8_8 
REMARK    2  A    between atoms: C4_4  and  C6_6 
REMARK    3  A    between atoms: C5_5  and  C7_7 
REMARK    4  A    between atoms: C6_6  and  C8_8 
REMARK    5  A    between atoms: C7_7  and  C8_8 
ROOT
HETATM    1  C8  UNL     1     -35.215  14.906  -4.892  1.00 20.00     0.072 C 
ENDROOT
BRANCH   1   2
HETATM    2  C1  UNL     1     -36.210  13.790  -4.580  1.00 20.00     0.223 C 
HETATM    3  O9  UNL     1     -35.867  12.611  -4.523  1.00 20.00    -0.279 OA
HETATM    4 CL10 UNL     1     -37.827  14.382  -4.324  1.00 20.00    -0.043 Cl
ENDBRANCH   1   2
BRANCH   1   5
HETATM    5  C6  UNL     1     -33.934  14.709  -4.056  1.00 20.00     0.013 C 
BRANCH   5   6
HETATM    6  C4  UNL     1     -33.609  15.856  -3.093  1.00 20.00    -0.004 C 
HETATM    7  C2  UNL     1     -34.744  16.189  -2.137  1.00 20.00     0.005 C 
ENDBRANCH   5   6
ENDBRANCH   1   5
BRANCH   1   8
HETATM    8  C7  UNL     1     -34.867  14.885  -6.395  1.00 20.00     0.013 C 
BRANCH   8   9
HETATM    9  C5  UNL     1     -34.428  16.235  -6.975  1.00 20.00    -0.004 C 
HETATM   10  C3  UNL     1     -35.071  17.430  -6.290  1.00 20.00     0.005 C 
ENDBRANCH   8   9
ENDBRANCH   1   8
TORSDOF 5
ENDMDL
MODEL 3
REMARK VINA RESULT:      -4.1      0.865      1.247
REMARK  5 active torsions:
REMARK  status: ('A' for Active; 'I' for Inactive)
REMARK    1  A    between atoms: C1_1  and  C8_8 
REMARK    2  A    between atoms: C4_4  and  C6_6 
REMARK    3  A    between atoms: C5_5  and  C7_7 
REMARK    4  A    between atoms: C6_6  and  C8_8 
REMARK    5  A    between atoms: C7_7  and  C8_8 
ROOT
HETATM    1  C8  UNL     1     -34.803  14.647  -4.912  1.00 20.00     0.072 C 
ENDROOT
BRANCH   1   2
HETATM    2  C1  UNL     1     -35.968  13.739  -4.523  1.00 20.00     0.223 C 
HETATM    3  O9  UNL     1     -35.839  12.520  -4.432  1.00 20.00    -0.279 OA
HETATM    4 CL10 UNL     1     -37.442  14.619  -4.236  1.00 20.00    -0.043 Cl
ENDBRANCH   1   2
BRANCH   1   5
HETATM    5  C6  UNL     1     -35.347  15.980  -5.464  1.00 20.00     0.013 C 
BRANCH   5   6
HETATM    6  C4  UNL     1     -34.801  16.381  -6.839  1.00 20.00    -0.004 C 
HETATM    7  C2  UNL     1     -33.938  15.310  -7.489  1.00 20.00     0.005 C 
ENDBRANCH   5   6
ENDBRANCH   1   5
BRANCH   1   8
HETATM    8  C7  UNL     1     -33.918  14.915  -3.677  1.00 20.00     0.013 C 
BRANCH   8   9
HETATM    9  C5  UNL     1     -34.137  16.276  -3.008  1.00 20.00    -0.004 C 
HETATM   10  C3  UNL     1     -35.044  16.216  -1.789  1.00 20.00     0.005 C 
ENDBRANCH   8   9
ENDBRANCH   1   8
TORSDOF 5
ENDMDL
MODEL 4
REMARK VINA RESULT:      -4.0     17.749     18.549
REMARK  5 active torsions:
REMARK  status: ('A' for Active; 'I' for Inactive)
REMARK    1  A    between atoms: C1_1  and  C8_8 
REMARK    2  A    between atoms: C4_4  and  C6_6 
REMARK    3  A    between atoms: C5_5  and  C7_7 
REMARK    4  A    between atoms: C6_6  and  C8_8 
REMARK    5  A    between atoms: C7_7  and  C8_8 
ROOT
HETATM    1  C8  UNL     1     -24.499  18.255  10.074  1.00 20.00     0.072 C 
ENDROOT
BRANCH   1   2
HETATM    2  C1  UNL     1     -23.715  18.831   8.896  1.00 20.00     0.223 C 
HETATM    3  O9  UNL     1     -22.552  19.209   9.012  1.00 20.00    -0.279 OA
HETATM    4 CL10 UNL     1     -24.648  18.881   7.427  1.00 20.00    -0.043 Cl
ENDBRANCH   1   2
BRANCH   1   5
HETATM    5  C6  UNL     1     -23.575  18.132  11.302  1.00 20.00     0.013 C 
BRANCH   5   6
HETATM    6  C4  UNL     1     -23.381  16.703  11.824  1.00 20.00    -0.004 C 
HETATM    7  C2  UNL     1     -24.514  15.759  11.449  1.00 20.00     0.005 C 
ENDBRANCH   5   6
ENDBRANCH   1   5
BRANCH   1   8
HETATM    8  C7  UNL     1     -25.689  19.179  10.407  1.00 20.00     0.013 C 
BRANCH   8   9
HETATM    9  C5  UNL     1     -26.122  19.170  11.877  1.00 20.00    -0.004 C 
HETATM   10  C3  UNL     1     -27.238  18.182  12.178  1.00 20.00     0.005 C 
ENDBRANCH   8   9
ENDBRANCH   1   8
TORSDOF 5
ENDMDL
MODEL 5
REMARK VINA RESULT:      -3.9     10.922     11.563
REMARK  5 active torsions:
REMARK  status: ('A' for Active; 'I' for Inactive)
REMARK    1  A    between atoms: C1_1  and  C8_8 
REMARK    2  A    between atoms: C4_4  and  C6_6 
REMARK    3  A    between atoms: C5_5  and  C7_7 
REMARK    4  A    between atoms: C6_6  and  C8_8 
REMARK    5  A    between atoms: C7_7  and  C8_8 
ROOT
HETATM    1  C8  UNL     1     -32.779   6.143   3.009  1.00 20.00     0.072 C 
ENDROOT
BRANCH   1   2
HETATM    2  C1  UNL     1     -33.302   4.745   2.682  1.00 20.00     0.223 C 
HETATM    3  O9  UNL     1     -33.001   4.166   1.640  1.00 20.00    -0.279 OA
HETATM    4 CL10 UNL     1     -34.337   4.105   3.927  1.00 20.00    -0.043 Cl
ENDBRANCH   1   2
BRANCH   1   5
HETATM    5  C6  UNL     1     -32.481   6.905   1.702  1.00 20.00     0.013 C 
BRANCH   5   6
HETATM    6  C4  UNL     1     -32.820   8.400   1.734  1.00 20.00    -0.004 C 
HETATM    7  C2  UNL     1     -32.995   9.014   0.353  1.00 20.00     0.005 C 
ENDBRANCH   5   6
ENDBRANCH   1   5
BRANCH   1   8
HETATM    8  C7  UNL     1     -33.833   6.911   3.834  1.00 20.00     0.013 C 
BRANCH   8   9
HETATM    9  C5  UNL     1     -33.447   7.169   5.294  1.00 20.00    -0.004 C 
HETATM   10  C3  UNL     1     -34.333   6.445   6.296  1.00 20.00     0.005 C 
ENDBRANCH   8   9
ENDBRANCH   1   8
TORSDOF 5
ENDMDL
MODEL 6
REMARK VINA RESULT:      -3.8     10.902     11.952
REMARK  5 active torsions:
REMARK  status: ('A' for Active; 'I' for Inactive)
REMARK    1  A    between atoms: C1_1  and  C8_8 
REMARK    2  A    between atoms: C4_4  and  C6_6 
REMARK    3  A    between atoms: C5_5  and  C7_7 
REMARK    4  A    between atoms: C6_6  and  C8_8 
REMARK    5  A    between atoms: C7_7  and  C8_8 
ROOT
HETATM    1  C8  UNL     1     -33.385   6.564   3.027  1.00 20.00     0.072 C 
ENDROOT
BRANCH   1   2
HETATM    2  C1  UNL     1     -33.465   5.055   2.800  1.00 20.00     0.223 C 
HETATM    3  O9  UNL     1     -32.841   4.500   1.899  1.00 20.00    -0.279 OA
HETATM    4 CL10 UNL     1     -34.514   4.258   3.938  1.00 20.00    -0.043 Cl
ENDBRANCH   1   2
BRANCH   1   5
HETATM    5  C6  UNL     1     -32.854   6.848   4.446  1.00 20.00     0.013 C 
BRANCH   5   6
HETATM    6  C4  UNL     1     -33.922   7.263   5.465  1.00 20.00    -0.004 C 
HETATM    7  C2  UNL     1     -34.436   6.109   6.312  1.00 20.00     0.005 C 
ENDBRANCH   5   6
ENDBRANCH   1   5
BRANCH   1   8
HETATM    8  C7  UNL     1     -32.444   7.197   1.980  1.00 20.00     0.013 C 
BRANCH   8   9
HETATM    9  C5  UNL     1     -32.869   8.584   1.485  1.00 20.00    -0.004 C 
HETATM   10  C3  UNL     1     -33.151   8.637  -0.009  1.00 20.00     0.005 C 
ENDBRANCH   8   9
ENDBRANCH   1   8
TORSDOF 5
ENDMDL
MODEL 7
REMARK VINA RESULT:      -3.7      1.762      3.311
REMARK  5 active torsions:
REMARK  status: ('A' for Active; 'I' for Inactive)
REMARK    1  A    between atoms: C1_1  and  C8_8 
REMARK    2  A    between atoms: C4_4  and  C6_6 
REMARK    3  A    between atoms: C5_5  and  C7_7 
REMARK    4  A    between atoms: C6_6  and  C8_8 
REMARK    5  A    between atoms: C7_7  and  C8_8 
ROOT
HETATM    1  C8  UNL     1     -35.784  15.177  -4.028  1.00 20.00     0.072 C 
ENDROOT
BRANCH   1   2
HETATM    2  C1  UNL     1     -35.878  13.976  -4.968  1.00 20.00     0.223 C 
HETATM    3  O9  UNL     1     -36.014  12.830  -4.547  1.00 20.00    -0.279 OA
HETATM    4 CL10 UNL     1     -35.771  14.426  -6.647  1.00 20.00    -0.043 Cl
ENDBRANCH   1   2
BRANCH   1   5
HETATM    5  C6  UNL     1     -34.482  15.093  -3.207  1.00 20.00     0.013 C 
BRANCH   5   6
HETATM    6  C4  UNL     1     -34.152  16.346  -2.388  1.00 20.00    -0.004 C 
HETATM    7  C2  UNL     1     -35.147  16.623  -1.271  1.00 20.00     0.005 C 
ENDBRANCH   5   6
ENDBRANCH   1   5
BRANCH   1   8
HETATM    8  C7  UNL     1     -35.800  16.483  -4.851  1.00 20.00     0.013 C 
BRANCH   8   9
HETATM    9  C5  UNL     1     -37.041  17.359  -4.647  1.00 20.00    -0.004 C 
HETATM   10  C3  UNL     1     -38.064  16.755  -3.697  1.00 20.00     0.005 C 
ENDBRANCH   8   9
ENDBRANCH   1   8
TORSDOF 5
ENDMDL
MODEL 8
REMARK VINA RESULT:      -3.7     16.293     17.846
REMARK  5 active torsions:
REMARK  status: ('A' for Active; 'I' for Inactive)
REMARK    1  A    between atoms: C1_1  and  C8_8 
REMARK    2  A    between atoms: C4_4  and  C6_6 
REMARK    3  A    between atoms: C5_5  and  C7_7 
REMARK    4  A    between atoms: C6_6  and  C8_8 
REMARK    5  A    between atoms: C7_7  and  C8_8 
ROOT
HETATM    1  C8  UNL     1     -24.109  18.235   9.068  1.00 20.00     0.072 C 
ENDROOT
BRANCH   1   2
HETATM    2  C1  UNL     1     -24.704  18.855   7.804  1.00 20.00     0.223 C 
HETATM    3  O9  UNL     1     -24.034  19.031   6.789  1.00 20.00    -0.279 OA
HETATM    4 CL10 UNL     1     -26.387  19.263   7.983  1.00 20.00    -0.043 Cl
ENDBRANCH   1   2
BRANCH   1   5
HETATM    5  C6  UNL     1     -22.713  18.835   9.333  1.00 20.00     0.013 C 
BRANCH   5   6
HETATM    6  C4  UNL     1     -21.564  17.821   9.335  1.00 20.00    -0.004 C 
HETATM    7  C2  UNL     1     -21.302  17.195   7.973  1.00 20.00     0.005 C 
ENDBRANCH   5   6
ENDBRANCH   1   5
BRANCH   1   8
HETATM    8  C7  UNL     1     -25.035  18.516  10.269  1.00 20.00     0.013 C 
BRANCH   8   9
HETATM    9  C5  UNL     1     -24.544  17.955  11.608  1.00 20.00    -0.004 C 
HETATM   10  C3  UNL     1     -24.446  16.438  11.634  1.00 20.00     0.005 C 
ENDBRANCH   8   9
ENDBRANCH   1   8
TORSDOF 5
ENDMDL
MODEL 9
REMARK VINA RESULT:      -3.7      1.075      3.351
REMARK  5 active torsions:
REMARK  status: ('A' for Active; 'I' for Inactive)
REMARK    1  A    between atoms: C1_1  and  C8_8 
REMARK    2  A    between atoms: C4_4  and  C6_6 
REMARK    3  A    between atoms: C5_5  and  C7_7 
REMARK    4  A    between atoms: C6_6  and  C8_8 
REMARK    5  A    between atoms: C7_7  and  C8_8 
ROOT
HETATM    1  C8  UNL     1     -35.857  15.437  -4.086  1.00 20.00     0.072 C 
ENDROOT
BRANCH   1   2
HETATM    2  C1  UNL     1     -37.185  14.701  -4.255  1.00 20.00     0.223 C 
HETATM    3  O9  UNL     1     -37.233  13.503  -4.524  1.00 20.00    -0.279 OA
HETATM    4 CL10 UNL     1     -38.564  15.738  -4.025  1.00 20.00    -0.043 Cl
ENDBRANCH   1   2
BRANCH   1   5
HETATM    5  C6  UNL     1     -35.959  16.428  -2.909  1.00 20.00     0.013 C 
BRANCH   5   6
HETATM    6  C4  UNL     1     -34.919  16.223  -1.801  1.00 20.00    -0.004 C 
HETATM    7  C2  UNL     1     -33.779  17.229  -1.841  1.00 20.00     0.005 C 
ENDBRANCH   5   6
ENDBRANCH   1   5
BRANCH   1   8
HETATM    8  C7  UNL     1     -34.729  14.420  -3.818  1.00 20.00     0.013 C 
BRANCH   8   9
HETATM    9  C5  UNL     1     -33.512  14.547  -4.740  1.00 20.00    -0.004 C 
HETATM   10  C3  UNL     1     -33.864  14.963  -6.160  1.00 20.00     0.005 C 
ENDBRANCH   8   9
ENDBRANCH   1   8
TORSDOF 5
ENDMDL
