MODEL 1
REMARK VINA RESULT:      -3.6      0.000      0.000
REMARK  4 active torsions:
REMARK  status: ('A' for Active; 'I' for Inactive)
REMARK    1  A    between atoms: C4_4  and  C7_7 
REMARK    2  A    between atoms: C5_5  and  C8_8 
REMARK    3  A    between atoms: C6_6  and  C8_8 
REMARK    4  A    between atoms: C7_7  and  C8_8 
ROOT
HETATM    1  C8  UNL     1     -32.962   6.943   2.946  1.00 20.00     0.036 C 
HETATM    2 CL9  UNL     1     -31.550   7.626   3.862  1.00 20.00    -0.119 Cl
ENDROOT
BRANCH   1   3
HETATM    3  C5  UNL     1     -33.229   7.895   1.754  1.00 20.00     0.021 C 
HETATM    4  C2  UNL     1     -32.102   7.976   0.731  1.00 20.00     0.007 C 
ENDBRANCH   1   3
BRANCH   1   5
HETATM    5  C6  UNL     1     -32.590   5.502   2.497  1.00 20.00     0.021 C 
HETATM    6  C3  UNL     1     -33.702   4.462   2.582  1.00 20.00     0.007 C 
ENDBRANCH   1   5
BRANCH   1   7
HETATM    7  C7  UNL     1     -34.165   6.841   3.925  1.00 20.00     0.025 C 
BRANCH   7   8
HETATM    8  C4  UNL     1     -33.817   6.725   5.414  1.00 20.00    -0.003 C 
HETATM    9  C1  UNL     1     -34.579   5.582   6.069  1.00 20.00     0.005 C 
ENDBRANCH   7   8
ENDBRANCH   1   7
TORSDOF 4
ENDMDL
MODEL 2
REMARK VINA RESULT:      -3.5     10.750     11.952
REMARK  4 active torsions:
REMARK  status: ('A' for Active; 'I' for Inactive)
REMARK    1  A    between atoms: C4_4  and  C7_7 
REMARK    2  A    between atoms: C5_5  and  C8_8 
REMARK    3  A    between atoms: C6_6  and  C8_8 
REMARK    4  A    between atoms: C7_7  and  C8_8 
ROOT
HETATM    1  C8  UNL     1     -34.016  15.174  -4.123  1.00 20.00     0.036 C 
HETATM    2 CL9  UNL     1     -32.404  14.374  -4.367  1.00 20.00    -0.119 Cl
ENDROOT
BRANCH   1   3
HETATM    3  C5  UNL     1     -33.867  16.128  -2.913  1.00 20.00     0.021 C 
HETATM    4  C2  UNL     1     -35.036  16.111  -1.933  1.00 20.00     0.007 C 
ENDBRANCH   1   3
BRANCH   1   5
HETATM    5  C6  UNL     1     -34.385  15.918  -5.437  1.00 20.00     0.021 C 
HETATM    6  C3  UNL     1     -34.513  17.435  -5.339  1.00 20.00     0.007 C 
ENDBRANCH   1   5
BRANCH   1   7
HETATM    7  C7  UNL     1     -35.076  14.060  -3.893  1.00 20.00     0.025 C 
BRANCH   7   8
HETATM    8  C4  UNL     1     -36.220  13.996  -4.914  1.00 20.00    -0.003 C 
HETATM    9  C1  UNL     1     -37.530  14.467  -4.299  1.00 20.00     0.005 C 
ENDBRANCH   7   8
ENDBRANCH   1   7
TORSDOF 4
ENDMDL
MODEL 3
REMARK VINA RESULT:      -3.5     10.783     11.739
REMARK  4 active torsions:
REMARK  status: ('A' for Active; 'I' for Inactive)
REMARK    1  A    between atoms: C4_4  and  C7_7 
REMARK    2  A    between atoms: C5_5  and  C8_8 
REMARK    3  A    between atoms: C6_6  and  C8_8 
REMARK    4  A    between atoms: C7_7  and  C8_8 
ROOT
HETATM    1  C8  UNL     1     -34.195  14.926  -4.690  1.00 20.00     0.036 C 
HETATM    2 CL9  UNL     1     -32.507  14.346  -4.355  1.00 20.00    -0.119 Cl
ENDROOT
BRANCH   1   3
HETATM    3  C5  UNL     1     -34.318  15.094  -6.224  1.00 20.00     0.021 C 
HETATM    4  C2  UNL     1     -34.620  16.513  -6.694  1.00 20.00     0.007 C 
ENDBRANCH   1   3
BRANCH   1   5
HETATM    5  C6  UNL     1     -35.185  13.874  -4.117  1.00 20.00     0.021 C 
HETATM    6  C3  UNL     1     -36.664  14.113  -4.406  1.00 20.00     0.007 C 
ENDBRANCH   1   5
BRANCH   1   7
HETATM    7  C7  UNL     1     -34.410  16.255  -3.913  1.00 20.00     0.025 C 
BRANCH   7   8
HETATM    8  C4  UNL     1     -33.939  16.268  -2.453  1.00 20.00    -0.003 C 
HETATM    9  C1  UNL     1     -35.099  16.535  -1.505  1.00 20.00     0.005 C 
ENDBRANCH   7   8
ENDBRANCH   1   7
TORSDOF 4
ENDMDL
MODEL 4
REMARK VINA RESULT:      -3.5     11.377     12.406
REMARK  4 active torsions:
REMARK  status: ('A' for Active; 'I' for Inactive)
REMARK    1  A    between atoms: C4_4  and  C7_7 
REMARK    2  A    between atoms: C5_5  and  C8_8 
REMARK    3  A    between atoms: C6_6  and  C8_8 
REMARK    4  A    between atoms: C7_7  and  C8_8 
ROOT
HETATM    1  C8  UNL     1     -34.565  15.359  -5.657  1.00 20.00     0.036 C 
HETATM    2 CL9  UNL     1     -33.586  14.930  -7.125  1.00 20.00    -0.119 Cl
ENDROOT
BRANCH   1   3
HETATM    3  C5  UNL     1     -34.776  16.892  -5.688  1.00 20.00     0.021 C 
HETATM    4  C2  UNL     1     -36.218  17.348  -5.490  1.00 20.00     0.007 C 
ENDBRANCH   1   3
BRANCH   1   5
HETATM    5  C6  UNL     1     -35.899  14.564  -5.723  1.00 20.00     0.021 C 
HETATM    6  C3  UNL     1     -36.199  13.651  -4.538  1.00 20.00     0.007 C 
ENDBRANCH   1   5
BRANCH   1   7
HETATM    7  C7  UNL     1     -33.786  14.877  -4.401  1.00 20.00     0.025 C 
BRANCH   7   8
HETATM    8  C4  UNL     1     -33.425  15.958  -3.374  1.00 20.00    -0.003 C 
HETATM    9  C1  UNL     1     -34.464  16.028  -2.264  1.00 20.00     0.005 C 
ENDBRANCH   7   8
ENDBRANCH   1   7
TORSDOF 4
ENDMDL
MODEL 5
REMARK VINA RESULT:      -3.4     11.426     12.382
REMARK  4 active torsions:
REMARK  status: ('A' for Active; 'I' for Inactive)
REMARK    1  A    between atoms: C4_4  and  C7_7 
REMARK    2  A    between atoms: C5_5  and  C8_8 
REMARK    3  A    between atoms: C6_6  and  C8_8 
REMARK    4  A    between atoms: C7_7  and  C8_8 
ROOT
HETATM    1  C8  UNL     1     -34.530  15.488  -5.227  1.00 20.00     0.036 C 
HETATM    2 CL9  UNL     1     -34.509  17.298  -5.373  1.00 20.00    -0.119 Cl
ENDROOT
BRANCH   1   3
HETATM    3  C5  UNL     1     -36.017  15.055  -5.214  1.00 20.00     0.021 C 
HETATM    4  C2  UNL     1     -36.280  13.678  -4.613  1.00 20.00     0.007 C 
ENDBRANCH   1   3
BRANCH   1   5
HETATM    5  C6  UNL     1     -33.741  14.902  -6.430  1.00 20.00     0.021 C 
HETATM    6  C3  UNL     1     -34.030  15.523  -7.793  1.00 20.00     0.007 C 
ENDBRANCH   1   5
BRANCH   1   7
HETATM    7  C7  UNL     1     -33.772  15.102  -3.926  1.00 20.00     0.025 C 
BRANCH   7   8
HETATM    8  C4  UNL     1     -33.661  16.198  -2.858  1.00 20.00    -0.003 C 
HETATM    9  C1  UNL     1     -34.860  16.173  -1.920  1.00 20.00     0.005 C 
ENDBRANCH   7   8
ENDBRANCH   1   7
TORSDOF 4
ENDMDL
MODEL 6
REMARK VINA RESULT:      -3.4     10.756     12.406
REMARK  4 active torsions:
REMARK  status: ('A' for Active; 'I' for Inactive)
REMARK    1  A    between atoms: C4_4  and  C7_7 
REMARK    2  A    between atoms: C5_5  and  C8_8 
REMARK    3  A    between atoms: C6_6  and  C8_8 
REMARK    4  A    between atoms: C7_7  and  C8_8 
ROOT
HETATM    1  C8  UNL     1     -34.379  14.982  -4.179  1.00 20.00     0.036 C 
HETATM    2 CL9  UNL     1     -32.717  14.276  -4.372  1.00 20.00    -0.119 Cl
ENDROOT
BRANCH   1   3
HETATM    3  C5  UNL     1     -35.368  13.793  -4.109  1.00 20.00     0.021 C 
HETATM    4  C2  UNL     1     -36.828  14.154  -4.364  1.00 20.00     0.007 C 
ENDBRANCH   1   3
BRANCH   1   5
HETATM    5  C6  UNL     1     -34.383  15.849  -2.889  1.00 20.00     0.021 C 
HETATM    6  C3  UNL     1     -33.160  16.731  -2.666  1.00 20.00     0.007 C 
ENDBRANCH   1   5
BRANCH   1   7
HETATM    7  C7  UNL     1     -34.644  15.924  -5.387  1.00 20.00     0.025 C 
BRANCH   7   8
HETATM    8  C4  UNL     1     -34.225  15.391  -6.763  1.00 20.00    -0.003 C 
HETATM    9  C1  UNL     1     -35.426  15.252  -7.688  1.00 20.00     0.005 C 
ENDBRANCH   7   8
ENDBRANCH   1   7
TORSDOF 4
ENDMDL
MODEL 7
REMARK VINA RESULT:      -3.4     11.333     12.218
REMARK  4 active torsions:
REMARK  status: ('A' for Active; 'I' for Inactive)
REMARK    1  A    between atoms: C4_4  and  C7_7 
REMARK    2  A    between atoms: C5_5  and  C8_8 
REMARK    3  A    between atoms: C6_6  and  C8_8 
REMARK    4  A    between atoms: C7_7  and  C8_8 
ROOT
HETATM    1  C8  UNL     1     -34.056  17.687  -1.625  1.00 20.00     0.036 C 
HETATM    2 CL9  UNL     1     -34.809  18.984  -2.650  1.00 20.00    -0.119 Cl
ENDROOT
BRANCH   1   3
HETATM    3  C5  UNL     1     -33.144  18.399  -0.596  1.00 20.00     0.021 C 
HETATM    4  C2  UNL     1     -31.648  18.229  -0.836  1.00 20.00     0.007 C 
ENDBRANCH   1   3
BRANCH   1   5
HETATM    5  C6  UNL     1     -35.203  16.878  -0.958  1.00 20.00     0.021 C 
HETATM    6  C3  UNL     1     -35.451  17.156   0.521  1.00 20.00     0.007 C 
ENDBRANCH   1   5
BRANCH   1   7
HETATM    7  C7  UNL     1     -33.277  16.724  -2.564  1.00 20.00     0.025 C 
BRANCH   7   8
HETATM    8  C4  UNL     1     -34.066  15.525  -3.106  1.00 20.00    -0.003 C 
HETATM    9  C1  UNL     1     -33.304  14.827  -4.224  1.00 20.00     0.005 C 
ENDBRANCH   7   8
ENDBRANCH   1   7
TORSDOF 4
ENDMDL
MODEL 8
REMARK VINA RESULT:      -3.4     10.751     12.344
REMARK  4 active torsions:
REMARK  status: ('A' for Active; 'I' for Inactive)
REMARK    1  A    between atoms: C4_4  and  C7_7 
REMARK    2  A    between atoms: C5_5  and  C8_8 
REMARK    3  A    between atoms: C6_6  and  C8_8 
REMARK    4  A    between atoms: C7_7  and  C8_8 
ROOT
HETATM    1  C8  UNL     1     -34.571  15.657  -3.554  1.00 20.00     0.036 C 
HETATM    2 CL9  UNL     1     -35.341  15.991  -1.943  1.00 20.00    -0.119 Cl
ENDROOT
BRANCH   1   3
HETATM    3  C5  UNL     1     -33.094  16.108  -3.449  1.00 20.00     0.021 C 
HETATM    4  C2  UNL     1     -32.827  17.207  -2.426  1.00 20.00     0.007 C 
ENDBRANCH   1   3
BRANCH   1   5
HETATM    5  C6  UNL     1     -34.720  14.139  -3.850  1.00 20.00     0.021 C 
HETATM    6  C3  UNL     1     -36.044  13.699  -4.466  1.00 20.00     0.007 C 
ENDBRANCH   1   5
BRANCH   1   7
HETATM    7  C7  UNL     1     -35.370  16.434  -4.638  1.00 20.00     0.025 C 
BRANCH   7   8
HETATM    8  C4  UNL     1     -34.539  17.090  -5.748  1.00 20.00    -0.003 C 
HETATM    9  C1  UNL     1     -34.466  16.198  -6.979  1.00 20.00     0.005 C 
ENDBRANCH   7   8
ENDBRANCH   1   7
TORSDOF 4
ENDMDL
MODEL 9
REMARK VINA RESULT:      -3.3     10.756     12.411
REMARK  4 active torsions:
REMARK  status: ('A' for Active; 'I' for Inactive)
REMARK    1  A    between atoms: C4_4  and  C7_7 
REMARK    2  A    between atoms: C5_5  and  C8_8 
REMARK    3  A    between atoms: C6_6  and  C8_8 
REMARK    4  A    between atoms: C7_7  and  C8_8 
ROOT
HETATM    1  C8  UNL     1     -34.667  15.547  -3.551  1.00 20.00     0.036 C 
HETATM    2 CL9  UNL     1     -32.878  15.852  -3.629  1.00 20.00    -0.119 Cl
ENDROOT
BRANCH   1   3
HETATM    3  C5  UNL     1     -34.882  14.046  -3.860  1.00 20.00     0.021 C 
HETATM    4  C2  UNL     1     -36.204  13.713  -4.544  1.00 20.00     0.007 C 
ENDBRANCH   1   3
BRANCH   1   5
HETATM    5  C6  UNL     1     -35.159  15.949  -2.133  1.00 20.00     0.021 C 
HETATM    6  C3  UNL     1     -34.405  17.089  -1.456  1.00 20.00     0.007 C 
ENDBRANCH   1   5
BRANCH   1   7
HETATM    7  C7  UNL     1     -35.359  16.486  -4.579  1.00 20.00     0.025 C 
BRANCH   7   8
HETATM    8  C4  UNL     1     -34.459  17.065  -5.678  1.00 20.00    -0.003 C 
HETATM    9  C1  UNL     1     -34.482  16.191  -6.924  1.00 20.00     0.005 C 
ENDBRANCH   7   8
ENDBRANCH   1   7
TORSDOF 4
ENDMDL
