MODEL 1
REMARK VINA RESULT:      -4.6      0.000      0.000
REMARK  0 active torsions:
REMARK  status: ('A' for Active; 'I' for Inactive)
ROOT
HETATM    1  C1  UNL     1     -36.279  14.419  -4.468  1.00 20.00     0.135 C 
HETATM    2  C2  UNL     1     -35.363  14.582  -3.282  1.00 20.00     0.088 C 
HETATM    3  C3  UNL     1     -34.865  16.274  -4.952  1.00 20.00     0.025 C 
HETATM    4  C4  UNL     1     -36.026  15.453  -5.552  1.00 20.00     0.014 C 
HETATM    5  C5  UNL     1     -34.206  15.413  -3.852  1.00 20.00    -0.040 C 
HETATM    6  C6  UNL     1     -35.658  14.777  -6.873  1.00 20.00     0.023 C 
HETATM    7  C7  UNL     1     -37.272  16.322  -5.738  1.00 20.00     0.023 C 
HETATM    8  C8  UNL     1     -33.104  14.501  -4.414  1.00 20.00     0.015 C 
HETATM    9  C9  UNL     1     -33.588  16.306  -2.769  1.00 20.00     0.015 C 
HETATM   10  O10 UNL     1     -37.158  13.565  -4.523  1.00 20.00    -0.297 OA
ENDROOT
TORSDOF 0
ENDMDL
MODEL 2
REMARK VINA RESULT:      -4.3      1.438      2.411
REMARK  0 active torsions:
REMARK  status: ('A' for Active; 'I' for Inactive)
ROOT
HETATM    1  C1  UNL     1     -35.630  14.101  -4.452  1.00 20.00     0.135 C 
HETATM    2  C2  UNL     1     -36.628  14.936  -3.690  1.00 20.00     0.088 C 
HETATM    3  C3  UNL     1     -34.828  16.344  -4.517  1.00 20.00     0.025 C 
HETATM    4  C4  UNL     1     -34.478  14.922  -5.005  1.00 20.00     0.014 C 
HETATM    5  C5  UNL     1     -35.828  16.201  -3.348  1.00 20.00    -0.040 C 
HETATM    6  C6  UNL     1     -33.142  14.417  -4.462  1.00 20.00     0.023 C 
HETATM    7  C7  UNL     1     -34.481  14.853  -6.534  1.00 20.00     0.023 C 
HETATM    8  C8  UNL     1     -35.116  16.047  -1.994  1.00 20.00     0.015 C 
HETATM    9  C9  UNL     1     -36.747  17.427  -3.274  1.00 20.00     0.015 C 
HETATM   10  O10 UNL     1     -35.767  12.897  -4.635  1.00 20.00    -0.297 OA
ENDROOT
TORSDOF 0
ENDMDL
MODEL 3
REMARK VINA RESULT:      -4.3      1.201      1.231
REMARK  0 active torsions:
REMARK  status: ('A' for Active; 'I' for Inactive)
ROOT
HETATM    1  C1  UNL     1     -35.657  14.603  -5.347  1.00 20.00     0.135 C 
HETATM    2  C2  UNL     1     -35.385  14.419  -3.876  1.00 20.00     0.088 C 
HETATM    3  C3  UNL     1     -35.235  16.772  -4.457  1.00 20.00     0.025 C 
HETATM    4  C4  UNL     1     -35.586  16.058  -5.779  1.00 20.00     0.014 C 
HETATM    5  C5  UNL     1     -34.654  15.713  -3.496  1.00 20.00    -0.040 C 
HETATM    6  C6  UNL     1     -34.526  16.252  -6.862  1.00 20.00     0.023 C 
HETATM    7  C7  UNL     1     -36.953  16.510  -6.299  1.00 20.00     0.023 C 
HETATM    8  C8  UNL     1     -33.134  15.550  -3.665  1.00 20.00     0.015 C 
HETATM    9  C9  UNL     1     -34.939  16.095  -2.038  1.00 20.00     0.015 C 
HETATM   10  O10 UNL     1     -35.945  13.676  -6.096  1.00 20.00    -0.297 OA
ENDROOT
TORSDOF 0
ENDMDL
MODEL 4
REMARK VINA RESULT:      -4.2      1.662      2.715
REMARK  0 active torsions:
REMARK  status: ('A' for Active; 'I' for Inactive)
ROOT
HETATM    1  C1  UNL     1     -35.369  16.515  -4.751  1.00 20.00     0.135 C 
HETATM    2  C2  UNL     1     -34.826  17.542  -3.789  1.00 20.00     0.088 C 
HETATM    3  C3  UNL     1     -33.602  15.457  -3.552  1.00 20.00     0.025 C 
HETATM    4  C4  UNL     1     -34.642  15.184  -4.660  1.00 20.00     0.014 C 
HETATM    5  C5  UNL     1     -34.087  16.686  -2.752  1.00 20.00    -0.040 C 
HETATM    6  C6  UNL     1     -35.612  14.058  -4.305  1.00 20.00     0.023 C 
HETATM    7  C7  UNL     1     -33.953  14.880  -5.993  1.00 20.00     0.023 C 
HETATM    8  C8  UNL     1     -35.026  16.292  -1.600  1.00 20.00     0.015 C 
HETATM    9  C9  UNL     1     -32.893  17.448  -2.163  1.00 20.00     0.015 C 
HETATM   10  O10 UNL     1     -36.273  16.754  -5.544  1.00 20.00    -0.297 OA
ENDROOT
TORSDOF 0
ENDMDL
MODEL 5
REMARK VINA RESULT:      -4.1     10.809     12.112
REMARK  0 active torsions:
REMARK  status: ('A' for Active; 'I' for Inactive)
ROOT
HETATM    1  C1  UNL     1     -42.727   5.907   0.653  1.00 20.00     0.135 C 
HETATM    2  C2  UNL     1     -43.201   7.297   0.992  1.00 20.00     0.088 C 
HETATM    3  C3  UNL     1     -42.451   7.219  -1.317  1.00 20.00     0.025 C 
HETATM    4  C4  UNL     1     -42.249   5.785  -0.784  1.00 20.00     0.014 C 
HETATM    5  C5  UNL     1     -42.548   8.159  -0.096  1.00 20.00    -0.040 C 
HETATM    6  C6  UNL     1     -40.791   5.330  -0.835  1.00 20.00     0.023 C 
HETATM    7  C7  UNL     1     -43.133   4.790  -1.540  1.00 20.00     0.023 C 
HETATM    8  C8  UNL     1     -41.166   8.659   0.359  1.00 20.00     0.015 C 
HETATM    9  C9  UNL     1     -43.417   9.379  -0.425  1.00 20.00     0.015 C 
HETATM   10  O10 UNL     1     -42.767   4.974   1.447  1.00 20.00    -0.297 OA
ENDROOT
TORSDOF 0
ENDMDL
MODEL 6
REMARK VINA RESULT:      -4.1      1.705      2.494
REMARK  0 active torsions:
REMARK  status: ('A' for Active; 'I' for Inactive)
ROOT
HETATM    1  C1  UNL     1     -34.096  14.951  -4.652  1.00 20.00     0.135 C 
HETATM    2  C2  UNL     1     -33.486  15.671  -3.477  1.00 20.00     0.088 C 
HETATM    3  C3  UNL     1     -35.908  15.807  -3.364  1.00 20.00     0.025 C 
HETATM    4  C4  UNL     1     -35.615  14.991  -4.640  1.00 20.00     0.014 C 
HETATM    5  C5  UNL     1     -34.624  16.585  -3.004  1.00 20.00    -0.040 C 
HETATM    6  C6  UNL     1     -36.151  15.654  -5.908  1.00 20.00     0.023 C 
HETATM    7  C7  UNL     1     -36.168  13.569  -4.520  1.00 20.00     0.023 C 
HETATM    8  C8  UNL     1     -34.558  17.950  -3.709  1.00 20.00     0.015 C 
HETATM    9  C9  UNL     1     -34.544  16.820  -1.490  1.00 20.00     0.015 C 
HETATM   10  O10 UNL     1     -33.429  14.365  -5.498  1.00 20.00    -0.297 OA
ENDROOT
TORSDOF 0
ENDMDL
MODEL 7
REMARK VINA RESULT:      -4.1      1.750      3.565
REMARK  0 active torsions:
REMARK  status: ('A' for Active; 'I' for Inactive)
ROOT
HETATM    1  C1  UNL     1     -33.761  14.725  -4.831  1.00 20.00     0.135 C 
HETATM    2  C2  UNL     1     -33.913  15.054  -6.294  1.00 20.00     0.088 C 
HETATM    3  C3  UNL     1     -34.659  16.929  -4.943  1.00 20.00     0.025 C 
HETATM    4  C4  UNL     1     -34.204  15.862  -3.925  1.00 20.00     0.014 C 
HETATM    5  C5  UNL     1     -34.920  16.211  -6.285  1.00 20.00    -0.040 C 
HETATM    6  C6  UNL     1     -35.328  15.408  -2.994  1.00 20.00     0.023 C 
HETATM    7  C7  UNL     1     -33.013  16.361  -3.103  1.00 20.00     0.023 C 
HETATM    8  C8  UNL     1     -36.361  15.682  -6.386  1.00 20.00     0.015 C 
HETATM    9  C9  UNL     1     -34.672  17.164  -7.461  1.00 20.00     0.015 C 
HETATM   10  O10 UNL     1     -33.290  13.667  -4.428  1.00 20.00    -0.297 OA
ENDROOT
TORSDOF 0
ENDMDL
MODEL 8
REMARK VINA RESULT:      -4.0      2.250      3.741
REMARK  0 active torsions:
REMARK  status: ('A' for Active; 'I' for Inactive)
ROOT
HETATM    1  C1  UNL     1     -34.485  17.396  -4.160  1.00 20.00     0.135 C 
HETATM    2  C2  UNL     1     -34.943  16.193  -4.944  1.00 20.00     0.088 C 
HETATM    3  C3  UNL     1     -34.670  15.601  -2.604  1.00 20.00     0.025 C 
HETATM    4  C4  UNL     1     -34.300  17.098  -2.681  1.00 20.00     0.014 C 
HETATM    5  C5  UNL     1     -34.561  15.021  -4.031  1.00 20.00    -0.040 C 
HETATM    6  C6  UNL     1     -32.863  17.380  -2.246  1.00 20.00     0.023 C 
HETATM    7  C7  UNL     1     -35.273  17.945  -1.857  1.00 20.00     0.023 C 
HETATM    8  C8  UNL     1     -33.140  14.524  -4.347  1.00 20.00     0.015 C 
HETATM    9  C9  UNL     1     -35.533  13.848  -4.210  1.00 20.00     0.015 C 
HETATM   10  O10 UNL     1     -34.323  18.502  -4.664  1.00 20.00    -0.297 OA
ENDROOT
TORSDOF 0
ENDMDL
MODEL 9
REMARK VINA RESULT:      -4.0     10.497     11.908
REMARK  0 active torsions:
REMARK  status: ('A' for Active; 'I' for Inactive)
ROOT
HETATM    1  C1  UNL     1     -42.773   6.508  -1.426  1.00 20.00     0.135 C 
HETATM    2  C2  UNL     1     -42.705   8.010  -1.315  1.00 20.00     0.088 C 
HETATM    3  C3  UNL     1     -41.350   6.989   0.424  1.00 20.00     0.025 C 
HETATM    4  C4  UNL     1     -41.940   5.803  -0.369  1.00 20.00     0.014 C 
HETATM    5  C5  UNL     1     -42.223   8.228   0.126  1.00 20.00    -0.040 C 
HETATM    6  C6  UNL     1     -42.812   4.887   0.489  1.00 20.00     0.023 C 
HETATM    7  C7  UNL     1     -40.831   4.991  -1.042  1.00 20.00     0.023 C 
HETATM    8  C8  UNL     1     -43.417   8.340   1.089  1.00 20.00     0.015 C 
HETATM    9  C9  UNL     1     -41.391   9.511   0.237  1.00 20.00     0.015 C 
HETATM   10  O10 UNL     1     -43.403   5.930  -2.304  1.00 20.00    -0.297 OA
ENDROOT
TORSDOF 0
ENDMDL
