MODEL 1
REMARK VINA RESULT:      -4.3      0.000      0.000
REMARK  1 active torsions:
REMARK  status: ('A' for Active; 'I' for Inactive)
REMARK    1  A    between atoms: C7_7  and  O8_8 
ROOT
HETATM    1  C1  UNL     1     -43.251   7.642  -1.034  1.00 20.00    -0.025 C 
HETATM    2  C2  UNL     1     -43.288   7.628   0.306  1.00 20.00    -0.023 C 
HETATM    3  C3  UNL     1     -41.265   8.575  -0.296  1.00 20.00     0.019 C 
HETATM    4  C4  UNL     1     -41.166   6.329  -1.098  1.00 20.00     0.041 C 
HETATM    5  C5  UNL     1     -41.797   7.699  -1.438  1.00 20.00     0.011 C 
HETATM    6  C6  UNL     1     -41.856   7.677   0.794  1.00 20.00     0.037 C 
HETATM    7  C7  UNL     1     -41.160   6.339   0.455  1.00 20.00     0.126 C 
ENDROOT
BRANCH   7   8
HETATM    8  O8  UNL     1     -41.838   5.220   0.992  1.00 20.00    -0.395 OA
HETATM    9  H18 UNL     1     -42.542   5.562   1.570  1.00 20.00     0.210 HD
ENDBRANCH   7   8
TORSDOF 1
ENDMDL
MODEL 2
REMARK VINA RESULT:      -4.3     22.648     23.558
REMARK  1 active torsions:
REMARK  status: ('A' for Active; 'I' for Inactive)
REMARK    1  A    between atoms: C7_7  and  O8_8 
ROOT
HETATM    1  C1  UNL     1     -25.412  16.657  11.598  1.00 20.00    -0.025 C 
HETATM    2  C2  UNL     1     -24.303  15.939  11.826  1.00 20.00    -0.023 C 
HETATM    3  C3  UNL     1     -23.792  18.137  12.332  1.00 20.00     0.019 C 
HETATM    4  C4  UNL     1     -24.260  18.129   9.992  1.00 20.00     0.041 C 
HETATM    5  C5  UNL     1     -24.978  18.083  11.361  1.00 20.00     0.011 C 
HETATM    6  C6  UNL     1     -23.129  16.890  11.741  1.00 20.00     0.037 C 
HETATM    7  C7  UNL     1     -22.950  17.344  10.274  1.00 20.00     0.126 C 
ENDROOT
BRANCH   7   8
HETATM    8  O8  UNL     1     -22.784  16.257   9.383  1.00 20.00    -0.395 OA
HETATM    9  H18 UNL     1     -23.490  16.322   8.717  1.00 20.00     0.210 HD
ENDBRANCH   7   8
TORSDOF 1
ENDMDL
MODEL 3
REMARK VINA RESULT:      -4.1     11.183     12.200
REMARK  1 active torsions:
REMARK  status: ('A' for Active; 'I' for Inactive)
REMARK    1  A    between atoms: C7_7  and  O8_8 
ROOT
HETATM    1  C1  UNL     1     -34.431  15.953  -2.297  1.00 20.00    -0.025 C 
HETATM    2  C2  UNL     1     -33.519  16.590  -3.046  1.00 20.00    -0.023 C 
HETATM    3  C3  UNL     1     -35.404  16.334  -4.362  1.00 20.00     0.019 C 
HETATM    4  C4  UNL     1     -34.643  14.115  -3.925  1.00 20.00     0.041 C 
HETATM    5  C5  UNL     1     -35.396  15.283  -3.245  1.00 20.00     0.011 C 
HETATM    6  C6  UNL     1     -33.878  16.343  -4.495  1.00 20.00     0.037 C 
HETATM    7  C7  UNL     1     -33.625  14.856  -4.833  1.00 20.00     0.126 C 
ENDROOT
BRANCH   7   8
HETATM    8  O8  UNL     1     -32.294  14.456  -4.568  1.00 20.00    -0.395 OA
HETATM    9  H18 UNL     1     -31.798  15.255  -4.321  1.00 20.00     0.210 HD
ENDBRANCH   7   8
TORSDOF 1
ENDMDL
MODEL 4
REMARK VINA RESULT:      -4.1      1.285      2.355
REMARK  1 active torsions:
REMARK  status: ('A' for Active; 'I' for Inactive)
REMARK    1  A    between atoms: C7_7  and  O8_8 
ROOT
HETATM    1  C1  UNL     1     -41.448   7.798   0.707  1.00 20.00    -0.025 C 
HETATM    2  C2  UNL     1     -41.197   7.791  -0.611  1.00 20.00    -0.023 C 
HETATM    3  C3  UNL     1     -43.417   7.199  -0.352  1.00 20.00     0.019 C 
HETATM    4  C4  UNL     1     -42.178   5.444   0.688  1.00 20.00     0.041 C 
HETATM    5  C5  UNL     1     -42.640   6.899   0.936  1.00 20.00     0.011 C 
HETATM    6  C6  UNL     1     -42.223   6.887  -1.258  1.00 20.00     0.037 C 
HETATM    7  C7  UNL     1     -41.941   5.424  -0.846  1.00 20.00     0.126 C 
ENDROOT
BRANCH   7   8
HETATM    8  O8  UNL     1     -40.627   5.010  -1.171  1.00 20.00    -0.395 OA
HETATM    9  H18 UNL     1     -40.456   4.188  -0.680  1.00 20.00     0.210 HD
ENDBRANCH   7   8
TORSDOF 1
ENDMDL
MODEL 5
REMARK VINA RESULT:      -4.1      8.318      9.468
REMARK  1 active torsions:
REMARK  status: ('A' for Active; 'I' for Inactive)
REMARK    1  A    between atoms: C7_7  and  O8_8 
ROOT
HETATM    1  C1  UNL     1     -34.144   4.877   5.692  1.00 20.00    -0.025 C 
HETATM    2  C2  UNL     1     -34.189   6.217   5.733  1.00 20.00    -0.023 C 
HETATM    3  C3  UNL     1     -35.650   5.550   4.068  1.00 20.00     0.019 C 
HETATM    4  C4  UNL     1     -33.491   4.865   3.315  1.00 20.00     0.041 C 
HETATM    5  C5  UNL     1     -34.600   4.459   4.314  1.00 20.00     0.011 C 
HETATM    6  C6  UNL     1     -34.677   6.690   4.381  1.00 20.00     0.037 C 
HETATM    7  C7  UNL     1     -33.583   6.415   3.323  1.00 20.00     0.126 C 
ENDROOT
BRANCH   7   8
HETATM    8  O8  UNL     1     -32.345   7.015   3.651  1.00 20.00    -0.395 OA
HETATM    9  H18 UNL     1     -31.648   6.375   3.424  1.00 20.00     0.210 HD
ENDBRANCH   7   8
TORSDOF 1
ENDMDL
MODEL 6
REMARK VINA RESULT:      -4.0      1.084      2.153
REMARK  1 active torsions:
REMARK  status: ('A' for Active; 'I' for Inactive)
REMARK    1  A    between atoms: C7_7  and  O8_8 
ROOT
HETATM    1  C1  UNL     1     -41.038   5.829  -1.094  1.00 20.00    -0.025 C 
HETATM    2  C2  UNL     1     -42.243   5.258  -0.945  1.00 20.00    -0.023 C 
HETATM    3  C3  UNL     1     -42.615   7.499  -1.379  1.00 20.00     0.019 C 
HETATM    4  C4  UNL     1     -41.465   7.451   0.711  1.00 20.00     0.041 C 
HETATM    5  C5  UNL     1     -41.206   7.301  -0.806  1.00 20.00     0.011 C 
HETATM    6  C6  UNL     1     -43.213   6.353  -0.558  1.00 20.00     0.037 C 
HETATM    7  C7  UNL     1     -42.883   6.839   0.872  1.00 20.00     0.126 C 
ENDROOT
BRANCH   7   8
HETATM    8  O8  UNL     1     -42.900   5.791   1.822  1.00 20.00    -0.395 OA
HETATM    9  H18 UNL     1     -43.807   5.441   1.845  1.00 20.00     0.210 HD
ENDBRANCH   7   8
TORSDOF 1
ENDMDL
MODEL 7
REMARK VINA RESULT:      -4.0      9.885     11.060
REMARK  1 active torsions:
REMARK  status: ('A' for Active; 'I' for Inactive)
REMARK    1  A    between atoms: C7_7  and  O8_8 
ROOT
HETATM    1  C1  UNL     1     -34.773  15.482  -2.924  1.00 20.00    -0.025 C 
HETATM    2  C2  UNL     1     -34.040  14.756  -3.781  1.00 20.00    -0.023 C 
HETATM    3  C3  UNL     1     -35.351  16.172  -5.057  1.00 20.00     0.019 C 
HETATM    4  C4  UNL     1     -36.893  14.735  -3.937  1.00 20.00     0.041 C 
HETATM    5  C5  UNL     1     -35.990  15.964  -3.678  1.00 20.00     0.011 C 
HETATM    6  C6  UNL     1     -34.770  14.756  -5.106  1.00 20.00     0.037 C 
HETATM    7  C7  UNL     1     -36.066  13.924  -4.970  1.00 20.00     0.126 C 
ENDROOT
BRANCH   7   8
HETATM    8  O8  UNL     1     -35.821  12.602  -4.529  1.00 20.00    -0.395 OA
HETATM    9  H18 UNL     1     -35.144  12.224  -5.116  1.00 20.00     0.210 HD
ENDBRANCH   7   8
TORSDOF 1
ENDMDL
MODEL 8
REMARK VINA RESULT:      -4.0      1.107      1.531
REMARK  1 active torsions:
REMARK  status: ('A' for Active; 'I' for Inactive)
REMARK    1  A    between atoms: C7_7  and  O8_8 
ROOT
HETATM    1  C1  UNL     1     -43.416   7.664   0.469  1.00 20.00    -0.025 C 
HETATM    2  C2  UNL     1     -42.508   6.864   1.048  1.00 20.00    -0.023 C 
HETATM    3  C3  UNL     1     -41.390   8.782   0.402  1.00 20.00     0.019 C 
HETATM    4  C4  UNL     1     -42.132   7.778  -1.632  1.00 20.00     0.041 C 
HETATM    5  C5  UNL     1     -42.662   8.607  -0.438  1.00 20.00     0.011 C 
HETATM    6  C6  UNL     1     -41.149   7.275   0.525  1.00 20.00     0.037 C 
HETATM    7  C7  UNL     1     -41.044   6.892  -0.969  1.00 20.00     0.126 C 
ENDROOT
BRANCH   7   8
HETATM    8  O8  UNL     1     -41.276   5.514  -1.195  1.00 20.00    -0.395 OA
HETATM    9  H18 UNL     1     -41.063   5.338  -2.128  1.00 20.00     0.210 HD
ENDBRANCH   7   8
TORSDOF 1
ENDMDL
MODEL 9
REMARK VINA RESULT:      -3.9     22.914     23.854
REMARK  1 active torsions:
REMARK  status: ('A' for Active; 'I' for Inactive)
REMARK    1  A    between atoms: C7_7  and  O8_8 
ROOT
HETATM    1  C1  UNL     1     -22.394  17.088   9.267  1.00 20.00    -0.025 C 
HETATM    2  C2  UNL     1     -23.491  16.333   9.428  1.00 20.00    -0.023 C 
HETATM    3  C3  UNL     1     -24.067  18.488  10.040  1.00 20.00     0.019 C 
HETATM    4  C4  UNL     1     -22.414  17.811  11.623  1.00 20.00     0.041 C 
HETATM    5  C5  UNL     1     -22.550  18.295  10.160  1.00 20.00     0.011 C 
HETATM    6  C6  UNL     1     -24.378  17.040  10.430  1.00 20.00     0.037 C 
HETATM    7  C7  UNL     1     -23.712  16.983  11.824  1.00 20.00     0.126 C 
ENDROOT
BRANCH   7   8
HETATM    8  O8  UNL     1     -23.434  15.660  12.242  1.00 20.00    -0.395 OA
HETATM    9  H18 UNL     1     -22.471  15.595  12.367  1.00 20.00     0.210 HD
ENDBRANCH   7   8
TORSDOF 1
ENDMDL
