MODEL 1
REMARK VINA RESULT:      -5.5      0.000      0.000
REMARK  2 active torsions:
REMARK  status: ('A' for Active; 'I' for Inactive)
REMARK    1  A    between atoms: C1_1  and  C2_2 
REMARK    2  A    between atoms: C1_1  and  C3_3 
ROOT
HETATM    1  C1  UNL     1     -33.677   6.186   4.838  1.00 20.00     0.341 C 
HETATM    2  F4  UNL     1     -34.021   7.277   5.580  1.00 20.00    -0.234 F 
ENDROOT
BRANCH   1   3
HETATM    3  C2  UNL     1     -33.387   6.651   3.428  1.00 20.00     0.395 C 
HETATM    4  F5  UNL     1     -33.293   5.572   2.610  1.00 20.00    -0.211 F 
HETATM    5  F6  UNL     1     -32.189   7.284   3.381  1.00 20.00    -0.211 F 
ENDBRANCH   1   3
BRANCH   1   6
HETATM    6  C3  UNL     1     -34.812   5.194   4.910  1.00 20.00     0.423 C 
HETATM    7  F7  UNL     1     -35.267   5.081   6.177  1.00 20.00    -0.168 F 
HETATM    8  F8  UNL     1     -34.413   3.968   4.509  1.00 20.00    -0.168 F 
HETATM    9  F9  UNL     1     -35.848   5.569   4.130  1.00 20.00    -0.168 F 
ENDBRANCH   1   6
TORSDOF 2
ENDMDL
MODEL 2
REMARK VINA RESULT:      -5.5      0.019      1.257
REMARK  2 active torsions:
REMARK  status: ('A' for Active; 'I' for Inactive)
REMARK    1  A    between atoms: C1_1  and  C2_2 
REMARK    2  A    between atoms: C1_1  and  C3_3 
ROOT
HETATM    1  C1  UNL     1     -33.670   6.181   4.826  1.00 20.00     0.341 C 
HETATM    2  F4  UNL     1     -34.013   7.272   5.568  1.00 20.00    -0.234 F 
ENDROOT
BRANCH   1   3
HETATM    3  C2  UNL     1     -33.382   6.646   3.416  1.00 20.00     0.395 C 
HETATM    4  F5  UNL     1     -33.276   5.567   2.600  1.00 20.00    -0.211 F 
HETATM    5  F6  UNL     1     -32.190   7.291   3.370  1.00 20.00    -0.211 F 
ENDBRANCH   1   3
BRANCH   1   6
HETATM    6  C3  UNL     1     -34.805   5.189   4.899  1.00 20.00     0.423 C 
HETATM    7  F7  UNL     1     -35.835   5.586   4.121  1.00 20.00    -0.168 F 
HETATM    8  F8  UNL     1     -35.268   5.070   6.162  1.00 20.00    -0.168 F 
HETATM    9  F9  UNL     1     -34.420   3.964   4.481  1.00 20.00    -0.168 F 
ENDBRANCH   1   6
TORSDOF 2
ENDMDL
MODEL 3
REMARK VINA RESULT:      -5.4      0.884      2.379
REMARK  2 active torsions:
REMARK  status: ('A' for Active; 'I' for Inactive)
REMARK    1  A    between atoms: C1_1  and  C2_2 
REMARK    2  A    between atoms: C1_1  and  C3_3 
ROOT
HETATM    1  C1  UNL     1     -34.136   6.354   4.291  1.00 20.00     0.341 C 
HETATM    2  F4  UNL     1     -33.201   6.068   3.342  1.00 20.00    -0.234 F 
ENDROOT
BRANCH   1   3
HETATM    3  C2  UNL     1     -33.412   6.784   5.548  1.00 20.00     0.395 C 
HETATM    4  F5  UNL     1     -34.286   7.407   6.379  1.00 20.00    -0.211 F 
HETATM    5  F6  UNL     1     -32.447   7.688   5.245  1.00 20.00    -0.211 F 
ENDBRANCH   1   3
BRANCH   1   6
HETATM    6  C3  UNL     1     -34.989   5.127   4.494  1.00 20.00     0.423 C 
HETATM    7  F7  UNL     1     -34.441   4.058   3.876  1.00 20.00    -0.168 F 
HETATM    8  F8  UNL     1     -36.227   5.303   3.984  1.00 20.00    -0.168 F 
HETATM    9  F9  UNL     1     -35.120   4.824   5.804  1.00 20.00    -0.168 F 
ENDBRANCH   1   6
TORSDOF 2
ENDMDL
MODEL 4
REMARK VINA RESULT:      -5.3      0.874      3.267
REMARK  2 active torsions:
REMARK  status: ('A' for Active; 'I' for Inactive)
REMARK    1  A    between atoms: C1_1  and  C2_2 
REMARK    2  A    between atoms: C1_1  and  C3_3 
ROOT
HETATM    1  C1  UNL     1     -33.916   6.713   4.155  1.00 20.00     0.341 C 
HETATM    2  F4  UNL     1     -33.297   7.039   5.325  1.00 20.00    -0.234 F 
ENDROOT
BRANCH   1   3
HETATM    3  C2  UNL     1     -34.595   5.373   4.343  1.00 20.00     0.395 C 
HETATM    4  F5  UNL     1     -35.924   5.505   4.100  1.00 20.00    -0.211 F 
HETATM    5  F6  UNL     1     -34.471   4.963   5.630  1.00 20.00    -0.211 F 
ENDBRANCH   1   3
BRANCH   1   6
HETATM    6  C3  UNL     1     -32.877   6.697   3.062  1.00 20.00     0.423 C 
HETATM    7  F7  UNL     1     -31.695   7.162   3.522  1.00 20.00    -0.168 F 
HETATM    8  F8  UNL     1     -33.249   7.480   2.026  1.00 20.00    -0.168 F 
HETATM    9  F9  UNL     1     -32.674   5.450   2.587  1.00 20.00    -0.168 F 
ENDBRANCH   1   6
TORSDOF 2
ENDMDL
MODEL 5
REMARK VINA RESULT:      -5.3      1.262      2.675
REMARK  2 active torsions:
REMARK  status: ('A' for Active; 'I' for Inactive)
REMARK    1  A    between atoms: C1_1  and  C2_2 
REMARK    2  A    between atoms: C1_1  and  C3_3 
ROOT
HETATM    1  C1  UNL     1     -34.233   5.412   5.483  1.00 20.00     0.341 C 
HETATM    2  F4  UNL     1     -35.213   4.999   6.335  1.00 20.00    -0.234 F 
ENDROOT
BRANCH   1   3
HETATM    3  C2  UNL     1     -34.090   6.912   5.625  1.00 20.00     0.395 C 
HETATM    4  F5  UNL     1     -32.789   7.257   5.448  1.00 20.00    -0.211 F 
HETATM    5  F6  UNL     1     -34.430   7.297   6.880  1.00 20.00    -0.211 F 
ENDBRANCH   1   3
BRANCH   1   6
HETATM    6  C3  UNL     1     -34.615   4.987   4.087  1.00 20.00     0.423 C 
HETATM    7  F7  UNL     1     -33.914   5.686   3.168  1.00 20.00    -0.168 F 
HETATM    8  F8  UNL     1     -35.927   5.206   3.852  1.00 20.00    -0.168 F 
HETATM    9  F9  UNL     1     -34.370   3.675   3.882  1.00 20.00    -0.168 F 
ENDBRANCH   1   6
TORSDOF 2
ENDMDL
MODEL 6
REMARK VINA RESULT:      -5.2      0.895      2.480
REMARK  2 active torsions:
REMARK  status: ('A' for Active; 'I' for Inactive)
REMARK    1  A    between atoms: C1_1  and  C2_2 
REMARK    2  A    between atoms: C1_1  and  C3_3 
ROOT
HETATM    1  C1  UNL     1     -34.114   6.465   4.438  1.00 20.00     0.341 C 
HETATM    2  F4  UNL     1     -32.893   6.751   3.904  1.00 20.00    -0.234 F 
ENDROOT
BRANCH   1   3
HETATM    3  C2  UNL     1     -33.973   6.448   5.944  1.00 20.00     0.395 C 
HETATM    4  F5  UNL     1     -35.003   5.747   6.484  1.00 20.00    -0.211 F 
HETATM    5  F6  UNL     1     -34.058   7.709   6.436  1.00 20.00    -0.211 F 
ENDBRANCH   1   3
BRANCH   1   6
HETATM    6  C3  UNL     1     -34.575   5.144   3.875  1.00 20.00     0.423 C 
HETATM    7  F7  UNL     1     -35.923   5.092   3.824  1.00 20.00    -0.168 F 
HETATM    8  F8  UNL     1     -34.155   4.114   4.642  1.00 20.00    -0.168 F 
HETATM    9  F9  UNL     1     -34.106   4.947   2.624  1.00 20.00    -0.168 F 
ENDBRANCH   1   6
TORSDOF 2
ENDMDL
MODEL 7
REMARK VINA RESULT:      -5.2      1.355      2.351
REMARK  2 active torsions:
REMARK  status: ('A' for Active; 'I' for Inactive)
REMARK    1  A    between atoms: C1_1  and  C2_2 
REMARK    2  A    between atoms: C1_1  and  C3_3 
ROOT
HETATM    1  C1  UNL     1     -34.663   5.800   4.398  1.00 20.00     0.341 C 
HETATM    2  F4  UNL     1     -35.965   5.455   4.192  1.00 20.00    -0.234 F 
ENDROOT
BRANCH   1   3
HETATM    3  C2  UNL     1     -33.794   4.839   3.616  1.00 20.00     0.395 C 
HETATM    4  F5  UNL     1     -33.763   5.220   2.313  1.00 20.00    -0.211 F 
HETATM    5  F6  UNL     1     -34.330   3.594   3.646  1.00 20.00    -0.211 F 
ENDBRANCH   1   3
BRANCH   1   6
HETATM    6  C3  UNL     1     -34.396   5.759   5.882  1.00 20.00     0.423 C 
HETATM    7  F7  UNL     1     -33.506   6.713   6.232  1.00 20.00    -0.168 F 
HETATM    8  F8  UNL     1     -33.884   4.566   6.253  1.00 20.00    -0.168 F 
HETATM    9  F9  UNL     1     -35.524   5.966   6.595  1.00 20.00    -0.168 F 
ENDBRANCH   1   6
TORSDOF 2
ENDMDL
MODEL 8
REMARK VINA RESULT:      -5.1      1.162      2.193
REMARK  2 active torsions:
REMARK  status: ('A' for Active; 'I' for Inactive)
REMARK    1  A    between atoms: C1_1  and  C2_2 
REMARK    2  A    between atoms: C1_1  and  C3_3 
ROOT
HETATM    1  C1  UNL     1     -33.625   5.868   4.327  1.00 20.00     0.341 C 
HETATM    2  F4  UNL     1     -33.759   7.123   3.812  1.00 20.00    -0.234 F 
ENDROOT
BRANCH   1   3
HETATM    3  C2  UNL     1     -33.965   4.875   3.238  1.00 20.00     0.395 C 
HETATM    4  F5  UNL     1     -34.148   3.649   3.789  1.00 20.00    -0.211 F 
HETATM    5  F6  UNL     1     -32.930   4.763   2.368  1.00 20.00    -0.211 F 
ENDBRANCH   1   3
BRANCH   1   6
HETATM    6  C3  UNL     1     -34.530   5.756   5.529  1.00 20.00     0.423 C 
HETATM    7  F7  UNL     1     -35.803   5.514   5.146  1.00 20.00    -0.168 F 
HETATM    8  F8  UNL     1     -34.530   6.899   6.248  1.00 20.00    -0.168 F 
HETATM    9  F9  UNL     1     -34.147   4.751   6.346  1.00 20.00    -0.168 F 
ENDBRANCH   1   6
TORSDOF 2
ENDMDL
MODEL 9
REMARK VINA RESULT:      -5.1      1.092      2.180
REMARK  2 active torsions:
REMARK  status: ('A' for Active; 'I' for Inactive)
REMARK    1  A    between atoms: C1_1  and  C2_2 
REMARK    2  A    between atoms: C1_1  and  C3_3 
ROOT
HETATM    1  C1  UNL     1     -33.710   5.553   2.774  1.00 20.00     0.341 C 
HETATM    2  F4  UNL     1     -32.742   4.608   2.607  1.00 20.00    -0.234 F 
ENDROOT
BRANCH   1   3
HETATM    3  C2  UNL     1     -33.042   6.910   2.787  1.00 20.00     0.395 C 
HETATM    4  F5  UNL     1     -32.878   7.343   1.511  1.00 20.00    -0.211 F 
HETATM    5  F6  UNL     1     -31.803   6.816   3.331  1.00 20.00    -0.211 F 
ENDBRANCH   1   3
BRANCH   1   6
HETATM    6  C3  UNL     1     -34.448   5.248   4.054  1.00 20.00     0.423 C 
HETATM    7  F7  UNL     1     -34.256   3.962   4.419  1.00 20.00    -0.168 F 
HETATM    8  F8  UNL     1     -35.777   5.437   3.908  1.00 20.00    -0.168 F 
HETATM    9  F9  UNL     1     -34.027   6.033   5.069  1.00 20.00    -0.168 F 
ENDBRANCH   1   6
TORSDOF 2
ENDMDL
