MODEL 1
REMARK VINA RESULT:      -4.1      0.000      0.000
REMARK  1 active torsions:
REMARK  status: ('A' for Active; 'I' for Inactive)
REMARK    1  A    between atoms: C4_4  and  N7_7 
ROOT
HETATM    1  C1  UNL     1     -32.553   7.979   1.402  1.00 20.00     0.163 C 
HETATM    2  N7  UNL     1     -32.046   7.389   2.297  1.00 20.00    -0.231 NA
HETATM    3  S9  UNL     1     -33.221   8.779   0.196  1.00 20.00    -0.055 SA
ENDROOT
BRANCH   2   4
HETATM    4  C4  UNL     1     -32.903   6.516   2.948  1.00 20.00     0.094 A 
HETATM    5  C2  UNL     1     -33.309   5.236   2.524  1.00 20.00     0.171 A 
HETATM    6  N6  UNL     1     -34.146   4.649   3.383  1.00 20.00    -0.183 NA
HETATM    7  N8  UNL     1     -34.272   5.564   4.359  1.00 20.00    -0.283 N 
HETATM    8  C3  UNL     1     -33.549   6.701   4.147  1.00 20.00     0.145 A 
HETATM    9  C5  UNL     1     -35.118   5.287   5.496  1.00 20.00     0.179 C 
ENDBRANCH   2   4
TORSDOF 1
ENDMDL
MODEL 2
REMARK VINA RESULT:      -4.0     16.162     16.730
REMARK  1 active torsions:
REMARK  status: ('A' for Active; 'I' for Inactive)
REMARK    1  A    between atoms: C4_4  and  N7_7 
ROOT
HETATM    1  C1  UNL     1     -23.696  16.982  11.212  1.00 20.00     0.163 C 
HETATM    2  N7  UNL     1     -22.888  17.695  10.717  1.00 20.00    -0.231 NA
HETATM    3  S9  UNL     1     -24.775  16.024  11.889  1.00 20.00    -0.055 SA
ENDROOT
BRANCH   2   4
HETATM    4  C4  UNL     1     -23.157  18.015   9.396  1.00 20.00     0.094 A 
HETATM    5  C2  UNL     1     -22.327  17.809   8.278  1.00 20.00     0.171 A 
HETATM    6  N6  UNL     1     -22.882  18.231   7.139  1.00 20.00    -0.183 NA
HETATM    7  N8  UNL     1     -24.073  18.707   7.538  1.00 20.00    -0.283 N 
HETATM    8  C3  UNL     1     -24.287  18.602   8.881  1.00 20.00     0.145 A 
HETATM    9  C5  UNL     1     -24.985  19.263   6.566  1.00 20.00     0.179 C 
ENDBRANCH   2   4
TORSDOF 1
ENDMDL
MODEL 3
REMARK VINA RESULT:      -3.9     16.013     16.713
REMARK  1 active torsions:
REMARK  status: ('A' for Active; 'I' for Inactive)
REMARK    1  A    between atoms: C4_4  and  N7_7 
ROOT
HETATM    1  C1  UNL     1     -24.708  18.907   7.093  1.00 20.00     0.163 C 
HETATM    2  N7  UNL     1     -23.634  18.651   7.527  1.00 20.00    -0.231 NA
HETATM    3  S9  UNL     1     -26.145  19.253   6.497  1.00 20.00    -0.055 SA
ENDROOT
BRANCH   2   4
HETATM    4  C4  UNL     1     -23.621  18.434   8.895  1.00 20.00     0.094 A 
HETATM    5  C2  UNL     1     -24.725  18.391   9.768  1.00 20.00     0.171 A 
HETATM    6  N6  UNL     1     -24.373  18.160  11.035  1.00 20.00    -0.183 NA
HETATM    7  N8  UNL     1     -23.036  18.055  10.966  1.00 20.00    -0.283 N 
HETATM    8  C3  UNL     1     -22.535  18.212   9.707  1.00 20.00     0.145 A 
HETATM    9  C5  UNL     1     -22.274  17.799  12.165  1.00 20.00     0.179 C 
ENDBRANCH   2   4
TORSDOF 1
ENDMDL
MODEL 4
REMARK VINA RESULT:      -3.8     10.933     11.670
REMARK  1 active torsions:
REMARK  status: ('A' for Active; 'I' for Inactive)
REMARK    1  A    between atoms: C4_4  and  N7_7 
ROOT
HETATM    1  C1  UNL     1     -38.846  14.962  -4.183  1.00 20.00     0.163 C 
HETATM    2  N7  UNL     1     -38.179  14.022  -4.466  1.00 20.00    -0.231 NA
HETATM    3  S9  UNL     1     -39.753  16.218  -3.808  1.00 20.00    -0.055 SA
ENDROOT
BRANCH   2   4
HETATM    4  C4  UNL     1     -36.828  14.197  -4.213  1.00 20.00     0.094 A 
HETATM    5  C2  UNL     1     -35.777  13.310  -4.513  1.00 20.00     0.171 A 
HETATM    6  N6  UNL     1     -34.584  13.777  -4.137  1.00 20.00    -0.183 NA
HETATM    7  N8  UNL     1     -34.881  14.970  -3.594  1.00 20.00    -0.283 N 
HETATM    8  C3  UNL     1     -36.212  15.269  -3.614  1.00 20.00     0.145 A 
HETATM    9  C5  UNL     1     -33.825  15.798  -3.061  1.00 20.00     0.179 C 
ENDBRANCH   2   4
TORSDOF 1
ENDMDL
MODEL 5
REMARK VINA RESULT:      -3.8     11.186     12.370
REMARK  1 active torsions:
REMARK  status: ('A' for Active; 'I' for Inactive)
REMARK    1  A    between atoms: C4_4  and  N7_7 
ROOT
HETATM    1  C1  UNL     1     -38.323  14.770  -4.248  1.00 20.00     0.163 C 
HETATM    2  N7  UNL     1     -37.630  13.817  -4.379  1.00 20.00    -0.231 NA
HETATM    3  S9  UNL     1     -39.266  16.043  -4.068  1.00 20.00    -0.055 SA
ENDROOT
BRANCH   2   4
HETATM    4  C4  UNL     1     -36.358  14.110  -4.845  1.00 20.00     0.094 A 
HETATM    5  C2  UNL     1     -35.140  13.985  -4.149  1.00 20.00     0.171 A 
HETATM    6  N6  UNL     1     -34.087  14.351  -4.884  1.00 20.00    -0.183 NA
HETATM    7  N8  UNL     1     -34.641  14.710  -6.054  1.00 20.00    -0.283 N 
HETATM    8  C3  UNL     1     -35.999  14.585  -6.083  1.00 20.00     0.145 A 
HETATM    9  C5  UNL     1     -33.801  15.176  -7.133  1.00 20.00     0.179 C 
ENDBRANCH   2   4
TORSDOF 1
ENDMDL
MODEL 6
REMARK VINA RESULT:      -3.6     11.037     11.534
REMARK  1 active torsions:
REMARK  status: ('A' for Active; 'I' for Inactive)
REMARK    1  A    between atoms: C4_4  and  N7_7 
ROOT
HETATM    1  C1  UNL     1     -33.732  15.874  -3.147  1.00 20.00     0.163 C 
HETATM    2  N7  UNL     1     -34.006  14.915  -3.791  1.00 20.00    -0.231 NA
HETATM    3  S9  UNL     1     -33.351  17.158  -2.284  1.00 20.00    -0.055 SA
ENDROOT
BRANCH   2   4
HETATM    4  C4  UNL     1     -35.366  14.745  -3.992  1.00 20.00     0.094 A 
HETATM    5  C2  UNL     1     -36.029  13.585  -4.434  1.00 20.00     0.171 A 
HETATM    6  N6  UNL     1     -37.352  13.749  -4.524  1.00 20.00    -0.183 NA
HETATM    7  N8  UNL     1     -37.528  15.023  -4.135  1.00 20.00    -0.283 N 
HETATM    8  C3  UNL     1     -36.370  15.665  -3.806  1.00 20.00     0.145 A 
HETATM    9  C5  UNL     1     -38.858  15.584  -4.099  1.00 20.00     0.179 C 
ENDBRANCH   2   4
TORSDOF 1
ENDMDL
MODEL 7
REMARK VINA RESULT:      -3.5     11.266     11.782
REMARK  1 active torsions:
REMARK  status: ('A' for Active; 'I' for Inactive)
REMARK    1  A    between atoms: C4_4  and  N7_7 
ROOT
HETATM    1  C1  UNL     1     -34.012  14.874  -6.024  1.00 20.00     0.163 C 
HETATM    2  N7  UNL     1     -33.686  14.375  -4.998  1.00 20.00    -0.231 NA
HETATM    3  S9  UNL     1     -34.444  15.533  -7.409  1.00 20.00    -0.055 SA
ENDROOT
BRANCH   2   4
HETATM    4  C4  UNL     1     -33.910  15.177  -3.890  1.00 20.00     0.094 A 
HETATM    5  C2  UNL     1     -35.033  15.172  -3.041  1.00 20.00     0.171 A 
HETATM    6  N6  UNL     1     -34.940  16.072  -2.058  1.00 20.00    -0.183 NA
HETATM    7  N8  UNL     1     -33.750  16.651  -2.287  1.00 20.00    -0.283 N 
HETATM    8  C3  UNL     1     -33.093  16.152  -3.373  1.00 20.00     0.145 A 
HETATM    9  C5  UNL     1     -33.284  17.702  -1.412  1.00 20.00     0.179 C 
ENDBRANCH   2   4
TORSDOF 1
ENDMDL
MODEL 8
REMARK VINA RESULT:      -3.4     11.189     12.242
REMARK  1 active torsions:
REMARK  status: ('A' for Active; 'I' for Inactive)
REMARK    1  A    between atoms: C4_4  and  N7_7 
ROOT
HETATM    1  C1  UNL     1     -34.094  16.029  -2.695  1.00 20.00     0.163 C 
HETATM    2  N7  UNL     1     -34.832  15.120  -2.889  1.00 20.00    -0.231 NA
HETATM    3  S9  UNL     1     -33.104  17.247  -2.421  1.00 20.00    -0.055 SA
ENDROOT
BRANCH   2   4
HETATM    4  C4  UNL     1     -35.090  14.885  -4.230  1.00 20.00     0.094 A 
HETATM    5  C2  UNL     1     -35.999  13.961  -4.779  1.00 20.00     0.171 A 
HETATM    6  N6  UNL     1     -36.010  13.979  -6.115  1.00 20.00    -0.183 NA
HETATM    7  N8  UNL     1     -35.101  14.922  -6.414  1.00 20.00    -0.283 N 
HETATM    8  C3  UNL     1     -34.519  15.494  -5.321  1.00 20.00     0.145 A 
HETATM    9  C5  UNL     1     -34.823  15.238  -7.796  1.00 20.00     0.179 C 
ENDBRANCH   2   4
TORSDOF 1
ENDMDL
MODEL 9
REMARK VINA RESULT:      -3.3     11.391     12.088
REMARK  1 active torsions:
REMARK  status: ('A' for Active; 'I' for Inactive)
REMARK    1  A    between atoms: C4_4  and  N7_7 
ROOT
HETATM    1  C1  UNL     1     -33.570  16.900  -2.164  1.00 20.00     0.163 C 
HETATM    2  N7  UNL     1     -34.296  15.974  -2.310  1.00 20.00    -0.231 NA
HETATM    3  S9  UNL     1     -32.597  18.145  -1.955  1.00 20.00    -0.055 SA
ENDROOT
BRANCH   2   4
HETATM    4  C4  UNL     1     -34.332  15.489  -3.608  1.00 20.00     0.094 A 
HETATM    5  C2  UNL     1     -33.323  14.781  -4.287  1.00 20.00     0.171 A 
HETATM    6  N6  UNL     1     -33.672  14.454  -5.534  1.00 20.00    -0.183 NA
HETATM    7  N8  UNL     1     -34.912  14.959  -5.646  1.00 20.00    -0.283 N 
HETATM    8  C3  UNL     1     -35.354  15.590  -4.521  1.00 20.00     0.145 A 
HETATM    9  C5  UNL     1     -35.640  14.803  -6.883  1.00 20.00     0.179 C 
ENDBRANCH   2   4
TORSDOF 1
ENDMDL
