MODEL 1
REMARK VINA RESULT:      -3.9      0.000      0.000
REMARK  1 active torsions:
REMARK  status: ('A' for Active; 'I' for Inactive)
REMARK    1  A    between atoms: C1_1  and  C6_6 
ROOT
HETATM    1  C2  UNL     1     -43.353   7.576   0.077  1.00 20.00     0.038 C 
HETATM    2  C3  UNL     1     -41.038   6.618   0.439  1.00 20.00     0.038 C 
HETATM    3  C4  UNL     1     -43.329   6.894  -1.287  1.00 20.00     0.168 C 
HETATM    4  C5  UNL     1     -41.168   6.001  -0.950  1.00 20.00     0.168 C 
HETATM    5  C6  UNL     1     -41.954   7.821   0.632  1.00 20.00     0.051 C 
HETATM    6  O8  UNL     1     -42.531   5.713  -1.251  1.00 20.00    -0.391 OA
ENDROOT
BRANCH   5   7
HETATM    7  C1  UNL     1     -41.341   9.027  -0.062  1.00 20.00     0.235 C 
HETATM    8  O7  UNL     1     -41.463  10.176   0.348  1.00 20.00    -0.306 OA
ENDBRANCH   5   7
TORSDOF 1
ENDMDL
MODEL 2
REMARK VINA RESULT:      -3.8      9.967     11.754
REMARK  1 active torsions:
REMARK  status: ('A' for Active; 'I' for Inactive)
REMARK    1  A    between atoms: C1_1  and  C6_6 
ROOT
HETATM    1  C2  UNL     1     -33.812  14.986  -5.087  1.00 20.00     0.038 C 
HETATM    2  C3  UNL     1     -34.763  15.551  -2.811  1.00 20.00     0.038 C 
HETATM    3  C4  UNL     1     -34.435  16.289  -5.577  1.00 20.00     0.168 C 
HETATM    4  C5  UNL     1     -35.325  16.815  -3.453  1.00 20.00     0.168 C 
HETATM    5  C6  UNL     1     -34.488  14.451  -3.830  1.00 20.00     0.051 C 
HETATM    6  O8  UNL     1     -34.494  17.250  -4.527  1.00 20.00    -0.391 OA
ENDROOT
BRANCH   5   7
HETATM    7  C1  UNL     1     -35.802  13.786  -4.209  1.00 20.00     0.235 C 
HETATM    8  O7  UNL     1     -35.888  12.616  -4.565  1.00 20.00    -0.306 OA
ENDBRANCH   5   7
TORSDOF 1
ENDMDL
MODEL 3
REMARK VINA RESULT:      -3.7      0.981      1.834
REMARK  1 active torsions:
REMARK  status: ('A' for Active; 'I' for Inactive)
REMARK    1  A    between atoms: C1_1  and  C6_6 
ROOT
HETATM    1  C2  UNL     1     -41.132   6.726   0.499  1.00 20.00     0.038 C 
HETATM    2  C3  UNL     1     -42.131   7.725  -1.601  1.00 20.00     0.038 C 
HETATM    3  C4  UNL     1     -42.483   6.054   0.721  1.00 20.00     0.168 C 
HETATM    4  C5  UNL     1     -43.416   6.988  -1.239  1.00 20.00     0.168 C 
HETATM    5  C6  UNL     1     -41.232   7.959  -0.392  1.00 20.00     0.051 C 
HETATM    6  O8  UNL     1     -43.128   5.790  -0.523  1.00 20.00    -0.391 OA
ENDROOT
BRANCH   5   7
HETATM    7  C1  UNL     1     -41.781   9.123   0.417  1.00 20.00     0.235 C 
HETATM    8  O7  UNL     1     -41.331  10.262   0.353  1.00 20.00    -0.306 OA
ENDBRANCH   5   7
TORSDOF 1
ENDMDL
MODEL 4
REMARK VINA RESULT:      -3.7      1.080      1.837
REMARK  1 active torsions:
REMARK  status: ('A' for Active; 'I' for Inactive)
REMARK    1  A    between atoms: C1_1  and  C6_6 
ROOT
HETATM    1  C2  UNL     1     -41.759   7.308  -1.420  1.00 20.00     0.038 C 
HETATM    2  C3  UNL     1     -43.396   7.423   0.507  1.00 20.00     0.038 C 
HETATM    3  C4  UNL     1     -41.151   6.097  -0.720  1.00 20.00     0.168 C 
HETATM    4  C5  UNL     1     -42.678   6.206   1.080  1.00 20.00     0.168 C 
HETATM    5  C6  UNL     1     -42.524   8.214  -0.462  1.00 20.00     0.051 C 
HETATM    6  O8  UNL     1     -42.137   5.399   0.036  1.00 20.00    -0.391 OA
ENDROOT
BRANCH   5   7
HETATM    7  C1  UNL     1     -41.537   9.055   0.332  1.00 20.00     0.235 C 
HETATM    8  O7  UNL     1     -41.542  10.281   0.333  1.00 20.00    -0.306 OA
ENDBRANCH   5   7
TORSDOF 1
ENDMDL
MODEL 5
REMARK VINA RESULT:      -3.7     22.465     23.297
REMARK  1 active torsions:
REMARK  status: ('A' for Active; 'I' for Inactive)
REMARK    1  A    between atoms: C1_1  and  C6_6 
ROOT
HETATM    1  C2  UNL     1     -24.728  18.546  10.097  1.00 20.00     0.038 C 
HETATM    2  C3  UNL     1     -22.423  18.675   9.060  1.00 20.00     0.038 C 
HETATM    3  C4  UNL     1     -24.468  17.053  10.280  1.00 20.00     0.168 C 
HETATM    4  C5  UNL     1     -22.317  17.175   9.310  1.00 20.00     0.168 C 
HETATM    5  C6  UNL     1     -23.867  19.158   8.997  1.00 20.00     0.051 C 
HETATM    6  O8  UNL     1     -23.077  16.797  10.456  1.00 20.00    -0.391 OA
ENDROOT
BRANCH   5   7
HETATM    7  C1  UNL     1     -24.452  18.797   7.641  1.00 20.00     0.235 C 
HETATM    8  O7  UNL     1     -23.835  18.912   6.588  1.00 20.00    -0.306 OA
ENDBRANCH   5   7
TORSDOF 1
ENDMDL
MODEL 6
REMARK VINA RESULT:      -3.7      9.012      9.894
REMARK  1 active torsions:
REMARK  status: ('A' for Active; 'I' for Inactive)
REMARK    1  A    between atoms: C1_1  and  C6_6 
ROOT
HETATM    1  C2  UNL     1     -35.376   5.105   4.607  1.00 20.00     0.038 C 
HETATM    2  C3  UNL     1     -33.814   7.002   3.999  1.00 20.00     0.038 C 
HETATM    3  C4  UNL     1     -34.776   5.173   6.008  1.00 20.00     0.168 C 
HETATM    4  C5  UNL     1     -33.317   6.943   5.440  1.00 20.00     0.168 C 
HETATM    5  C6  UNL     1     -34.452   5.693   3.547  1.00 20.00     0.051 C 
HETATM    6  O8  UNL     1     -34.351   6.499   6.315  1.00 20.00    -0.391 OA
ENDROOT
BRANCH   5   7
HETATM    7  C1  UNL     1     -33.354   4.692   3.225  1.00 20.00     0.235 C 
HETATM    8  O7  UNL     1     -33.002   4.420   2.082  1.00 20.00    -0.306 OA
ENDBRANCH   5   7
TORSDOF 1
ENDMDL
MODEL 7
REMARK VINA RESULT:      -3.6      9.982     11.798
REMARK  1 active torsions:
REMARK  status: ('A' for Active; 'I' for Inactive)
REMARK    1  A    between atoms: C1_1  and  C6_6 
ROOT
HETATM    1  C2  UNL     1     -34.626  15.579  -2.645  1.00 20.00     0.038 C 
HETATM    2  C3  UNL     1     -35.847  15.910  -4.837  1.00 20.00     0.038 C 
HETATM    3  C4  UNL     1     -33.401  16.170  -3.337  1.00 20.00     0.168 C 
HETATM    4  C5  UNL     1     -34.541  16.477  -5.383  1.00 20.00     0.168 C 
HETATM    5  C6  UNL     1     -35.632  15.000  -3.634  1.00 20.00     0.051 C 
HETATM    6  O8  UNL     1     -33.786  17.099  -4.346  1.00 20.00    -0.391 OA
ENDROOT
BRANCH   5   7
HETATM    7  C1  UNL     1     -35.139  13.646  -4.118  1.00 20.00     0.235 C 
HETATM    8  O7  UNL     1     -35.887  12.745  -4.482  1.00 20.00    -0.306 OA
ENDBRANCH   5   7
TORSDOF 1
ENDMDL
MODEL 8
REMARK VINA RESULT:      -3.6     22.853     23.676
REMARK  1 active torsions:
REMARK  status: ('A' for Active; 'I' for Inactive)
REMARK    1  A    between atoms: C1_1  and  C6_6 
ROOT
HETATM    1  C2  UNL     1     -24.699  18.379   9.506  1.00 20.00     0.038 C 
HETATM    2  C3  UNL     1     -22.883  16.646   9.188  1.00 20.00     0.038 C 
HETATM    3  C4  UNL     1     -23.939  19.237   8.499  1.00 20.00     0.168 C 
HETATM    4  C5  UNL     1     -22.243  17.619   8.204  1.00 20.00     0.168 C 
HETATM    5  C6  UNL     1     -23.808  17.341  10.179  1.00 20.00     0.051 C 
HETATM    6  O8  UNL     1     -23.234  18.421   7.567  1.00 20.00    -0.391 OA
ENDROOT
BRANCH   5   7
HETATM    7  C1  UNL     1     -22.969  18.017  11.251  1.00 20.00     0.235 C 
HETATM    8  O7  UNL     1     -22.450  17.413  12.183  1.00 20.00    -0.306 OA
ENDBRANCH   5   7
TORSDOF 1
ENDMDL
MODEL 9
REMARK VINA RESULT:      -3.6      1.169      3.300
REMARK  1 active torsions:
REMARK  status: ('A' for Active; 'I' for Inactive)
REMARK    1  A    between atoms: C1_1  and  C6_6 
ROOT
HETATM    1  C2  UNL     1     -41.189   7.619   0.803  1.00 20.00     0.038 C 
HETATM    2  C3  UNL     1     -43.384   6.941  -0.258  1.00 20.00     0.038 C 
HETATM    3  C4  UNL     1     -41.369   8.967   0.113  1.00 20.00     0.168 C 
HETATM    4  C5  UNL     1     -43.417   8.333  -0.879  1.00 20.00     0.168 C 
HETATM    5  C6  UNL     1     -41.974   6.504   0.121  1.00 20.00     0.051 C 
HETATM    6  O8  UNL     1     -42.752   9.277  -0.044  1.00 20.00    -0.391 OA
ENDROOT
BRANCH   5   7
HETATM    7  C1  UNL     1     -41.237   6.063  -1.133  1.00 20.00     0.235 C 
HETATM    8  O7  UNL     1     -40.486   5.094  -1.169  1.00 20.00    -0.306 OA
ENDBRANCH   5   7
TORSDOF 1
ENDMDL
