MODEL 1
REMARK VINA RESULT:      -4.5      0.000      0.000
REMARK  3 active torsions:
REMARK  status: ('A' for Active; 'I' for Inactive)
REMARK    1  A    between atoms: C3_3  and  C4_4 
REMARK    2  A    between atoms: C4_4  and  O10_10 
REMARK    3  A    between atoms: C7_7  and  O10_10 
ROOT
HETATM    1  C1  UNL     1     -32.718   7.986   1.314  1.00 20.00     0.105 C 
HETATM    2  C2  UNL     1     -31.491   7.613   3.338  1.00 20.00     0.042 C 
HETATM    3  C3  UNL     1     -32.471   7.241   2.502  1.00 20.00     0.110 C 
HETATM    4  N8  UNL     1     -32.921   8.593   0.345  1.00 20.00    -0.191 NA
ENDROOT
BRANCH   3   5
HETATM    5  C4  UNL     1     -33.274   6.041   2.865  1.00 20.00     0.303 C 
HETATM    6  O9  UNL     1     -33.101   4.924   2.396  1.00 20.00    -0.258 OA
BRANCH   5   7
HETATM    7  O10 UNL     1     -34.213   6.383   3.789  1.00 20.00    -0.312 OA
BRANCH   7   8
HETATM    8  C7  UNL     1     -34.006   5.860   5.106  1.00 20.00     0.124 C 
HETATM    9  C5  UNL     1     -33.916   7.014   6.093  1.00 20.00     0.040 C 
HETATM   10  C6  UNL     1     -35.140   4.907   5.450  1.00 20.00     0.040 C 
ENDBRANCH   7   8
ENDBRANCH   5   7
ENDBRANCH   3   5
TORSDOF 3
ENDMDL
MODEL 2
REMARK VINA RESULT:      -4.5     11.124     11.854
REMARK  3 active torsions:
REMARK  status: ('A' for Active; 'I' for Inactive)
REMARK    1  A    between atoms: C3_3  and  C4_4 
REMARK    2  A    between atoms: C4_4  and  O10_10 
REMARK    3  A    between atoms: C7_7  and  O10_10 
ROOT
HETATM    1  C1  UNL     1     -36.493  14.142  -4.884  1.00 20.00     0.105 C 
HETATM    2  C2  UNL     1     -35.266  14.967  -6.769  1.00 20.00     0.042 C 
HETATM    3  C3  UNL     1     -35.289  14.621  -5.474  1.00 20.00     0.110 C 
HETATM    4  N8  UNL     1     -37.474  13.751  -4.401  1.00 20.00    -0.191 NA
ENDROOT
BRANCH   3   5
HETATM    5  C4  UNL     1     -34.027  14.760  -4.696  1.00 20.00     0.303 C 
HETATM    6  O9  UNL     1     -33.202  13.868  -4.549  1.00 20.00    -0.258 OA
BRANCH   5   7
HETATM    7  O10 UNL     1     -33.941  16.020  -4.187  1.00 20.00    -0.312 OA
BRANCH   7   8
HETATM    8  C7  UNL     1     -33.696  16.103  -2.778  1.00 20.00     0.124 C 
HETATM    9  C5  UNL     1     -32.919  17.377  -2.481  1.00 20.00     0.040 C 
HETATM   10  C6  UNL     1     -35.024  16.062  -2.036  1.00 20.00     0.040 C 
ENDBRANCH   7   8
ENDBRANCH   5   7
ENDBRANCH   3   5
TORSDOF 3
ENDMDL
MODEL 3
REMARK VINA RESULT:      -4.1     10.906     11.572
REMARK  3 active torsions:
REMARK  status: ('A' for Active; 'I' for Inactive)
REMARK    1  A    between atoms: C3_3  and  C4_4 
REMARK    2  A    between atoms: C4_4  and  O10_10 
REMARK    3  A    between atoms: C7_7  and  O10_10 
ROOT
HETATM    1  C1  UNL     1     -35.325  13.734  -4.196  1.00 20.00     0.105 C 
HETATM    2  C2  UNL     1     -33.237  14.909  -4.138  1.00 20.00     0.042 C 
HETATM    3  C3  UNL     1     -34.519  14.822  -3.755  1.00 20.00     0.110 C 
HETATM    4  N8  UNL     1     -35.984  12.848  -4.555  1.00 20.00    -0.191 NA
ENDROOT
BRANCH   3   5
HETATM    5  C4  UNL     1     -35.052  15.895  -2.869  1.00 20.00     0.303 C 
HETATM    6  O9  UNL     1     -36.157  16.406  -2.988  1.00 20.00    -0.258 OA
BRANCH   5   7
HETATM    7  O10 UNL     1     -34.125  16.205  -1.922  1.00 20.00    -0.312 OA
BRANCH   7   8
HETATM    8  C7  UNL     1     -33.985  17.600  -1.626  1.00 20.00     0.124 C 
HETATM    9  C5  UNL     1     -34.463  17.858  -0.205  1.00 20.00     0.040 C 
HETATM   10  C6  UNL     1     -32.533  18.010  -1.818  1.00 20.00     0.040 C 
ENDBRANCH   7   8
ENDBRANCH   5   7
ENDBRANCH   3   5
TORSDOF 3
ENDMDL
MODEL 4
REMARK VINA RESULT:      -4.0     11.082     12.578
REMARK  3 active torsions:
REMARK  status: ('A' for Active; 'I' for Inactive)
REMARK    1  A    between atoms: C3_3  and  C4_4 
REMARK    2  A    between atoms: C4_4  and  O10_10 
REMARK    3  A    between atoms: C7_7  and  O10_10 
ROOT
HETATM    1  C1  UNL     1     -36.509  14.310  -4.078  1.00 20.00     0.105 C 
HETATM    2  C2  UNL     1     -35.193  15.654  -2.593  1.00 20.00     0.042 C 
HETATM    3  C3  UNL     1     -35.268  14.895  -3.695  1.00 20.00     0.110 C 
HETATM    4  N8  UNL     1     -37.519  13.831  -4.390  1.00 20.00    -0.191 NA
ENDROOT
BRANCH   3   5
HETATM    5  C4  UNL     1     -34.021  14.695  -4.485  1.00 20.00     0.303 C 
HETATM    6  O9  UNL     1     -33.367  13.661  -4.496  1.00 20.00    -0.258 OA
BRANCH   5   7
HETATM    7  O10 UNL     1     -33.735  15.829  -5.181  1.00 20.00    -0.312 OA
BRANCH   7   8
HETATM    8  C7  UNL     1     -34.524  16.051  -6.355  1.00 20.00     0.124 C 
HETATM    9  C5  UNL     1     -34.578  17.543  -6.646  1.00 20.00     0.040 C 
HETATM   10  C6  UNL     1     -33.926  15.269  -7.515  1.00 20.00     0.040 C 
ENDBRANCH   7   8
ENDBRANCH   5   7
ENDBRANCH   3   5
TORSDOF 3
ENDMDL
MODEL 5
REMARK VINA RESULT:      -4.0     11.439     12.378
REMARK  3 active torsions:
REMARK  status: ('A' for Active; 'I' for Inactive)
REMARK    1  A    between atoms: C3_3  and  C4_4 
REMARK    2  A    between atoms: C4_4  and  O10_10 
REMARK    3  A    between atoms: C7_7  and  O10_10 
ROOT
HETATM    1  C1  UNL     1     -31.496  18.252  -0.706  1.00 20.00     0.105 C 
HETATM    2  C2  UNL     1     -33.883  18.075  -0.582  1.00 20.00     0.042 C 
HETATM    3  C3  UNL     1     -32.760  18.004  -1.312  1.00 20.00     0.110 C 
HETATM    4  N8  UNL     1     -30.465  18.456  -0.213  1.00 20.00    -0.191 NA
ENDROOT
BRANCH   3   5
HETATM    5  C4  UNL     1     -32.893  17.663  -2.756  1.00 20.00     0.303 C 
HETATM    6  O9  UNL     1     -33.046  18.483  -3.650  1.00 20.00    -0.258 OA
BRANCH   5   7
HETATM    7  O10 UNL     1     -32.814  16.313  -2.914  1.00 20.00    -0.312 OA
BRANCH   7   8
HETATM    8  C7  UNL     1     -33.809  15.730  -3.764  1.00 20.00     0.124 C 
HETATM    9  C5  UNL     1     -33.219  14.516  -4.464  1.00 20.00     0.040 C 
HETATM   10  C6  UNL     1     -35.028  15.366  -2.930  1.00 20.00     0.040 C 
ENDBRANCH   7   8
ENDBRANCH   5   7
ENDBRANCH   3   5
TORSDOF 3
ENDMDL
MODEL 6
REMARK VINA RESULT:      -4.0     15.293     16.115
REMARK  3 active torsions:
REMARK  status: ('A' for Active; 'I' for Inactive)
REMARK    1  A    between atoms: C3_3  and  C4_4 
REMARK    2  A    between atoms: C4_4  and  O10_10 
REMARK    3  A    between atoms: C7_7  and  O10_10 
ROOT
HETATM    1  C1  UNL     1     -23.973  18.949   7.337  1.00 20.00     0.105 C 
HETATM    2  C2  UNL     1     -22.300  18.702   9.034  1.00 20.00     0.042 C 
HETATM    3  C3  UNL     1     -23.594  18.696   8.686  1.00 20.00     0.110 C 
HETATM    4  N8  UNL     1     -24.283  19.155   6.238  1.00 20.00    -0.191 NA
ENDROOT
BRANCH   3   5
HETATM    5  C4  UNL     1     -24.598  18.422   9.752  1.00 20.00     0.303 C 
HETATM    6  O9  UNL     1     -25.473  19.203  10.097  1.00 20.00    -0.258 OA
BRANCH   5   7
HETATM    7  O10 UNL     1     -24.386  17.180  10.269  1.00 20.00    -0.312 OA
BRANCH   7   8
HETATM    8  C7  UNL     1     -24.495  17.075  11.693  1.00 20.00     0.124 C 
HETATM    9  C5  UNL     1     -24.802  15.633  12.065  1.00 20.00     0.040 C 
HETATM   10  C6  UNL     1     -23.202  17.561  12.331  1.00 20.00     0.040 C 
ENDBRANCH   7   8
ENDBRANCH   5   7
ENDBRANCH   3   5
TORSDOF 3
ENDMDL
MODEL 7
REMARK VINA RESULT:      -4.0     10.833     11.660
REMARK  3 active torsions:
REMARK  status: ('A' for Active; 'I' for Inactive)
REMARK    1  A    between atoms: C3_3  and  C4_4 
REMARK    2  A    between atoms: C4_4  and  O10_10 
REMARK    3  A    between atoms: C7_7  and  O10_10 
ROOT
HETATM    1  C1  UNL     1     -34.612  15.608  -2.689  1.00 20.00     0.105 C 
HETATM    2  C2  UNL     1     -33.493  14.388  -4.422  1.00 20.00     0.042 C 
HETATM    3  C3  UNL     1     -34.614  14.635  -3.729  1.00 20.00     0.110 C 
HETATM    4  N8  UNL     1     -34.612  16.400  -1.841  1.00 20.00    -0.191 NA
ENDROOT
BRANCH   3   5
HETATM    5  C4  UNL     1     -35.834  13.859  -4.085  1.00 20.00     0.303 C 
HETATM    6  O9  UNL     1     -35.825  12.780  -4.663  1.00 20.00    -0.258 OA
BRANCH   5   7
HETATM    7  O10 UNL     1     -36.941  14.534  -3.669  1.00 20.00    -0.312 OA
BRANCH   7   8
HETATM    8  C7  UNL     1     -37.807  15.004  -4.708  1.00 20.00     0.124 C 
HETATM    9  C5  UNL     1     -39.250  14.907  -4.238  1.00 20.00     0.040 C 
HETATM   10  C6  UNL     1     -37.424  16.431  -5.071  1.00 20.00     0.040 C 
ENDBRANCH   7   8
ENDBRANCH   5   7
ENDBRANCH   3   5
TORSDOF 3
ENDMDL
MODEL 8
REMARK VINA RESULT:      -3.9     10.852     12.208
REMARK  3 active torsions:
REMARK  status: ('A' for Active; 'I' for Inactive)
REMARK    1  A    between atoms: C3_3  and  C4_4 
REMARK    2  A    between atoms: C4_4  and  O10_10 
REMARK    3  A    between atoms: C7_7  and  O10_10 
ROOT
HETATM    1  C1  UNL     1     -34.873  15.517  -2.679  1.00 20.00     0.105 C 
HETATM    2  C2  UNL     1     -33.393  14.480  -4.253  1.00 20.00     0.042 C 
HETATM    3  C3  UNL     1     -34.637  14.648  -3.782  1.00 20.00     0.110 C 
HETATM    4  N8  UNL     1     -35.067  16.224  -1.779  1.00 20.00    -0.191 NA
ENDROOT
BRANCH   3   5
HETATM    5  C4  UNL     1     -35.737  13.899  -4.450  1.00 20.00     0.303 C 
HETATM    6  O9  UNL     1     -35.818  12.679  -4.493  1.00 20.00    -0.258 OA
BRANCH   5   7
HETATM    7  O10 UNL     1     -36.624  14.779  -4.992  1.00 20.00    -0.312 OA
BRANCH   7   8
HETATM    8  C7  UNL     1     -36.086  15.676  -5.970  1.00 20.00     0.124 C 
HETATM    9  C5  UNL     1     -35.804  14.906  -7.252  1.00 20.00     0.040 C 
HETATM   10  C6  UNL     1     -37.068  16.815  -6.198  1.00 20.00     0.040 C 
ENDBRANCH   7   8
ENDBRANCH   5   7
ENDBRANCH   3   5
TORSDOF 3
ENDMDL
MODEL 9
REMARK VINA RESULT:      -3.9     11.086     11.928
REMARK  3 active torsions:
REMARK  status: ('A' for Active; 'I' for Inactive)
REMARK    1  A    between atoms: C3_3  and  C4_4 
REMARK    2  A    between atoms: C4_4  and  O10_10 
REMARK    3  A    between atoms: C7_7  and  O10_10 
ROOT
HETATM    1  C1  UNL     1     -34.133  14.910  -6.054  1.00 20.00     0.105 C 
HETATM    2  C2  UNL     1     -33.748  15.188  -3.705  1.00 20.00     0.042 C 
HETATM    3  C3  UNL     1     -34.497  14.684  -4.696  1.00 20.00     0.110 C 
HETATM    4  N8  UNL     1     -33.838  15.094  -7.161  1.00 20.00    -0.191 NA
ENDROOT
BRANCH   3   5
HETATM    5  C4  UNL     1     -35.703  13.895  -4.320  1.00 20.00     0.303 C 
HETATM    6  O9  UNL     1     -35.863  12.710  -4.577  1.00 20.00    -0.258 OA
BRANCH   5   7
HETATM    7  O10 UNL     1     -36.582  14.695  -3.655  1.00 20.00    -0.312 OA
BRANCH   7   8
HETATM    8  C7  UNL     1     -37.515  15.407  -4.476  1.00 20.00     0.124 C 
HETATM    9  C5  UNL     1     -38.911  14.849  -4.244  1.00 20.00     0.040 C 
HETATM   10  C6  UNL     1     -37.436  16.891  -4.151  1.00 20.00     0.040 C 
ENDBRANCH   7   8
ENDBRANCH   5   7
ENDBRANCH   3   5
TORSDOF 3
ENDMDL
