MODEL 1
REMARK VINA RESULT:      -3.9      0.000      0.000
REMARK  0 active torsions:
REMARK  status: ('A' for Active; 'I' for Inactive)
ROOT
HETATM    1  C1  UNL     1     -24.218  18.125  10.435  1.00 20.00     0.027 A 
HETATM    2  C2  UNL     1     -24.004  16.634  10.476  1.00 20.00     0.027 A 
HETATM    3  C3  UNL     1     -22.835  17.570  10.708  1.00 20.00     0.120 A 
HETATM    4  C4  UNL     1     -24.583  18.787   9.150  1.00 20.00     0.014 C 
HETATM    5  C5  UNL     1     -24.620  15.825  11.567  1.00 20.00     0.014 C 
HETATM    6 CL6  UNL     1     -21.590  17.641   9.461  1.00 20.00    -0.101 Cl
HETATM    7 CL7  UNL     1     -22.180  17.782  12.332  1.00 20.00    -0.101 Cl
ENDROOT
TORSDOF 0
ENDMDL
MODEL 2
REMARK VINA RESULT:      -3.9      0.033      2.699
REMARK  0 active torsions:
REMARK  status: ('A' for Active; 'I' for Inactive)
ROOT
HETATM    1  C1  UNL     1     -24.021  16.620  10.486  1.00 20.00     0.027 A 
HETATM    2  C2  UNL     1     -24.242  18.110  10.421  1.00 20.00     0.027 A 
HETATM    3  C3  UNL     1     -22.857  17.566  10.708  1.00 20.00     0.120 A 
HETATM    4  C4  UNL     1     -24.638  15.827  11.587  1.00 20.00     0.014 C 
HETATM    5  C5  UNL     1     -24.605  18.750   9.123  1.00 20.00     0.014 C 
HETATM    6 CL6  UNL     1     -22.210  17.807  12.331  1.00 20.00    -0.101 Cl
HETATM    7 CL7  UNL     1     -21.608  17.622   9.465  1.00 20.00    -0.101 Cl
ENDROOT
TORSDOF 0
ENDMDL
MODEL 3
REMARK VINA RESULT:      -3.5      2.008      2.755
REMARK  0 active torsions:
REMARK  status: ('A' for Active; 'I' for Inactive)
ROOT
HETATM    1  C1  UNL     1     -22.909  17.464  12.258  1.00 20.00     0.027 A 
HETATM    2  C2  UNL     1     -24.016  18.237  11.588  1.00 20.00     0.027 A 
HETATM    3  C3  UNL     1     -23.653  16.854  11.086  1.00 20.00     0.120 A 
HETATM    4  C4  UNL     1     -21.502  17.946  12.158  1.00 20.00     0.014 C 
HETATM    5  C5  UNL     1     -25.277  18.522  12.331  1.00 20.00     0.014 C 
HETATM    6 CL6  UNL     1     -22.876  16.740   9.507  1.00 20.00    -0.101 Cl
HETATM    7 CL7  UNL     1     -24.712  15.485  11.421  1.00 20.00    -0.101 Cl
ENDROOT
TORSDOF 0
ENDMDL
MODEL 4
REMARK VINA RESULT:      -3.5      2.318      3.292
REMARK  0 active torsions:
REMARK  status: ('A' for Active; 'I' for Inactive)
ROOT
HETATM    1  C1  UNL     1     -23.692  18.167  11.753  1.00 20.00     0.027 A 
HETATM    2  C2  UNL     1     -24.204  17.840  10.374  1.00 20.00     0.027 A 
HETATM    3  C3  UNL     1     -24.881  17.242  11.590  1.00 20.00     0.120 A 
HETATM    4  C4  UNL     1     -22.346  17.686  12.178  1.00 20.00     0.014 C 
HETATM    5  C5  UNL     1     -24.833  18.907   9.542  1.00 20.00     0.014 C 
HETATM    6 CL6  UNL     1     -24.696  15.508  11.854  1.00 20.00    -0.101 Cl
HETATM    7 CL7  UNL     1     -26.455  17.842  12.112  1.00 20.00    -0.101 Cl
ENDROOT
TORSDOF 0
ENDMDL
MODEL 5
REMARK VINA RESULT:      -3.5      2.215      2.694
REMARK  0 active torsions:
REMARK  status: ('A' for Active; 'I' for Inactive)
ROOT
HETATM    1  C1  UNL     1     -22.753  17.022   9.712  1.00 20.00     0.027 A 
HETATM    2  C2  UNL     1     -22.707  18.037  10.826  1.00 20.00     0.027 A 
HETATM    3  C3  UNL     1     -24.044  17.530  10.323  1.00 20.00     0.120 A 
HETATM    4  C4  UNL     1     -22.303  17.402   8.343  1.00 20.00     0.014 C 
HETATM    5  C5  UNL     1     -22.146  17.657  12.154  1.00 20.00     0.014 C 
HETATM    6 CL6  UNL     1     -25.060  18.663   9.431  1.00 20.00    -0.101 Cl
HETATM    7 CL7  UNL     1     -24.983  16.398  11.295  1.00 20.00    -0.101 Cl
ENDROOT
TORSDOF 0
ENDMDL
MODEL 6
REMARK VINA RESULT:      -3.5      2.209      3.256
REMARK  0 active torsions:
REMARK  status: ('A' for Active; 'I' for Inactive)
ROOT
HETATM    1  C1  UNL     1     -22.789  18.023  10.950  1.00 20.00     0.027 A 
HETATM    2  C2  UNL     1     -22.906  16.968   9.880  1.00 20.00     0.027 A 
HETATM    3  C3  UNL     1     -24.154  17.647  10.408  1.00 20.00     0.120 A 
HETATM    4  C4  UNL     1     -22.331  17.645  12.318  1.00 20.00     0.014 C 
HETATM    5  C5  UNL     1     -22.359  17.230   8.517  1.00 20.00     0.014 C 
HETATM    6 CL6  UNL     1     -25.257  16.676  11.383  1.00 20.00    -0.101 Cl
HETATM    7 CL7  UNL     1     -24.994  18.843   9.423  1.00 20.00    -0.101 Cl
ENDROOT
TORSDOF 0
ENDMDL
MODEL 7
REMARK VINA RESULT:      -3.4      2.081      2.879
REMARK  0 active torsions:
REMARK  status: ('A' for Active; 'I' for Inactive)
ROOT
HETATM    1  C1  UNL     1     -23.182  18.248  10.128  1.00 20.00     0.027 A 
HETATM    2  C2  UNL     1     -24.490  18.067   9.401  1.00 20.00     0.027 A 
HETATM    3  C3  UNL     1     -24.367  17.635  10.848  1.00 20.00     0.120 A 
HETATM    4  C4  UNL     1     -21.989  17.454   9.716  1.00 20.00     0.014 C 
HETATM    5  C5  UNL     1     -25.276  19.263   8.979  1.00 20.00     0.014 C 
HETATM    6 CL6  UNL     1     -24.400  15.904  11.185  1.00 20.00    -0.101 Cl
HETATM    7 CL7  UNL     1     -25.123  18.589  12.124  1.00 20.00    -0.101 Cl
ENDROOT
TORSDOF 0
ENDMDL
MODEL 8
REMARK VINA RESULT:      -3.4     23.550     24.184
REMARK  0 active torsions:
REMARK  status: ('A' for Active; 'I' for Inactive)
ROOT
HETATM    1  C1  UNL     1     -42.816   6.730   0.751  1.00 20.00     0.027 A 
HETATM    2  C2  UNL     1     -41.508   7.446   0.532  1.00 20.00     0.027 A 
HETATM    3  C3  UNL     1     -42.187   6.748  -0.629  1.00 20.00     0.120 A 
HETATM    4  C4  UNL     1     -42.859   5.508   1.603  1.00 20.00     0.014 C 
HETATM    5  C5  UNL     1     -41.444   8.931   0.656  1.00 20.00     0.014 C 
HETATM    6 CL6  UNL     1     -41.416   5.296  -1.269  1.00 20.00    -0.101 Cl
HETATM    7 CL7  UNL     1     -42.997   7.692  -1.878  1.00 20.00    -0.101 Cl
ENDROOT
TORSDOF 0
ENDMDL
MODEL 9
REMARK VINA RESULT:      -3.3     23.557     24.108
REMARK  0 active torsions:
REMARK  status: ('A' for Active; 'I' for Inactive)
ROOT
HETATM    1  C1  UNL     1     -41.534   7.470   0.542  1.00 20.00     0.027 A 
HETATM    2  C2  UNL     1     -42.854   6.773   0.753  1.00 20.00     0.027 A 
HETATM    3  C3  UNL     1     -42.213   6.772  -0.620  1.00 20.00     0.120 A 
HETATM    4  C4  UNL     1     -41.453   8.954   0.657  1.00 20.00     0.014 C 
HETATM    5  C5  UNL     1     -42.921   5.556   1.613  1.00 20.00     0.014 C 
HETATM    6 CL6  UNL     1     -42.998   7.719  -1.884  1.00 20.00    -0.101 Cl
HETATM    7 CL7  UNL     1     -41.455   5.307  -1.243  1.00 20.00    -0.101 Cl
ENDROOT
TORSDOF 0
ENDMDL
