MODEL 1
REMARK VINA RESULT:      -4.9      0.000      0.000
REMARK  2 active torsions:
REMARK  status: ('A' for Active; 'I' for Inactive)
REMARK    1  A    between atoms: C2_2  and  C3_3 
REMARK    2  A    between atoms: C4_4  and  C5_5 
ROOT
HETATM    1  C3  UNL     1     -32.603   7.201   2.369  1.00 20.00    -0.001 C 
HETATM    2  C4  UNL     1     -33.332   6.076   2.352  1.00 20.00    -0.000 C 
ENDROOT
BRANCH   2   3
HETATM    3  C5  UNL     1     -33.733   5.378   3.553  1.00 20.00    -0.004 C 
HETATM    4  C6  UNL     1     -34.416   5.963   4.548  1.00 20.00    -0.031 C 
HETATM    5  C7  UNL     1     -34.837   5.255   5.792  1.00 20.00     0.036 C 
ENDBRANCH   2   3
BRANCH   1   6
HETATM    6  C2  UNL     1     -32.202   7.898   1.168  1.00 20.00    -0.010 C 
HETATM    7  C1  UNL     1     -32.929   8.869   0.604  1.00 20.00     0.011 C 
ENDBRANCH   1   6
TORSDOF 2
ENDMDL
MODEL 2
REMARK VINA RESULT:      -4.8      0.797      4.554
REMARK  2 active torsions:
REMARK  status: ('A' for Active; 'I' for Inactive)
REMARK    1  A    between atoms: C2_2  and  C3_3 
REMARK    2  A    between atoms: C4_4  and  C5_5 
ROOT
HETATM    1  C3  UNL     1     -34.151   5.350   3.568  1.00 20.00    -0.001 C 
HETATM    2  C4  UNL     1     -33.356   6.431   3.557  1.00 20.00    -0.000 C 
ENDROOT
BRANCH   2   3
HETATM    3  C5  UNL     1     -32.625   6.859   2.385  1.00 20.00    -0.004 C 
HETATM    4  C6  UNL     1     -32.995   7.905   1.631  1.00 20.00    -0.031 C 
HETATM    5  C7  UNL     1     -32.249   8.358   0.420  1.00 20.00     0.036 C 
ENDBRANCH   2   3
BRANCH   1   6
HETATM    6  C2  UNL     1     -34.881   4.923   4.740  1.00 20.00    -0.010 C 
HETATM    7  C1  UNL     1     -34.722   5.475   5.948  1.00 20.00     0.011 C 
ENDBRANCH   1   6
TORSDOF 2
ENDMDL
MODEL 3
REMARK VINA RESULT:      -3.7     10.527     11.588
REMARK  2 active torsions:
REMARK  status: ('A' for Active; 'I' for Inactive)
REMARK    1  A    between atoms: C2_2  and  C3_3 
REMARK    2  A    between atoms: C4_4  and  C5_5 
ROOT
HETATM    1  C3  UNL     1     -32.889  17.390  -2.175  1.00 20.00    -0.001 C 
HETATM    2  C4  UNL     1     -34.082  16.970  -1.728  1.00 20.00    -0.000 C 
ENDROOT
BRANCH   2   3
HETATM    3  C5  UNL     1     -34.824  15.897  -2.350  1.00 20.00    -0.004 C 
HETATM    4  C6  UNL     1     -34.345  15.169  -3.370  1.00 20.00    -0.031 C 
HETATM    5  C7  UNL     1     -35.100  14.058  -4.021  1.00 20.00     0.036 C 
ENDBRANCH   2   3
BRANCH   1   6
HETATM    6  C2  UNL     1     -32.148  18.463  -1.552  1.00 20.00    -0.010 C 
HETATM    7  C1  UNL     1     -31.344  18.287  -0.498  1.00 20.00     0.011 C 
ENDBRANCH   1   6
TORSDOF 2
ENDMDL
MODEL 4
REMARK VINA RESULT:      -3.7     10.475     11.480
REMARK  2 active torsions:
REMARK  status: ('A' for Active; 'I' for Inactive)
REMARK    1  A    between atoms: C2_2  and  C3_3 
REMARK    2  A    between atoms: C4_4  and  C5_5 
ROOT
HETATM    1  C3  UNL     1     -34.395  15.039  -3.445  1.00 20.00    -0.001 C 
HETATM    2  C4  UNL     1     -34.912  15.781  -2.454  1.00 20.00    -0.000 C 
ENDROOT
BRANCH   2   3
HETATM    3  C5  UNL     1     -34.201  16.877  -1.836  1.00 20.00    -0.004 C 
HETATM    4  C6  UNL     1     -32.955  17.233  -2.185  1.00 20.00    -0.031 C 
HETATM    5  C7  UNL     1     -32.210  18.363  -1.556  1.00 20.00     0.036 C 
ENDBRANCH   2   3
BRANCH   1   6
HETATM    6  C2  UNL     1     -35.107  13.944  -4.062  1.00 20.00    -0.010 C 
HETATM    7  C1  UNL     1     -36.403  13.999  -4.387  1.00 20.00     0.011 C 
ENDBRANCH   1   6
TORSDOF 2
ENDMDL
MODEL 5
REMARK VINA RESULT:      -3.5     10.931     11.894
REMARK  2 active torsions:
REMARK  status: ('A' for Active; 'I' for Inactive)
REMARK    1  A    between atoms: C2_2  and  C3_3 
REMARK    2  A    between atoms: C4_4  and  C5_5 
ROOT
HETATM    1  C3  UNL     1     -34.040  16.062  -2.489  1.00 20.00    -0.001 C 
HETATM    2  C4  UNL     1     -33.086  17.006  -2.483  1.00 20.00    -0.000 C 
ENDROOT
BRANCH   2   3
HETATM    3  C5  UNL     1     -32.871  17.902  -1.370  1.00 20.00    -0.004 C 
HETATM    4  C6  UNL     1     -31.652  18.233  -0.919  1.00 20.00    -0.031 C 
HETATM    5  C7  UNL     1     -31.416  19.157   0.229  1.00 20.00     0.036 C 
ENDBRANCH   2   3
BRANCH   1   6
HETATM    6  C2  UNL     1     -34.254  15.167  -3.603  1.00 20.00    -0.010 C 
HETATM    7  C1  UNL     1     -33.259  14.629  -4.316  1.00 20.00     0.011 C 
ENDBRANCH   1   6
TORSDOF 2
ENDMDL
MODEL 6
REMARK VINA RESULT:      -3.5      9.158      9.589
REMARK  2 active torsions:
REMARK  status: ('A' for Active; 'I' for Inactive)
REMARK    1  A    between atoms: C2_2  and  C3_3 
REMARK    2  A    between atoms: C4_4  and  C5_5 
ROOT
HETATM    1  C3  UNL     1     -41.329   7.095  -0.603  1.00 20.00    -0.001 C 
HETATM    2  C4  UNL     1     -41.390   5.771  -0.398  1.00 20.00    -0.000 C 
ENDROOT
BRANCH   2   3
HETATM    3  C5  UNL     1     -41.233   4.801  -1.459  1.00 20.00    -0.004 C 
HETATM    4  C6  UNL     1     -42.265   4.150  -2.016  1.00 20.00    -0.031 C 
HETATM    5  C7  UNL     1     -42.117   3.147  -3.111  1.00 20.00     0.036 C 
ENDBRANCH   2   3
BRANCH   1   6
HETATM    6  C2  UNL     1     -41.485   8.063   0.459  1.00 20.00    -0.010 C 
HETATM    7  C1  UNL     1     -41.448   9.385   0.259  1.00 20.00     0.011 C 
ENDBRANCH   1   6
TORSDOF 2
ENDMDL
MODEL 7
REMARK VINA RESULT:      -3.5      9.549     10.161
REMARK  2 active torsions:
REMARK  status: ('A' for Active; 'I' for Inactive)
REMARK    1  A    between atoms: C2_2  and  C3_3 
REMARK    2  A    between atoms: C4_4  and  C5_5 
ROOT
HETATM    1  C3  UNL     1     -42.692   4.923  -1.553  1.00 20.00    -0.001 C 
HETATM    2  C4  UNL     1     -41.458   5.302  -1.189  1.00 20.00    -0.000 C 
ENDROOT
BRANCH   2   3
HETATM    3  C5  UNL     1     -41.195   6.499  -0.423  1.00 20.00    -0.004 C 
HETATM    4  C6  UNL     1     -41.649   7.711  -0.776  1.00 20.00    -0.031 C 
HETATM    5  C7  UNL     1     -41.386   8.955   0.006  1.00 20.00     0.036 C 
ENDBRANCH   2   3
BRANCH   1   6
HETATM    6  C2  UNL     1     -42.953   3.726  -2.319  1.00 20.00    -0.010 C 
HETATM    7  C1  UNL     1     -42.038   3.134  -3.095  1.00 20.00     0.011 C 
ENDBRANCH   1   6
TORSDOF 2
ENDMDL
MODEL 8
REMARK VINA RESULT:      -3.4     10.734     11.236
REMARK  2 active torsions:
REMARK  status: ('A' for Active; 'I' for Inactive)
REMARK    1  A    between atoms: C2_2  and  C3_3 
REMARK    2  A    between atoms: C4_4  and  C5_5 
ROOT
HETATM    1  C3  UNL     1     -33.706  16.270  -2.611  1.00 20.00    -0.001 C 
HETATM    2  C4  UNL     1     -34.905  16.151  -2.020  1.00 20.00    -0.000 C 
ENDROOT
BRANCH   2   3
HETATM    3  C5  UNL     1     -35.281  16.903  -0.844  1.00 20.00    -0.004 C 
HETATM    4  C6  UNL     1     -34.440  17.725  -0.198  1.00 20.00    -0.031 C 
HETATM    5  C7  UNL     1     -34.815  18.507   1.017  1.00 20.00     0.036 C 
ENDBRANCH   2   3
BRANCH   1   6
HETATM    6  C2  UNL     1     -33.332  15.518  -3.786  1.00 20.00    -0.010 C 
HETATM    7  C1  UNL     1     -33.966  14.409  -4.184  1.00 20.00     0.011 C 
ENDBRANCH   1   6
TORSDOF 2
ENDMDL
MODEL 9
REMARK VINA RESULT:      -3.4     10.901     11.618
REMARK  2 active torsions:
REMARK  status: ('A' for Active; 'I' for Inactive)
REMARK    1  A    between atoms: C2_2  and  C3_3 
REMARK    2  A    between atoms: C4_4  and  C5_5 
ROOT
HETATM    1  C3  UNL     1     -35.102  16.686  -1.217  1.00 20.00    -0.001 C 
HETATM    2  C4  UNL     1     -33.936  17.056  -1.768  1.00 20.00    -0.000 C 
ENDROOT
BRANCH   2   3
HETATM    3  C5  UNL     1     -33.347  16.373  -2.898  1.00 20.00    -0.004 C 
HETATM    4  C6  UNL     1     -33.897  15.293  -3.471  1.00 20.00    -0.031 C 
HETATM    5  C7  UNL     1     -33.299  14.579  -4.639  1.00 20.00     0.036 C 
ENDBRANCH   2   3
BRANCH   1   6
HETATM    6  C2  UNL     1     -35.690  17.368  -0.088  1.00 20.00    -0.010 C 
HETATM    7  C1  UNL     1     -35.010  17.677   1.021  1.00 20.00     0.011 C 
ENDBRANCH   1   6
TORSDOF 2
ENDMDL
