MODEL 1
REMARK VINA RESULT:      -4.8      0.000      0.000
REMARK  0 active torsions:
REMARK  status: ('A' for Active; 'I' for Inactive)
ROOT
HETATM    1  C1  UNL     1     -34.182   4.355   3.591  1.00 20.00    -0.003 A 
HETATM    2  C2  UNL     1     -34.707   5.360   4.495  1.00 20.00    -0.003 A 
HETATM    3  C3  UNL     1     -33.298   4.953   2.770  1.00 20.00    -0.013 A 
HETATM    4  C4  UNL     1     -34.126   6.537   4.195  1.00 20.00    -0.013 A 
HETATM    5  C5  UNL     1     -33.001   7.425   2.028  1.00 20.00     0.019 A 
HETATM    6  C6  UNL     1     -31.891   7.126   3.006  1.00 20.00     0.019 A 
HETATM    7  C7  UNL     1     -33.184   6.384   3.080  1.00 20.00    -0.005 A 
ENDROOT
TORSDOF 0
ENDMDL
MODEL 2
REMARK VINA RESULT:      -4.8      0.836      3.073
REMARK  0 active torsions:
REMARK  status: ('A' for Active; 'I' for Inactive)
ROOT
HETATM    1  C1  UNL     1     -32.704   6.986   3.068  1.00 20.00    -0.003 A 
HETATM    2  C2  UNL     1     -32.740   5.782   2.261  1.00 20.00    -0.003 A 
HETATM    3  C3  UNL     1     -33.580   6.839   4.079  1.00 20.00    -0.013 A 
HETATM    4  C4  UNL     1     -33.638   4.940   2.807  1.00 20.00    -0.013 A 
HETATM    5  C5  UNL     1     -35.683   5.339   4.360  1.00 20.00     0.019 A 
HETATM    6  C6  UNL     1     -34.596   4.733   5.214  1.00 20.00     0.019 A 
HETATM    7  C7  UNL     1     -34.248   5.533   4.003  1.00 20.00    -0.005 A 
ENDROOT
TORSDOF 0
ENDMDL
MODEL 3
REMARK VINA RESULT:      -4.8      0.843      2.858
REMARK  0 active torsions:
REMARK  status: ('A' for Active; 'I' for Inactive)
ROOT
HETATM    1  C1  UNL     1     -32.731   5.811   2.266  1.00 20.00    -0.003 A 
HETATM    2  C2  UNL     1     -32.704   7.008   3.083  1.00 20.00    -0.003 A 
HETATM    3  C3  UNL     1     -33.625   4.959   2.803  1.00 20.00    -0.013 A 
HETATM    4  C4  UNL     1     -33.583   6.847   4.091  1.00 20.00    -0.013 A 
HETATM    5  C5  UNL     1     -34.589   4.725   5.204  1.00 20.00     0.019 A 
HETATM    6  C6  UNL     1     -35.678   5.331   4.352  1.00 20.00     0.019 A 
HETATM    7  C7  UNL     1     -34.242   5.538   4.003  1.00 20.00    -0.005 A 
ENDROOT
TORSDOF 0
ENDMDL
MODEL 4
REMARK VINA RESULT:      -4.8      0.098      1.659
REMARK  0 active torsions:
REMARK  status: ('A' for Active; 'I' for Inactive)
ROOT
HETATM    1  C1  UNL     1     -34.704   5.363   4.376  1.00 20.00    -0.003 A 
HETATM    2  C2  UNL     1     -34.129   4.374   3.485  1.00 20.00    -0.003 A 
HETATM    3  C3  UNL     1     -34.121   6.548   4.116  1.00 20.00    -0.013 A 
HETATM    4  C4  UNL     1     -33.215   4.989   2.712  1.00 20.00    -0.013 A 
HETATM    5  C5  UNL     1     -31.843   7.173   3.033  1.00 20.00     0.019 A 
HETATM    6  C6  UNL     1     -32.912   7.473   2.010  1.00 20.00     0.019 A 
HETATM    7  C7  UNL     1     -33.129   6.417   3.041  1.00 20.00    -0.005 A 
ENDROOT
TORSDOF 0
ENDMDL
MODEL 5
REMARK VINA RESULT:      -4.6      1.008      1.350
REMARK  0 active torsions:
REMARK  status: ('A' for Active; 'I' for Inactive)
ROOT
HETATM    1  C1  UNL     1     -34.945   4.994   5.140  1.00 20.00    -0.003 A 
HETATM    2  C2  UNL     1     -34.428   6.037   6.004  1.00 20.00    -0.003 A 
HETATM    3  C3  UNL     1     -34.494   5.223   3.892  1.00 20.00    -0.013 A 
HETATM    4  C4  UNL     1     -33.679   6.867   5.254  1.00 20.00    -0.013 A 
HETATM    5  C5  UNL     1     -33.660   7.379   2.707  1.00 20.00     0.019 A 
HETATM    6  C6  UNL     1     -32.440   6.537   2.993  1.00 20.00     0.019 A 
HETATM    7  C7  UNL     1     -33.654   6.426   3.855  1.00 20.00    -0.005 A 
ENDROOT
TORSDOF 0
ENDMDL
MODEL 6
REMARK VINA RESULT:      -4.6      1.003      1.973
REMARK  0 active torsions:
REMARK  status: ('A' for Active; 'I' for Inactive)
ROOT
HETATM    1  C1  UNL     1     -34.428   6.078   5.988  1.00 20.00    -0.003 A 
HETATM    2  C2  UNL     1     -34.962   5.033   5.136  1.00 20.00    -0.003 A 
HETATM    3  C3  UNL     1     -33.662   6.885   5.231  1.00 20.00    -0.013 A 
HETATM    4  C4  UNL     1     -34.503   5.239   3.887  1.00 20.00    -0.013 A 
HETATM    5  C5  UNL     1     -32.425   6.507   2.977  1.00 20.00     0.019 A 
HETATM    6  C6  UNL     1     -33.629   7.366   2.677  1.00 20.00     0.019 A 
HETATM    7  C7  UNL     1     -33.642   6.426   3.836  1.00 20.00    -0.005 A 
ENDROOT
TORSDOF 0
ENDMDL
MODEL 7
REMARK VINA RESULT:      -4.3      1.475      3.229
REMARK  0 active torsions:
REMARK  status: ('A' for Active; 'I' for Inactive)
ROOT
HETATM    1  C1  UNL     1     -33.669   7.052   6.282  1.00 20.00    -0.003 A 
HETATM    2  C2  UNL     1     -33.128   7.485   5.008  1.00 20.00    -0.003 A 
HETATM    3  C3  UNL     1     -34.455   5.982   6.060  1.00 20.00    -0.013 A 
HETATM    4  C4  UNL     1     -33.602   6.664   4.052  1.00 20.00    -0.013 A 
HETATM    5  C5  UNL     1     -35.709   5.147   3.943  1.00 20.00     0.019 A 
HETATM    6  C6  UNL     1     -34.522   4.235   4.137  1.00 20.00     0.019 A 
HETATM    7  C7  UNL     1     -34.482   5.642   4.631  1.00 20.00    -0.005 A 
ENDROOT
TORSDOF 0
ENDMDL
MODEL 8
REMARK VINA RESULT:      -4.1      8.810      9.202
REMARK  0 active torsions:
REMARK  status: ('A' for Active; 'I' for Inactive)
ROOT
HETATM    1  C1  UNL     1     -41.089   5.863  -0.898  1.00 20.00    -0.003 A 
HETATM    2  C2  UNL     1     -41.685   5.626   0.402  1.00 20.00    -0.003 A 
HETATM    3  C3  UNL     1     -41.215   7.173  -1.183  1.00 20.00    -0.013 A 
HETATM    4  C4  UNL     1     -42.155   6.799   0.867  1.00 20.00    -0.013 A 
HETATM    5  C5  UNL     1     -42.863   8.993  -0.332  1.00 20.00     0.019 A 
HETATM    6  C6  UNL     1     -41.533   9.264   0.328  1.00 20.00     0.019 A 
HETATM    7  C7  UNL     1     -41.899   7.880  -0.092  1.00 20.00    -0.005 A 
ENDROOT
TORSDOF 0
ENDMDL
MODEL 9
REMARK VINA RESULT:      -4.1      8.812      9.301
REMARK  0 active torsions:
REMARK  status: ('A' for Active; 'I' for Inactive)
ROOT
HETATM    1  C1  UNL     1     -41.677   5.634   0.385  1.00 20.00    -0.003 A 
HETATM    2  C2  UNL     1     -41.109   5.877  -0.927  1.00 20.00    -0.003 A 
HETATM    3  C3  UNL     1     -42.131   6.805   0.867  1.00 20.00    -0.013 A 
HETATM    4  C4  UNL     1     -41.235   7.189  -1.200  1.00 20.00    -0.013 A 
HETATM    5  C5  UNL     1     -41.513   9.271   0.329  1.00 20.00     0.019 A 
HETATM    6  C6  UNL     1     -42.858   9.009  -0.303  1.00 20.00     0.019 A 
HETATM    7  C7  UNL     1     -41.893   7.891  -0.092  1.00 20.00    -0.005 A 
ENDROOT
TORSDOF 0
ENDMDL
