MODEL 1
REMARK VINA RESULT:      -4.7      0.000      0.000
REMARK  6 active torsions:
REMARK  status: ('A' for Active; 'I' for Inactive)
REMARK    1  A    between atoms: C1_1  and  C4_4 
REMARK    2  A    between atoms: C4_4  and  C5_5 
REMARK    3  A    between atoms: C5_5  and  C6_6 
REMARK    4  A    between atoms: C6_6  and  C7_7 
REMARK    5  A    between atoms: C7_7  and  C8_8 
REMARK    6  A    between atoms: C8_8  and  C9_9 
ROOT
HETATM    1  C6  UNL     1     -32.906   5.470   2.401  1.00 20.00     0.000 C 
ENDROOT
BRANCH   1   2
HETATM    2  C5  UNL     1     -32.855   6.998   2.435  1.00 20.00     0.008 C 
BRANCH   2   3
HETATM    3  C4  UNL     1     -32.156   7.559   1.198  1.00 20.00     0.096 C 
BRANCH   3   4
HETATM    4  C1  UNL     1     -32.996   8.603   0.484  1.00 20.00     0.218 C 
HETATM    5  O10 UNL     1     -33.618   8.370  -0.548  1.00 20.00    -0.280 OA
HETATM    6 CL11 UNL     1     -32.953  10.134   1.314  1.00 20.00    -0.044 Cl
ENDBRANCH   3   4
ENDBRANCH   2   3
ENDBRANCH   1   2
BRANCH   1   7
HETATM    7  C7  UNL     1     -34.017   4.933   3.306  1.00 20.00     0.000 C 
BRANCH   7   8
HETATM    8  C8  UNL     1     -34.832   6.035   3.995  1.00 20.00     0.004 C 
BRANCH   8   9
HETATM    9  C9  UNL     1     -34.770   6.056   5.534  1.00 20.00    -0.023 C 
HETATM   10  C2  UNL     1     -34.550   4.665   6.129  1.00 20.00     0.009 C 
HETATM   11  C3  UNL     1     -33.653   6.998   5.992  1.00 20.00     0.009 C 
ENDBRANCH   8   9
ENDBRANCH   7   8
ENDBRANCH   1   7
TORSDOF 6
ENDMDL
MODEL 2
REMARK VINA RESULT:      -4.7      3.067      5.324
REMARK  6 active torsions:
REMARK  status: ('A' for Active; 'I' for Inactive)
REMARK    1  A    between atoms: C1_1  and  C4_4 
REMARK    2  A    between atoms: C4_4  and  C5_5 
REMARK    3  A    between atoms: C5_5  and  C6_6 
REMARK    4  A    between atoms: C6_6  and  C7_7 
REMARK    5  A    between atoms: C7_7  and  C8_8 
REMARK    6  A    between atoms: C8_8  and  C9_9 
ROOT
HETATM    1  C6  UNL     1     -33.298   5.325   2.349  1.00 20.00     0.000 C 
ENDROOT
BRANCH   1   2
HETATM    2  C5  UNL     1     -34.035   4.583   3.465  1.00 20.00     0.008 C 
BRANCH   2   3
HETATM    3  C4  UNL     1     -34.989   5.513   4.215  1.00 20.00     0.096 C 
BRANCH   3   4
HETATM    4  C1  UNL     1     -34.664   5.602   5.695  1.00 20.00     0.218 C 
HETATM    5  O10 UNL     1     -34.932   4.710   6.494  1.00 20.00    -0.280 OA
HETATM    6 CL11 UNL     1     -33.878   7.107   6.087  1.00 20.00    -0.044 Cl
ENDBRANCH   3   4
ENDBRANCH   2   3
ENDBRANCH   1   2
BRANCH   1   7
HETATM    7  C7  UNL     1     -32.726   6.653   2.851  1.00 20.00     0.000 C 
BRANCH   7   8
HETATM    8  C8  UNL     1     -32.172   7.543   1.733  1.00 20.00     0.004 C 
BRANCH   8   9
HETATM    9  C9  UNL     1     -33.202   8.421   0.998  1.00 20.00    -0.023 C 
HETATM   10  C2  UNL     1     -32.981   9.913   1.247  1.00 20.00     0.009 C 
HETATM   11  C3  UNL     1     -33.146   8.134  -0.505  1.00 20.00     0.009 C 
ENDBRANCH   8   9
ENDBRANCH   7   8
ENDBRANCH   1   7
TORSDOF 6
ENDMDL
MODEL 3
REMARK VINA RESULT:      -4.4     10.583     11.456
REMARK  6 active torsions:
REMARK  status: ('A' for Active; 'I' for Inactive)
REMARK    1  A    between atoms: C1_1  and  C4_4 
REMARK    2  A    between atoms: C4_4  and  C5_5 
REMARK    3  A    between atoms: C5_5  and  C6_6 
REMARK    4  A    between atoms: C6_6  and  C7_7 
REMARK    5  A    between atoms: C7_7  and  C8_8 
REMARK    6  A    between atoms: C8_8  and  C9_9 
ROOT
HETATM    1  C6  UNL     1     -33.335  16.287  -2.814  1.00 20.00     0.000 C 
ENDROOT
BRANCH   1   2
HETATM    2  C5  UNL     1     -34.615  15.459  -2.939  1.00 20.00     0.008 C 
BRANCH   2   3
HETATM    3  C4  UNL     1     -34.551  14.514  -4.138  1.00 20.00     0.096 C 
BRANCH   3   4
HETATM    4  C1  UNL     1     -35.822  13.699  -4.300  1.00 20.00     0.218 C 
HETATM    5  O10 UNL     1     -35.820  12.490  -4.505  1.00 20.00    -0.280 OA
HETATM    6 CL11 UNL     1     -37.243  14.697  -4.155  1.00 20.00    -0.044 Cl
ENDBRANCH   3   4
ENDBRANCH   2   3
ENDBRANCH   1   2
BRANCH   1   7
HETATM    7  C7  UNL     1     -33.505  17.417  -1.795  1.00 20.00     0.000 C 
BRANCH   7   8
HETATM    8  C8  UNL     1     -32.205  18.172  -1.495  1.00 20.00     0.004 C 
BRANCH   8   9
HETATM    9  C9  UNL     1     -32.077  18.757  -0.076  1.00 20.00    -0.023 C 
HETATM   10  C2  UNL     1     -33.282  18.422   0.804  1.00 20.00     0.009 C 
HETATM   11  C3  UNL     1     -30.795  18.239   0.582  1.00 20.00     0.009 C 
ENDBRANCH   8   9
ENDBRANCH   7   8
ENDBRANCH   1   7
TORSDOF 6
ENDMDL
MODEL 4
REMARK VINA RESULT:      -4.4     10.589     11.266
REMARK  6 active torsions:
REMARK  status: ('A' for Active; 'I' for Inactive)
REMARK    1  A    between atoms: C1_1  and  C4_4 
REMARK    2  A    between atoms: C4_4  and  C5_5 
REMARK    3  A    between atoms: C5_5  and  C6_6 
REMARK    4  A    between atoms: C6_6  and  C7_7 
REMARK    5  A    between atoms: C7_7  and  C8_8 
REMARK    6  A    between atoms: C8_8  and  C9_9 
ROOT
HETATM    1  C6  UNL     1     -33.717  14.907  -4.189  1.00 20.00     0.000 C 
ENDROOT
BRANCH   1   2
HETATM    2  C5  UNL     1     -34.912  14.003  -3.882  1.00 20.00     0.008 C 
BRANCH   2   3
HETATM    3  C4  UNL     1     -35.933  14.025  -5.019  1.00 20.00     0.096 C 
BRANCH   3   4
HETATM    4  C1  UNL     1     -37.273  14.588  -4.581  1.00 20.00     0.218 C 
HETATM    5  O10 UNL     1     -38.238  13.882  -4.306  1.00 20.00    -0.280 OA
HETATM    6 CL11 UNL     1     -37.246  16.329  -4.525  1.00 20.00    -0.044 Cl
ENDBRANCH   3   4
ENDBRANCH   2   3
ENDBRANCH   1   2
BRANCH   1   7
HETATM    7  C7  UNL     1     -33.509  15.944  -3.083  1.00 20.00     0.000 C 
BRANCH   7   8
HETATM    8  C8  UNL     1     -34.706  16.074  -2.133  1.00 20.00     0.004 C 
BRANCH   8   9
HETATM    9  C9  UNL     1     -34.761  17.364  -1.293  1.00 20.00    -0.023 C 
HETATM   10  C2  UNL     1     -35.385  17.139   0.084  1.00 20.00     0.009 C 
HETATM   11  C3  UNL     1     -33.350  17.937  -1.134  1.00 20.00     0.009 C 
ENDBRANCH   8   9
ENDBRANCH   7   8
ENDBRANCH   1   7
TORSDOF 6
ENDMDL
MODEL 5
REMARK VINA RESULT:      -4.4      1.408      1.913
REMARK  6 active torsions:
REMARK  status: ('A' for Active; 'I' for Inactive)
REMARK    1  A    between atoms: C1_1  and  C4_4 
REMARK    2  A    between atoms: C4_4  and  C5_5 
REMARK    3  A    between atoms: C5_5  and  C6_6 
REMARK    4  A    between atoms: C6_6  and  C7_7 
REMARK    5  A    between atoms: C7_7  and  C8_8 
REMARK    6  A    between atoms: C8_8  and  C9_9 
ROOT
HETATM    1  C6  UNL     1     -32.117   7.432   3.707  1.00 20.00     0.000 C 
ENDROOT
BRANCH   1   2
HETATM    2  C5  UNL     1     -32.595   7.010   2.317  1.00 20.00     0.008 C 
BRANCH   2   3
HETATM    3  C4  UNL     1     -31.945   7.859   1.224  1.00 20.00     0.096 C 
BRANCH   3   4
HETATM    4  C1  UNL     1     -32.842   8.995   0.766  1.00 20.00     0.218 C 
HETATM    5  O10 UNL     1     -32.975  10.039   1.396  1.00 20.00    -0.280 OA
HETATM    6 CL11 UNL     1     -33.632   8.617  -0.741  1.00 20.00    -0.044 Cl
ENDBRANCH   3   4
ENDBRANCH   2   3
ENDBRANCH   1   2
BRANCH   1   7
HETATM    7  C7  UNL     1     -33.179   7.139   4.769  1.00 20.00     0.000 C 
BRANCH   7   8
HETATM    8  C8  UNL     1     -34.505   6.636   4.187  1.00 20.00     0.004 C 
BRANCH   8   9
HETATM    9  C9  UNL     1     -34.964   5.245   4.662  1.00 20.00    -0.023 C 
HETATM   10  C2  UNL     1     -34.241   4.111   3.935  1.00 20.00     0.009 C 
HETATM   11  C3  UNL     1     -34.742   5.116   6.172  1.00 20.00     0.009 C 
ENDBRANCH   8   9
ENDBRANCH   7   8
ENDBRANCH   1   7
TORSDOF 6
ENDMDL
MODEL 6
REMARK VINA RESULT:      -4.3     10.738     11.290
REMARK  6 active torsions:
REMARK  status: ('A' for Active; 'I' for Inactive)
REMARK    1  A    between atoms: C1_1  and  C4_4 
REMARK    2  A    between atoms: C4_4  and  C5_5 
REMARK    3  A    between atoms: C5_5  and  C6_6 
REMARK    4  A    between atoms: C6_6  and  C7_7 
REMARK    5  A    between atoms: C7_7  and  C8_8 
REMARK    6  A    between atoms: C8_8  and  C9_9 
ROOT
HETATM    1  C6  UNL     1     -33.612  15.198  -4.200  1.00 20.00     0.000 C 
ENDROOT
BRANCH   1   2
HETATM    2  C5  UNL     1     -34.737  15.740  -5.083  1.00 20.00     0.008 C 
BRANCH   2   3
HETATM    3  C4  UNL     1     -35.489  14.609  -5.783  1.00 20.00     0.096 C 
BRANCH   3   4
HETATM    4  C1  UNL     1     -36.261  13.738  -4.807  1.00 20.00     0.218 C 
HETATM    5  O10 UNL     1     -35.882  12.624  -4.461  1.00 20.00    -0.280 OA
HETATM    6 CL11 UNL     1     -37.718  14.524  -4.264  1.00 20.00    -0.044 Cl
ENDBRANCH   3   4
ENDBRANCH   2   3
ENDBRANCH   1   2
BRANCH   1   7
HETATM    7  C7  UNL     1     -33.509  15.984  -2.891  1.00 20.00     0.000 C 
BRANCH   7   8
HETATM    8  C8  UNL     1     -34.852  16.155  -2.172  1.00 20.00     0.004 C 
BRANCH   8   9
HETATM    9  C9  UNL     1     -34.974  17.390  -1.260  1.00 20.00    -0.023 C 
HETATM   10  C2  UNL     1     -35.435  17.030   0.152  1.00 20.00     0.009 C 
HETATM   11  C3  UNL     1     -33.629  18.120  -1.196  1.00 20.00     0.009 C 
ENDBRANCH   8   9
ENDBRANCH   7   8
ENDBRANCH   1   7
TORSDOF 6
ENDMDL
MODEL 7
REMARK VINA RESULT:      -4.3      3.049      5.242
REMARK  6 active torsions:
REMARK  status: ('A' for Active; 'I' for Inactive)
REMARK    1  A    between atoms: C1_1  and  C4_4 
REMARK    2  A    between atoms: C4_4  and  C5_5 
REMARK    3  A    between atoms: C5_5  and  C6_6 
REMARK    4  A    between atoms: C6_6  and  C7_7 
REMARK    5  A    between atoms: C7_7  and  C8_8 
REMARK    6  A    between atoms: C8_8  and  C9_9 
ROOT
HETATM    1  C6  UNL     1     -33.079   6.662   3.475  1.00 20.00     0.000 C 
ENDROOT
BRANCH   1   2
HETATM    2  C5  UNL     1     -33.286   5.321   2.768  1.00 20.00     0.008 C 
BRANCH   2   3
HETATM    3  C4  UNL     1     -34.086   4.352   3.638  1.00 20.00     0.096 C 
BRANCH   3   4
HETATM    4  C1  UNL     1     -35.125   5.061   4.488  1.00 20.00     0.218 C 
HETATM    5  O10 UNL     1     -36.171   5.510   4.030  1.00 20.00    -0.280 OA
HETATM    6 CL11 UNL     1     -34.636   5.143   6.158  1.00 20.00    -0.044 Cl
ENDBRANCH   3   4
ENDBRANCH   2   3
ENDBRANCH   1   2
BRANCH   1   7
HETATM    7  C7  UNL     1     -32.085   7.540   2.713  1.00 20.00     0.000 C 
BRANCH   7   8
HETATM    8  C8  UNL     1     -32.245   7.468   1.190  1.00 20.00     0.004 C 
BRANCH   8   9
HETATM    9  C9  UNL     1     -32.567   8.799   0.483  1.00 20.00    -0.023 C 
HETATM   10  C2  UNL     1     -33.548   8.622  -0.676  1.00 20.00     0.009 C 
HETATM   11  C3  UNL     1     -33.137   9.796   1.496  1.00 20.00     0.009 C 
ENDBRANCH   8   9
ENDBRANCH   7   8
ENDBRANCH   1   7
TORSDOF 6
ENDMDL
MODEL 8
REMARK VINA RESULT:      -4.3     10.660     11.841
REMARK  6 active torsions:
REMARK  status: ('A' for Active; 'I' for Inactive)
REMARK    1  A    between atoms: C1_1  and  C4_4 
REMARK    2  A    between atoms: C4_4  and  C5_5 
REMARK    3  A    between atoms: C5_5  and  C6_6 
REMARK    4  A    between atoms: C6_6  and  C7_7 
REMARK    5  A    between atoms: C7_7  and  C8_8 
REMARK    6  A    between atoms: C8_8  and  C9_9 
ROOT
HETATM    1  C6  UNL     1     -33.279  15.680  -3.671  1.00 20.00     0.000 C 
ENDROOT
BRANCH   1   2
HETATM    2  C5  UNL     1     -33.947  14.669  -4.605  1.00 20.00     0.008 C 
BRANCH   2   3
HETATM    3  C4  UNL     1     -35.160  14.017  -3.942  1.00 20.00     0.096 C 
BRANCH   3   4
HETATM    4  C1  UNL     1     -36.418  14.150  -4.781  1.00 20.00     0.218 C 
HETATM    5  O10 UNL     1     -37.492  13.652  -4.460  1.00 20.00    -0.280 OA
HETATM    6 CL11 UNL     1     -36.129  15.087  -6.221  1.00 20.00    -0.044 Cl
ENDBRANCH   3   4
ENDBRANCH   2   3
ENDBRANCH   1   2
BRANCH   1   7
HETATM    7  C7  UNL     1     -34.158  15.973  -2.453  1.00 20.00     0.000 C 
BRANCH   7   8
HETATM    8  C8  UNL     1     -33.924  17.363  -1.849  1.00 20.00     0.004 C 
BRANCH   8   9
HETATM    9  C9  UNL     1     -32.515  17.953  -2.044  1.00 20.00    -0.023 C 
HETATM   10  C2  UNL     1     -32.525  19.216  -2.906  1.00 20.00     0.009 C 
HETATM   11  C3  UNL     1     -31.892  18.264  -0.679  1.00 20.00     0.009 C 
ENDBRANCH   8   9
ENDBRANCH   7   8
ENDBRANCH   1   7
TORSDOF 6
ENDMDL
MODEL 9
REMARK VINA RESULT:      -4.2     10.772     11.717
REMARK  6 active torsions:
REMARK  status: ('A' for Active; 'I' for Inactive)
REMARK    1  A    between atoms: C1_1  and  C4_4 
REMARK    2  A    between atoms: C4_4  and  C5_5 
REMARK    3  A    between atoms: C5_5  and  C6_6 
REMARK    4  A    between atoms: C6_6  and  C7_7 
REMARK    5  A    between atoms: C7_7  and  C8_8 
REMARK    6  A    between atoms: C8_8  and  C9_9 
ROOT
HETATM    1  C6  UNL     1     -34.767  17.094  -0.989  1.00 20.00     0.000 C 
ENDROOT
BRANCH   1   2
HETATM    2  C5  UNL     1     -34.016  18.413  -0.803  1.00 20.00     0.008 C 
BRANCH   2   3
HETATM    3  C4  UNL     1     -32.587  18.319  -1.336  1.00 20.00     0.096 C 
BRANCH   3   4
HETATM    4  C1  UNL     1     -31.552  18.346  -0.225  1.00 20.00     0.218 C 
HETATM    5  O10 UNL     1     -30.344  18.332  -0.435  1.00 20.00    -0.280 OA
HETATM    6 CL11 UNL     1     -32.304  18.401   1.346  1.00 20.00    -0.044 Cl
ENDBRANCH   3   4
ENDBRANCH   2   3
ENDBRANCH   1   2
BRANCH   1   7
HETATM    7  C7  UNL     1     -34.254  16.333  -2.213  1.00 20.00     0.000 C 
BRANCH   7   8
HETATM    8  C8  UNL     1     -35.348  15.554  -2.953  1.00 20.00     0.004 C 
BRANCH   8   9
HETATM    9  C9  UNL     1     -34.887  14.283  -3.691  1.00 20.00    -0.023 C 
HETATM   10  C2  UNL     1     -35.981  13.694  -4.581  1.00 20.00     0.009 C 
HETATM   11  C3  UNL     1     -33.648  14.598  -4.535  1.00 20.00     0.009 C 
ENDBRANCH   8   9
ENDBRANCH   7   8
ENDBRANCH   1   7
TORSDOF 6
ENDMDL
