MODEL 1
REMARK VINA RESULT:      -5.5      0.000      0.000
REMARK  2 active torsions:
REMARK  status: ('A' for Active; 'I' for Inactive)
REMARK    1  A    between atoms: C1_1  and  C4_4 
REMARK    2  A    between atoms: C3_3  and  C4_4 
ROOT
HETATM    1  C4  UNL     1     -34.665   5.810   4.398  1.00 20.00     0.359 C 
HETATM    2  F8  UNL     1     -34.245   7.015   3.928  1.00 20.00    -0.191 F 
HETATM    3  F9  UNL     1     -36.015   5.786   4.231  1.00 20.00    -0.191 F 
ENDROOT
BRANCH   1   4
HETATM    4  C1  UNL     1     -34.004   4.681   3.641  1.00 20.00     0.200 C 
HETATM    5  C2  UNL     1     -33.177   5.045   2.437  1.00 20.00     0.098 C 
HETATM    6  O5  UNL     1     -34.165   3.507   3.976  1.00 20.00    -0.292 OA
ENDBRANCH   1   4
BRANCH   1   7
HETATM    7  C3  UNL     1     -34.357   5.735   5.875  1.00 20.00     0.432 C 
HETATM    8  F6  UNL     1     -34.353   6.981   6.412  1.00 20.00    -0.207 F 
HETATM    9  F7  UNL     1     -35.342   5.044   6.503  1.00 20.00    -0.207 F 
ENDBRANCH   1   7
TORSDOF 2
ENDMDL
MODEL 2
REMARK VINA RESULT:      -5.1      1.496      1.653
REMARK  2 active torsions:
REMARK  status: ('A' for Active; 'I' for Inactive)
REMARK    1  A    between atoms: C1_1  and  C4_4 
REMARK    2  A    between atoms: C3_3  and  C4_4 
ROOT
HETATM    1  C4  UNL     1     -34.685   5.251   4.373  1.00 20.00     0.359 C 
HETATM    2  F8  UNL     1     -35.924   5.734   4.087  1.00 20.00    -0.191 F 
HETATM    3  F9  UNL     1     -34.773   3.898   4.274  1.00 20.00    -0.191 F 
ENDROOT
BRANCH   1   4
HETATM    4  C1  UNL     1     -33.661   5.800   3.405  1.00 20.00     0.200 C 
HETATM    5  C2  UNL     1     -33.138   4.866   2.346  1.00 20.00     0.098 C 
HETATM    6  O5  UNL     1     -33.246   6.955   3.501  1.00 20.00    -0.292 OA
ENDBRANCH   1   4
BRANCH   1   7
HETATM    7  C3  UNL     1     -34.343   5.615   5.798  1.00 20.00     0.432 C 
HETATM    8  F6  UNL     1     -34.471   6.953   5.980  1.00 20.00    -0.207 F 
HETATM    9  F7  UNL     1     -35.231   5.021   6.636  1.00 20.00    -0.207 F 
ENDBRANCH   1   7
TORSDOF 2
ENDMDL
MODEL 3
REMARK VINA RESULT:      -4.9      1.671      2.152
REMARK  2 active torsions:
REMARK  status: ('A' for Active; 'I' for Inactive)
REMARK    1  A    between atoms: C1_1  and  C4_4 
REMARK    2  A    between atoms: C3_3  and  C4_4 
ROOT
HETATM    1  C4  UNL     1     -33.982   6.481   4.406  1.00 20.00     0.359 C 
HETATM    2  F8  UNL     1     -33.256   6.818   5.506  1.00 20.00    -0.191 F 
HETATM    3  F9  UNL     1     -34.828   7.520   4.177  1.00 20.00    -0.191 F 
ENDROOT
BRANCH   1   4
HETATM    4  C1  UNL     1     -33.077   6.245   3.219  1.00 20.00     0.200 C 
HETATM    5  C2  UNL     1     -33.201   4.926   2.503  1.00 20.00     0.098 C 
HETATM    6  O5  UNL     1     -32.247   7.085   2.872  1.00 20.00    -0.292 OA
ENDBRANCH   1   4
BRANCH   1   7
HETATM    7  C3  UNL     1     -34.798   5.250   4.727  1.00 20.00     0.432 C 
HETATM    8  F6  UNL     1     -34.987   5.154   6.066  1.00 20.00    -0.207 F 
HETATM    9  F7  UNL     1     -36.030   5.374   4.169  1.00 20.00    -0.207 F 
ENDBRANCH   1   7
TORSDOF 2
ENDMDL
MODEL 4
REMARK VINA RESULT:      -4.7      1.928      2.912
REMARK  2 active torsions:
REMARK  status: ('A' for Active; 'I' for Inactive)
REMARK    1  A    between atoms: C1_1  and  C4_4 
REMARK    2  A    between atoms: C3_3  and  C4_4 
ROOT
HETATM    1  C4  UNL     1     -34.958   5.327   4.598  1.00 20.00     0.359 C 
HETATM    2  F8  UNL     1     -35.294   4.977   5.870  1.00 20.00    -0.191 F 
HETATM    3  F9  UNL     1     -36.122   5.656   3.976  1.00 20.00    -0.191 F 
ENDROOT
BRANCH   1   4
HETATM    4  C1  UNL     1     -33.996   6.492   4.601  1.00 20.00     0.200 C 
HETATM    5  C2  UNL     1     -33.568   7.035   5.939  1.00 20.00     0.098 C 
HETATM    6  O5  UNL     1     -33.603   6.999   3.551  1.00 20.00    -0.292 OA
ENDBRANCH   1   4
BRANCH   1   7
HETATM    7  C3  UNL     1     -34.361   4.123   3.909  1.00 20.00     0.432 C 
HETATM    8  F6  UNL     1     -33.468   4.522   2.969  1.00 20.00    -0.207 F 
HETATM    9  F7  UNL     1     -33.668   3.387   4.816  1.00 20.00    -0.207 F 
ENDBRANCH   1   7
TORSDOF 2
ENDMDL
MODEL 5
REMARK VINA RESULT:      -4.7      1.959      3.183
REMARK  2 active torsions:
REMARK  status: ('A' for Active; 'I' for Inactive)
REMARK    1  A    between atoms: C1_1  and  C4_4 
REMARK    2  A    between atoms: C3_3  and  C4_4 
ROOT
HETATM    1  C4  UNL     1     -34.490   5.249   4.104  1.00 20.00     0.359 C 
HETATM    2  F8  UNL     1     -34.452   3.892   4.011  1.00 20.00    -0.191 F 
HETATM    3  F9  UNL     1     -35.635   5.640   3.483  1.00 20.00    -0.191 F 
ENDROOT
BRANCH   1   4
HETATM    4  C1  UNL     1     -34.483   5.685   5.552  1.00 20.00     0.200 C 
HETATM    5  C2  UNL     1     -33.734   6.947   5.892  1.00 20.00     0.098 C 
HETATM    6  O5  UNL     1     -35.038   5.016   6.423  1.00 20.00    -0.292 OA
ENDBRANCH   1   4
BRANCH   1   7
HETATM    7  C3  UNL     1     -33.309   5.817   3.353  1.00 20.00     0.432 C 
HETATM    8  F6  UNL     1     -32.953   4.980   2.347  1.00 20.00    -0.207 F 
HETATM    9  F7  UNL     1     -33.671   6.990   2.774  1.00 20.00    -0.207 F 
ENDBRANCH   1   7
TORSDOF 2
ENDMDL
MODEL 6
REMARK VINA RESULT:      -4.6      2.620      3.407
REMARK  2 active torsions:
REMARK  status: ('A' for Active; 'I' for Inactive)
REMARK    1  A    between atoms: C1_1  and  C4_4 
REMARK    2  A    between atoms: C3_3  and  C4_4 
ROOT
HETATM    1  C4  UNL     1     -33.425   5.559   2.792  1.00 20.00     0.359 C 
HETATM    2  F8  UNL     1     -32.381   4.690   2.713  1.00 20.00    -0.191 F 
HETATM    3  F9  UNL     1     -34.179   5.348   1.680  1.00 20.00    -0.191 F 
ENDROOT
BRANCH   1   4
HETATM    4  C1  UNL     1     -34.230   5.314   4.048  1.00 20.00     0.200 C 
HETATM    5  C2  UNL     1     -34.279   6.422   5.067  1.00 20.00     0.098 C 
HETATM    6  O5  UNL     1     -34.795   4.238   4.245  1.00 20.00    -0.292 OA
ENDBRANCH   1   4
BRANCH   1   7
HETATM    7  C3  UNL     1     -32.883   6.968   2.753  1.00 20.00     0.432 C 
HETATM    8  F6  UNL     1     -31.625   6.996   3.258  1.00 20.00    -0.207 F 
HETATM    9  F7  UNL     1     -32.793   7.376   1.461  1.00 20.00    -0.207 F 
ENDBRANCH   1   7
TORSDOF 2
ENDMDL
MODEL 7
REMARK VINA RESULT:      -4.5      2.468      3.022
REMARK  2 active torsions:
REMARK  status: ('A' for Active; 'I' for Inactive)
REMARK    1  A    between atoms: C1_1  and  C4_4 
REMARK    2  A    between atoms: C3_3  and  C4_4 
ROOT
HETATM    1  C4  UNL     1     -33.469   5.413   2.753  1.00 20.00     0.359 C 
HETATM    2  F8  UNL     1     -34.316   5.429   1.689  1.00 20.00    -0.191 F 
HETATM    3  F9  UNL     1     -32.537   4.460   2.481  1.00 20.00    -0.191 F 
ENDROOT
BRANCH   1   4
HETATM    4  C1  UNL     1     -32.823   6.766   2.943  1.00 20.00     0.200 C 
HETATM    5  C2  UNL     1     -32.477   7.549   1.704  1.00 20.00     0.098 C 
HETATM    6  O5  UNL     1     -32.558   7.196   4.066  1.00 20.00    -0.292 OA
ENDBRANCH   1   4
BRANCH   1   7
HETATM    7  C3  UNL     1     -34.245   4.998   3.981  1.00 20.00     0.432 C 
HETATM    8  F6  UNL     1     -35.544   5.371   3.857  1.00 20.00    -0.207 F 
HETATM    9  F7  UNL     1     -34.237   3.644   4.078  1.00 20.00    -0.207 F 
ENDBRANCH   1   7
TORSDOF 2
ENDMDL
MODEL 8
REMARK VINA RESULT:      -4.5      1.661      3.266
REMARK  2 active torsions:
REMARK  status: ('A' for Active; 'I' for Inactive)
REMARK    1  A    between atoms: C1_1  and  C4_4 
REMARK    2  A    between atoms: C3_3  and  C4_4 
ROOT
HETATM    1  C4  UNL     1     -33.772   6.377   4.074  1.00 20.00     0.359 C 
HETATM    2  F8  UNL     1     -34.705   7.260   3.628  1.00 20.00    -0.191 F 
HETATM    3  F9  UNL     1     -33.000   7.058   4.963  1.00 20.00    -0.191 F 
ENDROOT
BRANCH   1   4
HETATM    4  C1  UNL     1     -34.433   5.186   4.730  1.00 20.00     0.200 C 
HETATM    5  C2  UNL     1     -34.861   5.335   6.166  1.00 20.00     0.098 C 
HETATM    6  O5  UNL     1     -34.584   4.125   4.124  1.00 20.00    -0.292 OA
ENDBRANCH   1   4
BRANCH   1   7
HETATM    7  C3  UNL     1     -32.912   5.953   2.906  1.00 20.00     0.432 C 
HETATM    8  F6  UNL     1     -33.695   5.534   1.881  1.00 20.00    -0.207 F 
HETATM    9  F7  UNL     1     -32.217   7.026   2.451  1.00 20.00    -0.207 F 
ENDBRANCH   1   7
TORSDOF 2
ENDMDL
MODEL 9
REMARK VINA RESULT:      -4.4      1.494      2.389
REMARK  2 active torsions:
REMARK  status: ('A' for Active; 'I' for Inactive)
REMARK    1  A    between atoms: C1_1  and  C4_4 
REMARK    2  A    between atoms: C3_3  and  C4_4 
ROOT
HETATM    1  C4  UNL     1     -34.506   5.472   5.839  1.00 20.00     0.359 C 
HETATM    2  F8  UNL     1     -35.577   5.794   6.614  1.00 20.00    -0.191 F 
HETATM    3  F9  UNL     1     -33.866   4.457   6.479  1.00 20.00    -0.191 F 
ENDROOT
BRANCH   1   4
HETATM    4  C1  UNL     1     -34.953   5.047   4.459  1.00 20.00     0.200 C 
HETATM    5  C2  UNL     1     -34.081   4.067   3.719  1.00 20.00     0.098 C 
HETATM    6  O5  UNL     1     -35.972   5.511   3.947  1.00 20.00    -0.292 OA
ENDBRANCH   1   4
BRANCH   1   7
HETATM    7  C3  UNL     1     -33.583   6.666   5.774  1.00 20.00     0.432 C 
HETATM    8  F6  UNL     1     -33.334   6.990   4.481  1.00 20.00    -0.207 F 
HETATM    9  F7  UNL     1     -34.200   7.739   6.332  1.00 20.00    -0.207 F 
ENDBRANCH   1   7
TORSDOF 2
ENDMDL
