MODEL 1
REMARK VINA RESULT:      -4.9      0.000      0.000
REMARK  0 active torsions:
REMARK  status: ('A' for Active; 'I' for Inactive)
ROOT
HETATM    1  C1  UNL     1     -32.758   7.726   1.800  1.00 20.00     0.071 C 
HETATM    2  C2  UNL     1     -34.847   5.343   4.016  1.00 20.00    -0.000 C 
HETATM    3  C3  UNL     1     -34.628   6.336   4.887  1.00 20.00    -0.000 C 
HETATM    4  C4  UNL     1     -33.931   4.802   3.046  1.00 20.00    -0.002 C 
HETATM    5  C5  UNL     1     -33.424   7.105   5.065  1.00 20.00    -0.002 C 
HETATM    6  C6  UNL     1     -32.865   5.403   2.501  1.00 20.00    -0.004 C 
HETATM    7  C7  UNL     1     -32.446   7.313   4.173  1.00 20.00    -0.004 C 
HETATM    8  C8  UNL     1     -32.269   6.754   2.788  1.00 20.00     0.138 C 
HETATM    9  N9  UNL     1     -33.142   8.494   1.020  1.00 20.00    -0.196 NA
ENDROOT
TORSDOF 0
ENDMDL
MODEL 2
REMARK VINA RESULT:      -4.4     15.922     16.757
REMARK  0 active torsions:
REMARK  status: ('A' for Active; 'I' for Inactive)
ROOT
HETATM    1  C1  UNL     1     -21.887  17.498   8.132  1.00 20.00     0.071 C 
HETATM    2  C2  UNL     1     -23.915  17.164  11.408  1.00 20.00    -0.000 C 
HETATM    3  C3  UNL     1     -24.845  17.711  10.616  1.00 20.00    -0.000 C 
HETATM    4  C4  UNL     1     -22.509  17.473  11.463  1.00 20.00    -0.002 C 
HETATM    5  C5  UNL     1     -24.666  18.740   9.625  1.00 20.00    -0.002 C 
HETATM    6  C6  UNL     1     -21.752  18.017  10.501  1.00 20.00    -0.004 C 
HETATM    7  C7  UNL     1     -23.539  19.066   8.977  1.00 20.00    -0.004 C 
HETATM    8  C8  UNL     1     -22.142  18.534   9.144  1.00 20.00     0.138 C 
HETATM    9  N9  UNL     1     -21.685  16.683   7.333  1.00 20.00    -0.196 NA
ENDROOT
TORSDOF 0
ENDMDL
MODEL 3
REMARK VINA RESULT:      -4.3     11.047     11.791
REMARK  0 active torsions:
REMARK  status: ('A' for Active; 'I' for Inactive)
ROOT
HETATM    1  C1  UNL     1     -35.780  13.886  -4.624  1.00 20.00     0.071 C 
HETATM    2  C2  UNL     1     -33.989  16.311  -2.201  1.00 20.00    -0.000 C 
HETATM    3  C3  UNL     1     -35.260  16.681  -2.000  1.00 20.00    -0.000 C 
HETATM    4  C4  UNL     1     -33.362  15.947  -3.444  1.00 20.00    -0.002 C 
HETATM    5  C5  UNL     1     -36.309  16.803  -2.978  1.00 20.00    -0.002 C 
HETATM    6  C6  UNL     1     -33.951  15.484  -4.555  1.00 20.00    -0.004 C 
HETATM    7  C7  UNL     1     -36.395  16.192  -4.168  1.00 20.00    -0.004 C 
HETATM    8  C8  UNL     1     -35.411  15.290  -4.861  1.00 20.00     0.138 C 
HETATM    9  N9  UNL     1     -36.071  12.780  -4.437  1.00 20.00    -0.196 NA
ENDROOT
TORSDOF 0
ENDMDL
MODEL 4
REMARK VINA RESULT:      -4.3     11.120     12.247
REMARK  0 active torsions:
REMARK  status: ('A' for Active; 'I' for Inactive)
ROOT
HETATM    1  C1  UNL     1     -37.424  14.852  -4.305  1.00 20.00     0.071 C 
HETATM    2  C2  UNL     1     -33.728  14.949  -5.441  1.00 20.00    -0.000 C 
HETATM    3  C3  UNL     1     -33.560  14.777  -4.125  1.00 20.00    -0.000 C 
HETATM    4  C4  UNL     1     -34.705  15.772  -6.106  1.00 20.00    -0.002 C 
HETATM    5  C5  UNL     1     -34.316  15.370  -3.053  1.00 20.00    -0.002 C 
HETATM    6  C6  UNL     1     -35.887  16.186  -5.631  1.00 20.00    -0.004 C 
HETATM    7  C7  UNL     1     -35.566  15.852  -3.100  1.00 20.00    -0.004 C 
HETATM    8  C8  UNL     1     -36.500  15.995  -4.271  1.00 20.00     0.138 C 
HETATM    9  N9  UNL     1     -38.153  13.951  -4.331  1.00 20.00    -0.196 NA
ENDROOT
TORSDOF 0
ENDMDL
MODEL 5
REMARK VINA RESULT:      -4.2      8.697      9.637
REMARK  0 active torsions:
REMARK  status: ('A' for Active; 'I' for Inactive)
ROOT
HETATM    1  C1  UNL     1     -41.796   9.447   0.155  1.00 20.00     0.071 C 
HETATM    2  C2  UNL     1     -41.979   5.664   0.938  1.00 20.00    -0.000 C 
HETATM    3  C3  UNL     1     -41.138   5.644  -0.103  1.00 20.00    -0.000 C 
HETATM    4  C4  UNL     1     -43.145   6.490   1.115  1.00 20.00    -0.002 C 
HETATM    5  C5  UNL     1     -41.193   6.444  -1.299  1.00 20.00    -0.002 C 
HETATM    6  C6  UNL     1     -43.408   7.671   0.538  1.00 20.00    -0.004 C 
HETATM    7  C7  UNL     1     -41.789   7.633  -1.462  1.00 20.00    -0.004 C 
HETATM    8  C8  UNL     1     -42.630   8.430  -0.502  1.00 20.00     0.138 C 
HETATM    9  N9  UNL     1     -41.138  10.250   0.671  1.00 20.00    -0.196 NA
ENDROOT
TORSDOF 0
ENDMDL
MODEL 6
REMARK VINA RESULT:      -4.2     10.803     12.351
REMARK  0 active torsions:
REMARK  status: ('A' for Active; 'I' for Inactive)
ROOT
HETATM    1  C1  UNL     1     -36.804  14.052  -4.567  1.00 20.00     0.071 C 
HETATM    2  C2  UNL     1     -34.339  16.921  -3.763  1.00 20.00    -0.000 C 
HETATM    3  C3  UNL     1     -34.612  17.203  -5.043  1.00 20.00    -0.000 C 
HETATM    4  C4  UNL     1     -34.151  15.625  -3.165  1.00 20.00    -0.002 C 
HETATM    5  C5  UNL     1     -34.784  16.278  -6.133  1.00 20.00    -0.002 C 
HETATM    6  C6  UNL     1     -34.609  14.445  -3.604  1.00 20.00    -0.004 C 
HETATM    7  C7  UNL     1     -35.136  14.987  -6.064  1.00 20.00    -0.004 C 
HETATM    8  C8  UNL     1     -35.365  14.113  -4.861  1.00 20.00     0.138 C 
HETATM    9  N9  UNL     1     -37.940  14.003  -4.335  1.00 20.00    -0.196 NA
ENDROOT
TORSDOF 0
ENDMDL
MODEL 7
REMARK VINA RESULT:      -4.2      9.394     10.176
REMARK  0 active torsions:
REMARK  status: ('A' for Active; 'I' for Inactive)
ROOT
HETATM    1  C1  UNL     1     -42.625   4.905  -1.486  1.00 20.00     0.071 C 
HETATM    2  C2  UNL     1     -43.399   8.063   0.608  1.00 20.00    -0.000 C 
HETATM    3  C3  UNL     1     -42.607   8.596  -0.330  1.00 20.00    -0.000 C 
HETATM    4  C4  UNL     1     -43.258   6.786   1.260  1.00 20.00    -0.002 C 
HETATM    5  C5  UNL     1     -41.423   8.024  -0.917  1.00 20.00    -0.002 C 
HETATM    6  C6  UNL     1     -42.614   5.702   0.808  1.00 20.00    -0.004 C 
HETATM    7  C7  UNL     1     -41.094   6.727  -0.997  1.00 20.00    -0.004 C 
HETATM    8  C8  UNL     1     -41.794   5.518  -0.439  1.00 20.00     0.138 C 
HETATM    9  N9  UNL     1     -43.278   4.420  -2.312  1.00 20.00    -0.196 NA
ENDROOT
TORSDOF 0
ENDMDL
MODEL 8
REMARK VINA RESULT:      -4.2     11.209     11.931
REMARK  0 active torsions:
REMARK  status: ('A' for Active; 'I' for Inactive)
ROOT
HETATM    1  C1  UNL     1     -36.655  16.092  -4.414  1.00 20.00     0.071 C 
HETATM    2  C2  UNL     1     -33.076  16.398  -2.982  1.00 20.00    -0.000 C 
HETATM    3  C3  UNL     1     -32.876  15.445  -3.900  1.00 20.00    -0.000 C 
HETATM    4  C4  UNL     1     -34.212  16.562  -2.113  1.00 20.00    -0.002 C 
HETATM    5  C5  UNL     1     -33.750  14.353  -4.245  1.00 20.00    -0.002 C 
HETATM    6  C6  UNL     1     -35.459  16.108  -2.300  1.00 20.00    -0.004 C 
HETATM    7  C7  UNL     1     -35.076  14.278  -4.068  1.00 20.00    -0.004 C 
HETATM    8  C8  UNL     1     -36.015  15.244  -3.398  1.00 20.00     0.138 C 
HETATM    9  N9  UNL     1     -37.161  16.760  -5.215  1.00 20.00    -0.196 NA
ENDROOT
TORSDOF 0
ENDMDL
MODEL 9
REMARK VINA RESULT:      -4.1     10.852     12.225
REMARK  0 active torsions:
REMARK  status: ('A' for Active; 'I' for Inactive)
ROOT
HETATM    1  C1  UNL     1     -36.010  13.960  -4.215  1.00 20.00     0.071 C 
HETATM    2  C2  UNL     1     -34.026  17.219  -4.850  1.00 20.00    -0.000 C 
HETATM    3  C3  UNL     1     -33.415  16.789  -3.739  1.00 20.00    -0.000 C 
HETATM    4  C4  UNL     1     -35.431  17.162  -5.163  1.00 20.00    -0.002 C 
HETATM    5  C5  UNL     1     -34.012  16.164  -2.588  1.00 20.00    -0.002 C 
HETATM    6  C6  UNL     1     -36.348  16.324  -4.662  1.00 20.00    -0.004 C 
HETATM    7  C7  UNL     1     -35.172  15.495  -2.529  1.00 20.00    -0.004 C 
HETATM    8  C8  UNL     1     -36.214  15.276  -3.592  1.00 20.00     0.138 C 
HETATM    9  N9  UNL     1     -35.850  12.922  -4.706  1.00 20.00    -0.196 NA
ENDROOT
TORSDOF 0
ENDMDL
