MODEL 1
REMARK VINA RESULT:      -4.5      0.000      0.000
REMARK  2 active torsions:
REMARK  status: ('A' for Active; 'I' for Inactive)
REMARK    1  A    between atoms: C1_1  and  C4_4 
REMARK    2  A    between atoms: C1_1  and  O8_8 
ROOT
HETATM    1  C2  UNL     1     -34.615   4.582   4.962  1.00 20.00     0.020 A 
HETATM    2  C3  UNL     1     -35.576   5.520   4.298  1.00 20.00     0.020 A 
HETATM    3  C4  UNL     1     -34.118   5.909   4.429  1.00 20.00     0.044 A 
HETATM    4  C5  UNL     1     -33.780   6.972   5.444  1.00 20.00     0.026 C 
ENDROOT
BRANCH   3   5
HETATM    5  C1  UNL     1     -33.300   5.874   3.193  1.00 20.00     0.266 C 
HETATM    6  O7  UNL     1     -33.317   4.955   2.385  1.00 20.00    -0.264 OA
BRANCH   5   7
HETATM    7  O8  UNL     1     -32.547   7.007   3.112  1.00 20.00    -0.326 OA
HETATM    8  C6  UNL     1     -32.463   7.599   1.811  1.00 20.00     0.213 C 
ENDBRANCH   5   7
ENDBRANCH   3   5
TORSDOF 2
ENDMDL
MODEL 2
REMARK VINA RESULT:      -4.0     11.307     12.046
REMARK  2 active torsions:
REMARK  status: ('A' for Active; 'I' for Inactive)
REMARK    1  A    between atoms: C1_1  and  C4_4 
REMARK    2  A    between atoms: C1_1  and  O8_8 
ROOT
HETATM    1  C2  UNL     1     -34.178  15.457  -5.115  1.00 20.00     0.020 A 
HETATM    2  C3  UNL     1     -33.434  14.371  -4.400  1.00 20.00     0.020 A 
HETATM    3  C4  UNL     1     -34.800  14.796  -3.903  1.00 20.00     0.044 A 
HETATM    4  C5  UNL     1     -34.847  15.604  -2.630  1.00 20.00     0.026 C 
ENDROOT
BRANCH   3   5
HETATM    5  C1  UNL     1     -35.924  13.861  -4.150  1.00 20.00     0.266 C 
HETATM    6  O7  UNL     1     -35.797  12.750  -4.644  1.00 20.00    -0.264 OA
BRANCH   5   7
HETATM    7  O8  UNL     1     -37.092  14.436  -3.744  1.00 20.00    -0.326 OA
HETATM    8  C6  UNL     1     -37.802  15.165  -4.750  1.00 20.00     0.213 C 
ENDBRANCH   5   7
ENDBRANCH   3   5
TORSDOF 2
ENDMDL
MODEL 3
REMARK VINA RESULT:      -4.0      1.037      1.945
REMARK  2 active torsions:
REMARK  status: ('A' for Active; 'I' for Inactive)
REMARK    1  A    between atoms: C1_1  and  C4_4 
REMARK    2  A    between atoms: C1_1  and  O8_8 
ROOT
HETATM    1  C2  UNL     1     -35.695   5.566   4.269  1.00 20.00     0.020 A 
HETATM    2  C3  UNL     1     -34.853   5.221   5.459  1.00 20.00     0.020 A 
HETATM    3  C4  UNL     1     -34.228   5.242   4.079  1.00 20.00     0.044 A 
HETATM    4  C5  UNL     1     -33.896   3.909   3.456  1.00 20.00     0.026 C 
ENDROOT
BRANCH   3   5
HETATM    5  C1  UNL     1     -33.324   6.375   3.769  1.00 20.00     0.266 C 
HETATM    6  O7  UNL     1     -33.005   7.239   4.574  1.00 20.00    -0.264 OA
BRANCH   5   7
HETATM    7  O8  UNL     1     -32.920   6.293   2.470  1.00 20.00    -0.326 OA
HETATM    8  C6  UNL     1     -32.476   7.521   1.884  1.00 20.00     0.213 C 
ENDBRANCH   5   7
ENDBRANCH   3   5
TORSDOF 2
ENDMDL
MODEL 4
REMARK VINA RESULT:      -3.9     15.760     16.437
REMARK  2 active torsions:
REMARK  status: ('A' for Active; 'I' for Inactive)
REMARK    1  A    between atoms: C1_1  and  C4_4 
REMARK    2  A    between atoms: C1_1  and  O8_8 
ROOT
HETATM    1  C2  UNL     1     -24.464  15.722  11.656  1.00 20.00     0.020 A 
HETATM    2  C3  UNL     1     -25.158  17.049  11.666  1.00 20.00     0.020 A 
HETATM    3  C4  UNL     1     -23.725  16.957  11.185  1.00 20.00     0.044 A 
HETATM    4  C5  UNL     1     -22.658  17.507  12.098  1.00 20.00     0.026 C 
ENDROOT
BRANCH   3   5
HETATM    5  C1  UNL     1     -23.497  17.089   9.726  1.00 20.00     0.266 C 
HETATM    6  O7  UNL     1     -22.623  16.492   9.112  1.00 20.00    -0.264 OA
BRANCH   5   7
HETATM    7  O8  UNL     1     -24.401  17.964   9.201  1.00 20.00    -0.326 OA
HETATM    8  C6  UNL     1     -23.871  19.235   8.809  1.00 20.00     0.213 C 
ENDBRANCH   5   7
ENDBRANCH   3   5
TORSDOF 2
ENDMDL
MODEL 5
REMARK VINA RESULT:      -3.9     11.404     12.119
REMARK  2 active torsions:
REMARK  status: ('A' for Active; 'I' for Inactive)
REMARK    1  A    between atoms: C1_1  and  C4_4 
REMARK    2  A    between atoms: C1_1  and  O8_8 
ROOT
HETATM    1  C2  UNL     1     -34.952  15.473  -2.753  1.00 20.00     0.020 A 
HETATM    2  C3  UNL     1     -35.116  16.269  -4.012  1.00 20.00     0.020 A 
HETATM    3  C4  UNL     1     -34.797  14.791  -4.097  1.00 20.00     0.044 A 
HETATM    4  C5  UNL     1     -33.399  14.413  -4.517  1.00 20.00     0.026 C 
ENDROOT
BRANCH   3   5
HETATM    5  C1  UNL     1     -35.896  13.891  -4.523  1.00 20.00     0.266 C 
HETATM    6  O7  UNL     1     -35.866  12.673  -4.415  1.00 20.00    -0.264 OA
BRANCH   5   7
HETATM    7  O8  UNL     1     -36.916  14.631  -5.043  1.00 20.00    -0.326 OA
HETATM    8  C6  UNL     1     -38.168  14.522  -4.357  1.00 20.00     0.213 C 
ENDBRANCH   5   7
ENDBRANCH   3   5
TORSDOF 2
ENDMDL
MODEL 6
REMARK VINA RESULT:      -3.9     11.369     12.260
REMARK  2 active torsions:
REMARK  status: ('A' for Active; 'I' for Inactive)
REMARK    1  A    between atoms: C1_1  and  C4_4 
REMARK    2  A    between atoms: C1_1  and  O8_8 
ROOT
HETATM    1  C2  UNL     1     -35.204  15.352  -2.738  1.00 20.00     0.020 A 
HETATM    2  C3  UNL     1     -35.243  16.259  -3.930  1.00 20.00     0.020 A 
HETATM    3  C4  UNL     1     -34.802  14.820  -4.098  1.00 20.00     0.044 A 
HETATM    4  C5  UNL     1     -33.332  14.576  -4.331  1.00 20.00     0.026 C 
ENDROOT
BRANCH   3   5
HETATM    5  C1  UNL     1     -35.752  13.900  -4.767  1.00 20.00     0.266 C 
HETATM    6  O7  UNL     1     -35.864  12.712  -4.496  1.00 20.00    -0.264 OA
BRANCH   5   7
HETATM    7  O8  UNL     1     -36.460  14.583  -5.711  1.00 20.00    -0.326 OA
HETATM    8  C6  UNL     1     -35.826  14.704  -6.989  1.00 20.00     0.213 C 
ENDBRANCH   5   7
ENDBRANCH   3   5
TORSDOF 2
ENDMDL
MODEL 7
REMARK VINA RESULT:      -3.8      1.008      1.497
REMARK  2 active torsions:
REMARK  status: ('A' for Active; 'I' for Inactive)
REMARK    1  A    between atoms: C1_1  and  C4_4 
REMARK    2  A    between atoms: C1_1  and  O8_8 
ROOT
HETATM    1  C2  UNL     1     -34.463   4.434   4.279  1.00 20.00     0.020 A 
HETATM    2  C3  UNL     1     -35.520   5.448   3.964  1.00 20.00     0.020 A 
HETATM    3  C4  UNL     1     -34.316   5.851   4.790  1.00 20.00     0.044 A 
HETATM    4  C5  UNL     1     -34.538   6.075   6.265  1.00 20.00     0.026 C 
ENDROOT
BRANCH   3   5
HETATM    5  C1  UNL     1     -33.301   6.704   4.125  1.00 20.00     0.266 C 
HETATM    6  O7  UNL     1     -32.583   7.501   4.713  1.00 20.00    -0.264 OA
BRANCH   5   7
HETATM    7  O8  UNL     1     -33.304   6.455   2.785  1.00 20.00    -0.326 OA
HETATM    8  C6  UNL     1     -32.535   7.361   1.988  1.00 20.00     0.213 C 
ENDBRANCH   5   7
ENDBRANCH   3   5
TORSDOF 2
ENDMDL
MODEL 8
REMARK VINA RESULT:      -3.8     15.997     17.367
REMARK  2 active torsions:
REMARK  status: ('A' for Active; 'I' for Inactive)
REMARK    1  A    between atoms: C1_1  and  C4_4 
REMARK    2  A    between atoms: C1_1  and  O8_8 
ROOT
HETATM    1  C2  UNL     1     -22.374  17.029   8.958  1.00 20.00     0.020 A 
HETATM    2  C3  UNL     1     -21.679  18.311   9.302  1.00 20.00     0.020 A 
HETATM    3  C4  UNL     1     -23.048  18.022   9.882  1.00 20.00     0.044 A 
HETATM    4  C5  UNL     1     -24.210  18.801   9.320  1.00 20.00     0.026 C 
ENDROOT
BRANCH   3   5
HETATM    5  C1  UNL     1     -23.106  17.668  11.321  1.00 20.00     0.266 C 
HETATM    6  O7  UNL     1     -22.148  17.720  12.079  1.00 20.00    -0.264 OA
BRANCH   5   7
HETATM    7  O8  UNL     1     -24.374  17.287  11.645  1.00 20.00    -0.326 OA
HETATM    8  C6  UNL     1     -24.588  15.874  11.732  1.00 20.00     0.213 C 
ENDBRANCH   5   7
ENDBRANCH   3   5
TORSDOF 2
ENDMDL
MODEL 9
REMARK VINA RESULT:      -3.8     11.478     12.404
REMARK  2 active torsions:
REMARK  status: ('A' for Active; 'I' for Inactive)
REMARK    1  A    between atoms: C1_1  and  C4_4 
REMARK    2  A    between atoms: C1_1  and  O8_8 
ROOT
HETATM    1  C2  UNL     1     -33.137  16.278  -3.062  1.00 20.00     0.020 A 
HETATM    2  C3  UNL     1     -34.456  15.851  -2.494  1.00 20.00     0.020 A 
HETATM    3  C4  UNL     1     -34.284  15.952  -3.996  1.00 20.00     0.044 A 
HETATM    4  C5  UNL     1     -34.956  17.112  -4.687  1.00 20.00     0.026 C 
ENDROOT
BRANCH   3   5
HETATM    5  C1  UNL     1     -34.196  14.677  -4.748  1.00 20.00     0.266 C 
HETATM    6  O7  UNL     1     -33.539  14.527  -5.769  1.00 20.00    -0.264 OA
BRANCH   5   7
HETATM    7  O8  UNL     1     -34.952  13.728  -4.127  1.00 20.00    -0.326 OA
HETATM    8  C6  UNL     1     -36.285  13.577  -4.626  1.00 20.00     0.213 C 
ENDBRANCH   5   7
ENDBRANCH   3   5
TORSDOF 2
ENDMDL
