MODEL 1
REMARK VINA RESULT:      -4.6      0.000      0.000
REMARK  3 active torsions:
REMARK  status: ('A' for Active; 'I' for Inactive)
REMARK    1  A    between atoms: C3_3  and  C4_4 
REMARK    2  A    between atoms: C4_4  and  C6_6 
REMARK    3  A    between atoms: C5_5  and  C6_6 
ROOT
HETATM    1  C2  UNL     1     -33.108   4.797   2.526  1.00 20.00     0.011 C 
HETATM    2  C6  UNL     1     -33.454   6.278   2.719  1.00 20.00    -0.005 C 
ENDROOT
BRANCH   2   3
HETATM    3  C4  UNL     1     -33.956   6.512   4.160  1.00 20.00     0.005 C 
BRANCH   3   4
HETATM    4  C3  UNL     1     -34.963   5.463   4.636  1.00 20.00    -0.004 C 
HETATM    5  C1  UNL     1     -34.761   5.127   6.105  1.00 20.00     0.005 C 
ENDBRANCH   3   4
ENDBRANCH   2   3
BRANCH   2   6
HETATM    6  C5  UNL     1     -32.289   7.186   2.298  1.00 20.00     0.119 C 
HETATM    7 CL7  UNL     1     -32.696   8.301   0.972  1.00 20.00    -0.130 Cl
ENDBRANCH   2   6
TORSDOF 3
ENDMDL
MODEL 2
REMARK VINA RESULT:      -4.3      2.641      4.275
REMARK  3 active torsions:
REMARK  status: ('A' for Active; 'I' for Inactive)
REMARK    1  A    between atoms: C3_3  and  C4_4 
REMARK    2  A    between atoms: C4_4  and  C6_6 
REMARK    3  A    between atoms: C5_5  and  C6_6 
ROOT
HETATM    1  C2  UNL     1     -33.405   7.093   5.189  1.00 20.00     0.011 C 
HETATM    2  C6  UNL     1     -34.125   6.421   4.014  1.00 20.00    -0.005 C 
ENDROOT
BRANCH   2   3
HETATM    3  C4  UNL     1     -33.117   6.131   2.882  1.00 20.00     0.005 C 
BRANCH   3   4
HETATM    4  C3  UNL     1     -32.194   7.311   2.567  1.00 20.00    -0.004 C 
HETATM    5  C1  UNL     1     -32.635   8.039   1.308  1.00 20.00     0.005 C 
ENDBRANCH   3   4
ENDBRANCH   2   3
BRANCH   2   6
HETATM    6  C5  UNL     1     -34.929   5.196   4.477  1.00 20.00     0.119 C 
HETATM    7 CL7  UNL     1     -34.878   4.932   6.236  1.00 20.00    -0.130 Cl
ENDBRANCH   2   6
TORSDOF 3
ENDMDL
MODEL 3
REMARK VINA RESULT:      -4.2      2.554      3.978
REMARK  3 active torsions:
REMARK  status: ('A' for Active; 'I' for Inactive)
REMARK    1  A    between atoms: C3_3  and  C4_4 
REMARK    2  A    between atoms: C4_4  and  C6_6 
REMARK    3  A    between atoms: C5_5  and  C6_6 
ROOT
HETATM    1  C2  UNL     1     -33.353   4.640   2.333  1.00 20.00     0.011 C 
HETATM    2  C6  UNL     1     -33.565   5.443   3.622  1.00 20.00    -0.005 C 
ENDROOT
BRANCH   2   3
HETATM    3  C4  UNL     1     -33.321   6.942   3.349  1.00 20.00     0.005 C 
BRANCH   3   4
HETATM    4  C3  UNL     1     -32.253   7.205   2.286  1.00 20.00    -0.004 C 
HETATM    5  C1  UNL     1     -32.746   8.185   1.234  1.00 20.00     0.005 C 
ENDBRANCH   3   4
ENDBRANCH   2   3
BRANCH   2   6
HETATM    6  C5  UNL     1     -34.926   5.127   4.261  1.00 20.00     0.119 C 
HETATM    7 CL7  UNL     1     -34.934   5.280   6.034  1.00 20.00    -0.130 Cl
ENDBRANCH   2   6
TORSDOF 3
ENDMDL
MODEL 4
REMARK VINA RESULT:      -4.1      2.154      2.581
REMARK  3 active torsions:
REMARK  status: ('A' for Active; 'I' for Inactive)
REMARK    1  A    between atoms: C3_3  and  C4_4 
REMARK    2  A    between atoms: C4_4  and  C6_6 
REMARK    3  A    between atoms: C5_5  and  C6_6 
ROOT
HETATM    1  C2  UNL     1     -32.516   7.374   2.101  1.00 20.00     0.011 C 
HETATM    2  C6  UNL     1     -32.923   6.317   3.133  1.00 20.00    -0.005 C 
ENDROOT
BRANCH   2   3
HETATM    3  C4  UNL     1     -34.052   6.870   4.028  1.00 20.00     0.005 C 
BRANCH   3   4
HETATM    4  C3  UNL     1     -33.751   6.770   5.525  1.00 20.00    -0.004 C 
HETATM    5  C1  UNL     1     -34.648   5.747   6.205  1.00 20.00     0.005 C 
ENDBRANCH   3   4
ENDBRANCH   2   3
BRANCH   2   6
HETATM    6  C5  UNL     1     -33.246   4.973   2.462  1.00 20.00     0.119 C 
HETATM    7 CL7  UNL     1     -34.044   3.808   3.545  1.00 20.00    -0.130 Cl
ENDBRANCH   2   6
TORSDOF 3
ENDMDL
MODEL 5
REMARK VINA RESULT:      -4.0      2.375      3.986
REMARK  3 active torsions:
REMARK  status: ('A' for Active; 'I' for Inactive)
REMARK    1  A    between atoms: C3_3  and  C4_4 
REMARK    2  A    between atoms: C4_4  and  C6_6 
REMARK    3  A    between atoms: C5_5  and  C6_6 
ROOT
HETATM    1  C2  UNL     1     -34.028   6.624   6.057  1.00 20.00     0.011 C 
HETATM    2  C6  UNL     1     -34.226   6.626   4.537  1.00 20.00    -0.005 C 
ENDROOT
BRANCH   2   3
HETATM    3  C4  UNL     1     -32.862   6.790   3.834  1.00 20.00     0.005 C 
BRANCH   3   4
HETATM    4  C3  UNL     1     -32.921   6.566   2.321  1.00 20.00    -0.004 C 
HETATM    5  C1  UNL     1     -32.525   7.821   1.559  1.00 20.00     0.005 C 
ENDBRANCH   3   4
ENDBRANCH   2   3
BRANCH   2   6
HETATM    6  C5  UNL     1     -35.034   5.404   4.075  1.00 20.00     0.119 C 
HETATM    7 CL7  UNL     1     -34.121   3.878   4.139  1.00 20.00    -0.130 Cl
ENDBRANCH   2   6
TORSDOF 3
ENDMDL
MODEL 6
REMARK VINA RESULT:      -4.0      2.403      4.166
REMARK  3 active torsions:
REMARK  status: ('A' for Active; 'I' for Inactive)
REMARK    1  A    between atoms: C3_3  and  C4_4 
REMARK    2  A    between atoms: C4_4  and  C6_6 
REMARK    3  A    between atoms: C5_5  and  C6_6 
ROOT
HETATM    1  C2  UNL     1     -33.677   6.827   4.605  1.00 20.00     0.011 C 
HETATM    2  C6  UNL     1     -33.500   6.573   3.103  1.00 20.00    -0.005 C 
ENDROOT
BRANCH   2   3
HETATM    3  C4  UNL     1     -32.293   7.379   2.578  1.00 20.00     0.005 C 
BRANCH   3   4
HETATM    4  C3  UNL     1     -32.362   7.677   1.079  1.00 20.00    -0.004 C 
HETATM    5  C1  UNL     1     -32.979   9.041   0.813  1.00 20.00     0.005 C 
ENDBRANCH   3   4
ENDBRANCH   2   3
BRANCH   2   6
HETATM    6  C5  UNL     1     -33.443   5.070   2.792  1.00 20.00     0.119 C 
HETATM    7 CL7  UNL     1     -34.300   4.062   3.982  1.00 20.00    -0.130 Cl
ENDBRANCH   2   6
TORSDOF 3
ENDMDL
MODEL 7
REMARK VINA RESULT:      -3.4      2.665      3.930
REMARK  3 active torsions:
REMARK  status: ('A' for Active; 'I' for Inactive)
REMARK    1  A    between atoms: C3_3  and  C4_4 
REMARK    2  A    between atoms: C4_4  and  C6_6 
REMARK    3  A    between atoms: C5_5  and  C6_6 
ROOT
HETATM    1  C2  UNL     1     -33.601   7.117   5.889  1.00 20.00     0.011 C 
HETATM    2  C6  UNL     1     -34.121   6.773   4.488  1.00 20.00    -0.005 C 
ENDROOT
BRANCH   2   3
HETATM    3  C4  UNL     1     -32.937   6.661   3.505  1.00 20.00     0.005 C 
BRANCH   3   4
HETATM    4  C3  UNL     1     -33.282   5.920   2.212  1.00 20.00    -0.004 C 
HETATM    5  C1  UNL     1     -32.996   4.431   2.333  1.00 20.00     0.005 C 
ENDBRANCH   3   4
ENDBRANCH   2   3
BRANCH   2   6
HETATM    6  C5  UNL     1     -35.039   5.541   4.519  1.00 20.00     0.119 C 
HETATM    7 CL7  UNL     1     -34.875   4.565   5.997  1.00 20.00    -0.130 Cl
ENDBRANCH   2   6
TORSDOF 3
ENDMDL
MODEL 8
REMARK VINA RESULT:      -3.3     15.913     16.580
REMARK  3 active torsions:
REMARK  status: ('A' for Active; 'I' for Inactive)
REMARK    1  A    between atoms: C3_3  and  C4_4 
REMARK    2  A    between atoms: C4_4  and  C6_6 
REMARK    3  A    between atoms: C5_5  and  C6_6 
ROOT
HETATM    1  C2  UNL     1     -24.861  18.878   9.646  1.00 20.00     0.011 C 
HETATM    2  C6  UNL     1     -24.121  18.126  10.758  1.00 20.00    -0.005 C 
ENDROOT
BRANCH   2   3
HETATM    3  C4  UNL     1     -24.806  18.395  12.115  1.00 20.00     0.005 C 
BRANCH   3   4
HETATM    4  C3  UNL     1     -26.219  18.967  11.984  1.00 20.00    -0.004 C 
HETATM    5  C1  UNL     1     -27.273  17.928  12.332  1.00 20.00     0.005 C 
ENDBRANCH   3   4
ENDBRANCH   2   3
BRANCH   2   6
HETATM    6  C5  UNL     1     -23.956  16.638  10.415  1.00 20.00     0.119 C 
HETATM    7 CL7  UNL     1     -24.652  15.543  11.634  1.00 20.00    -0.130 Cl
ENDBRANCH   2   6
TORSDOF 3
ENDMDL
MODEL 9
REMARK VINA RESULT:      -3.3     11.278     11.980
REMARK  3 active torsions:
REMARK  status: ('A' for Active; 'I' for Inactive)
REMARK    1  A    between atoms: C3_3  and  C4_4 
REMARK    2  A    between atoms: C4_4  and  C6_6 
REMARK    3  A    between atoms: C5_5  and  C6_6 
ROOT
HETATM    1  C2  UNL     1     -33.470  14.975  -4.139  1.00 20.00     0.011 C 
HETATM    2  C6  UNL     1     -34.574  15.146  -3.089  1.00 20.00    -0.005 C 
ENDROOT
BRANCH   2   3
HETATM    3  C4  UNL     1     -34.283  16.391  -2.225  1.00 20.00     0.005 C 
BRANCH   3   4
HETATM    4  C3  UNL     1     -32.990  17.114  -2.608  1.00 20.00    -0.004 C 
HETATM    5  C1  UNL     1     -32.458  17.949  -1.454  1.00 20.00     0.005 C 
ENDBRANCH   3   4
ENDBRANCH   2   3
BRANCH   2   6
HETATM    6  C5  UNL     1     -35.968  15.134  -3.735  1.00 20.00     0.119 C 
HETATM    7 CL7  UNL     1     -36.354  13.611  -4.570  1.00 20.00    -0.130 Cl
ENDBRANCH   2   6
TORSDOF 3
ENDMDL
