MODEL 1
REMARK VINA RESULT:      -3.9      0.000      0.000
REMARK  1 active torsions:
REMARK  status: ('A' for Active; 'I' for Inactive)
REMARK    1  A    between atoms: C2_2  and  C3_3 
ROOT
HETATM    1  C1  UNL     1     -36.768  15.818  -3.971  1.00 20.00     0.101 A 
HETATM    2  C2  UNL     1     -36.336  14.516  -4.126  1.00 20.00     0.118 A 
HETATM    3  N4  UNL     1     -37.328  13.589  -4.406  1.00 20.00    -0.166 NA
HETATM    4  N5  UNL     1     -38.521  14.158  -4.469  1.00 20.00    -0.037 NA
HETATM    5  S7  UNL     1     -38.468  15.810  -4.194  1.00 20.00    -0.008 SA
ENDROOT
BRANCH   2   6
HETATM    6  C3  UNL     1     -34.967  14.104  -4.014  1.00 20.00     0.292 C 
HETATM    7  O6  UNL     1     -34.603  12.914  -3.958  1.00 20.00    -0.300 OA
ENDBRANCH   2   6
TORSDOF 1
ENDMDL
MODEL 2
REMARK VINA RESULT:      -3.7     11.907     12.311
REMARK  1 active torsions:
REMARK  status: ('A' for Active; 'I' for Inactive)
REMARK    1  A    between atoms: C2_2  and  C3_3 
ROOT
HETATM    1  C1  UNL     1     -33.864   6.597   5.045  1.00 20.00     0.101 A 
HETATM    2  C2  UNL     1     -33.593   6.153   3.766  1.00 20.00     0.118 A 
HETATM    3  N4  UNL     1     -34.148   4.928   3.430  1.00 20.00    -0.166 NA
HETATM    4  N5  UNL     1     -34.844   4.418   4.433  1.00 20.00    -0.037 NA
HETATM    5  S7  UNL     1     -34.842   5.401   5.790  1.00 20.00    -0.008 SA
ENDROOT
BRANCH   2   6
HETATM    6  C3  UNL     1     -32.798   6.876   2.816  1.00 20.00     0.292 C 
HETATM    7  O6  UNL     1     -31.756   7.493   3.109  1.00 20.00    -0.300 OA
ENDBRANCH   2   6
TORSDOF 1
ENDMDL
MODEL 3
REMARK VINA RESULT:      -3.7     17.656     17.975
REMARK  1 active torsions:
REMARK  status: ('A' for Active; 'I' for Inactive)
REMARK    1  A    between atoms: C2_2  and  C3_3 
ROOT
HETATM    1  C1  UNL     1     -25.409  19.116   8.427  1.00 20.00     0.101 A 
HETATM    2  C2  UNL     1     -24.075  18.914   8.134  1.00 20.00     0.118 A 
HETATM    3  N4  UNL     1     -23.763  18.859   6.784  1.00 20.00    -0.166 NA
HETATM    4  N5  UNL     1     -24.838  19.017   6.030  1.00 20.00    -0.037 NA
HETATM    5  S7  UNL     1     -26.236  19.232   6.928  1.00 20.00    -0.008 SA
ENDROOT
BRANCH   2   6
HETATM    6  C3  UNL     1     -23.048  18.765   9.124  1.00 20.00     0.292 C 
HETATM    7  O6  UNL     1     -21.885  19.187   8.986  1.00 20.00    -0.300 OA
ENDBRANCH   2   6
TORSDOF 1
ENDMDL
MODEL 4
REMARK VINA RESULT:      -3.6      2.778      3.157
REMARK  1 active torsions:
REMARK  status: ('A' for Active; 'I' for Inactive)
REMARK    1  A    between atoms: C2_2  and  C3_3 
ROOT
HETATM    1  C1  UNL     1     -35.407  15.240  -4.157  1.00 20.00     0.101 A 
HETATM    2  C2  UNL     1     -36.464  14.365  -4.311  1.00 20.00     0.118 A 
HETATM    3  N4  UNL     1     -36.129  13.020  -4.311  1.00 20.00    -0.166 NA
HETATM    4  N5  UNL     1     -34.827  12.843  -4.159  1.00 20.00    -0.037 NA
HETATM    5  S7  UNL     1     -33.988  14.286  -4.015  1.00 20.00    -0.008 SA
ENDROOT
BRANCH   2   6
HETATM    6  C3  UNL     1     -37.830  14.775  -4.464  1.00 20.00     0.292 C 
HETATM    7  O6  UNL     1     -38.799  13.994  -4.403  1.00 20.00    -0.300 OA
ENDBRANCH   2   6
TORSDOF 1
ENDMDL
MODEL 5
REMARK VINA RESULT:      -3.6      3.210      3.488
REMARK  1 active torsions:
REMARK  status: ('A' for Active; 'I' for Inactive)
REMARK    1  A    between atoms: C2_2  and  C3_3 
ROOT
HETATM    1  C1  UNL     1     -35.005  15.572  -3.123  1.00 20.00     0.101 A 
HETATM    2  C2  UNL     1     -34.916  14.528  -4.021  1.00 20.00     0.118 A 
HETATM    3  N4  UNL     1     -33.651  14.294  -4.539  1.00 20.00    -0.166 NA
HETATM    4  N5  UNL     1     -32.762  15.145  -4.054  1.00 20.00    -0.037 NA
HETATM    5  S7  UNL     1     -33.430  16.234  -2.970  1.00 20.00    -0.008 SA
ENDROOT
BRANCH   2   6
HETATM    6  C3  UNL     1     -36.027  13.713  -4.420  1.00 20.00     0.292 C 
HETATM    7  O6  UNL     1     -36.025  12.468  -4.376  1.00 20.00    -0.300 OA
ENDBRANCH   2   6
TORSDOF 1
ENDMDL
MODEL 6
REMARK VINA RESULT:      -3.5     18.758     19.143
REMARK  1 active torsions:
REMARK  status: ('A' for Active; 'I' for Inactive)
REMARK    1  A    between atoms: C2_2  and  C3_3 
ROOT
HETATM    1  C1  UNL     1     -22.799  18.057   9.539  1.00 20.00     0.101 A 
HETATM    2  C2  UNL     1     -23.657  18.577   8.590  1.00 20.00     0.118 A 
HETATM    3  N4  UNL     1     -23.267  18.397   7.272  1.00 20.00    -0.166 NA
HETATM    4  N5  UNL     1     -22.118  17.746   7.189  1.00 20.00    -0.037 NA
HETATM    5  S7  UNL     1     -21.492  17.341   8.690  1.00 20.00    -0.008 SA
ENDROOT
BRANCH   2   6
HETATM    6  C3  UNL     1     -24.879  19.262   8.900  1.00 20.00     0.292 C 
HETATM    7  O6  UNL     1     -25.474  19.160   9.989  1.00 20.00    -0.300 OA
ENDBRANCH   2   6
TORSDOF 1
ENDMDL
MODEL 7
REMARK VINA RESULT:      -3.5     17.486     17.840
REMARK  1 active torsions:
REMARK  status: ('A' for Active; 'I' for Inactive)
REMARK    1  A    between atoms: C2_2  and  C3_3 
ROOT
HETATM    1  C1  UNL     1     -24.760  18.926   8.773  1.00 20.00     0.101 A 
HETATM    2  C2  UNL     1     -24.595  18.901   7.403  1.00 20.00     0.118 A 
HETATM    3  N4  UNL     1     -23.334  18.531   6.962  1.00 20.00    -0.166 NA
HETATM    4  N5  UNL     1     -22.522  18.270   7.972  1.00 20.00    -0.037 NA
HETATM    5  S7  UNL     1     -23.260  18.465   9.464  1.00 20.00    -0.008 SA
ENDROOT
BRANCH   2   6
HETATM    6  C3  UNL     1     -25.628  19.227   6.462  1.00 20.00     0.292 C 
HETATM    7  O6  UNL     1     -25.879  18.552   5.446  1.00 20.00    -0.300 OA
ENDBRANCH   2   6
TORSDOF 1
ENDMDL
MODEL 8
REMARK VINA RESULT:      -3.5      2.219      2.502
REMARK  1 active torsions:
REMARK  status: ('A' for Active; 'I' for Inactive)
REMARK    1  A    between atoms: C2_2  and  C3_3 
ROOT
HETATM    1  C1  UNL     1     -35.658  15.309  -4.296  1.00 20.00     0.101 A 
HETATM    2  C2  UNL     1     -34.505  14.580  -4.086  1.00 20.00     0.118 A 
HETATM    3  N4  UNL     1     -34.661  13.202  -4.097  1.00 20.00    -0.166 NA
HETATM    4  N5  UNL     1     -35.919  12.857  -4.313  1.00 20.00    -0.037 NA
HETATM    5  S7  UNL     1     -36.931  14.179  -4.505  1.00 20.00    -0.008 SA
ENDROOT
BRANCH   2   6
HETATM    6  C3  UNL     1     -33.213  15.163  -3.867  1.00 20.00     0.292 C 
HETATM    7  O6  UNL     1     -33.013  16.150  -3.134  1.00 20.00    -0.300 OA
ENDBRANCH   2   6
TORSDOF 1
ENDMDL
MODEL 9
REMARK VINA RESULT:      -3.4     11.657     12.022
REMARK  1 active torsions:
REMARK  status: ('A' for Active; 'I' for Inactive)
REMARK    1  A    between atoms: C2_2  and  C3_3 
ROOT
HETATM    1  C1  UNL     1     -34.035   5.405   3.376  1.00 20.00     0.101 A 
HETATM    2  C2  UNL     1     -33.280   6.505   3.733  1.00 20.00     0.118 A 
HETATM    3  N4  UNL     1     -33.475   6.967   5.026  1.00 20.00    -0.166 NA
HETATM    4  N5  UNL     1     -34.371   6.240   5.672  1.00 20.00    -0.037 NA
HETATM    5  S7  UNL     1     -34.990   4.993   4.739  1.00 20.00    -0.008 SA
ENDROOT
BRANCH   2   6
HETATM    6  C3  UNL     1     -32.346   7.157   2.862  1.00 20.00     0.292 C 
HETATM    7  O6  UNL     1     -32.628   7.554   1.715  1.00 20.00    -0.300 OA
ENDBRANCH   2   6
TORSDOF 1
ENDMDL
