MODEL 1
REMARK VINA RESULT:      -5.6      0.000      0.000
REMARK  1 active torsions:
REMARK  status: ('A' for Active; 'I' for Inactive)
REMARK    1  A    between atoms: C1_1  and  C5_5 
ROOT
HETATM    1  C2  UNL     1     -34.418  16.338  -1.892  1.00 20.00     0.006 C 
HETATM    2  C3  UNL     1     -33.362  16.968  -2.813  1.00 20.00     0.006 C 
HETATM    3  C4  UNL     1     -35.411  16.907  -3.972  1.00 20.00     0.011 C 
HETATM    4  C5  UNL     1     -34.933  14.577  -3.600  1.00 20.00     0.067 C 
HETATM    5  C6  UNL     1     -35.482  15.834  -2.883  1.00 20.00    -0.002 C 
HETATM    6  C7  UNL     1     -33.916  16.683  -4.223  1.00 20.00    -0.006 C 
HETATM    7  C8  UNL     1     -33.866  15.160  -4.580  1.00 20.00    -0.033 C 
HETATM    8  C10 UNL     1     -34.199  14.962  -6.075  1.00 20.00     0.016 C 
HETATM    9  C11 UNL     1     -32.490  14.520  -4.338  1.00 20.00     0.016 C 
ENDROOT
BRANCH   4  10
HETATM   10  C1  UNL     1     -36.044  13.810  -4.253  1.00 20.00     0.128 C 
HETATM   11  C9  UNL     1     -37.366  14.518  -4.387  1.00 20.00     0.091 C 
HETATM   12  O12 UNL     1     -35.883  12.661  -4.660  1.00 20.00    -0.298 OA
ENDBRANCH   4  10
TORSDOF 1
ENDMDL
MODEL 2
REMARK VINA RESULT:      -4.8      1.393      2.891
REMARK  1 active torsions:
REMARK  status: ('A' for Active; 'I' for Inactive)
REMARK    1  A    between atoms: C1_1  and  C5_5 
ROOT
HETATM    1  C2  UNL     1     -33.074  15.608  -3.762  1.00 20.00     0.006 C 
HETATM    2  C3  UNL     1     -33.957  16.062  -2.591  1.00 20.00     0.006 C 
HETATM    3  C4  UNL     1     -34.968  14.187  -3.594  1.00 20.00     0.011 C 
HETATM    4  C5  UNL     1     -34.993  15.821  -5.361  1.00 20.00     0.067 C 
HETATM    5  C6  UNL     1     -34.056  14.818  -4.648  1.00 20.00    -0.002 C 
HETATM    6  C7  UNL     1     -35.353  15.539  -2.984  1.00 20.00    -0.006 C 
HETATM    7  C8  UNL     1     -35.943  16.301  -4.218  1.00 20.00    -0.033 C 
HETATM    8  C10 UNL     1     -37.424  15.911  -4.414  1.00 20.00     0.016 C 
HETATM    9  C11 UNL     1     -35.897  17.831  -4.071  1.00 20.00     0.016 C 
ENDROOT
BRANCH   4  10
HETATM   10  C1  UNL     1     -35.678  15.171  -6.526  1.00 20.00     0.128 C 
HETATM   11  C9  UNL     1     -36.064  16.068  -7.671  1.00 20.00     0.091 C 
HETATM   12  O12 UNL     1     -35.912  13.964  -6.545  1.00 20.00    -0.298 OA
ENDBRANCH   4  10
TORSDOF 1
ENDMDL
MODEL 3
REMARK VINA RESULT:      -4.6      2.936      4.993
REMARK  1 active torsions:
REMARK  status: ('A' for Active; 'I' for Inactive)
REMARK    1  A    between atoms: C1_1  and  C5_5 
ROOT
HETATM    1  C2  UNL     1     -33.774  15.510  -3.329  1.00 20.00     0.006 C 
HETATM    2  C3  UNL     1     -35.269  15.842  -3.215  1.00 20.00     0.006 C 
HETATM    3  C4  UNL     1     -34.136  17.775  -3.940  1.00 20.00     0.011 C 
HETATM    4  C5  UNL     1     -33.186  17.378  -1.763  1.00 20.00     0.067 C 
HETATM    5  C6  UNL     1     -33.105  16.893  -3.231  1.00 20.00    -0.002 C 
HETATM    6  C7  UNL     1     -35.271  17.368  -2.994  1.00 20.00    -0.006 C 
HETATM    7  C8  UNL     1     -34.691  17.762  -1.595  1.00 20.00    -0.033 C 
HETATM    8  C10 UNL     1     -34.940  19.262  -1.329  1.00 20.00     0.016 C 
HETATM    9  C11 UNL     1     -35.328  16.988  -0.429  1.00 20.00     0.016 C 
ENDROOT
BRANCH   4  10
HETATM   10  C1  UNL     1     -32.215  18.494  -1.519  1.00 20.00     0.128 C 
HETATM   11  C9  UNL     1     -31.675  18.626  -0.120  1.00 20.00     0.091 C 
HETATM   12  O12 UNL     1     -31.875  19.262  -2.416  1.00 20.00    -0.298 OA
ENDBRANCH   4  10
TORSDOF 1
ENDMDL
MODEL 4
REMARK VINA RESULT:      -4.6      1.435      2.685
REMARK  1 active torsions:
REMARK  status: ('A' for Active; 'I' for Inactive)
REMARK    1  A    between atoms: C1_1  and  C5_5 
ROOT
HETATM    1  C2  UNL     1     -33.029  17.113  -2.416  1.00 20.00     0.006 C 
HETATM    2  C3  UNL     1     -34.259  17.998  -2.169  1.00 20.00     0.006 C 
HETATM    3  C4  UNL     1     -34.984  15.767  -2.369  1.00 20.00     0.011 C 
HETATM    4  C5  UNL     1     -34.032  16.221  -4.533  1.00 20.00     0.067 C 
HETATM    5  C6  UNL     1     -33.633  15.862  -3.082  1.00 20.00    -0.002 C 
HETATM    6  C7  UNL     1     -35.409  17.178  -2.788  1.00 20.00    -0.006 C 
HETATM    7  C8  UNL     1     -35.307  17.104  -4.347  1.00 20.00    -0.033 C 
HETATM    8  C10 UNL     1     -36.598  16.489  -4.927  1.00 20.00     0.016 C 
HETATM    9  C11 UNL     1     -35.125  18.477  -5.015  1.00 20.00     0.016 C 
ENDROOT
BRANCH   4  10
HETATM   10  C1  UNL     1     -34.233  14.979  -5.350  1.00 20.00     0.128 C 
HETATM   11  C9  UNL     1     -34.045  15.110  -6.838  1.00 20.00     0.091 C 
HETATM   12  O12 UNL     1     -34.535  13.907  -4.830  1.00 20.00    -0.298 OA
ENDBRANCH   4  10
TORSDOF 1
ENDMDL
MODEL 5
REMARK VINA RESULT:      -4.5      1.693      3.394
REMARK  1 active torsions:
REMARK  status: ('A' for Active; 'I' for Inactive)
REMARK    1  A    between atoms: C1_1  and  C5_5 
ROOT
HETATM    1  C2  UNL     1     -34.043  15.136  -5.770  1.00 20.00     0.006 C 
HETATM    2  C3  UNL     1     -33.303  14.468  -4.602  1.00 20.00     0.006 C 
HETATM    3  C4  UNL     1     -35.610  14.431  -4.132  1.00 20.00     0.011 C 
HETATM    4  C5  UNL     1     -35.115  16.785  -4.215  1.00 20.00     0.067 C 
HETATM    5  C6  UNL     1     -35.377  15.566  -5.132  1.00 20.00    -0.002 C 
HETATM    6  C7  UNL     1     -34.274  14.660  -3.419  1.00 20.00    -0.006 C 
HETATM    7  C8  UNL     1     -34.385  16.159  -2.985  1.00 20.00    -0.033 C 
HETATM    8  C10 UNL     1     -35.167  16.263  -1.658  1.00 20.00     0.016 C 
HETATM    9  C11 UNL     1     -33.022  16.833  -2.755  1.00 20.00     0.016 C 
ENDROOT
BRANCH   4  10
HETATM   10  C1  UNL     1     -36.398  17.496  -3.899  1.00 20.00     0.128 C 
HETATM   11  C9  UNL     1     -36.291  18.950  -3.527  1.00 20.00     0.091 C 
HETATM   12  O12 UNL     1     -37.483  16.919  -3.943  1.00 20.00    -0.298 OA
ENDBRANCH   4  10
TORSDOF 1
ENDMDL
MODEL 6
REMARK VINA RESULT:      -4.5      1.201      1.272
REMARK  1 active torsions:
REMARK  status: ('A' for Active; 'I' for Inactive)
REMARK    1  A    between atoms: C1_1  and  C5_5 
ROOT
HETATM    1  C2  UNL     1     -34.175  16.828  -1.492  1.00 20.00     0.006 C 
HETATM    2  C3  UNL     1     -33.050  17.321  -2.414  1.00 20.00     0.006 C 
HETATM    3  C4  UNL     1     -35.110  17.718  -3.485  1.00 20.00     0.011 C 
HETATM    4  C5  UNL     1     -35.058  15.320  -3.289  1.00 20.00     0.067 C 
HETATM    5  C6  UNL     1     -35.345  16.600  -2.468  1.00 20.00    -0.002 C 
HETATM    6  C7  UNL     1     -33.690  17.246  -3.815  1.00 20.00    -0.006 C 
HETATM    7  C8  UNL     1     -33.933  15.770  -4.274  1.00 20.00    -0.033 C 
HETATM    8  C10 UNL     1     -34.341  15.746  -5.763  1.00 20.00     0.016 C 
HETATM    9  C11 UNL     1     -32.691  14.873  -4.135  1.00 20.00     0.016 C 
ENDROOT
BRANCH   4  10
HETATM   10  C1  UNL     1     -36.311  14.818  -3.943  1.00 20.00     0.128 C 
HETATM   11  C9  UNL     1     -36.261  13.431  -4.528  1.00 20.00     0.091 C 
HETATM   12  O12 UNL     1     -37.330  15.504  -3.997  1.00 20.00    -0.298 OA
ENDBRANCH   4  10
TORSDOF 1
ENDMDL
MODEL 7
REMARK VINA RESULT:      -4.5      1.800      3.652
REMARK  1 active torsions:
REMARK  status: ('A' for Active; 'I' for Inactive)
REMARK    1  A    between atoms: C1_1  and  C5_5 
ROOT
HETATM    1  C2  UNL     1     -35.795  13.559  -4.412  1.00 20.00     0.006 C 
HETATM    2  C3  UNL     1     -36.010  14.305  -5.737  1.00 20.00     0.006 C 
HETATM    3  C4  UNL     1     -33.873  14.858  -4.916  1.00 20.00     0.011 C 
HETATM    4  C5  UNL     1     -35.342  15.713  -3.212  1.00 20.00     0.067 C 
HETATM    5  C6  UNL     1     -34.705  14.396  -3.718  1.00 20.00    -0.002 C 
HETATM    6  C7  UNL     1     -35.069  15.520  -5.609  1.00 20.00    -0.006 C 
HETATM    7  C8  UNL     1     -35.559  16.534  -4.523  1.00 20.00    -0.033 C 
HETATM    8  C10 UNL     1     -34.728  17.832  -4.606  1.00 20.00     0.016 C 
HETATM    9  C11 UNL     1     -37.035  16.935  -4.681  1.00 20.00     0.016 C 
ENDROOT
BRANCH   4  10
HETATM   10  C1  UNL     1     -34.463  16.369  -2.189  1.00 20.00     0.128 C 
HETATM   11  C9  UNL     1     -35.147  16.939  -0.975  1.00 20.00     0.091 C 
HETATM   12  O12 UNL     1     -33.244  16.436  -2.334  1.00 20.00    -0.298 OA
ENDBRANCH   4  10
TORSDOF 1
ENDMDL
MODEL 8
REMARK VINA RESULT:      -4.5      1.386      2.338
REMARK  1 active torsions:
REMARK  status: ('A' for Active; 'I' for Inactive)
REMARK    1  A    between atoms: C1_1  and  C5_5 
ROOT
HETATM    1  C2  UNL     1     -32.904  15.860  -3.377  1.00 20.00     0.006 C 
HETATM    2  C3  UNL     1     -33.423  17.261  -3.025  1.00 20.00     0.006 C 
HETATM    3  C4  UNL     1     -35.161  15.716  -2.653  1.00 20.00     0.011 C 
HETATM    4  C5  UNL     1     -34.768  15.526  -5.021  1.00 20.00     0.067 C 
HETATM    5  C6  UNL     1     -34.199  15.073  -3.655  1.00 20.00    -0.002 C 
HETATM    6  C7  UNL     1     -34.948  17.126  -3.213  1.00 20.00    -0.006 C 
HETATM    7  C8  UNL     1     -35.342  16.947  -4.717  1.00 20.00    -0.033 C 
HETATM    8  C10 UNL     1     -36.873  17.062  -4.873  1.00 20.00     0.016 C 
HETATM    9  C11 UNL     1     -34.716  18.002  -5.644  1.00 20.00     0.016 C 
ENDROOT
BRANCH   4  10
HETATM   10  C1  UNL     1     -35.768  14.534  -5.534  1.00 20.00     0.128 C 
HETATM   11  C9  UNL     1     -36.279  13.517  -4.549  1.00 20.00     0.091 C 
HETATM   12  O12 UNL     1     -36.152  14.551  -6.702  1.00 20.00    -0.298 OA
ENDBRANCH   4  10
TORSDOF 1
ENDMDL
MODEL 9
REMARK VINA RESULT:      -4.3      1.924      3.653
REMARK  1 active torsions:
REMARK  status: ('A' for Active; 'I' for Inactive)
REMARK    1  A    between atoms: C1_1  and  C5_5 
ROOT
HETATM    1  C2  UNL     1     -33.054  14.751  -4.267  1.00 20.00     0.006 C 
HETATM    2  C3  UNL     1     -34.077  14.951  -5.395  1.00 20.00     0.006 C 
HETATM    3  C4  UNL     1     -33.621  17.050  -4.429  1.00 20.00     0.011 C 
HETATM    4  C5  UNL     1     -34.598  15.819  -2.606  1.00 20.00     0.067 C 
HETATM    5  C6  UNL     1     -33.270  15.992  -3.381  1.00 20.00    -0.002 C 
HETATM    6  C7  UNL     1     -34.804  16.246  -4.979  1.00 20.00    -0.006 C 
HETATM    7  C8  UNL     1     -35.687  16.043  -3.703  1.00 20.00    -0.033 C 
HETATM    8  C10 UNL     1     -36.573  17.286  -3.477  1.00 20.00     0.016 C 
HETATM    9  C11 UNL     1     -36.629  14.832  -3.797  1.00 20.00     0.016 C 
ENDROOT
BRANCH   4  10
HETATM   10  C1  UNL     1     -34.662  16.766  -1.445  1.00 20.00     0.128 C 
HETATM   11  C9  UNL     1     -33.549  17.773  -1.331  1.00 20.00     0.091 C 
HETATM   12  O12 UNL     1     -35.580  16.724  -0.628  1.00 20.00    -0.298 OA
ENDBRANCH   4  10
TORSDOF 1
ENDMDL
