MODEL 1
REMARK VINA RESULT:      -3.8      0.000      0.000
REMARK  2 active torsions:
REMARK  status: ('A' for Active; 'I' for Inactive)
REMARK    1  A    between atoms: C5_5  and  C6_6 
REMARK    2  A    between atoms: C5_5  and  N7_7 
ROOT
HETATM    1  C1  UNL     1     -32.740   7.182   2.111  1.00 20.00     0.157 C 
HETATM    2  N7  UNL     1     -32.828   6.318   2.900  1.00 20.00    -0.275 NA
HETATM    3  S8  UNL     1     -32.602   8.337   1.023  1.00 20.00    -0.055 SA
ENDROOT
BRANCH   2   4
HETATM    4  C5  UNL     1     -33.637   6.641   4.080  1.00 20.00     0.158 C 
BRANCH   4   5
HETATM    5  C6  UNL     1     -34.552   5.461   4.467  1.00 20.00    -0.033 C 
HETATM    6  C2  UNL     1     -34.013   4.142   3.891  1.00 20.00     0.016 C 
HETATM    7  C3  UNL     1     -35.954   5.719   3.885  1.00 20.00     0.016 C 
HETATM    8  C4  UNL     1     -34.668   5.342   5.997  1.00 20.00     0.016 C 
ENDBRANCH   4   5
ENDBRANCH   2   4
TORSDOF 2
ENDMDL
MODEL 2
REMARK VINA RESULT:      -3.8      0.024      1.532
REMARK  2 active torsions:
REMARK  status: ('A' for Active; 'I' for Inactive)
REMARK    1  A    between atoms: C5_5  and  C6_6 
REMARK    2  A    between atoms: C5_5  and  N7_7 
ROOT
HETATM    1  C1  UNL     1     -32.739   7.176   2.113  1.00 20.00     0.157 C 
HETATM    2  N7  UNL     1     -32.832   6.312   2.902  1.00 20.00    -0.275 NA
HETATM    3  S8  UNL     1     -32.595   8.329   1.024  1.00 20.00    -0.055 SA
ENDROOT
BRANCH   2   4
HETATM    4  C5  UNL     1     -33.635   6.642   4.084  1.00 20.00     0.158 C 
BRANCH   4   5
HETATM    5  C6  UNL     1     -34.578   5.480   4.458  1.00 20.00    -0.033 C 
HETATM    6  C2  UNL     1     -34.677   5.328   5.985  1.00 20.00     0.016 C 
HETATM    7  C3  UNL     1     -34.006   4.178   3.867  1.00 20.00     0.016 C 
HETATM    8  C4  UNL     1     -35.983   5.711   3.874  1.00 20.00     0.016 C 
ENDBRANCH   4   5
ENDBRANCH   2   4
TORSDOF 2
ENDMDL
MODEL 3
REMARK VINA RESULT:      -3.5     16.001     16.789
REMARK  2 active torsions:
REMARK  status: ('A' for Active; 'I' for Inactive)
REMARK    1  A    between atoms: C5_5  and  C6_6 
REMARK    2  A    between atoms: C5_5  and  N7_7 
ROOT
HETATM    1  C1  UNL     1     -25.249  19.142   8.501  1.00 20.00     0.157 C 
HETATM    2  N7  UNL     1     -25.006  19.130   9.649  1.00 20.00    -0.275 NA
HETATM    3  S8  UNL     1     -25.600  19.180   6.948  1.00 20.00    -0.055 SA
ENDROOT
BRANCH   2   4
HETATM    4  C5  UNL     1     -23.975  18.167  10.050  1.00 20.00     0.158 C 
BRANCH   4   5
HETATM    5  C6  UNL     1     -24.203  17.678  11.495  1.00 20.00    -0.033 C 
HETATM    6  C2  UNL     1     -22.922  17.832  12.332  1.00 20.00     0.016 C 
HETATM    7  C3  UNL     1     -24.589  16.188  11.451  1.00 20.00     0.016 C 
HETATM    8  C4  UNL     1     -25.346  18.464  12.162  1.00 20.00     0.016 C 
ENDBRANCH   4   5
ENDBRANCH   2   4
TORSDOF 2
ENDMDL
MODEL 4
REMARK VINA RESULT:      -3.1     11.530     12.150
REMARK  2 active torsions:
REMARK  status: ('A' for Active; 'I' for Inactive)
REMARK    1  A    between atoms: C5_5  and  C6_6 
REMARK    2  A    between atoms: C5_5  and  N7_7 
ROOT
HETATM    1  C1  UNL     1     -35.217  16.752  -1.081  1.00 20.00     0.157 C 
HETATM    2  N7  UNL     1     -35.202  16.018  -1.996  1.00 20.00    -0.275 NA
HETATM    3  S8  UNL     1     -35.268  17.739   0.168  1.00 20.00    -0.055 SA
ENDROOT
BRANCH   2   4
HETATM    4  C5  UNL     1     -33.946  16.006  -2.755  1.00 20.00     0.158 C 
BRANCH   4   5
HETATM    5  C6  UNL     1     -34.099  15.216  -4.071  1.00 20.00    -0.033 C 
HETATM    6  C2  UNL     1     -32.802  14.462  -4.407  1.00 20.00     0.016 C 
HETATM    7  C3  UNL     1     -34.401  16.212  -5.205  1.00 20.00     0.016 C 
HETATM    8  C4  UNL     1     -35.263  14.214  -3.972  1.00 20.00     0.016 C 
ENDBRANCH   4   5
ENDBRANCH   2   4
TORSDOF 2
ENDMDL
MODEL 5
REMARK VINA RESULT:      -3.0     11.865     12.634
REMARK  2 active torsions:
REMARK  status: ('A' for Active; 'I' for Inactive)
REMARK    1  A    between atoms: C5_5  and  C6_6 
REMARK    2  A    between atoms: C5_5  and  N7_7 
ROOT
HETATM    1  C1  UNL     1     -32.341  18.116  -1.592  1.00 20.00     0.157 C 
HETATM    2  N7  UNL     1     -33.089  17.871  -2.463  1.00 20.00    -0.275 NA
HETATM    3  S8  UNL     1     -31.338  18.477  -0.409  1.00 20.00    -0.055 SA
ENDROOT
BRANCH   2   4
HETATM    4  C5  UNL     1     -32.958  16.523  -3.026  1.00 20.00     0.158 C 
BRANCH   4   5
HETATM    5  C6  UNL     1     -34.337  15.940  -3.397  1.00 20.00    -0.033 C 
HETATM    6  C2  UNL     1     -35.023  16.803  -4.469  1.00 20.00     0.016 C 
HETATM    7  C3  UNL     1     -35.217  15.926  -2.134  1.00 20.00     0.016 C 
HETATM    8  C4  UNL     1     -34.196  14.497  -3.916  1.00 20.00     0.016 C 
ENDBRANCH   4   5
ENDBRANCH   2   4
TORSDOF 2
ENDMDL
MODEL 6
REMARK VINA RESULT:      -3.0     11.899     12.587
REMARK  2 active torsions:
REMARK  status: ('A' for Active; 'I' for Inactive)
REMARK    1  A    between atoms: C5_5  and  C6_6 
REMARK    2  A    between atoms: C5_5  and  N7_7 
ROOT
HETATM    1  C1  UNL     1     -32.314  18.148  -1.569  1.00 20.00     0.157 C 
HETATM    2  N7  UNL     1     -33.045  17.909  -2.456  1.00 20.00    -0.275 NA
HETATM    3  S8  UNL     1     -31.335  18.501  -0.364  1.00 20.00    -0.055 SA
ENDROOT
BRANCH   2   4
HETATM    4  C5  UNL     1     -32.937  16.549  -2.993  1.00 20.00     0.158 C 
BRANCH   4   5
HETATM    5  C6  UNL     1     -34.325  15.981  -3.352  1.00 20.00    -0.033 C 
HETATM    6  C2  UNL     1     -34.202  14.557  -3.919  1.00 20.00     0.016 C 
HETATM    7  C3  UNL     1     -34.961  16.886  -4.422  1.00 20.00     0.016 C 
HETATM    8  C4  UNL     1     -35.241  15.960  -2.115  1.00 20.00     0.016 C 
ENDBRANCH   4   5
ENDBRANCH   2   4
TORSDOF 2
ENDMDL
MODEL 7
REMARK VINA RESULT:      -3.0     11.909     12.688
REMARK  2 active torsions:
REMARK  status: ('A' for Active; 'I' for Inactive)
REMARK    1  A    between atoms: C5_5  and  C6_6 
REMARK    2  A    between atoms: C5_5  and  N7_7 
ROOT
HETATM    1  C1  UNL     1     -32.320  18.117  -1.718  1.00 20.00     0.157 C 
HETATM    2  N7  UNL     1     -32.969  17.847  -2.658  1.00 20.00    -0.275 NA
HETATM    3  S8  UNL     1     -31.449  18.513  -0.445  1.00 20.00    -0.055 SA
ENDROOT
BRANCH   2   4
HETATM    4  C5  UNL     1     -32.904  16.440  -3.067  1.00 20.00     0.158 C 
BRANCH   4   5
HETATM    5  C6  UNL     1     -34.297  15.914  -3.472  1.00 20.00    -0.033 C 
HETATM    6  C2  UNL     1     -35.243  15.886  -2.260  1.00 20.00     0.016 C 
HETATM    7  C3  UNL     1     -34.140  14.480  -4.010  1.00 20.00     0.016 C 
HETATM    8  C4  UNL     1     -34.909  16.791  -4.578  1.00 20.00     0.016 C 
ENDBRANCH   4   5
ENDBRANCH   2   4
TORSDOF 2
ENDMDL
MODEL 8
REMARK VINA RESULT:      -3.0     11.877     12.549
REMARK  2 active torsions:
REMARK  status: ('A' for Active; 'I' for Inactive)
REMARK    1  A    between atoms: C5_5  and  C6_6 
REMARK    2  A    between atoms: C5_5  and  N7_7 
ROOT
HETATM    1  C1  UNL     1     -37.358  14.722  -4.249  1.00 20.00     0.157 C 
HETATM    2  N7  UNL     1     -36.207  14.492  -4.255  1.00 20.00    -0.275 NA
HETATM    3  S8  UNL     1     -38.923  15.013  -4.265  1.00 20.00    -0.055 SA
ENDROOT
BRANCH   2   4
HETATM    4  C5  UNL     1     -35.424  15.240  -3.266  1.00 20.00     0.158 C 
BRANCH   4   5
HETATM    5  C6  UNL     1     -34.083  15.716  -3.862  1.00 20.00    -0.033 C 
HETATM    6  C2  UNL     1     -33.252  16.464  -2.806  1.00 20.00     0.016 C 
HETATM    7  C3  UNL     1     -34.381  16.676  -5.027  1.00 20.00     0.016 C 
HETATM    8  C4  UNL     1     -33.273  14.523  -4.399  1.00 20.00     0.016 C 
ENDBRANCH   4   5
ENDBRANCH   2   4
TORSDOF 2
ENDMDL
MODEL 9
REMARK VINA RESULT:      -3.0     12.164     13.130
REMARK  2 active torsions:
REMARK  status: ('A' for Active; 'I' for Inactive)
REMARK    1  A    between atoms: C5_5  and  C6_6 
REMARK    2  A    between atoms: C5_5  and  N7_7 
ROOT
HETATM    1  C1  UNL     1     -35.823  15.975  -6.384  1.00 20.00     0.157 C 
HETATM    2  N7  UNL     1     -35.788  16.327  -5.265  1.00 20.00    -0.275 NA
HETATM    3  S8  UNL     1     -35.901  15.491  -7.899  1.00 20.00    -0.055 SA
ENDROOT
BRANCH   2   4
HETATM    4  C5  UNL     1     -34.479  16.806  -4.811  1.00 20.00     0.158 C 
BRANCH   4   5
HETATM    5  C6  UNL     1     -33.938  15.937  -3.657  1.00 20.00    -0.033 C 
HETATM    6  C2  UNL     1     -35.088  15.425  -2.774  1.00 20.00     0.016 C 
HETATM    7  C3  UNL     1     -32.999  16.800  -2.794  1.00 20.00     0.016 C 
HETATM    8  C4  UNL     1     -33.141  14.740  -4.205  1.00 20.00     0.016 C 
ENDBRANCH   4   5
ENDBRANCH   2   4
TORSDOF 2
ENDMDL
