MODEL 1
REMARK VINA RESULT:      -5.0      0.000      0.000
REMARK  1 active torsions:
REMARK  status: ('A' for Active; 'I' for Inactive)
REMARK    1  A    between atoms: C5_5  and  C10_10 
ROOT
HETATM    1  C1  UNL     1     -35.348  16.268  -2.094  1.00 20.00     0.011 C 
HETATM    2  C2  UNL     1     -33.044  17.058  -2.782  1.00 20.00     0.011 C 
HETATM    3  C3  UNL     1     -35.187  16.972  -0.749  1.00 20.00     0.079 C 
HETATM    4  C4  UNL     1     -32.884  17.761  -1.436  1.00 20.00     0.079 C 
HETATM    5  C5  UNL     1     -33.992  15.853  -2.682  1.00 20.00    -0.007 C 
HETATM    6  C6  UNL     1     -34.228  18.145  -0.845  1.00 20.00     0.243 C 
HETATM    7  F11 UNL     1     -34.790  19.120  -1.608  1.00 20.00    -0.206 F 
HETATM    8  F12 UNL     1     -34.044  18.682   0.387  1.00 20.00    -0.206 F 
ENDROOT
BRANCH   5   9
HETATM    9  C10 UNL     1     -34.175  15.197  -4.048  1.00 20.00    -0.048 C 
HETATM   10  C7  UNL     1     -32.879  14.478  -4.458  1.00 20.00     0.015 C 
HETATM   11  C8  UNL     1     -34.511  16.269  -5.098  1.00 20.00     0.015 C 
HETATM   12  C9  UNL     1     -35.323  14.174  -3.984  1.00 20.00     0.015 C 
ENDBRANCH   5   9
TORSDOF 1
ENDMDL
MODEL 2
REMARK VINA RESULT:      -5.0      0.005      1.253
REMARK  1 active torsions:
REMARK  status: ('A' for Active; 'I' for Inactive)
REMARK    1  A    between atoms: C5_5  and  C10_10 
ROOT
HETATM    1  C1  UNL     1     -35.347  16.267  -2.090  1.00 20.00     0.011 C 
HETATM    2  C2  UNL     1     -33.047  17.062  -2.785  1.00 20.00     0.011 C 
HETATM    3  C3  UNL     1     -35.183  16.970  -0.745  1.00 20.00     0.079 C 
HETATM    4  C4  UNL     1     -32.883  17.765  -1.439  1.00 20.00     0.079 C 
HETATM    5  C5  UNL     1     -33.991  15.855  -2.683  1.00 20.00    -0.007 C 
HETATM    6  C6  UNL     1     -34.227  18.146  -0.844  1.00 20.00     0.243 C 
HETATM    7  F11 UNL     1     -34.793  19.119  -1.605  1.00 20.00    -0.206 F 
HETATM    8  F12 UNL     1     -34.040  18.682   0.388  1.00 20.00    -0.206 F 
ENDROOT
BRANCH   5   9
HETATM    9  C10 UNL     1     -34.177  15.199  -4.049  1.00 20.00    -0.048 C 
HETATM   10  C7  UNL     1     -34.513  16.272  -5.099  1.00 20.00     0.015 C 
HETATM   11  C8  UNL     1     -35.328  14.180  -3.984  1.00 20.00     0.015 C 
HETATM   12  C9  UNL     1     -32.883  14.476  -4.460  1.00 20.00     0.015 C 
ENDBRANCH   5   9
TORSDOF 1
ENDMDL
MODEL 3
REMARK VINA RESULT:      -5.0      0.025      1.257
REMARK  1 active torsions:
REMARK  status: ('A' for Active; 'I' for Inactive)
REMARK    1  A    between atoms: C5_5  and  C10_10 
ROOT
HETATM    1  C1  UNL     1     -35.330  16.283  -2.089  1.00 20.00     0.011 C 
HETATM    2  C2  UNL     1     -33.032  17.079  -2.789  1.00 20.00     0.011 C 
HETATM    3  C3  UNL     1     -35.164  16.988  -0.745  1.00 20.00     0.079 C 
HETATM    4  C4  UNL     1     -32.866  17.783  -1.445  1.00 20.00     0.079 C 
HETATM    5  C5  UNL     1     -33.975  15.871  -2.684  1.00 20.00    -0.007 C 
HETATM    6  C6  UNL     1     -34.208  18.164  -0.847  1.00 20.00     0.243 C 
HETATM    7  F11 UNL     1     -34.777  19.136  -1.607  1.00 20.00    -0.206 F 
HETATM    8  F12 UNL     1     -34.019  18.702   0.384  1.00 20.00    -0.206 F 
ENDROOT
BRANCH   5   9
HETATM    9  C10 UNL     1     -34.164  15.214  -4.049  1.00 20.00    -0.048 C 
HETATM   10  C7  UNL     1     -35.320  14.201  -3.983  1.00 20.00     0.015 C 
HETATM   11  C8  UNL     1     -32.875  14.481  -4.456  1.00 20.00     0.015 C 
HETATM   12  C9  UNL     1     -34.490  16.287  -5.102  1.00 20.00     0.015 C 
ENDBRANCH   5   9
TORSDOF 1
ENDMDL
MODEL 4
REMARK VINA RESULT:      -4.6     12.029     12.845
REMARK  1 active torsions:
REMARK  status: ('A' for Active; 'I' for Inactive)
REMARK    1  A    between atoms: C5_5  and  C10_10 
ROOT
HETATM    1  C1  UNL     1     -33.200   7.088   5.049  1.00 20.00     0.011 C 
HETATM    2  C2  UNL     1     -34.254   5.336   3.556  1.00 20.00     0.011 C 
HETATM    3  C3  UNL     1     -34.239   6.792   6.128  1.00 20.00     0.079 C 
HETATM    4  C4  UNL     1     -35.293   5.042   4.635  1.00 20.00     0.079 C 
HETATM    5  C5  UNL     1     -33.740   6.782   3.644  1.00 20.00    -0.007 C 
HETATM    6  C6  UNL     1     -34.766   5.372   6.020  1.00 20.00     0.243 C 
HETATM    7  F11 UNL     1     -33.772   4.502   6.339  1.00 20.00    -0.206 F 
HETATM    8  F12 UNL     1     -35.749   5.183   6.936  1.00 20.00    -0.206 F 
ENDROOT
BRANCH   5   9
HETATM    9  C10 UNL     1     -32.667   7.037   2.588  1.00 20.00    -0.048 C 
HETATM   10  C7  UNL     1     -33.148   8.124   1.611  1.00 20.00     0.015 C 
HETATM   11  C8  UNL     1     -32.390   5.742   1.805  1.00 20.00     0.015 C 
HETATM   12  C9  UNL     1     -31.369   7.505   3.267  1.00 20.00     0.015 C 
ENDBRANCH   5   9
TORSDOF 1
ENDMDL
MODEL 5
REMARK VINA RESULT:      -4.5      2.389      4.562
REMARK  1 active torsions:
REMARK  status: ('A' for Active; 'I' for Inactive)
REMARK    1  A    between atoms: C5_5  and  C10_10 
ROOT
HETATM    1  C1  UNL     1     -33.229  16.717  -2.694  1.00 20.00     0.011 C 
HETATM    2  C2  UNL     1     -35.726  16.304  -2.689  1.00 20.00     0.011 C 
HETATM    3  C3  UNL     1     -33.046  15.594  -3.712  1.00 20.00     0.079 C 
HETATM    4  C4  UNL     1     -35.542  15.181  -3.706  1.00 20.00     0.079 C 
HETATM    5  C5  UNL     1     -34.472  16.493  -1.821  1.00 20.00    -0.007 C 
HETATM    6  C6  UNL     1     -34.297  15.392  -4.549  1.00 20.00     0.243 C 
HETATM    7  F11 UNL     1     -34.478  16.474  -5.351  1.00 20.00    -0.206 F 
HETATM    8  F12 UNL     1     -34.123  14.329  -5.373  1.00 20.00    -0.206 F 
ENDROOT
BRANCH   5   9
HETATM    9  C10 UNL     1     -34.661  17.652  -0.845  1.00 20.00    -0.048 C 
HETATM   10  C7  UNL     1     -35.430  17.168   0.396  1.00 20.00     0.015 C 
HETATM   11  C8  UNL     1     -35.459  18.778  -1.525  1.00 20.00     0.015 C 
HETATM   12  C9  UNL     1     -33.289  18.195  -0.411  1.00 20.00     0.015 C 
ENDBRANCH   5   9
TORSDOF 1
ENDMDL
MODEL 6
REMARK VINA RESULT:      -4.5      2.557      4.544
REMARK  1 active torsions:
REMARK  status: ('A' for Active; 'I' for Inactive)
REMARK    1  A    between atoms: C5_5  and  C10_10 
ROOT
HETATM    1  C1  UNL     1     -33.243  16.180  -3.235  1.00 20.00     0.011 C 
HETATM    2  C2  UNL     1     -35.678  16.606  -2.693  1.00 20.00     0.011 C 
HETATM    3  C3  UNL     1     -33.634  14.918  -3.999  1.00 20.00     0.079 C 
HETATM    4  C4  UNL     1     -36.069  15.343  -3.457  1.00 20.00     0.079 C 
HETATM    5  C5  UNL     1     -34.254  16.508  -2.126  1.00 20.00    -0.007 C 
HETATM    6  C6  UNL     1     -35.053  15.007  -4.534  1.00 20.00     0.243 C 
HETATM    7  F11 UNL     1     -35.104  15.954  -5.507  1.00 20.00    -0.206 F 
HETATM    8  F12 UNL     1     -35.390  13.833  -5.123  1.00 20.00    -0.206 F 
ENDROOT
BRANCH   5   9
HETATM    9  C10 UNL     1     -33.867  17.800  -1.410  1.00 20.00    -0.048 C 
HETATM   10  C7  UNL     1     -32.336  17.946  -1.390  1.00 20.00     0.015 C 
HETATM   11  C8  UNL     1     -34.390  17.769   0.036  1.00 20.00     0.015 C 
HETATM   12  C9  UNL     1     -34.481  19.004  -2.144  1.00 20.00     0.015 C 
ENDBRANCH   5   9
TORSDOF 1
ENDMDL
MODEL 7
REMARK VINA RESULT:      -4.5      2.588      4.576
REMARK  1 active torsions:
REMARK  status: ('A' for Active; 'I' for Inactive)
REMARK    1  A    between atoms: C5_5  and  C10_10 
ROOT
HETATM    1  C1  UNL     1     -33.289  16.135  -3.318  1.00 20.00     0.011 C 
HETATM    2  C2  UNL     1     -35.723  16.540  -2.756  1.00 20.00     0.011 C 
HETATM    3  C3  UNL     1     -33.678  14.877  -4.091  1.00 20.00     0.079 C 
HETATM    4  C4  UNL     1     -36.111  15.282  -3.528  1.00 20.00     0.079 C 
HETATM    5  C5  UNL     1     -34.294  16.446  -2.199  1.00 20.00    -0.007 C 
HETATM    6  C6  UNL     1     -35.101  14.962  -4.615  1.00 20.00     0.243 C 
HETATM    7  F11 UNL     1     -35.165  15.917  -5.579  1.00 20.00    -0.206 F 
HETATM    8  F12 UNL     1     -35.434  13.791  -5.212  1.00 20.00    -0.206 F 
ENDROOT
BRANCH   5   9
HETATM    9  C10 UNL     1     -33.912  17.734  -1.475  1.00 20.00    -0.048 C 
HETATM   10  C7  UNL     1     -34.538  18.941  -2.194  1.00 20.00     0.015 C 
HETATM   11  C8  UNL     1     -32.381  17.891  -1.466  1.00 20.00     0.015 C 
HETATM   12  C9  UNL     1     -34.423  17.687  -0.025  1.00 20.00     0.015 C 
ENDBRANCH   5   9
TORSDOF 1
ENDMDL
MODEL 8
REMARK VINA RESULT:      -4.4     15.384     16.635
REMARK  1 active torsions:
REMARK  status: ('A' for Active; 'I' for Inactive)
REMARK    1  A    between atoms: C5_5  and  C10_10 
ROOT
HETATM    1  C1  UNL     1     -23.449  16.810  10.345  1.00 20.00     0.011 C 
HETATM    2  C2  UNL     1     -24.349  18.990   9.426  1.00 20.00     0.011 C 
HETATM    3  C3  UNL     1     -22.750  16.538   9.015  1.00 20.00     0.079 C 
HETATM    4  C4  UNL     1     -23.651  18.716   8.095  1.00 20.00     0.079 C 
HETATM    5  C5  UNL     1     -24.697  17.686  10.161  1.00 20.00    -0.007 C 
HETATM    6  C6  UNL     1     -22.434  17.828   8.278  1.00 20.00     0.243 C 
HETATM    7  F11 UNL     1     -21.480  18.511   8.963  1.00 20.00    -0.206 F 
HETATM    8  F12 UNL     1     -21.901  17.537   7.065  1.00 20.00    -0.206 F 
ENDROOT
BRANCH   5   9
HETATM    9  C10 UNL     1     -25.348  17.985  11.510  1.00 20.00    -0.048 C 
HETATM   10  C7  UNL     1     -25.566  16.674  12.284  1.00 20.00     0.015 C 
HETATM   11  C8  UNL     1     -26.706  18.673  11.289  1.00 20.00     0.015 C 
HETATM   12  C9  UNL     1     -24.438  18.914  12.332  1.00 20.00     0.015 C 
ENDBRANCH   5   9
TORSDOF 1
ENDMDL
MODEL 9
REMARK VINA RESULT:      -4.4      1.224      1.956
REMARK  1 active torsions:
REMARK  status: ('A' for Active; 'I' for Inactive)
REMARK    1  A    between atoms: C5_5  and  C10_10 
ROOT
HETATM    1  C1  UNL     1     -33.495  16.259  -2.668  1.00 20.00     0.011 C 
HETATM    2  C2  UNL     1     -35.971  16.144  -3.181  1.00 20.00     0.011 C 
HETATM    3  C3  UNL     1     -33.736  17.478  -1.781  1.00 20.00     0.079 C 
HETATM    4  C4  UNL     1     -36.211  17.364  -2.295  1.00 20.00     0.079 C 
HETATM    5  C5  UNL     1     -34.554  16.145  -3.775  1.00 20.00    -0.007 C 
HETATM    6  C6  UNL     1     -35.147  17.488  -1.219  1.00 20.00     0.243 C 
HETATM    7  F11 UNL     1     -35.282  16.465  -0.335  1.00 20.00    -0.206 F 
HETATM    8  F12 UNL     1     -35.346  18.631  -0.516  1.00 20.00    -0.206 F 
ENDROOT
BRANCH   5   9
HETATM    9  C10 UNL     1     -34.321  14.893  -4.616  1.00 20.00    -0.048 C 
HETATM   10  C7  UNL     1     -32.885  14.384  -4.404  1.00 20.00     0.015 C 
HETATM   11  C8  UNL     1     -34.525  15.222  -6.105  1.00 20.00     0.015 C 
HETATM   12  C9  UNL     1     -35.314  13.794  -4.200  1.00 20.00     0.015 C 
ENDBRANCH   5   9
TORSDOF 1
ENDMDL
