MODEL 1
REMARK VINA RESULT:      -5.0      0.000      0.000
REMARK  0 active torsions:
REMARK  status: ('A' for Active; 'I' for Inactive)
ROOT
HETATM    1  C1  UNL     1     -33.712  14.505  -4.303  1.00 20.00    -0.025 C 
HETATM    2  C2  UNL     1     -34.911  14.212  -3.774  1.00 20.00    -0.025 C 
HETATM    3  C3  UNL     1     -33.119  17.757  -2.351  1.00 20.00    -0.024 A 
HETATM    4  C4  UNL     1     -34.137  18.265  -1.651  1.00 20.00    -0.025 A 
HETATM    5  C5  UNL     1     -34.985  16.423  -4.411  1.00 20.00     0.018 C 
HETATM    6  C6  UNL     1     -33.527  16.003  -4.185  1.00 20.00     0.016 C 
HETATM    7  C7  UNL     1     -35.523  15.512  -3.302  1.00 20.00     0.014 C 
HETATM    8  C8  UNL     1     -33.315  16.314  -2.682  1.00 20.00     0.021 A 
HETATM    9  C9  UNL     1     -35.231  17.270  -1.397  1.00 20.00     0.009 A 
HETATM   10  C10 UNL     1     -34.714  15.972  -2.055  1.00 20.00     0.009 A 
HETATM   11  C11 UNL     1     -35.474  17.089   0.097  1.00 20.00     0.014 C 
ENDROOT
TORSDOF 0
ENDMDL
MODEL 2
REMARK VINA RESULT:      -5.0      1.192      1.872
REMARK  0 active torsions:
REMARK  status: ('A' for Active; 'I' for Inactive)
ROOT
HETATM    1  C1  UNL     1     -36.227  13.771  -4.849  1.00 20.00    -0.025 C 
HETATM    2  C2  UNL     1     -37.150  14.509  -4.213  1.00 20.00    -0.025 C 
HETATM    3  C3  UNL     1     -33.143  15.639  -3.531  1.00 20.00    -0.024 A 
HETATM    4  C4  UNL     1     -33.335  16.788  -2.877  1.00 20.00    -0.025 A 
HETATM    5  C5  UNL     1     -35.698  15.983  -5.223  1.00 20.00     0.018 C 
HETATM    6  C6  UNL     1     -34.994  14.637  -5.005  1.00 20.00     0.016 C 
HETATM    7  C7  UNL     1     -36.534  15.864  -3.944  1.00 20.00     0.014 C 
HETATM    8  C8  UNL     1     -34.377  14.802  -3.593  1.00 20.00     0.021 A 
HETATM    9  C9  UNL     1     -34.745  16.961  -2.394  1.00 20.00     0.009 A 
HETATM   10  C10 UNL     1     -35.454  15.664  -2.842  1.00 20.00     0.009 A 
HETATM   11  C11 UNL     1     -34.791  17.137  -0.881  1.00 20.00     0.014 C 
ENDROOT
TORSDOF 0
ENDMDL
MODEL 3
REMARK VINA RESULT:      -4.9     11.534     12.833
REMARK  0 active torsions:
REMARK  status: ('A' for Active; 'I' for Inactive)
ROOT
HETATM    1  C1  UNL     1     -34.535   4.875   6.032  1.00 20.00    -0.025 C 
HETATM    2  C2  UNL     1     -34.453   6.213   6.097  1.00 20.00    -0.025 C 
HETATM    3  C3  UNL     1     -33.354   4.507   2.398  1.00 20.00    -0.024 A 
HETATM    4  C4  UNL     1     -33.244   5.613   1.657  1.00 20.00    -0.025 A 
HETATM    5  C5  UNL     1     -35.584   5.708   4.156  1.00 20.00     0.018 C 
HETATM    6  C6  UNL     1     -34.721   4.510   4.574  1.00 20.00     0.016 C 
HETATM    7  C7  UNL     1     -34.582   6.740   4.685  1.00 20.00     0.014 C 
HETATM    8  C8  UNL     1     -33.375   4.798   3.862  1.00 20.00     0.021 A 
HETATM    9  C9  UNL     1     -33.197   6.868   2.478  1.00 20.00     0.009 A 
HETATM   10  C10 UNL     1     -33.271   6.363   3.936  1.00 20.00     0.009 A 
HETATM   11  C11 UNL     1     -31.915   7.651   2.215  1.00 20.00     0.014 C 
ENDROOT
TORSDOF 0
ENDMDL
MODEL 4
REMARK VINA RESULT:      -4.8      1.090      2.546
REMARK  0 active torsions:
REMARK  status: ('A' for Active; 'I' for Inactive)
ROOT
HETATM    1  C1  UNL     1     -35.178  14.859  -6.042  1.00 20.00    -0.025 C 
HETATM    2  C2  UNL     1     -33.840  14.856  -5.936  1.00 20.00    -0.025 C 
HETATM    3  C3  UNL     1     -35.917  16.427  -2.616  1.00 20.00    -0.024 A 
HETATM    4  C4  UNL     1     -34.908  16.548  -1.749  1.00 20.00    -0.025 A 
HETATM    5  C5  UNL     1     -34.666  13.962  -3.982  1.00 20.00     0.018 C 
HETATM    6  C6  UNL     1     -35.736  14.846  -4.634  1.00 20.00     0.016 C 
HETATM    7  C7  UNL     1     -33.506  14.842  -4.460  1.00 20.00     0.014 C 
HETATM    8  C8  UNL     1     -35.445  16.238  -4.020  1.00 20.00     0.021 A 
HETATM    9  C9  UNL     1     -33.559  16.437  -2.396  1.00 20.00     0.009 A 
HETATM   10  C10 UNL     1     -33.880  16.242  -3.895  1.00 20.00     0.009 A 
HETATM   11  C11 UNL     1     -32.727  17.691  -2.154  1.00 20.00     0.014 C 
ENDROOT
TORSDOF 0
ENDMDL
MODEL 5
REMARK VINA RESULT:      -4.7      0.930      3.834
REMARK  0 active torsions:
REMARK  status: ('A' for Active; 'I' for Inactive)
ROOT
HETATM    1  C1  UNL     1     -33.560  18.170  -0.696  1.00 20.00    -0.025 C 
HETATM    2  C2  UNL     1     -32.444  18.116  -1.440  1.00 20.00    -0.025 C 
HETATM    3  C3  UNL     1     -35.670  15.786  -2.840  1.00 20.00    -0.024 A 
HETATM    4  C4  UNL     1     -35.192  15.422  -4.032  1.00 20.00    -0.025 A 
HETATM    5  C5  UNL     1     -34.194  18.492  -2.888  1.00 20.00     0.018 C 
HETATM    6  C6  UNL     1     -34.720  17.831  -1.607  1.00 20.00     0.016 C 
HETATM    7  C7  UNL     1     -32.859  17.740  -2.845  1.00 20.00     0.014 C 
HETATM    8  C8  UNL     1     -34.609  16.321  -1.936  1.00 20.00     0.021 A 
HETATM    9  C9  UNL     1     -33.718  15.666  -4.174  1.00 20.00     0.009 A 
HETATM   10  C10 UNL     1     -33.304  16.249  -2.806  1.00 20.00     0.009 A 
HETATM   11  C11 UNL     1     -32.973  14.374  -4.488  1.00 20.00     0.014 C 
ENDROOT
TORSDOF 0
ENDMDL
MODEL 6
REMARK VINA RESULT:      -4.7      1.790      3.928
REMARK  0 active torsions:
REMARK  status: ('A' for Active; 'I' for Inactive)
ROOT
HETATM    1  C1  UNL     1     -33.340  15.929  -3.065  1.00 20.00    -0.025 C 
HETATM    2  C2  UNL     1     -34.570  16.044  -2.539  1.00 20.00    -0.025 C 
HETATM    3  C3  UNL     1     -34.436  15.243  -6.680  1.00 20.00    -0.024 A 
HETATM    4  C4  UNL     1     -35.729  14.999  -6.909  1.00 20.00    -0.025 A 
HETATM    5  C5  UNL     1     -34.563  14.124  -3.809  1.00 20.00     0.018 C 
HETATM    6  C6  UNL     1     -33.464  15.072  -4.306  1.00 20.00     0.016 C 
HETATM    7  C7  UNL     1     -35.513  15.265  -3.429  1.00 20.00     0.014 C 
HETATM    8  C8  UNL     1     -34.206  15.921  -5.369  1.00 20.00     0.021 A 
HETATM    9  C9  UNL     1     -36.620  15.440  -5.785  1.00 20.00     0.009 A 
HETATM   10  C10 UNL     1     -35.646  16.061  -4.760  1.00 20.00     0.009 A 
HETATM   11  C11 UNL     1     -37.655  16.450  -6.267  1.00 20.00     0.014 C 
ENDROOT
TORSDOF 0
ENDMDL
MODEL 7
REMARK VINA RESULT:      -4.6     11.521     13.447
REMARK  0 active torsions:
REMARK  status: ('A' for Active; 'I' for Inactive)
ROOT
HETATM    1  C1  UNL     1     -41.349   8.355   0.657  1.00 20.00    -0.025 C 
HETATM    2  C2  UNL     1     -41.171   8.389  -0.673  1.00 20.00    -0.025 C 
HETATM    3  C3  UNL     1     -43.043   4.914   0.817  1.00 20.00    -0.024 A 
HETATM    4  C4  UNL     1     -43.417   4.343  -0.331  1.00 20.00    -0.025 A 
HETATM    5  C5  UNL     1     -43.358   7.768  -0.308  1.00 20.00     0.018 C 
HETATM    6  C6  UNL     1     -42.514   7.427   0.927  1.00 20.00     0.016 C 
HETATM    7  C7  UNL     1     -42.215   7.483  -1.289  1.00 20.00     0.014 C 
HETATM    8  C8  UNL     1     -42.027   5.989   0.618  1.00 20.00     0.021 A 
HETATM    9  C9  UNL     1     -42.745   4.941  -1.531  1.00 20.00     0.009 A 
HETATM   10  C10 UNL     1     -41.815   6.022  -0.938  1.00 20.00     0.009 A 
HETATM   11  C11 UNL     1     -41.965   3.886  -2.307  1.00 20.00     0.014 C 
ENDROOT
TORSDOF 0
ENDMDL
MODEL 8
REMARK VINA RESULT:      -4.6      1.410      4.104
REMARK  0 active torsions:
REMARK  status: ('A' for Active; 'I' for Inactive)
ROOT
HETATM    1  C1  UNL     1     -33.824  16.658  -1.953  1.00 20.00    -0.025 C 
HETATM    2  C2  UNL     1     -33.431  17.486  -2.934  1.00 20.00    -0.025 C 
HETATM    3  C3  UNL     1     -35.551  14.060  -4.190  1.00 20.00    -0.024 A 
HETATM    4  C4  UNL     1     -35.736  14.363  -5.478  1.00 20.00    -0.025 A 
HETATM    5  C5  UNL     1     -35.653  17.013  -3.310  1.00 20.00     0.018 C 
HETATM    6  C6  UNL     1     -35.025  15.894  -2.468  1.00 20.00     0.016 C 
HETATM    7  C7  UNL     1     -34.367  17.272  -4.103  1.00 20.00     0.014 C 
HETATM    8  C8  UNL     1     -34.506  14.911  -3.547  1.00 20.00     0.021 A 
HETATM    9  C9  UNL     1     -34.872  15.496  -5.946  1.00 20.00     0.009 A 
HETATM   10  C10 UNL     1     -34.042  15.872  -4.699  1.00 20.00     0.009 A 
HETATM   11  C11 UNL     1     -33.984  15.067  -7.109  1.00 20.00     0.014 C 
ENDROOT
TORSDOF 0
ENDMDL
MODEL 9
REMARK VINA RESULT:      -4.5      1.408      2.867
REMARK  0 active torsions:
REMARK  status: ('A' for Active; 'I' for Inactive)
ROOT
HETATM    1  C1  UNL     1     -37.453  14.353  -4.473  1.00 20.00    -0.025 C 
HETATM    2  C2  UNL     1     -37.669  15.602  -4.033  1.00 20.00    -0.025 C 
HETATM    3  C3  UNL     1     -33.633  14.374  -4.094  1.00 20.00    -0.024 A 
HETATM    4  C4  UNL     1     -33.034  15.538  -3.831  1.00 20.00    -0.025 A 
HETATM    5  C5  UNL     1     -35.971  15.725  -5.583  1.00 20.00     0.018 C 
HETATM    6  C6  UNL     1     -36.036  14.306  -5.004  1.00 20.00     0.016 C 
HETATM    7  C7  UNL     1     -36.397  16.387  -4.267  1.00 20.00     0.014 C 
HETATM    8  C8  UNL     1     -35.092  14.397  -3.778  1.00 20.00     0.021 A 
HETATM    9  C9  UNL     1     -33.978  16.581  -3.311  1.00 20.00     0.009 A 
HETATM   10  C10 UNL     1     -35.340  15.857  -3.256  1.00 20.00     0.009 A 
HETATM   11  C11 UNL     1     -33.545  17.080  -1.937  1.00 20.00     0.014 C 
ENDROOT
TORSDOF 0
ENDMDL
