MODEL 1
REMARK VINA RESULT:      -4.7      0.000      0.000
REMARK  0 active torsions:
REMARK  status: ('A' for Active; 'I' for Inactive)
ROOT
HETATM    1  C1  UNL     1     -41.511   7.892  -1.462  1.00 20.00     0.009 C 
HETATM    2  C2  UNL     1     -43.390   7.869   0.201  1.00 20.00     0.009 C 
HETATM    3  C3  UNL     1     -41.121   7.026   0.861  1.00 20.00     0.009 C 
HETATM    4  C4  UNL     1     -43.414   6.283  -1.741  1.00 20.00     0.048 C 
HETATM    5  C5  UNL     1     -41.146   5.440  -1.082  1.00 20.00     0.048 C 
HETATM    6  C6  UNL     1     -43.024   5.417   0.579  1.00 20.00     0.048 C 
HETATM    7  C7  UNL     1     -43.029   7.700  -1.286  1.00 20.00    -0.011 C 
HETATM    8  C8  UNL     1     -40.745   6.852  -0.622  1.00 20.00    -0.011 C 
HETATM    9  C9  UNL     1     -42.636   6.829   1.051  1.00 20.00    -0.011 C 
HETATM   10  C10 UNL     1     -42.657   5.246  -0.900  1.00 20.00     0.104 C 
HETATM   11  F11 UNL     1     -43.002   4.000  -1.307  1.00 20.00    -0.243 F 
ENDROOT
TORSDOF 0
ENDMDL
MODEL 2
REMARK VINA RESULT:      -4.6     11.714     13.201
REMARK  0 active torsions:
REMARK  status: ('A' for Active; 'I' for Inactive)
ROOT
HETATM    1  C1  UNL     1     -35.137  14.165  -4.087  1.00 20.00     0.009 C 
HETATM    2  C2  UNL     1     -36.219  16.421  -4.273  1.00 20.00     0.009 C 
HETATM    3  C3  UNL     1     -34.375  15.782  -5.848  1.00 20.00     0.009 C 
HETATM    4  C4  UNL     1     -34.733  15.899  -2.322  1.00 20.00     0.048 C 
HETATM    5  C5  UNL     1     -32.889  15.261  -3.897  1.00 20.00     0.048 C 
HETATM    6  C6  UNL     1     -33.971  17.515  -4.082  1.00 20.00     0.048 C 
HETATM    7  C7  UNL     1     -35.775  15.320  -3.293  1.00 20.00    -0.011 C 
HETATM    8  C8  UNL     1     -33.918  14.676  -4.879  1.00 20.00    -0.011 C 
HETATM    9  C9  UNL     1     -35.008  16.947  -5.066  1.00 20.00    -0.011 C 
HETATM   10  C10 UNL     1     -33.522  16.416  -3.111  1.00 20.00     0.104 C 
HETATM   11  F11 UNL     1     -32.609  16.925  -2.247  1.00 20.00    -0.243 F 
ENDROOT
TORSDOF 0
ENDMDL
MODEL 3
REMARK VINA RESULT:      -4.6     11.714     13.188
REMARK  0 active torsions:
REMARK  status: ('A' for Active; 'I' for Inactive)
ROOT
HETATM    1  C1  UNL     1     -34.381  15.802  -5.846  1.00 20.00     0.009 C 
HETATM    2  C2  UNL     1     -35.156  14.182  -4.094  1.00 20.00     0.009 C 
HETATM    3  C3  UNL     1     -36.223  16.445  -4.268  1.00 20.00     0.009 C 
HETATM    4  C4  UNL     1     -32.901  15.260  -3.897  1.00 20.00     0.048 C 
HETATM    5  C5  UNL     1     -33.968  17.523  -4.070  1.00 20.00     0.048 C 
HETATM    6  C6  UNL     1     -34.741  15.903  -2.320  1.00 20.00     0.048 C 
HETATM    7  C7  UNL     1     -33.933  14.688  -4.882  1.00 20.00    -0.011 C 
HETATM    8  C8  UNL     1     -35.008  16.968  -5.057  1.00 20.00    -0.011 C 
HETATM    9  C9  UNL     1     -35.787  15.335  -3.294  1.00 20.00    -0.011 C 
HETATM   10  C10 UNL     1     -33.527  16.416  -3.104  1.00 20.00     0.104 C 
HETATM   11  F11 UNL     1     -32.610  16.914  -2.238  1.00 20.00    -0.243 F 
ENDROOT
TORSDOF 0
ENDMDL
MODEL 4
REMARK VINA RESULT:      -4.6     11.717     13.219
REMARK  0 active torsions:
REMARK  status: ('A' for Active; 'I' for Inactive)
ROOT
HETATM    1  C1  UNL     1     -36.224  16.414  -4.286  1.00 20.00     0.009 C 
HETATM    2  C2  UNL     1     -34.372  15.784  -5.859  1.00 20.00     0.009 C 
HETATM    3  C3  UNL     1     -35.133  14.161  -4.104  1.00 20.00     0.009 C 
HETATM    4  C4  UNL     1     -33.980  17.515  -4.088  1.00 20.00     0.048 C 
HETATM    5  C5  UNL     1     -34.740  15.893  -2.333  1.00 20.00     0.048 C 
HETATM    6  C6  UNL     1     -32.890  15.265  -3.905  1.00 20.00     0.048 C 
HETATM    7  C7  UNL     1     -35.012  16.945  -5.075  1.00 20.00    -0.011 C 
HETATM    8  C8  UNL     1     -35.777  15.311  -3.307  1.00 20.00    -0.011 C 
HETATM    9  C9  UNL     1     -33.914  14.678  -4.891  1.00 20.00    -0.011 C 
HETATM   10  C10 UNL     1     -33.530  16.415  -3.117  1.00 20.00     0.104 C 
HETATM   11  F11 UNL     1     -32.620  16.926  -2.251  1.00 20.00    -0.243 F 
ENDROOT
TORSDOF 0
ENDMDL
MODEL 5
REMARK VINA RESULT:      -4.6      0.213      2.284
REMARK  0 active torsions:
REMARK  status: ('A' for Active; 'I' for Inactive)
ROOT
HETATM    1  C1  UNL     1     -41.162   6.721   0.902  1.00 20.00     0.009 C 
HETATM    2  C2  UNL     1     -41.485   7.787  -1.347  1.00 20.00     0.009 C 
HETATM    3  C3  UNL     1     -43.397   7.672   0.273  1.00 20.00     0.009 C 
HETATM    4  C4  UNL     1     -41.184   5.304  -1.167  1.00 20.00     0.048 C 
HETATM    5  C5  UNL     1     -43.096   5.189   0.452  1.00 20.00     0.048 C 
HETATM    6  C6  UNL     1     -43.417   6.254  -1.795  1.00 20.00     0.048 C 
HETATM    7  C7  UNL     1     -40.760   6.662  -0.584  1.00 20.00    -0.011 C 
HETATM    8  C8  UNL     1     -42.686   6.546   1.047  1.00 20.00    -0.011 C 
HETATM    9  C9  UNL     1     -43.010   7.620  -1.216  1.00 20.00    -0.011 C 
HETATM   10  C10 UNL     1     -42.703   5.133  -1.030  1.00 20.00     0.104 C 
HETATM   11  F11 UNL     1     -43.068   3.934  -1.546  1.00 20.00    -0.243 F 
ENDROOT
TORSDOF 0
ENDMDL
MODEL 6
REMARK VINA RESULT:      -4.4     11.698     13.203
REMARK  0 active torsions:
REMARK  status: ('A' for Active; 'I' for Inactive)
ROOT
HETATM    1  C1  UNL     1     -35.074  14.137  -4.042  1.00 20.00     0.009 C 
HETATM    2  C2  UNL     1     -32.844  15.278  -3.888  1.00 20.00     0.009 C 
HETATM    3  C3  UNL     1     -34.695  15.928  -2.325  1.00 20.00     0.009 C 
HETATM    4  C4  UNL     1     -34.345  15.717  -5.848  1.00 20.00     0.048 C 
HETATM    5  C5  UNL     1     -36.196  16.367  -4.285  1.00 20.00     0.048 C 
HETATM    6  C6  UNL     1     -33.968  17.506  -4.132  1.00 20.00     0.048 C 
HETATM    7  C7  UNL     1     -33.867  14.648  -4.851  1.00 20.00    -0.011 C 
HETATM    8  C8  UNL     1     -35.731  15.302  -3.277  1.00 20.00    -0.011 C 
HETATM    9  C9  UNL     1     -33.486  16.450  -3.123  1.00 20.00    -0.011 C 
HETATM   10  C10 UNL     1     -34.994  16.882  -5.086  1.00 20.00     0.104 C 
HETATM   11  F11 UNL     1     -35.412  17.819  -5.971  1.00 20.00    -0.243 F 
ENDROOT
TORSDOF 0
ENDMDL
MODEL 7
REMARK VINA RESULT:      -4.4     11.344     12.700
REMARK  0 active torsions:
REMARK  status: ('A' for Active; 'I' for Inactive)
ROOT
HETATM    1  C1  UNL     1     -36.274  15.360  -5.234  1.00 20.00     0.009 C 
HETATM    2  C2  UNL     1     -35.628  16.099  -2.925  1.00 20.00     0.009 C 
HETATM    3  C3  UNL     1     -34.658  17.256  -4.928  1.00 20.00     0.009 C 
HETATM    4  C4  UNL     1     -34.823  13.894  -3.808  1.00 20.00     0.048 C 
HETATM    5  C5  UNL     1     -33.853  15.051  -5.810  1.00 20.00     0.048 C 
HETATM    6  C6  UNL     1     -33.209  15.788  -3.502  1.00 20.00     0.048 C 
HETATM    7  C7  UNL     1     -36.000  14.884  -3.796  1.00 20.00    -0.011 C 
HETATM    8  C8  UNL     1     -35.023  16.049  -5.813  1.00 20.00    -0.011 C 
HETATM    9  C9  UNL     1     -34.374  16.792  -3.488  1.00 20.00    -0.011 C 
HETATM   10  C10 UNL     1     -33.574  14.582  -4.377  1.00 20.00     0.104 C 
HETATM   11  F11 UNL     1     -32.542  13.704  -4.384  1.00 20.00    -0.243 F 
ENDROOT
TORSDOF 0
ENDMDL
MODEL 8
REMARK VINA RESULT:      -4.4     11.736     13.260
REMARK  0 active torsions:
REMARK  status: ('A' for Active; 'I' for Inactive)
ROOT
HETATM    1  C1  UNL     1     -34.567  15.965  -2.278  1.00 20.00     0.009 C 
HETATM    2  C2  UNL     1     -35.236  14.301  -4.032  1.00 20.00     0.009 C 
HETATM    3  C3  UNL     1     -32.883  15.169  -3.960  1.00 20.00     0.009 C 
HETATM    4  C4  UNL     1     -36.100  16.652  -4.139  1.00 20.00     0.048 C 
HETATM    5  C5  UNL     1     -33.748  17.520  -4.066  1.00 20.00     0.048 C 
HETATM    6  C6  UNL     1     -34.417  15.857  -5.819  1.00 20.00     0.048 C 
HETATM    7  C7  UNL     1     -35.713  15.501  -3.195  1.00 20.00    -0.011 C 
HETATM    8  C8  UNL     1     -33.345  16.375  -3.122  1.00 20.00    -0.011 C 
HETATM    9  C9  UNL     1     -34.019  14.700  -4.888  1.00 20.00    -0.011 C 
HETATM   10  C10 UNL     1     -34.885  17.057  -4.985  1.00 20.00     0.104 C 
HETATM   11  F11 UNL     1     -35.234  18.071  -5.815  1.00 20.00    -0.243 F 
ENDROOT
TORSDOF 0
ENDMDL
MODEL 9
REMARK VINA RESULT:      -4.4     11.742     13.244
REMARK  0 active torsions:
REMARK  status: ('A' for Active; 'I' for Inactive)
ROOT
HETATM    1  C1  UNL     1     -32.898  15.167  -3.951  1.00 20.00     0.009 C 
HETATM    2  C2  UNL     1     -34.576  15.971  -2.268  1.00 20.00     0.009 C 
HETATM    3  C3  UNL     1     -35.261  14.327  -4.034  1.00 20.00     0.009 C 
HETATM    4  C4  UNL     1     -33.735  17.528  -4.044  1.00 20.00     0.048 C 
HETATM    5  C5  UNL     1     -34.420  15.884  -5.810  1.00 20.00     0.048 C 
HETATM    6  C6  UNL     1     -36.096  16.689  -4.128  1.00 20.00     0.048 C 
HETATM    7  C7  UNL     1     -33.348  16.373  -3.106  1.00 20.00    -0.011 C 
HETATM    8  C8  UNL     1     -34.038  14.717  -4.885  1.00 20.00    -0.011 C 
HETATM    9  C9  UNL     1     -35.726  15.527  -3.190  1.00 20.00    -0.011 C 
HETATM   10  C10 UNL     1     -34.876  17.083  -4.970  1.00 20.00     0.104 C 
HETATM   11  F11 UNL     1     -35.211  18.107  -5.793  1.00 20.00    -0.243 F 
ENDROOT
TORSDOF 0
ENDMDL
