MODEL 1
REMARK VINA RESULT:      -4.2      0.000      0.000
REMARK  2 active torsions:
REMARK  status: ('A' for Active; 'I' for Inactive)
REMARK    1  A    between atoms: C3_3  and  O6_6 
REMARK    2  A    between atoms: C4_4  and  O6_6 
ROOT
HETATM    1  C1  UNL     1     -32.368   7.099   2.837  1.00 20.00     0.014 C 
HETATM    2  C2  UNL     1     -32.947   6.054   2.708  1.00 20.00    -0.091 C 
HETATM    3  C4  UNL     1     -33.651   4.781   2.548  1.00 20.00     0.272 C 
ENDROOT
BRANCH   3   4
HETATM    4  O6  UNL     1     -34.078   4.286   3.811  1.00 20.00    -0.297 OA
BRANCH   4   5
HETATM    5  C3  UNL     1     -34.985   5.060   4.497  1.00 20.00     0.358 C 
HETATM    6  O5  UNL     1     -36.005   5.506   3.980  1.00 20.00    -0.245 OA
HETATM    7 CL7  UNL     1     -34.526   5.325   6.159  1.00 20.00    -0.012 Cl
ENDBRANCH   4   5
ENDBRANCH   3   4
TORSDOF 2
ENDMDL
MODEL 2
REMARK VINA RESULT:      -4.2      1.444      1.850
REMARK  2 active torsions:
REMARK  status: ('A' for Active; 'I' for Inactive)
REMARK    1  A    between atoms: C3_3  and  O6_6 
REMARK    2  A    between atoms: C4_4  and  O6_6 
ROOT
HETATM    1  C1  UNL     1     -32.619   8.263   0.789  1.00 20.00     0.014 C 
HETATM    2  C2  UNL     1     -32.617   7.610   1.796  1.00 20.00    -0.091 C 
HETATM    3  C4  UNL     1     -32.613   6.814   3.025  1.00 20.00     0.272 C 
ENDROOT
BRANCH   3   4
HETATM    4  O6  UNL     1     -33.553   5.751   2.933  1.00 20.00    -0.297 OA
BRANCH   4   5
HETATM    5  C3  UNL     1     -34.205   5.408   4.095  1.00 20.00     0.358 C 
HETATM    6  O5  UNL     1     -34.805   4.346   4.232  1.00 20.00    -0.245 OA
HETATM    7 CL7  UNL     1     -34.077   6.634   5.329  1.00 20.00    -0.012 Cl
ENDBRANCH   4   5
ENDBRANCH   3   4
TORSDOF 2
ENDMDL
MODEL 3
REMARK VINA RESULT:      -4.1      2.118      2.443
REMARK  2 active torsions:
REMARK  status: ('A' for Active; 'I' for Inactive)
REMARK    1  A    between atoms: C3_3  and  O6_6 
REMARK    2  A    between atoms: C4_4  and  O6_6 
ROOT
HETATM    1  C1  UNL     1     -32.861   8.587   0.550  1.00 20.00     0.014 C 
HETATM    2  C2  UNL     1     -32.604   7.932   1.523  1.00 20.00    -0.091 C 
HETATM    3  C4  UNL     1     -32.290   7.135   2.709  1.00 20.00     0.272 C 
ENDROOT
BRANCH   3   4
HETATM    4  O6  UNL     1     -33.345   6.225   2.992  1.00 20.00    -0.297 OA
BRANCH   4   5
HETATM    5  C3  UNL     1     -33.921   6.323   4.237  1.00 20.00     0.358 C 
HETATM    6  O5  UNL     1     -33.468   7.037   5.126  1.00 20.00    -0.245 OA
HETATM    7 CL7  UNL     1     -35.348   5.333   4.401  1.00 20.00    -0.012 Cl
ENDBRANCH   4   5
ENDBRANCH   3   4
TORSDOF 2
ENDMDL
MODEL 4
REMARK VINA RESULT:      -4.1      2.165      3.188
REMARK  2 active torsions:
REMARK  status: ('A' for Active; 'I' for Inactive)
REMARK    1  A    between atoms: C3_3  and  O6_6 
REMARK    2  A    between atoms: C4_4  and  O6_6 
ROOT
HETATM    1  C1  UNL     1     -34.154   6.668   6.302  1.00 20.00     0.014 C 
HETATM    2  C2  UNL     1     -34.470   5.841   5.491  1.00 20.00    -0.091 C 
HETATM    3  C4  UNL     1     -34.857   4.832   4.504  1.00 20.00     0.272 C 
ENDROOT
BRANCH   3   4
HETATM    4  O6  UNL     1     -34.680   5.331   3.185  1.00 20.00    -0.297 OA
BRANCH   4   5
HETATM    5  C3  UNL     1     -33.398   5.301   2.686  1.00 20.00     0.358 C 
HETATM    6  O5  UNL     1     -32.847   4.265   2.328  1.00 20.00    -0.245 OA
HETATM    7 CL7  UNL     1     -32.663   6.882   2.620  1.00 20.00    -0.012 Cl
ENDBRANCH   4   5
ENDBRANCH   3   4
TORSDOF 2
ENDMDL
MODEL 5
REMARK VINA RESULT:      -4.0     12.132     12.339
REMARK  2 active torsions:
REMARK  status: ('A' for Active; 'I' for Inactive)
REMARK    1  A    between atoms: C3_3  and  O6_6 
REMARK    2  A    between atoms: C4_4  and  O6_6 
ROOT
HETATM    1  C1  UNL     1     -34.658  16.216  -2.246  1.00 20.00     0.014 C 
HETATM    2  C2  UNL     1     -34.407  15.362  -3.051  1.00 20.00    -0.091 C 
HETATM    3  C4  UNL     1     -34.099  14.321  -4.033  1.00 20.00     0.272 C 
ENDROOT
BRANCH   3   4
HETATM    4  O6  UNL     1     -35.169  13.388  -4.123  1.00 20.00    -0.297 OA
BRANCH   4   5
HETATM    5  C3  UNL     1     -36.261  13.778  -4.864  1.00 20.00     0.358 C 
HETATM    6  O5  UNL     1     -37.416  13.611  -4.485  1.00 20.00    -0.245 OA
HETATM    7 CL7  UNL     1     -35.818  14.527  -6.376  1.00 20.00    -0.012 Cl
ENDBRANCH   4   5
ENDBRANCH   3   4
TORSDOF 2
ENDMDL
MODEL 6
REMARK VINA RESULT:      -3.9     11.800     12.180
REMARK  2 active torsions:
REMARK  status: ('A' for Active; 'I' for Inactive)
REMARK    1  A    between atoms: C3_3  and  O6_6 
REMARK    2  A    between atoms: C4_4  and  O6_6 
ROOT
HETATM    1  C1  UNL     1     -34.751  16.108  -2.107  1.00 20.00     0.014 C 
HETATM    2  C2  UNL     1     -34.369  15.471  -3.050  1.00 20.00    -0.091 C 
HETATM    3  C4  UNL     1     -33.901  14.694  -4.198  1.00 20.00     0.272 C 
ENDROOT
BRANCH   3   4
HETATM    4  O6  UNL     1     -34.977  14.422  -5.088  1.00 20.00    -0.297 OA
BRANCH   4   5
HETATM    5  C3  UNL     1     -35.960  13.581  -4.621  1.00 20.00     0.358 C 
HETATM    6  O5  UNL     1     -35.760  12.394  -4.378  1.00 20.00    -0.245 OA
HETATM    7 CL7  UNL     1     -37.495  14.383  -4.416  1.00 20.00    -0.012 Cl
ENDBRANCH   4   5
ENDBRANCH   3   4
TORSDOF 2
ENDMDL
MODEL 7
REMARK VINA RESULT:      -3.8      2.697      3.689
REMARK  2 active torsions:
REMARK  status: ('A' for Active; 'I' for Inactive)
REMARK    1  A    between atoms: C3_3  and  O6_6 
REMARK    2  A    between atoms: C4_4  and  O6_6 
ROOT
HETATM    1  C1  UNL     1     -34.800   5.004   6.001  1.00 20.00     0.014 C 
HETATM    2  C2  UNL     1     -34.417   5.961   5.385  1.00 20.00    -0.091 C 
HETATM    3  C4  UNL     1     -33.952   7.128   4.635  1.00 20.00     0.272 C 
ENDROOT
BRANCH   3   4
HETATM    4  O6  UNL     1     -32.715   6.847   3.992  1.00 20.00    -0.297 OA
BRANCH   4   5
HETATM    5  C3  UNL     1     -32.777   6.548   2.650  1.00 20.00     0.358 C 
HETATM    6  O5  UNL     1     -32.586   7.385   1.773  1.00 20.00    -0.245 OA
HETATM    7 CL7  UNL     1     -33.149   4.871   2.348  1.00 20.00    -0.012 Cl
ENDBRANCH   4   5
ENDBRANCH   3   4
TORSDOF 2
ENDMDL
MODEL 8
REMARK VINA RESULT:      -3.8      2.130      2.435
REMARK  2 active torsions:
REMARK  status: ('A' for Active; 'I' for Inactive)
REMARK    1  A    between atoms: C3_3  and  O6_6 
REMARK    2  A    between atoms: C4_4  and  O6_6 
ROOT
HETATM    1  C1  UNL     1     -32.640   8.230   0.818  1.00 20.00     0.014 C 
HETATM    2  C2  UNL     1     -32.591   7.643   1.864  1.00 20.00    -0.091 C 
HETATM    3  C4  UNL     1     -32.530   6.928   3.140  1.00 20.00     0.272 C 
ENDROOT
BRANCH   3   4
HETATM    4  O6  UNL     1     -33.829   6.515   3.543  1.00 20.00    -0.297 OA
BRANCH   4   5
HETATM    5  C3  UNL     1     -34.070   5.160   3.537  1.00 20.00     0.358 C 
HETATM    6  O5  UNL     1     -34.881   4.625   4.287  1.00 20.00    -0.245 OA
HETATM    7 CL7  UNL     1     -33.108   4.309   2.357  1.00 20.00    -0.012 Cl
ENDBRANCH   4   5
ENDBRANCH   3   4
TORSDOF 2
ENDMDL
MODEL 9
REMARK VINA RESULT:      -3.8      2.808      3.682
REMARK  2 active torsions:
REMARK  status: ('A' for Active; 'I' for Inactive)
REMARK    1  A    between atoms: C3_3  and  O6_6 
REMARK    2  A    between atoms: C4_4  and  O6_6 
ROOT
HETATM    1  C1  UNL     1     -34.686   5.363   5.823  1.00 20.00     0.014 C 
HETATM    2  C2  UNL     1     -34.516   5.431   4.636  1.00 20.00    -0.091 C 
HETATM    3  C4  UNL     1     -34.310   5.513   3.190  1.00 20.00     0.272 C 
ENDROOT
BRANCH   3   4
HETATM    4  O6  UNL     1     -32.932   5.695   2.892  1.00 20.00    -0.297 OA
BRANCH   4   5
HETATM    5  C3  UNL     1     -32.470   6.991   2.895  1.00 20.00     0.358 C 
HETATM    6  O5  UNL     1     -31.954   7.511   3.879  1.00 20.00    -0.245 OA
HETATM    7 CL7  UNL     1     -32.699   7.793   1.363  1.00 20.00    -0.012 Cl
ENDBRANCH   4   5
ENDBRANCH   3   4
TORSDOF 2
ENDMDL
