MODEL 1
REMARK VINA RESULT:      -4.7      0.000      0.000
REMARK  1 active torsions:
REMARK  status: ('A' for Active; 'I' for Inactive)
REMARK    1  A    between atoms: C2_2  and  C3_3 
ROOT
HETATM    1  C1  UNL     1     -33.123   7.002   3.120  1.00 20.00    -0.019 C 
HETATM    2  C2  UNL     1     -33.581   5.756   3.343  1.00 20.00    -0.004 C 
HETATM    3  C4  UNL     1     -32.325   7.484   1.949  1.00 20.00     0.036 C 
HETATM    4  C5  UNL     1     -33.340   4.576   2.440  1.00 20.00     0.053 C 
ENDROOT
BRANCH   2   5
HETATM    5  C3  UNL     1     -34.406   5.448   4.578  1.00 20.00     0.247 C 
HETATM    6  O6  UNL     1     -35.165   4.478   4.534  1.00 20.00    -0.274 OA
HETATM    7 CL7  UNL     1     -34.262   6.444   6.016  1.00 20.00    -0.039 Cl
ENDBRANCH   2   5
TORSDOF 1
ENDMDL
MODEL 2
REMARK VINA RESULT:      -4.7      2.784      3.524
REMARK  1 active torsions:
REMARK  status: ('A' for Active; 'I' for Inactive)
REMARK    1  A    between atoms: C2_2  and  C3_3 
ROOT
HETATM    1  C1  UNL     1     -34.105   6.278   4.378  1.00 20.00    -0.019 C 
HETATM    2  C2  UNL     1     -33.340   6.105   3.285  1.00 20.00    -0.004 C 
HETATM    3  C4  UNL     1     -35.041   5.291   5.002  1.00 20.00     0.036 C 
HETATM    4  C5  UNL     1     -33.310   4.856   2.445  1.00 20.00     0.053 C 
ENDROOT
BRANCH   2   5
HETATM    5  C3  UNL     1     -32.419   7.211   2.805  1.00 20.00     0.247 C 
HETATM    6  O6  UNL     1     -31.549   7.610   3.581  1.00 20.00    -0.274 OA
HETATM    7 CL7  UNL     1     -32.596   7.880   1.192  1.00 20.00    -0.039 Cl
ENDBRANCH   2   5
TORSDOF 1
ENDMDL
MODEL 3
REMARK VINA RESULT:      -4.3      2.395      3.112
REMARK  1 active torsions:
REMARK  status: ('A' for Active; 'I' for Inactive)
REMARK    1  A    between atoms: C2_2  and  C3_3 
ROOT
HETATM    1  C1  UNL     1     -33.563   6.816   4.950  1.00 20.00    -0.019 C 
HETATM    2  C2  UNL     1     -33.910   5.878   4.049  1.00 20.00    -0.004 C 
HETATM    3  C4  UNL     1     -34.142   7.028   6.313  1.00 20.00     0.036 C 
HETATM    4  C5  UNL     1     -35.000   4.859   4.244  1.00 20.00     0.053 C 
ENDROOT
BRANCH   2   5
HETATM    5  C3  UNL     1     -33.191   5.788   2.716  1.00 20.00     0.247 C 
HETATM    6  O6  UNL     1     -33.093   4.677   2.191  1.00 20.00    -0.274 OA
HETATM    7 CL7  UNL     1     -32.537   7.229   1.957  1.00 20.00    -0.039 Cl
ENDBRANCH   2   5
TORSDOF 1
ENDMDL
MODEL 4
REMARK VINA RESULT:      -4.2      1.142      1.680
REMARK  1 active torsions:
REMARK  status: ('A' for Active; 'I' for Inactive)
REMARK    1  A    between atoms: C2_2  and  C3_3 
ROOT
HETATM    1  C1  UNL     1     -33.254   6.210   2.830  1.00 20.00    -0.019 C 
HETATM    2  C2  UNL     1     -33.646   6.210   4.117  1.00 20.00    -0.004 C 
HETATM    3  C4  UNL     1     -32.447   7.254   2.123  1.00 20.00     0.036 C 
HETATM    4  C5  UNL     1     -33.361   7.310   5.104  1.00 20.00     0.053 C 
ENDROOT
BRANCH   2   5
HETATM    5  C3  UNL     1     -34.440   5.047   4.681  1.00 20.00     0.247 C 
HETATM    6  O6  UNL     1     -34.580   4.049   3.970  1.00 20.00    -0.274 OA
HETATM    7 CL7  UNL     1     -35.121   5.133   6.296  1.00 20.00    -0.039 Cl
ENDBRANCH   2   5
TORSDOF 1
ENDMDL
MODEL 5
REMARK VINA RESULT:      -4.2     11.584     11.770
REMARK  1 active torsions:
REMARK  status: ('A' for Active; 'I' for Inactive)
REMARK    1  A    between atoms: C2_2  and  C3_3 
ROOT
HETATM    1  C1  UNL     1     -34.815  15.561  -2.800  1.00 20.00    -0.019 C 
HETATM    2  C2  UNL     1     -34.699  14.670  -3.802  1.00 20.00    -0.004 C 
HETATM    3  C4  UNL     1     -33.771  16.506  -2.294  1.00 20.00     0.036 C 
HETATM    4  C5  UNL     1     -33.445  14.433  -4.601  1.00 20.00     0.053 C 
ENDROOT
BRANCH   2   5
HETATM    5  C3  UNL     1     -35.878  13.805  -4.206  1.00 20.00     0.247 C 
HETATM    6  O6  UNL     1     -35.669  12.607  -4.408  1.00 20.00    -0.274 OA
HETATM    7 CL7  UNL     1     -37.480  14.503  -4.365  1.00 20.00    -0.039 Cl
ENDBRANCH   2   5
TORSDOF 1
ENDMDL
MODEL 6
REMARK VINA RESULT:      -4.0      2.336      3.533
REMARK  1 active torsions:
REMARK  status: ('A' for Active; 'I' for Inactive)
REMARK    1  A    between atoms: C2_2  and  C3_3 
ROOT
HETATM    1  C1  UNL     1     -34.515   5.314   4.680  1.00 20.00    -0.019 C 
HETATM    2  C2  UNL     1     -33.645   6.203   4.168  1.00 20.00    -0.004 C 
HETATM    3  C4  UNL     1     -35.123   5.317   6.047  1.00 20.00     0.036 C 
HETATM    4  C5  UNL     1     -33.083   7.385   4.913  1.00 20.00     0.053 C 
ENDROOT
BRANCH   2   5
HETATM    5  C3  UNL     1     -33.149   6.063   2.741  1.00 20.00     0.247 C 
HETATM    6  O6  UNL     1     -33.227   4.952   2.212  1.00 20.00    -0.274 OA
HETATM    7 CL7  UNL     1     -32.498   7.449   1.884  1.00 20.00    -0.039 Cl
ENDBRANCH   2   5
TORSDOF 1
ENDMDL
MODEL 7
REMARK VINA RESULT:      -3.9     11.646     12.033
REMARK  1 active torsions:
REMARK  status: ('A' for Active; 'I' for Inactive)
REMARK    1  A    between atoms: C2_2  and  C3_3 
ROOT
HETATM    1  C1  UNL     1     -35.197  15.810  -2.182  1.00 20.00    -0.019 C 
HETATM    2  C2  UNL     1     -34.262  15.507  -3.102  1.00 20.00    -0.004 C 
HETATM    3  C4  UNL     1     -35.184  16.948  -1.211  1.00 20.00     0.036 C 
HETATM    4  C5  UNL     1     -32.978  16.265  -3.306  1.00 20.00     0.053 C 
ENDROOT
BRANCH   2   5
HETATM    5  C3  UNL     1     -34.451  14.324  -4.033  1.00 20.00     0.247 C 
HETATM    6  O6  UNL     1     -33.444  13.821  -4.535  1.00 20.00    -0.274 OA
HETATM    7 CL7  UNL     1     -36.058  13.700  -4.364  1.00 20.00    -0.039 Cl
ENDBRANCH   2   5
TORSDOF 1
ENDMDL
MODEL 8
REMARK VINA RESULT:      -3.7      1.745      2.391
REMARK  1 active torsions:
REMARK  status: ('A' for Active; 'I' for Inactive)
REMARK    1  A    between atoms: C2_2  and  C3_3 
ROOT
HETATM    1  C1  UNL     1     -33.081   7.549   1.363  1.00 20.00    -0.019 C 
HETATM    2  C2  UNL     1     -32.766   6.971   2.537  1.00 20.00    -0.004 C 
HETATM    3  C4  UNL     1     -32.574   8.849   0.823  1.00 20.00     0.036 C 
HETATM    4  C5  UNL     1     -31.840   7.561   3.566  1.00 20.00     0.053 C 
ENDROOT
BRANCH   2   5
HETATM    5  C3  UNL     1     -33.355   5.625   2.915  1.00 20.00     0.247 C 
HETATM    6  O6  UNL     1     -32.931   4.627   2.329  1.00 20.00    -0.274 OA
HETATM    7 CL7  UNL     1     -34.592   5.512   4.155  1.00 20.00    -0.039 Cl
ENDBRANCH   2   5
TORSDOF 1
ENDMDL
MODEL 9
REMARK VINA RESULT:      -3.7     16.749     17.528
REMARK  1 active torsions:
REMARK  status: ('A' for Active; 'I' for Inactive)
REMARK    1  A    between atoms: C2_2  and  C3_3 
ROOT
HETATM    1  C1  UNL     1     -24.206  16.836  10.492  1.00 20.00    -0.019 C 
HETATM    2  C2  UNL     1     -23.183  17.708  10.538  1.00 20.00    -0.004 C 
HETATM    3  C4  UNL     1     -24.624  15.863  11.550  1.00 20.00     0.036 C 
HETATM    4  C5  UNL     1     -22.222  17.846  11.688  1.00 20.00     0.053 C 
ENDROOT
BRANCH   2   5
HETATM    5  C3  UNL     1     -22.919  18.649   9.378  1.00 20.00     0.247 C 
HETATM    6  O6  UNL     1     -21.749  18.955   9.141  1.00 20.00    -0.274 OA
HETATM    7 CL7  UNL     1     -24.248  19.263   8.410  1.00 20.00    -0.039 Cl
ENDBRANCH   2   5
TORSDOF 1
ENDMDL
