MODEL 1
REMARK VINA RESULT:      -4.0      0.000      0.000
REMARK  5 active torsions:
REMARK  status: ('A' for Active; 'I' for Inactive)
REMARK    1  A    between atoms: C1_1  and  C6_6 
REMARK    2  A    between atoms: C2_2  and  C7_7 
REMARK    3  A    between atoms: C2_2  and  C8_8 
REMARK    4  A    between atoms: C7_7  and  C9_9 
REMARK    5  A    between atoms: C8_8  and  C10_10 
ROOT
HETATM    1  C1  UNL     1     -32.928  17.478  -1.944  1.00 20.00    -0.024 C 
HETATM    2  C2  UNL     1     -34.206  17.184  -1.632  1.00 20.00    -0.084 C 
ENDROOT
BRANCH   2   3
HETATM    3  C7  UNL     1     -34.863  15.953  -2.223  1.00 20.00     0.033 C 
BRANCH   3   4
HETATM    4  C9  UNL     1     -34.047  15.353  -3.372  1.00 20.00    -0.000 C 
HETATM    5  C4  UNL     1     -34.721  14.115  -3.943  1.00 20.00     0.005 C 
ENDBRANCH   3   4
ENDBRANCH   2   3
BRANCH   2   6
HETATM    6  C8  UNL     1     -35.059  18.018  -0.701  1.00 20.00     0.033 C 
BRANCH   6   7
HETATM    7  C10 UNL     1     -35.221  17.361   0.672  1.00 20.00    -0.000 C 
HETATM    8  C5  UNL     1     -34.281  17.977   1.695  1.00 20.00     0.005 C 
ENDBRANCH   6   7
ENDBRANCH   2   6
BRANCH   1   9
HETATM    9  C6  UNL     1     -32.128  18.666  -1.491  1.00 20.00     0.023 C 
HETATM   10  C3  UNL     1     -31.161  18.289  -0.380  1.00 20.00     0.009 C 
ENDBRANCH   1   9
TORSDOF 5
ENDMDL
MODEL 2
REMARK VINA RESULT:      -3.8     10.822     12.119
REMARK  5 active torsions:
REMARK  status: ('A' for Active; 'I' for Inactive)
REMARK    1  A    between atoms: C1_1  and  C6_6 
REMARK    2  A    between atoms: C2_2  and  C7_7 
REMARK    3  A    between atoms: C2_2  and  C8_8 
REMARK    4  A    between atoms: C7_7  and  C9_9 
REMARK    5  A    between atoms: C8_8  and  C10_10 
ROOT
HETATM    1  C1  UNL     1     -32.312   7.762   2.568  1.00 20.00    -0.024 C 
HETATM    2  C2  UNL     1     -33.065   6.884   3.261  1.00 20.00    -0.084 C 
ENDROOT
BRANCH   2   3
HETATM    3  C7  UNL     1     -33.061   6.919   4.776  1.00 20.00     0.033 C 
BRANCH   3   4
HETATM    4  C9  UNL     1     -34.466   6.750   5.365  1.00 20.00    -0.000 C 
HETATM    5  C4  UNL     1     -34.585   5.451   6.147  1.00 20.00     0.005 C 
ENDBRANCH   3   4
ENDBRANCH   2   3
BRANCH   2   6
HETATM    6  C8  UNL     1     -33.944   5.835   2.616  1.00 20.00     0.033 C 
BRANCH   6   7
HETATM    7  C10 UNL     1     -33.229   4.488   2.489  1.00 20.00    -0.000 C 
HETATM    8  C5  UNL     1     -33.766   3.478   3.491  1.00 20.00     0.005 C 
ENDBRANCH   6   7
ENDBRANCH   2   6
BRANCH   1   9
HETATM    9  C6  UNL     1     -32.157   7.854   1.076  1.00 20.00     0.023 C 
HETATM   10  C3  UNL     1     -32.965   9.009   0.508  1.00 20.00     0.009 C 
ENDBRANCH   1   9
TORSDOF 5
ENDMDL
MODEL 3
REMARK VINA RESULT:      -3.8     10.859     12.064
REMARK  5 active torsions:
REMARK  status: ('A' for Active; 'I' for Inactive)
REMARK    1  A    between atoms: C1_1  and  C6_6 
REMARK    2  A    between atoms: C2_2  and  C7_7 
REMARK    3  A    between atoms: C2_2  and  C8_8 
REMARK    4  A    between atoms: C7_7  and  C9_9 
REMARK    5  A    between atoms: C8_8  and  C10_10 
ROOT
HETATM    1  C1  UNL     1     -33.171   5.349   2.537  1.00 20.00    -0.024 C 
HETATM    2  C2  UNL     1     -33.143   6.600   3.039  1.00 20.00    -0.084 C 
ENDROOT
BRANCH   2   3
HETATM    3  C7  UNL     1     -32.094   7.583   2.560  1.00 20.00     0.033 C 
BRANCH   3   4
HETATM    4  C9  UNL     1     -32.192   7.851   1.055  1.00 20.00    -0.000 C 
HETATM    5  C4  UNL     1     -32.960   9.133   0.771  1.00 20.00     0.005 C 
ENDBRANCH   3   4
ENDBRANCH   2   3
BRANCH   2   6
HETATM    6  C8  UNL     1     -34.117   7.113   4.077  1.00 20.00     0.033 C 
BRANCH   6   7
HETATM    7  C10 UNL     1     -33.633   6.839   5.503  1.00 20.00    -0.000 C 
HETATM    8  C5  UNL     1     -34.585   5.914   6.244  1.00 20.00     0.005 C 
ENDBRANCH   6   7
ENDBRANCH   2   6
BRANCH   1   9
HETATM    9  C6  UNL     1     -34.104   4.234   2.915  1.00 20.00     0.023 C 
HETATM   10  C3  UNL     1     -33.577   3.455   4.109  1.00 20.00     0.009 C 
ENDBRANCH   1   9
TORSDOF 5
ENDMDL
MODEL 4
REMARK VINA RESULT:      -3.8      1.139      3.765
REMARK  5 active torsions:
REMARK  status: ('A' for Active; 'I' for Inactive)
REMARK    1  A    between atoms: C1_1  and  C6_6 
REMARK    2  A    between atoms: C2_2  and  C7_7 
REMARK    3  A    between atoms: C2_2  and  C8_8 
REMARK    4  A    between atoms: C7_7  and  C9_9 
REMARK    5  A    between atoms: C8_8  and  C10_10 
ROOT
HETATM    1  C1  UNL     1     -33.027  18.012  -0.692  1.00 20.00    -0.024 C 
HETATM    2  C2  UNL     1     -33.738  17.222  -1.522  1.00 20.00    -0.084 C 
ENDROOT
BRANCH   2   3
HETATM    3  C7  UNL     1     -35.177  16.881  -1.191  1.00 20.00     0.033 C 
BRANCH   3   4
HETATM    4  C9  UNL     1     -35.521  17.171   0.273  1.00 20.00    -0.000 C 
HETATM    5  C4  UNL     1     -36.806  17.977   0.390  1.00 20.00     0.005 C 
ENDBRANCH   3   4
ENDBRANCH   2   3
BRANCH   2   6
HETATM    6  C8  UNL     1     -33.187  16.633  -2.803  1.00 20.00     0.033 C 
BRANCH   6   7
HETATM    7  C10 UNL     1     -34.004  15.431  -3.280  1.00 20.00    -0.000 C 
HETATM    8  C5  UNL     1     -33.246  14.623  -4.321  1.00 20.00     0.005 C 
ENDBRANCH   6   7
ENDBRANCH   2   6
BRANCH   1   9
HETATM    9  C6  UNL     1     -31.589  18.423  -0.832  1.00 20.00     0.023 C 
HETATM   10  C3  UNL     1     -30.847  18.295   0.488  1.00 20.00     0.009 C 
ENDBRANCH   1   9
TORSDOF 5
ENDMDL
MODEL 5
REMARK VINA RESULT:      -3.8      0.846      2.868
REMARK  5 active torsions:
REMARK  status: ('A' for Active; 'I' for Inactive)
REMARK    1  A    between atoms: C1_1  and  C6_6 
REMARK    2  A    between atoms: C2_2  and  C7_7 
REMARK    3  A    between atoms: C2_2  and  C8_8 
REMARK    4  A    between atoms: C7_7  and  C9_9 
REMARK    5  A    between atoms: C8_8  and  C10_10 
ROOT
HETATM    1  C1  UNL     1     -34.301  17.935  -0.359  1.00 20.00    -0.024 C 
HETATM    2  C2  UNL     1     -33.264  17.873  -1.219  1.00 20.00    -0.084 C 
ENDROOT
BRANCH   2   3
HETATM    3  C7  UNL     1     -33.273  16.853  -2.340  1.00 20.00     0.033 C 
BRANCH   3   4
HETATM    4  C9  UNL     1     -34.545  16.000  -2.340  1.00 20.00    -0.000 C 
HETATM    5  C4  UNL     1     -34.530  14.982  -3.470  1.00 20.00     0.005 C 
ENDBRANCH   3   4
ENDBRANCH   2   3
BRANCH   2   6
HETATM    6  C8  UNL     1     -32.053  18.778  -1.146  1.00 20.00     0.033 C 
BRANCH   6   7
HETATM    7  C10 UNL     1     -30.931  18.169  -0.303  1.00 20.00    -0.000 C 
HETATM    8  C5  UNL     1     -30.668  18.992   0.947  1.00 20.00     0.005 C 
ENDBRANCH   6   7
ENDBRANCH   2   6
BRANCH   1   9
HETATM    9  C6  UNL     1     -34.450  18.845   0.827  1.00 20.00     0.023 C 
HETATM   10  C3  UNL     1     -34.072  18.137   2.117  1.00 20.00     0.009 C 
ENDBRANCH   1   9
TORSDOF 5
ENDMDL
MODEL 6
REMARK VINA RESULT:      -3.8     10.967     12.285
REMARK  5 active torsions:
REMARK  status: ('A' for Active; 'I' for Inactive)
REMARK    1  A    between atoms: C1_1  and  C6_6 
REMARK    2  A    between atoms: C2_2  and  C7_7 
REMARK    3  A    between atoms: C2_2  and  C8_8 
REMARK    4  A    between atoms: C7_7  and  C9_9 
REMARK    5  A    between atoms: C8_8  and  C10_10 
ROOT
HETATM    1  C1  UNL     1     -33.333   7.083   5.109  1.00 20.00    -0.024 C 
HETATM    2  C2  UNL     1     -33.259   6.838   3.785  1.00 20.00    -0.084 C 
ENDROOT
BRANCH   2   3
HETATM    3  C7  UNL     1     -32.119   7.419   2.972  1.00 20.00     0.033 C 
BRANCH   3   4
HETATM    4  C9  UNL     1     -32.450   7.495   1.479  1.00 20.00    -0.000 C 
HETATM    5  C4  UNL     1     -32.858   8.904   1.074  1.00 20.00     0.005 C 
ENDBRANCH   3   4
ENDBRANCH   2   3
BRANCH   2   6
HETATM    6  C8  UNL     1     -34.261   5.995   3.027  1.00 20.00     0.033 C 
BRANCH   6   7
HETATM    7  C10 UNL     1     -33.966   4.499   3.154  1.00 20.00    -0.000 C 
HETATM    8  C5  UNL     1     -32.977   4.038   2.095  1.00 20.00     0.005 C 
ENDBRANCH   6   7
ENDBRANCH   2   6
BRANCH   1   9
HETATM    9  C6  UNL     1     -34.401   6.629   6.063  1.00 20.00     0.023 C 
HETATM   10  C3  UNL     1     -34.395   5.118   6.219  1.00 20.00     0.009 C 
ENDBRANCH   1   9
TORSDOF 5
ENDMDL
MODEL 7
REMARK VINA RESULT:      -3.8      0.319      4.173
REMARK  5 active torsions:
REMARK  status: ('A' for Active; 'I' for Inactive)
REMARK    1  A    between atoms: C1_1  and  C6_6 
REMARK    2  A    between atoms: C2_2  and  C7_7 
REMARK    3  A    between atoms: C2_2  and  C8_8 
REMARK    4  A    between atoms: C7_7  and  C9_9 
REMARK    5  A    between atoms: C8_8  and  C10_10 
ROOT
HETATM    1  C1  UNL     1     -34.523  16.145  -2.369  1.00 20.00    -0.024 C 
HETATM    2  C2  UNL     1     -33.994  17.269  -1.845  1.00 20.00    -0.084 C 
ENDROOT
BRANCH   2   3
HETATM    3  C7  UNL     1     -34.805  18.105  -0.875  1.00 20.00     0.033 C 
BRANCH   3   4
HETATM    4  C9  UNL     1     -35.193  17.322   0.383  1.00 20.00    -0.000 C 
HETATM    5  C4  UNL     1     -34.505  17.883   1.618  1.00 20.00     0.005 C 
ENDBRANCH   3   4
ENDBRANCH   2   3
BRANCH   2   6
HETATM    6  C8  UNL     1     -32.602  17.772  -2.162  1.00 20.00     0.033 C 
BRANCH   6   7
HETATM    7  C10 UNL     1     -32.133  18.830  -1.161  1.00 20.00    -0.000 C 
HETATM    8  C5  UNL     1     -31.091  18.268  -0.207  1.00 20.00     0.005 C 
ENDBRANCH   6   7
ENDBRANCH   2   6
BRANCH   1   9
HETATM    9  C6  UNL     1     -33.891  15.218  -3.367  1.00 20.00     0.023 C 
HETATM   10  C3  UNL     1     -34.895  14.204  -3.891  1.00 20.00     0.009 C 
ENDBRANCH   1   9
TORSDOF 5
ENDMDL
MODEL 8
REMARK VINA RESULT:      -3.7      1.025      3.855
REMARK  5 active torsions:
REMARK  status: ('A' for Active; 'I' for Inactive)
REMARK    1  A    between atoms: C1_1  and  C6_6 
REMARK    2  A    between atoms: C2_2  and  C7_7 
REMARK    3  A    between atoms: C2_2  and  C8_8 
REMARK    4  A    between atoms: C7_7  and  C9_9 
REMARK    5  A    between atoms: C8_8  and  C10_10 
ROOT
HETATM    1  C1  UNL     1     -33.154  16.224  -3.381  1.00 20.00    -0.024 C 
HETATM    2  C2  UNL     1     -33.759  16.888  -2.375  1.00 20.00    -0.084 C 
ENDROOT
BRANCH   2   3
HETATM    3  C7  UNL     1     -33.221  18.231  -1.926  1.00 20.00     0.033 C 
BRANCH   3   4
HETATM    4  C9  UNL     1     -31.873  18.108  -1.208  1.00 20.00    -0.000 C 
HETATM    5  C4  UNL     1     -32.000  18.444   0.270  1.00 20.00     0.005 C 
ENDBRANCH   3   4
ENDBRANCH   2   3
BRANCH   2   6
HETATM    6  C8  UNL     1     -34.977  16.373  -1.640  1.00 20.00     0.033 C 
BRANCH   6   7
HETATM    7  C10 UNL     1     -35.648  17.467  -0.806  1.00 20.00    -0.000 C 
HETATM    8  C5  UNL     1     -35.535  17.178   0.682  1.00 20.00     0.005 C 
ENDBRANCH   6   7
ENDBRANCH   2   6
BRANCH   1   9
HETATM    9  C6  UNL     1     -33.516  14.875  -3.933  1.00 20.00     0.023 C 
HETATM   10  C3  UNL     1     -33.903  14.964  -5.399  1.00 20.00     0.009 C 
ENDBRANCH   1   9
TORSDOF 5
ENDMDL
MODEL 9
REMARK VINA RESULT:      -3.7      1.671      3.599
REMARK  5 active torsions:
REMARK  status: ('A' for Active; 'I' for Inactive)
REMARK    1  A    between atoms: C1_1  and  C6_6 
REMARK    2  A    between atoms: C2_2  and  C7_7 
REMARK    3  A    between atoms: C2_2  and  C8_8 
REMARK    4  A    between atoms: C7_7  and  C9_9 
REMARK    5  A    between atoms: C8_8  and  C10_10 
ROOT
HETATM    1  C1  UNL     1     -33.361  17.686  -1.583  1.00 20.00    -0.024 C 
HETATM    2  C2  UNL     1     -33.808  16.644  -2.312  1.00 20.00    -0.084 C 
ENDROOT
BRANCH   2   3
HETATM    3  C7  UNL     1     -35.198  16.092  -2.066  1.00 20.00     0.033 C 
BRANCH   3   4
HETATM    4  C9  UNL     1     -36.296  17.095  -2.435  1.00 20.00    -0.000 C 
HETATM    5  C4  UNL     1     -36.965  16.725  -3.750  1.00 20.00     0.005 C 
ENDBRANCH   3   4
ENDBRANCH   2   3
BRANCH   2   6
HETATM    6  C8  UNL     1     -33.000  15.964  -3.396  1.00 20.00     0.033 C 
BRANCH   6   7
HETATM    7  C10 UNL     1     -33.755  14.792  -4.026  1.00 20.00    -0.000 C 
HETATM    8  C5  UNL     1     -34.024  15.035  -5.502  1.00 20.00     0.005 C 
ENDBRANCH   6   7
ENDBRANCH   2   6
BRANCH   1   9
HETATM    9  C6  UNL     1     -32.009  18.337  -1.657  1.00 20.00     0.023 C 
HETATM   10  C3  UNL     1     -31.300  18.289  -0.314  1.00 20.00     0.009 C 
ENDBRANCH   1   9
TORSDOF 5
ENDMDL
