MODEL 1
REMARK VINA RESULT:      -4.8      0.000      0.000
REMARK  1 active torsions:
REMARK  status: ('A' for Active; 'I' for Inactive)
REMARK    1  A    between atoms: C1_1  and  C6_6 
ROOT
HETATM    1  C2  UNL     1     -33.007  15.791  -3.444  1.00 20.00     0.002 C 
HETATM    2  C3  UNL     1     -33.957  14.817  -4.134  1.00 20.00     0.012 C 
HETATM    3  C4  UNL     1     -33.616  17.188  -3.327  1.00 20.00     0.009 C 
HETATM    4  C5  UNL     1     -35.935  16.177  -3.336  1.00 20.00     0.021 C 
HETATM    5  C6  UNL     1     -35.323  14.778  -3.449  1.00 20.00     0.055 C 
HETATM    6  C7  UNL     1     -35.004  17.199  -2.645  1.00 20.00    -0.047 C 
HETATM    7  C9  UNL     1     -35.616  18.606  -2.779  1.00 20.00     0.015 C 
HETATM    8  C10 UNL     1     -34.871  16.882  -1.142  1.00 20.00     0.015 C 
ENDROOT
BRANCH   5   9
HETATM    9  C1  UNL     1     -36.238  13.888  -4.235  1.00 20.00     0.127 C 
HETATM   10  C8  UNL     1     -37.605  14.432  -4.550  1.00 20.00     0.091 C 
HETATM   11  O11 UNL     1     -35.889  12.768  -4.605  1.00 20.00    -0.298 OA
ENDBRANCH   5   9
TORSDOF 1
ENDMDL
MODEL 2
REMARK VINA RESULT:      -4.7     11.442     12.483
REMARK  1 active torsions:
REMARK  status: ('A' for Active; 'I' for Inactive)
REMARK    1  A    between atoms: C1_1  and  C6_6 
ROOT
HETATM    1  C2  UNL     1     -33.750   3.943   2.748  1.00 20.00     0.002 C 
HETATM    2  C3  UNL     1     -32.806   5.070   2.342  1.00 20.00     0.012 C 
HETATM    3  C4  UNL     1     -34.133   4.031   4.225  1.00 20.00     0.009 C 
HETATM    4  C5  UNL     1     -33.758   6.532   4.174  1.00 20.00     0.021 C 
HETATM    5  C6  UNL     1     -33.379   6.443   2.693  1.00 20.00     0.055 C 
HETATM    6  C7  UNL     1     -34.713   5.405   4.630  1.00 20.00    -0.047 C 
HETATM    7  C9  UNL     1     -34.853   5.457   6.163  1.00 20.00     0.015 C 
HETATM    8  C10 UNL     1     -36.115   5.603   4.020  1.00 20.00     0.015 C 
ENDROOT
BRANCH   5   9
HETATM    9  C1  UNL     1     -32.361   7.495   2.368  1.00 20.00     0.127 C 
HETATM   10  C8  UNL     1     -32.539   8.231   1.068  1.00 20.00     0.091 C 
HETATM   11  O11 UNL     1     -31.426   7.745   3.127  1.00 20.00    -0.298 OA
ENDBRANCH   5   9
TORSDOF 1
ENDMDL
MODEL 3
REMARK VINA RESULT:      -4.6      1.912      3.065
REMARK  1 active torsions:
REMARK  status: ('A' for Active; 'I' for Inactive)
REMARK    1  A    between atoms: C1_1  and  C6_6 
ROOT
HETATM    1  C2  UNL     1     -35.419  17.202  -1.185  1.00 20.00     0.002 C 
HETATM    2  C3  UNL     1     -35.182  15.969  -2.050  1.00 20.00     0.012 C 
HETATM    3  C4  UNL     1     -34.114  17.744  -0.603  1.00 20.00     0.009 C 
HETATM    4  C5  UNL     1     -32.838  16.773  -2.559  1.00 20.00     0.021 C 
HETATM    5  C6  UNL     1     -34.148  16.235  -3.143  1.00 20.00     0.055 C 
HETATM    6  C7  UNL     1     -33.033  18.024  -1.671  1.00 20.00    -0.047 C 
HETATM    7  C9  UNL     1     -31.703  18.349  -0.965  1.00 20.00     0.015 C 
HETATM    8  C10 UNL     1     -33.422  19.243  -2.530  1.00 20.00     0.015 C 
ENDROOT
BRANCH   5   9
HETATM    9  C1  UNL     1     -33.882  14.960  -3.886  1.00 20.00     0.127 C 
HETATM   10  C8  UNL     1     -35.038  14.006  -4.027  1.00 20.00     0.091 C 
HETATM   11  O11 UNL     1     -32.775  14.705  -4.357  1.00 20.00    -0.298 OA
ENDBRANCH   5   9
TORSDOF 1
ENDMDL
MODEL 4
REMARK VINA RESULT:      -4.6      1.253      1.815
REMARK  1 active torsions:
REMARK  status: ('A' for Active; 'I' for Inactive)
REMARK    1  A    between atoms: C1_1  and  C6_6 
ROOT
HETATM    1  C2  UNL     1     -34.623  17.796  -4.526  1.00 20.00     0.002 C 
HETATM    2  C3  UNL     1     -35.099  16.374  -4.805  1.00 20.00     0.012 C 
HETATM    3  C4  UNL     1     -34.883  18.205  -3.076  1.00 20.00     0.009 C 
HETATM    4  C5  UNL     1     -34.760  15.780  -2.369  1.00 20.00     0.021 C 
HETATM    5  C6  UNL     1     -34.495  15.372  -3.821  1.00 20.00     0.055 C 
HETATM    6  C7  UNL     1     -34.295  17.217  -2.043  1.00 20.00    -0.047 C 
HETATM    7  C9  UNL     1     -34.801  17.601  -0.639  1.00 20.00     0.015 C 
HETATM    8  C10 UNL     1     -32.756  17.300  -2.029  1.00 20.00     0.015 C 
ENDROOT
BRANCH   5   9
HETATM    9  C1  UNL     1     -35.084  14.017  -4.081  1.00 20.00     0.127 C 
HETATM   10  C8  UNL     1     -36.525  13.978  -4.513  1.00 20.00     0.091 C 
HETATM   11  O11 UNL     1     -34.422  12.989  -3.948  1.00 20.00    -0.298 OA
ENDBRANCH   5   9
TORSDOF 1
ENDMDL
MODEL 5
REMARK VINA RESULT:      -4.6      1.088      1.752
REMARK  1 active torsions:
REMARK  status: ('A' for Active; 'I' for Inactive)
REMARK    1  A    between atoms: C1_1  and  C6_6 
ROOT
HETATM    1  C2  UNL     1     -35.010  17.509  -4.997  1.00 20.00     0.002 C 
HETATM    2  C3  UNL     1     -35.889  16.274  -5.162  1.00 20.00     0.012 C 
HETATM    3  C4  UNL     1     -34.889  17.926  -3.532  1.00 20.00     0.009 C 
HETATM    4  C5  UNL     1     -35.294  15.533  -2.817  1.00 20.00     0.021 C 
HETATM    5  C6  UNL     1     -35.410  15.116  -4.286  1.00 20.00     0.055 C 
HETATM    6  C7  UNL     1     -34.412  16.785  -2.604  1.00 20.00    -0.047 C 
HETATM    7  C9  UNL     1     -34.539  17.244  -1.139  1.00 20.00     0.015 C 
HETATM    8  C10 UNL     1     -32.930  16.456  -2.869  1.00 20.00     0.015 C 
ENDROOT
BRANCH   5   9
HETATM    9  C1  UNL     1     -36.374  13.975  -4.413  1.00 20.00     0.127 C 
HETATM   10  C8  UNL     1     -37.838  14.315  -4.331  1.00 20.00     0.091 C 
HETATM   11  O11 UNL     1     -35.989  12.819  -4.575  1.00 20.00    -0.298 OA
ENDBRANCH   5   9
TORSDOF 1
ENDMDL
MODEL 6
REMARK VINA RESULT:      -4.5      1.463      2.006
REMARK  1 active torsions:
REMARK  status: ('A' for Active; 'I' for Inactive)
REMARK    1  A    between atoms: C1_1  and  C6_6 
ROOT
HETATM    1  C2  UNL     1     -34.325  13.830  -3.901  1.00 20.00     0.002 C 
HETATM    2  C3  UNL     1     -35.767  13.822  -4.399  1.00 20.00     0.012 C 
HETATM    3  C4  UNL     1     -33.642  15.171  -4.169  1.00 20.00     0.009 C 
HETATM    4  C5  UNL     1     -35.888  16.331  -4.096  1.00 20.00     0.021 C 
HETATM    5  C6  UNL     1     -36.571  14.988  -3.824  1.00 20.00     0.055 C 
HETATM    6  C7  UNL     1     -34.422  16.382  -3.610  1.00 20.00    -0.047 C 
HETATM    7  C9  UNL     1     -33.768  17.679  -4.123  1.00 20.00     0.015 C 
HETATM    8  C10 UNL     1     -34.362  16.401  -2.069  1.00 20.00     0.015 C 
ENDROOT
BRANCH   5   9
HETATM    9  C1  UNL     1     -37.941  14.984  -4.434  1.00 20.00     0.127 C 
HETATM   10  C8  UNL     1     -38.383  16.254  -5.110  1.00 20.00     0.091 C 
HETATM   11  O11 UNL     1     -38.667  13.993  -4.384  1.00 20.00    -0.298 OA
ENDBRANCH   5   9
TORSDOF 1
ENDMDL
MODEL 7
REMARK VINA RESULT:      -4.5      2.908      4.813
REMARK  1 active torsions:
REMARK  status: ('A' for Active; 'I' for Inactive)
REMARK    1  A    between atoms: C1_1  and  C6_6 
ROOT
HETATM    1  C2  UNL     1     -35.214  16.048  -1.877  1.00 20.00     0.002 C 
HETATM    2  C3  UNL     1     -34.287  17.163  -1.403  1.00 20.00     0.012 C 
HETATM    3  C4  UNL     1     -35.451  16.113  -3.385  1.00 20.00     0.009 C 
HETATM    4  C5  UNL     1     -33.209  17.243  -3.690  1.00 20.00     0.021 C 
HETATM    5  C6  UNL     1     -32.970  17.173  -2.179  1.00 20.00     0.055 C 
HETATM    6  C7  UNL     1     -34.147  16.132  -4.214  1.00 20.00    -0.047 C 
HETATM    7  C9  UNL     1     -34.493  16.420  -5.687  1.00 20.00     0.015 C 
HETATM    8  C10 UNL     1     -33.448  14.759  -4.154  1.00 20.00     0.015 C 
ENDROOT
BRANCH   5   9
HETATM    9  C1  UNL     1     -32.154  18.352  -1.742  1.00 20.00     0.127 C 
HETATM   10  C8  UNL     1     -31.710  18.372  -0.304  1.00 20.00     0.091 C 
HETATM   11  O11 UNL     1     -31.862  19.260  -2.519  1.00 20.00    -0.298 OA
ENDBRANCH   5   9
TORSDOF 1
ENDMDL
MODEL 8
REMARK VINA RESULT:      -4.4      2.437      4.123
REMARK  1 active torsions:
REMARK  status: ('A' for Active; 'I' for Inactive)
REMARK    1  A    between atoms: C1_1  and  C6_6 
ROOT
HETATM    1  C2  UNL     1     -32.819  17.377  -2.706  1.00 20.00     0.002 C 
HETATM    2  C3  UNL     1     -33.652  17.644  -1.456  1.00 20.00     0.012 C 
HETATM    3  C4  UNL     1     -33.065  15.974  -3.260  1.00 20.00     0.009 C 
HETATM    4  C5  UNL     1     -35.386  15.983  -2.252  1.00 20.00     0.021 C 
HETATM    5  C6  UNL     1     -35.139  17.390  -1.701  1.00 20.00     0.055 C 
HETATM    6  C7  UNL     1     -34.558  15.668  -3.519  1.00 20.00    -0.047 C 
HETATM    7  C9  UNL     1     -34.711  14.173  -3.859  1.00 20.00     0.015 C 
HETATM    8  C10 UNL     1     -35.077  16.481  -4.721  1.00 20.00     0.015 C 
ENDROOT
BRANCH   5   9
HETATM    9  C1  UNL     1     -35.884  17.566  -0.412  1.00 20.00     0.127 C 
HETATM   10  C8  UNL     1     -35.088  17.409   0.856  1.00 20.00     0.091 C 
HETATM   11  O11 UNL     1     -37.086  17.825  -0.391  1.00 20.00    -0.298 OA
ENDBRANCH   5   9
TORSDOF 1
ENDMDL
MODEL 9
REMARK VINA RESULT:      -4.3      1.714      2.477
REMARK  1 active torsions:
REMARK  status: ('A' for Active; 'I' for Inactive)
REMARK    1  A    between atoms: C1_1  and  C6_6 
ROOT
HETATM    1  C2  UNL     1     -34.846  16.789  -6.046  1.00 20.00     0.002 C 
HETATM    2  C3  UNL     1     -36.269  16.338  -5.733  1.00 20.00     0.012 C 
HETATM    3  C4  UNL     1     -34.085  17.178  -4.780  1.00 20.00     0.009 C 
HETATM    4  C5  UNL     1     -35.533  15.607  -3.426  1.00 20.00     0.021 C 
HETATM    5  C6  UNL     1     -36.292  15.215  -4.697  1.00 20.00     0.055 C 
HETATM    6  C7  UNL     1     -34.085  16.074  -3.697  1.00 20.00    -0.047 C 
HETATM    7  C9  UNL     1     -33.491  16.647  -2.397  1.00 20.00     0.015 C 
HETATM    8  C10 UNL     1     -33.205  14.887  -4.135  1.00 20.00     0.015 C 
ENDROOT
BRANCH   5   9
HETATM    9  C1  UNL     1     -37.716  14.894  -4.356  1.00 20.00     0.127 C 
HETATM   10  C8  UNL     1     -38.610  16.057  -4.017  1.00 20.00     0.091 C 
HETATM   11  O11 UNL     1     -38.135  13.737  -4.354  1.00 20.00    -0.298 OA
ENDBRANCH   5   9
TORSDOF 1
ENDMDL
