MODEL 1
REMARK VINA RESULT:      -4.7      0.000      0.000
REMARK  1 active torsions:
REMARK  status: ('A' for Active; 'I' for Inactive)
REMARK    1  A    between atoms: C1_1  and  C4_4 
ROOT
HETATM    1  C3  UNL     1     -34.014   6.415   4.326  1.00 20.00    -0.024 C 
HETATM    2  C4  UNL     1     -33.361   6.134   3.179  1.00 20.00    -0.066 C 
HETATM    3  C6  UNL     1     -34.732   5.482   5.248  1.00 20.00     0.036 C 
HETATM    4  C7  UNL     1     -33.241   4.750   2.595  1.00 20.00     0.048 C 
ENDROOT
BRANCH   2   5
HETATM    5  C1  UNL     1     -32.728   7.234   2.447  1.00 20.00     0.002 C 
HETATM    6  C2  UNL     1     -33.191   7.834   1.338  1.00 20.00    -0.030 C 
HETATM    7  C5  UNL     1     -32.480   8.954   0.649  1.00 20.00     0.036 C 
ENDBRANCH   2   5
TORSDOF 1
ENDMDL
MODEL 2
REMARK VINA RESULT:      -4.5      0.740      3.971
REMARK  1 active torsions:
REMARK  status: ('A' for Active; 'I' for Inactive)
REMARK    1  A    between atoms: C1_1  and  C4_4 
ROOT
HETATM    1  C3  UNL     1     -32.743   7.526   2.307  1.00 20.00    -0.024 C 
HETATM    2  C4  UNL     1     -33.169   6.360   2.837  1.00 20.00    -0.066 C 
HETATM    3  C6  UNL     1     -32.162   7.782   0.953  1.00 20.00     0.036 C 
HETATM    4  C7  UNL     1     -33.124   5.039   2.114  1.00 20.00     0.048 C 
ENDROOT
BRANCH   2   5
HETATM    5  C1  UNL     1     -33.707   6.367   4.199  1.00 20.00     0.002 C 
HETATM    6  C2  UNL     1     -34.484   5.427   4.763  1.00 20.00    -0.030 C 
HETATM    7  C5  UNL     1     -34.993   5.510   6.165  1.00 20.00     0.036 C 
ENDBRANCH   2   5
TORSDOF 1
ENDMDL
MODEL 3
REMARK VINA RESULT:      -4.2      0.900      1.542
REMARK  1 active torsions:
REMARK  status: ('A' for Active; 'I' for Inactive)
REMARK    1  A    between atoms: C1_1  and  C4_4 
ROOT
HETATM    1  C3  UNL     1     -34.128   5.427   3.594  1.00 20.00    -0.024 C 
HETATM    2  C4  UNL     1     -33.362   6.519   3.799  1.00 20.00    -0.066 C 
HETATM    3  C6  UNL     1     -35.020   4.715   4.561  1.00 20.00     0.036 C 
HETATM    4  C7  UNL     1     -33.265   7.247   5.114  1.00 20.00     0.048 C 
ENDROOT
BRANCH   2   5
HETATM    5  C1  UNL     1     -32.569   7.036   2.681  1.00 20.00     0.002 C 
HETATM    6  C2  UNL     1     -33.015   7.771   1.649  1.00 20.00    -0.030 C 
HETATM    7  C5  UNL     1     -32.135   8.260   0.544  1.00 20.00     0.036 C 
ENDBRANCH   2   5
TORSDOF 1
ENDMDL
MODEL 4
REMARK VINA RESULT:      -4.1      0.744      4.083
REMARK  1 active torsions:
REMARK  status: ('A' for Active; 'I' for Inactive)
REMARK    1  A    between atoms: C1_1  and  C4_4 
ROOT
HETATM    1  C3  UNL     1     -33.122   7.664   1.433  1.00 20.00    -0.024 C 
HETATM    2  C4  UNL     1     -32.696   7.142   2.602  1.00 20.00    -0.066 C 
HETATM    3  C6  UNL     1     -32.578   8.834   0.676  1.00 20.00     0.036 C 
HETATM    4  C7  UNL     1     -31.534   7.684   3.393  1.00 20.00     0.048 C 
ENDROOT
BRANCH   2   5
HETATM    5  C1  UNL     1     -33.400   5.978   3.146  1.00 20.00     0.002 C 
HETATM    6  C2  UNL     1     -34.265   5.968   4.174  1.00 20.00    -0.030 C 
HETATM    7  C5  UNL     1     -34.943   4.732   4.670  1.00 20.00     0.036 C 
ENDBRANCH   2   5
TORSDOF 1
ENDMDL
MODEL 5
REMARK VINA RESULT:      -3.8     10.711     11.087
REMARK  1 active torsions:
REMARK  status: ('A' for Active; 'I' for Inactive)
REMARK    1  A    between atoms: C1_1  and  C4_4 
ROOT
HETATM    1  C3  UNL     1     -35.665  14.676  -3.706  1.00 20.00    -0.024 C 
HETATM    2  C4  UNL     1     -34.381  15.060  -3.548  1.00 20.00    -0.066 C 
HETATM    3  C6  UNL     1     -36.236  13.696  -4.681  1.00 20.00     0.036 C 
HETATM    4  C7  UNL     1     -33.237  14.539  -4.379  1.00 20.00     0.048 C 
ENDROOT
BRANCH   2   5
HETATM    5  C1  UNL     1     -34.068  16.044  -2.510  1.00 20.00     0.002 C 
HETATM    6  C2  UNL     1     -33.062  16.934  -2.520  1.00 20.00    -0.030 C 
HETATM    7  C5  UNL     1     -32.810  17.908  -1.416  1.00 20.00     0.036 C 
ENDBRANCH   2   5
TORSDOF 1
ENDMDL
MODEL 6
REMARK VINA RESULT:      -3.8     10.640     11.386
REMARK  1 active torsions:
REMARK  status: ('A' for Active; 'I' for Inactive)
REMARK    1  A    between atoms: C1_1  and  C4_4 
ROOT
HETATM    1  C3  UNL     1     -33.075  16.852  -2.560  1.00 20.00    -0.024 C 
HETATM    2  C4  UNL     1     -34.262  16.252  -2.333  1.00 20.00    -0.066 C 
HETATM    3  C6  UNL     1     -32.452  18.001  -1.831  1.00 20.00     0.036 C 
HETATM    4  C7  UNL     1     -35.221  16.663  -1.245  1.00 20.00     0.048 C 
ENDROOT
BRANCH   2   5
HETATM    5  C1  UNL     1     -34.654  15.132  -3.191  1.00 20.00     0.002 C 
HETATM    6  C2  UNL     1     -35.875  14.896  -3.700  1.00 20.00    -0.030 C 
HETATM    7  C5  UNL     1     -36.194  13.724  -4.571  1.00 20.00     0.036 C 
ENDBRANCH   2   5
TORSDOF 1
ENDMDL
MODEL 7
REMARK VINA RESULT:      -3.8     10.717     10.995
REMARK  1 active torsions:
REMARK  status: ('A' for Active; 'I' for Inactive)
REMARK    1  A    between atoms: C1_1  and  C4_4 
ROOT
HETATM    1  C3  UNL     1     -35.698  14.668  -3.712  1.00 20.00    -0.024 C 
HETATM    2  C4  UNL     1     -34.428  15.079  -3.518  1.00 20.00    -0.066 C 
HETATM    3  C6  UNL     1     -36.222  13.689  -4.714  1.00 20.00     0.036 C 
HETATM    4  C7  UNL     1     -33.252  14.598  -4.329  1.00 20.00     0.048 C 
ENDROOT
BRANCH   2   5
HETATM    5  C1  UNL     1     -34.163  16.055  -2.458  1.00 20.00     0.002 C 
HETATM    6  C2  UNL     1     -35.041  16.524  -1.557  1.00 20.00    -0.030 C 
HETATM    7  C5  UNL     1     -34.689  17.524  -0.504  1.00 20.00     0.036 C 
ENDBRANCH   2   5
TORSDOF 1
ENDMDL
MODEL 8
REMARK VINA RESULT:      -3.8     10.653     11.116
REMARK  1 active torsions:
REMARK  status: ('A' for Active; 'I' for Inactive)
REMARK    1  A    between atoms: C1_1  and  C4_4 
ROOT
HETATM    1  C3  UNL     1     -35.090  16.475  -1.380  1.00 20.00    -0.024 C 
HETATM    2  C4  UNL     1     -34.293  16.154  -2.420  1.00 20.00    -0.066 C 
HETATM    3  C6  UNL     1     -34.903  17.546  -0.352  1.00 20.00     0.036 C 
HETATM    4  C7  UNL     1     -32.999  16.858  -2.738  1.00 20.00     0.048 C 
ENDROOT
BRANCH   2   5
HETATM    5  C1  UNL     1     -34.698  15.055  -3.298  1.00 20.00     0.002 C 
HETATM    6  C2  UNL     1     -35.929  14.821  -3.781  1.00 20.00    -0.030 C 
HETATM    7  C5  UNL     1     -36.260  13.670  -4.675  1.00 20.00     0.036 C 
ENDBRANCH   2   5
TORSDOF 1
ENDMDL
MODEL 9
REMARK VINA RESULT:      -3.7     10.694     11.440
REMARK  1 active torsions:
REMARK  status: ('A' for Active; 'I' for Inactive)
REMARK    1  A    between atoms: C1_1  and  C4_4 
ROOT
HETATM    1  C3  UNL     1     -34.286  15.123  -3.331  1.00 20.00    -0.024 C 
HETATM    2  C4  UNL     1     -34.096  16.185  -2.520  1.00 20.00    -0.066 C 
HETATM    3  C6  UNL     1     -33.405  14.614  -4.427  1.00 20.00     0.036 C 
HETATM    4  C7  UNL     1     -32.897  17.094  -2.587  1.00 20.00     0.048 C 
ENDROOT
BRANCH   2   5
HETATM    5  C1  UNL     1     -35.114  16.483  -1.509  1.00 20.00     0.002 C 
HETATM    6  C2  UNL     1     -34.980  17.293  -0.446  1.00 20.00    -0.030 C 
HETATM    7  C5  UNL     1     -36.072  17.543   0.543  1.00 20.00     0.036 C 
ENDBRANCH   2   5
TORSDOF 1
ENDMDL
