MODEL 1
REMARK VINA RESULT:      -5.0      0.000      0.000
REMARK  1 active torsions:
REMARK  status: ('A' for Active; 'I' for Inactive)
REMARK    1  A    between atoms: C9_9  and  O10_10 
ROOT
HETATM    1  C1  UNL     1     -34.271  17.788  -0.715  1.00 20.00     0.001 C 
HETATM    2  C2  UNL     1     -35.458  16.934  -1.190  1.00 20.00     0.005 C 
HETATM    3  C3  UNL     1     -33.104  17.486  -1.669  1.00 20.00     0.005 C 
HETATM    4  C4  UNL     1     -35.744  15.270  -3.163  1.00 20.00     0.007 C 
HETATM    5  C5  UNL     1     -34.910  14.403  -4.112  1.00 20.00     0.032 C 
HETATM    6  C6  UNL     1     -32.880  15.905  -3.715  1.00 20.00     0.036 C 
HETATM    7  C7  UNL     1     -34.828  15.930  -2.143  1.00 20.00    -0.010 C 
HETATM    8  C8  UNL     1     -33.766  16.777  -2.841  1.00 20.00    -0.008 C 
HETATM    9  C9  UNL     1     -33.742  15.172  -4.752  1.00 20.00     0.118 C 
ENDROOT
BRANCH   9  10
HETATM   10  O10 UNL     1     -32.913  14.268  -5.474  1.00 20.00    -0.396 OA
HETATM   11  H26 UNL     1     -33.163  13.374  -5.189  1.00 20.00     0.210 HD
ENDBRANCH   9  10
TORSDOF 1
ENDMDL
MODEL 2
REMARK VINA RESULT:      -4.9      1.051      2.240
REMARK  1 active torsions:
REMARK  status: ('A' for Active; 'I' for Inactive)
REMARK    1  A    between atoms: C9_9  and  O10_10 
ROOT
HETATM    1  C1  UNL     1     -34.133  17.766  -1.141  1.00 20.00     0.001 C 
HETATM    2  C2  UNL     1     -32.986  17.265  -2.033  1.00 20.00     0.005 C 
HETATM    3  C3  UNL     1     -35.378  16.951  -1.529  1.00 20.00     0.005 C 
HETATM    4  C4  UNL     1     -32.862  15.432  -3.868  1.00 20.00     0.007 C 
HETATM    5  C5  UNL     1     -33.769  14.642  -4.819  1.00 20.00     0.032 C 
HETATM    6  C6  UNL     1     -35.770  15.084  -3.288  1.00 20.00     0.036 C 
HETATM    7  C7  UNL     1     -33.690  16.466  -3.120  1.00 20.00    -0.010 C 
HETATM    8  C8  UNL     1     -34.817  15.793  -2.341  1.00 20.00    -0.008 C 
HETATM    9  C9  UNL     1     -34.997  14.044  -4.112  1.00 20.00     0.118 C 
ENDROOT
BRANCH   9  10
HETATM   10  O10 UNL     1     -35.879  13.483  -5.078  1.00 20.00    -0.396 OA
HETATM   11  H26 UNL     1     -35.530  12.603  -5.294  1.00 20.00     0.210 HD
ENDBRANCH   9  10
TORSDOF 1
ENDMDL
MODEL 3
REMARK VINA RESULT:      -4.8     11.587     12.101
REMARK  1 active torsions:
REMARK  status: ('A' for Active; 'I' for Inactive)
REMARK    1  A    between atoms: C9_9  and  O10_10 
ROOT
HETATM    1  C1  UNL     1     -34.777   5.596   6.303  1.00 20.00     0.001 C 
HETATM    2  C2  UNL     1     -34.899   4.670   5.082  1.00 20.00     0.005 C 
HETATM    3  C3  UNL     1     -33.930   6.799   5.859  1.00 20.00     0.005 C 
HETATM    4  C4  UNL     1     -34.003   4.847   2.651  1.00 20.00     0.007 C 
HETATM    5  C5  UNL     1     -32.921   5.563   1.835  1.00 20.00     0.032 C 
HETATM    6  C6  UNL     1     -32.792   7.403   3.606  1.00 20.00     0.036 C 
HETATM    7  C7  UNL     1     -33.835   5.187   4.124  1.00 20.00    -0.010 C 
HETATM    8  C8  UNL     1     -33.918   6.697   4.341  1.00 20.00    -0.008 C 
HETATM    9  C9  UNL     1     -32.871   7.075   2.108  1.00 20.00     0.118 C 
ENDROOT
BRANCH   9  10
HETATM   10  O10 UNL     1     -31.737   7.641   1.459  1.00 20.00    -0.396 OA
HETATM   11  H26 UNL     1     -31.299   6.916   0.984  1.00 20.00     0.210 HD
ENDBRANCH   9  10
TORSDOF 1
ENDMDL
MODEL 4
REMARK VINA RESULT:      -4.7      1.543      2.090
REMARK  1 active torsions:
REMARK  status: ('A' for Active; 'I' for Inactive)
REMARK    1  A    between atoms: C9_9  and  O10_10 
ROOT
HETATM    1  C1  UNL     1     -33.491  16.700  -2.213  1.00 20.00     0.001 C 
HETATM    2  C2  UNL     1     -34.928  16.197  -1.996  1.00 20.00     0.005 C 
HETATM    3  C3  UNL     1     -33.117  16.346  -3.662  1.00 20.00     0.005 C 
HETATM    4  C4  UNL     1     -36.622  15.000  -3.557  1.00 20.00     0.007 C 
HETATM    5  C5  UNL     1     -36.666  14.166  -4.843  1.00 20.00     0.032 C 
HETATM    6  C6  UNL     1     -34.413  15.140  -5.560  1.00 20.00     0.036 C 
HETATM    7  C7  UNL     1     -35.174  15.273  -3.179  1.00 20.00    -0.010 C 
HETATM    8  C8  UNL     1     -34.450  16.001  -4.309  1.00 20.00    -0.008 C 
HETATM    9  C9  UNL     1     -35.846  14.789  -5.985  1.00 20.00     0.118 C 
ENDROOT
BRANCH   9  10
HETATM   10  O10 UNL     1     -35.784  13.881  -7.079  1.00 20.00    -0.396 OA
HETATM   11  H26 UNL     1     -36.465  13.207  -6.919  1.00 20.00     0.210 HD
ENDBRANCH   9  10
TORSDOF 1
ENDMDL
MODEL 5
REMARK VINA RESULT:      -4.7     15.503     16.638
REMARK  1 active torsions:
REMARK  status: ('A' for Active; 'I' for Inactive)
REMARK    1  A    between atoms: C9_9  and  O10_10 
ROOT
HETATM    1  C1  UNL     1     -24.980  17.030  12.328  1.00 20.00     0.001 C 
HETATM    2  C2  UNL     1     -25.354  18.293  11.535  1.00 20.00     0.005 C 
HETATM    3  C3  UNL     1     -23.908  16.297  11.505  1.00 20.00     0.005 C 
HETATM    4  C4  UNL     1     -24.511  19.262   9.279  1.00 20.00     0.007 C 
HETATM    5  C5  UNL     1     -23.799  18.827   7.994  1.00 20.00     0.032 C 
HETATM    6  C6  UNL     1     -22.792  16.822   9.221  1.00 20.00     0.036 C 
HETATM    7  C7  UNL     1     -24.768  18.044  10.154  1.00 20.00    -0.010 C 
HETATM    8  C8  UNL     1     -23.457  17.334  10.487  1.00 20.00    -0.008 C 
HETATM    9  C9  UNL     1     -22.534  17.995   8.265  1.00 20.00     0.118 C 
ENDROOT
BRANCH   9  10
HETATM   10  O10 UNL     1     -22.030  17.478   7.039  1.00 20.00    -0.396 OA
HETATM   11  H26 UNL     1     -21.703  16.584   7.228  1.00 20.00     0.210 HD
ENDBRANCH   9  10
TORSDOF 1
ENDMDL
MODEL 6
REMARK VINA RESULT:      -4.2     11.456     12.079
REMARK  1 active torsions:
REMARK  status: ('A' for Active; 'I' for Inactive)
REMARK    1  A    between atoms: C9_9  and  O10_10 
ROOT
HETATM    1  C1  UNL     1     -35.149   4.995   5.710  1.00 20.00     0.001 C 
HETATM    2  C2  UNL     1     -34.228   6.153   6.127  1.00 20.00     0.005 C 
HETATM    3  C3  UNL     1     -34.959   4.806   4.197  1.00 20.00     0.005 C 
HETATM    4  C4  UNL     1     -32.568   7.641   4.795  1.00 20.00     0.007 C 
HETATM    5  C5  UNL     1     -32.270   8.094   3.361  1.00 20.00     0.032 C 
HETATM    6  C6  UNL     1     -33.487   6.039   2.450  1.00 20.00     0.036 C 
HETATM    7  C7  UNL     1     -33.838   6.803   4.807  1.00 20.00    -0.010 C 
HETATM    8  C8  UNL     1     -33.693   5.593   3.887  1.00 20.00    -0.008 C 
HETATM    9  C9  UNL     1     -32.238   6.927   2.361  1.00 20.00     0.118 C 
ENDROOT
BRANCH   9  10
HETATM   10  O10 UNL     1     -32.137   7.435   1.036  1.00 20.00    -0.396 OA
HETATM   11  H26 UNL     1     -32.821   8.118   0.947  1.00 20.00     0.210 HD
ENDBRANCH   9  10
TORSDOF 1
ENDMDL
MODEL 7
REMARK VINA RESULT:      -4.2      2.472      4.373
REMARK  1 active torsions:
REMARK  status: ('A' for Active; 'I' for Inactive)
REMARK    1  A    between atoms: C9_9  and  O10_10 
ROOT
HETATM    1  C1  UNL     1     -34.173  14.614  -4.185  1.00 20.00     0.001 C 
HETATM    2  C2  UNL     1     -33.076  15.685  -4.059  1.00 20.00     0.005 C 
HETATM    3  C3  UNL     1     -35.169  14.871  -3.043  1.00 20.00     0.005 C 
HETATM    4  C4  UNL     1     -32.727  17.652  -2.401  1.00 20.00     0.007 C 
HETATM    5  C5  UNL     1     -33.155  18.115  -1.004  1.00 20.00     0.032 C 
HETATM    6  C6  UNL     1     -35.237  16.638  -1.143  1.00 20.00     0.036 C 
HETATM    7  C7  UNL     1     -33.288  16.263  -2.668  1.00 20.00    -0.010 C 
HETATM    8  C8  UNL     1     -34.811  16.266  -2.553  1.00 20.00    -0.008 C 
HETATM    9  C9  UNL     1     -34.674  18.020  -0.783  1.00 20.00     0.118 C 
ENDROOT
BRANCH   9  10
HETATM   10  O10 UNL     1     -34.976  18.292   0.580  1.00 20.00    -0.396 OA
HETATM   11  H26 UNL     1     -34.218  17.980   1.101  1.00 20.00     0.210 HD
ENDBRANCH   9  10
TORSDOF 1
ENDMDL
MODEL 8
REMARK VINA RESULT:      -4.1      1.660      2.774
REMARK  1 active torsions:
REMARK  status: ('A' for Active; 'I' for Inactive)
REMARK    1  A    between atoms: C9_9  and  O10_10 
ROOT
HETATM    1  C1  UNL     1     -32.814  18.877  -0.256  1.00 20.00     0.001 C 
HETATM    2  C2  UNL     1     -32.101  18.158  -1.413  1.00 20.00     0.005 C 
HETATM    3  C3  UNL     1     -34.265  18.369  -0.252  1.00 20.00     0.005 C 
HETATM    4  C4  UNL     1     -32.901  16.394  -3.142  1.00 20.00     0.007 C 
HETATM    5  C5  UNL     1     -34.188  15.851  -3.772  1.00 20.00     0.032 C 
HETATM    6  C6  UNL     1     -35.534  16.683  -1.763  1.00 20.00     0.036 C 
HETATM    7  C7  UNL     1     -33.238  17.565  -2.231  1.00 20.00    -0.010 C 
HETATM    8  C8  UNL     1     -34.223  17.137  -1.145  1.00 20.00    -0.008 C 
HETATM    9  C9  UNL     1     -35.270  15.520  -2.731  1.00 20.00     0.118 C 
ENDROOT
BRANCH   9  10
HETATM   10  O10 UNL     1     -36.487  15.195  -3.392  1.00 20.00    -0.396 OA
HETATM   11  H26 UNL     1     -36.469  15.654  -4.247  1.00 20.00     0.210 HD
ENDBRANCH   9  10
TORSDOF 1
ENDMDL
MODEL 9
REMARK VINA RESULT:      -4.1      2.051      3.647
REMARK  1 active torsions:
REMARK  status: ('A' for Active; 'I' for Inactive)
REMARK    1  A    between atoms: C9_9  and  O10_10 
ROOT
HETATM    1  C1  UNL     1     -34.876  14.387  -4.269  1.00 20.00     0.001 C 
HETATM    2  C2  UNL     1     -35.585  14.917  -3.011  1.00 20.00     0.005 C 
HETATM    3  C3  UNL     1     -33.596  15.222  -4.435  1.00 20.00     0.005 C 
HETATM    4  C4  UNL     1     -34.980  16.786  -1.312  1.00 20.00     0.007 C 
HETATM    5  C5  UNL     1     -34.112  18.043  -1.192  1.00 20.00     0.032 C 
HETATM    6  C6  UNL     1     -32.594  17.184  -3.062  1.00 20.00     0.036 C 
HETATM    7  C7  UNL     1     -34.889  16.241  -2.730  1.00 20.00    -0.010 C 
HETATM    8  C8  UNL     1     -33.440  15.923  -3.093  1.00 20.00    -0.008 C 
HETATM    9  C9  UNL     1     -32.667  17.818  -1.665  1.00 20.00     0.118 C 
ENDROOT
BRANCH   9  10
HETATM   10  O10 UNL     1     -31.974  19.060  -1.695  1.00 20.00    -0.396 OA
HETATM   11  H26 UNL     1     -32.650  19.756  -1.654  1.00 20.00     0.210 HD
ENDBRANCH   9  10
TORSDOF 1
ENDMDL
