MODEL 1
REMARK VINA RESULT:      -4.8      0.000      0.000
REMARK  1 active torsions:
REMARK  status: ('A' for Active; 'I' for Inactive)
REMARK    1  A    between atoms: C1_1  and  C6_6 
ROOT
HETATM    1  C2  UNL     1     -34.283  17.166  -4.435  1.00 20.00     0.005 C 
HETATM    2  C3  UNL     1     -35.699  16.934  -3.886  1.00 20.00     0.006 C 
HETATM    3  C4  UNL     1     -33.784  14.718  -4.270  1.00 20.00     0.017 C 
HETATM    4  C5  UNL     1     -34.141  16.061  -2.330  1.00 20.00     0.010 C 
HETATM    5  C6  UNL     1     -35.189  14.444  -3.709  1.00 20.00     0.059 C 
HETATM    6  C7  UNL     1     -33.451  16.108  -3.693  1.00 20.00    -0.013 C 
HETATM    7  C8  UNL     1     -35.511  15.739  -2.933  1.00 20.00    -0.003 C 
ENDROOT
BRANCH   5   8
HETATM    8  C1  UNL     1     -36.194  14.111  -4.767  1.00 20.00     0.127 C 
HETATM    9  C9  UNL     1     -35.771  14.326  -6.194  1.00 20.00     0.091 C 
HETATM   10  O10 UNL     1     -37.309  13.679  -4.482  1.00 20.00    -0.298 OA
ENDBRANCH   5   8
TORSDOF 1
ENDMDL
MODEL 2
REMARK VINA RESULT:      -4.6     16.161     17.870
REMARK  1 active torsions:
REMARK  status: ('A' for Active; 'I' for Inactive)
REMARK    1  A    between atoms: C1_1  and  C6_6 
ROOT
HETATM    1  C2  UNL     1     -24.108  16.356  10.302  1.00 20.00     0.005 C 
HETATM    2  C3  UNL     1     -22.982  16.644   9.299  1.00 20.00     0.006 C 
HETATM    3  C4  UNL     1     -24.922  18.716  10.116  1.00 20.00     0.017 C 
HETATM    4  C5  UNL     1     -22.806  18.189  11.086  1.00 20.00     0.010 C 
HETATM    5  C6  UNL     1     -23.803  19.049   9.116  1.00 20.00     0.059 C 
HETATM    6  C7  UNL     1     -24.251  17.691  11.051  1.00 20.00    -0.013 C 
HETATM    7  C8  UNL     1     -22.651  18.125   9.564  1.00 20.00    -0.003 C 
ENDROOT
BRANCH   5   8
HETATM    8  C1  UNL     1     -24.209  18.857   7.688  1.00 20.00     0.127 C 
HETATM    9  C9  UNL     1     -25.683  18.897   7.392  1.00 20.00     0.091 C 
HETATM   10  O10 UNL     1     -23.377  18.678   6.800  1.00 20.00    -0.298 OA
ENDBRANCH   5   8
TORSDOF 1
ENDMDL
MODEL 3
REMARK VINA RESULT:      -4.5     17.883     18.987
REMARK  1 active torsions:
REMARK  status: ('A' for Active; 'I' for Inactive)
REMARK    1  A    between atoms: C1_1  and  C6_6 
ROOT
HETATM    1  C2  UNL     1     -24.764  18.555  11.339  1.00 20.00     0.005 C 
HETATM    2  C3  UNL     1     -24.874  17.866   9.971  1.00 20.00     0.006 C 
HETATM    3  C4  UNL     1     -22.364  17.869  11.528  1.00 20.00     0.017 C 
HETATM    4  C5  UNL     1     -24.134  16.269  11.555  1.00 20.00     0.010 C 
HETATM    5  C6  UNL     1     -22.434  17.160  10.166  1.00 20.00     0.059 C 
HETATM    6  C7  UNL     1     -23.779  17.653  12.099  1.00 20.00    -0.013 C 
HETATM    7  C8  UNL     1     -23.899  16.680  10.099  1.00 20.00    -0.003 C 
ENDROOT
BRANCH   5   8
HETATM    8  C1  UNL     1     -22.035  18.037   9.020  1.00 20.00     0.127 C 
HETATM    9  C9  UNL     1     -21.805  17.357   7.698  1.00 20.00     0.091 C 
HETATM   10  O10 UNL     1     -21.905  19.252   9.153  1.00 20.00    -0.298 OA
ENDBRANCH   5   8
TORSDOF 1
ENDMDL
MODEL 4
REMARK VINA RESULT:      -4.5      1.280      1.377
REMARK  1 active torsions:
REMARK  status: ('A' for Active; 'I' for Inactive)
REMARK    1  A    between atoms: C1_1  and  C6_6 
ROOT
HETATM    1  C2  UNL     1     -34.120  17.777  -4.014  1.00 20.00     0.005 C 
HETATM    2  C3  UNL     1     -35.529  17.209  -3.791  1.00 20.00     0.006 C 
HETATM    3  C4  UNL     1     -33.118  15.505  -3.703  1.00 20.00     0.017 C 
HETATM    4  C5  UNL     1     -34.194  16.659  -1.913  1.00 20.00     0.010 C 
HETATM    5  C6  UNL     1     -34.509  14.896  -3.465  1.00 20.00     0.059 C 
HETATM    6  C7  UNL     1     -33.250  16.912  -3.089  1.00 20.00    -0.013 C 
HETATM    7  C8  UNL     1     -35.285  16.054  -2.801  1.00 20.00    -0.003 C 
ENDROOT
BRANCH   5   8
HETATM    8  C1  UNL     1     -35.152  14.380  -4.714  1.00 20.00     0.127 C 
HETATM    9  C9  UNL     1     -36.529  13.790  -4.572  1.00 20.00     0.091 C 
HETATM   10  O10 UNL     1     -34.584  14.439  -5.803  1.00 20.00    -0.298 OA
ENDBRANCH   5   8
TORSDOF 1
ENDMDL
MODEL 5
REMARK VINA RESULT:      -4.4      1.085      1.787
REMARK  1 active torsions:
REMARK  status: ('A' for Active; 'I' for Inactive)
REMARK    1  A    between atoms: C1_1  and  C6_6 
ROOT
HETATM    1  C2  UNL     1     -35.461  17.043  -2.891  1.00 20.00     0.005 C 
HETATM    2  C3  UNL     1     -35.055  15.674  -2.326  1.00 20.00     0.006 C 
HETATM    3  C4  UNL     1     -35.273  16.171  -5.230  1.00 20.00     0.017 C 
HETATM    4  C5  UNL     1     -33.363  16.401  -3.817  1.00 20.00     0.010 C 
HETATM    5  C6  UNL     1     -34.854  14.787  -4.706  1.00 20.00     0.059 C 
HETATM    6  C7  UNL     1     -34.653  17.130  -4.195  1.00 20.00    -0.013 C 
HETATM    7  C8  UNL     1     -34.100  15.124  -3.402  1.00 20.00    -0.003 C 
ENDROOT
BRANCH   5   8
HETATM    8  C1  UNL     1     -36.007  13.854  -4.511  1.00 20.00     0.127 C 
HETATM    9  C9  UNL     1     -37.379  14.471  -4.476  1.00 20.00     0.091 C 
HETATM   10  O10 UNL     1     -35.841  12.642  -4.388  1.00 20.00    -0.298 OA
ENDBRANCH   5   8
TORSDOF 1
ENDMDL
MODEL 6
REMARK VINA RESULT:      -4.4      1.094      1.181
REMARK  1 active torsions:
REMARK  status: ('A' for Active; 'I' for Inactive)
REMARK    1  A    between atoms: C1_1  and  C6_6 
ROOT
HETATM    1  C2  UNL     1     -34.659  17.710  -3.652  1.00 20.00     0.005 C 
HETATM    2  C3  UNL     1     -35.954  16.903  -3.827  1.00 20.00     0.006 C 
HETATM    3  C4  UNL     1     -33.312  15.600  -3.615  1.00 20.00     0.017 C 
HETATM    4  C5  UNL     1     -34.854  16.137  -1.875  1.00 20.00     0.010 C 
HETATM    5  C6  UNL     1     -34.585  14.755  -3.781  1.00 20.00     0.059 C 
HETATM    6  C7  UNL     1     -33.800  16.792  -2.768  1.00 20.00    -0.013 C 
HETATM    7  C8  UNL     1     -35.658  15.600  -3.062  1.00 20.00    -0.003 C 
ENDROOT
BRANCH   5   8
HETATM    8  C1  UNL     1     -34.915  14.453  -5.209  1.00 20.00     0.127 C 
HETATM    9  C9  UNL     1     -34.001  15.038  -6.252  1.00 20.00     0.091 C 
HETATM   10  O10 UNL     1     -35.882  13.759  -5.514  1.00 20.00    -0.298 OA
ENDBRANCH   5   8
TORSDOF 1
ENDMDL
MODEL 7
REMARK VINA RESULT:      -4.4      1.209      1.783
REMARK  1 active torsions:
REMARK  status: ('A' for Active; 'I' for Inactive)
REMARK    1  A    between atoms: C1_1  and  C6_6 
ROOT
HETATM    1  C2  UNL     1     -34.412  16.676  -3.285  1.00 20.00     0.005 C 
HETATM    2  C3  UNL     1     -35.019  15.398  -2.686  1.00 20.00     0.006 C 
HETATM    3  C4  UNL     1     -34.974  15.898  -5.597  1.00 20.00     0.017 C 
HETATM    4  C5  UNL     1     -33.355  14.773  -4.252  1.00 20.00     0.010 C 
HETATM    5  C6  UNL     1     -35.584  14.601  -5.040  1.00 20.00     0.059 C 
HETATM    6  C7  UNL     1     -33.821  16.183  -4.616  1.00 20.00    -0.013 C 
HETATM    7  C8  UNL     1     -34.743  14.341  -3.772  1.00 20.00    -0.003 C 
ENDROOT
BRANCH   5   8
HETATM    8  C1  UNL     1     -37.054  14.702  -4.777  1.00 20.00     0.127 C 
HETATM    9  C9  UNL     1     -37.699  16.034  -5.050  1.00 20.00     0.091 C 
HETATM   10  O10 UNL     1     -37.702  13.744  -4.362  1.00 20.00    -0.298 OA
ENDBRANCH   5   8
TORSDOF 1
ENDMDL
MODEL 8
REMARK VINA RESULT:      -4.4     10.714     11.982
REMARK  1 active torsions:
REMARK  status: ('A' for Active; 'I' for Inactive)
REMARK    1  A    between atoms: C1_1  and  C6_6 
ROOT
HETATM    1  C2  UNL     1     -42.991   8.295  -1.328  1.00 20.00     0.005 C 
HETATM    2  C3  UNL     1     -43.414   8.290   0.149  1.00 20.00     0.006 C 
HETATM    3  C4  UNL     1     -41.388   6.419  -0.909  1.00 20.00     0.017 C 
HETATM    4  C5  UNL     1     -41.066   8.583   0.044  1.00 20.00     0.010 C 
HETATM    5  C6  UNL     1     -41.776   6.386   0.578  1.00 20.00     0.059 C 
HETATM    6  C7  UNL     1     -41.504   7.915  -1.260  1.00 20.00    -0.013 C 
HETATM    7  C8  UNL     1     -42.127   7.859   0.877  1.00 20.00    -0.003 C 
ENDROOT
BRANCH   5   8
HETATM    8  C1  UNL     1     -42.887   5.430   0.880  1.00 20.00     0.127 C 
HETATM    9  C9  UNL     1     -43.416   4.622  -0.274  1.00 20.00     0.091 C 
HETATM   10  O10 UNL     1     -43.342   5.308   2.015  1.00 20.00    -0.298 OA
ENDBRANCH   5   8
TORSDOF 1
ENDMDL
MODEL 9
REMARK VINA RESULT:      -4.3     10.583     11.894
REMARK  1 active torsions:
REMARK  status: ('A' for Active; 'I' for Inactive)
REMARK    1  A    between atoms: C1_1  and  C6_6 
ROOT
HETATM    1  C2  UNL     1     -41.294   8.463  -0.613  1.00 20.00     0.005 C 
HETATM    2  C3  UNL     1     -42.388   7.917  -1.543  1.00 20.00     0.006 C 
HETATM    3  C4  UNL     1     -41.364   6.367   0.754  1.00 20.00     0.017 C 
HETATM    4  C5  UNL     1     -43.208   7.880   0.679  1.00 20.00     0.010 C 
HETATM    5  C6  UNL     1     -42.466   5.786  -0.148  1.00 20.00     0.059 C 
HETATM    6  C7  UNL     1     -41.680   7.875   0.753  1.00 20.00    -0.013 C 
HETATM    7  C8  UNL     1     -43.239   7.043  -0.602  1.00 20.00    -0.003 C 
ENDROOT
BRANCH   5   8
HETATM    8  C1  UNL     1     -41.935   4.964  -1.279  1.00 20.00     0.127 C 
HETATM    9  C9  UNL     1     -42.949   4.236  -2.120  1.00 20.00     0.091 C 
HETATM   10  O10 UNL     1     -40.730   4.890  -1.512  1.00 20.00    -0.298 OA
ENDBRANCH   5   8
TORSDOF 1
ENDMDL
