MODEL 1
REMARK VINA RESULT:      -4.0      0.000      0.000
REMARK  2 active torsions:
REMARK  status: ('A' for Active; 'I' for Inactive)
REMARK    1  A    between atoms: C2_2  and  C6_6 
REMARK    2  A    between atoms: C2_2  and  O9_9 
ROOT
HETATM    1  C1  UNL     1     -33.701  14.453  -4.420  1.00 20.00     0.079 C 
HETATM    2  C3  UNL     1     -35.199  16.230  -5.199  1.00 20.00     0.042 C 
HETATM    3  C4  UNL     1     -35.238  15.463  -2.799  1.00 20.00     0.042 C 
HETATM    4  C6  UNL     1     -35.056  15.027  -4.259  1.00 20.00     0.129 C 
HETATM    5  N7  UNL     1     -32.637  14.005  -4.546  1.00 20.00    -0.196 NA
ENDROOT
BRANCH   4   6
HETATM    6  C2  UNL     1     -36.109  13.971  -4.614  1.00 20.00     0.280 C 
HETATM    7  O8  UNL     1     -35.966  12.765  -4.455  1.00 20.00    -0.263 OA
BRANCH   6   8
HETATM    8  O9  UNL     1     -37.224  14.567  -5.133  1.00 20.00    -0.325 OA
HETATM    9  C5  UNL     1     -38.378  14.566  -4.287  1.00 20.00     0.213 C 
ENDBRANCH   6   8
ENDBRANCH   4   6
TORSDOF 2
ENDMDL
MODEL 2
REMARK VINA RESULT:      -3.9      1.395      2.020
REMARK  2 active torsions:
REMARK  status: ('A' for Active; 'I' for Inactive)
REMARK    1  A    between atoms: C2_2  and  C6_6 
REMARK    2  A    between atoms: C2_2  and  O9_9 
ROOT
HETATM    1  C1  UNL     1     -35.002  15.519  -3.006  1.00 20.00     0.079 C 
HETATM    2  C3  UNL     1     -33.435  14.282  -4.430  1.00 20.00     0.042 C 
HETATM    3  C4  UNL     1     -34.925  16.073  -5.393  1.00 20.00     0.042 C 
HETATM    4  C6  UNL     1     -34.817  14.945  -4.359  1.00 20.00     0.129 C 
HETATM    5  N7  UNL     1     -35.145  15.970  -1.946  1.00 20.00    -0.196 NA
ENDROOT
BRANCH   4   6
HETATM    6  C2  UNL     1     -35.902  13.897  -4.627  1.00 20.00     0.280 C 
HETATM    7  O8  UNL     1     -35.789  12.701  -4.389  1.00 20.00    -0.263 OA
BRANCH   6   8
HETATM    8  O9  UNL     1     -37.010  14.487  -5.170  1.00 20.00    -0.325 OA
HETATM    9  C5  UNL     1     -38.157  14.552  -4.317  1.00 20.00     0.213 C 
ENDBRANCH   6   8
ENDBRANCH   4   6
TORSDOF 2
ENDMDL
MODEL 3
REMARK VINA RESULT:      -3.9      1.375      1.979
REMARK  2 active torsions:
REMARK  status: ('A' for Active; 'I' for Inactive)
REMARK    1  A    between atoms: C2_2  and  C6_6 
REMARK    2  A    between atoms: C2_2  and  O9_9 
ROOT
HETATM    1  C1  UNL     1     -34.953  16.129  -5.141  1.00 20.00     0.079 C 
HETATM    2  C3  UNL     1     -35.045  15.425  -2.794  1.00 20.00     0.042 C 
HETATM    3  C4  UNL     1     -33.470  14.315  -4.418  1.00 20.00     0.042 C 
HETATM    4  C6  UNL     1     -34.852  14.956  -4.242  1.00 20.00     0.129 C 
HETATM    5  N7  UNL     1     -35.030  17.050  -5.844  1.00 20.00    -0.196 NA
ENDROOT
BRANCH   4   6
HETATM    6  C2  UNL     1     -35.940  13.938  -4.600  1.00 20.00     0.280 C 
HETATM    7  O8  UNL     1     -35.837  12.727  -4.445  1.00 20.00    -0.263 OA
BRANCH   6   8
HETATM    8  O9  UNL     1     -37.035  14.572  -5.115  1.00 20.00    -0.325 OA
HETATM    9  C5  UNL     1     -38.204  14.561  -4.289  1.00 20.00     0.213 C 
ENDBRANCH   6   8
ENDBRANCH   4   6
TORSDOF 2
ENDMDL
MODEL 4
REMARK VINA RESULT:      -3.9      2.684      3.562
REMARK  2 active torsions:
REMARK  status: ('A' for Active; 'I' for Inactive)
REMARK    1  A    between atoms: C2_2  and  C6_6 
REMARK    2  A    between atoms: C2_2  and  O9_9 
ROOT
HETATM    1  C1  UNL     1     -37.132  14.405  -4.522  1.00 20.00     0.079 C 
HETATM    2  C3  UNL     1     -34.761  14.196  -3.933  1.00 20.00     0.042 C 
HETATM    3  C4  UNL     1     -35.747  16.428  -4.566  1.00 20.00     0.042 C 
HETATM    4  C6  UNL     1     -35.776  14.917  -4.829  1.00 20.00     0.129 C 
HETATM    5  N7  UNL     1     -38.194  14.005  -4.279  1.00 20.00    -0.196 NA
ENDROOT
BRANCH   4   6
HETATM    6  C2  UNL     1     -35.444  14.645  -6.300  1.00 20.00     0.280 C 
HETATM    7  O8  UNL     1     -36.275  14.423  -7.172  1.00 20.00    -0.263 OA
BRANCH   6   8
HETATM    8  O9  UNL     1     -34.092  14.685  -6.499  1.00 20.00    -0.325 OA
HETATM    9  C5  UNL     1     -33.666  15.203  -7.763  1.00 20.00     0.213 C 
ENDBRANCH   6   8
ENDBRANCH   4   6
TORSDOF 2
ENDMDL
MODEL 5
REMARK VINA RESULT:      -3.9      2.194      3.150
REMARK  2 active torsions:
REMARK  status: ('A' for Active; 'I' for Inactive)
REMARK    1  A    between atoms: C2_2  and  C6_6 
REMARK    2  A    between atoms: C2_2  and  O9_9 
ROOT
HETATM    1  C1  UNL     1     -35.302  13.743  -4.291  1.00 20.00     0.079 C 
HETATM    2  C3  UNL     1     -32.949  14.435  -4.299  1.00 20.00     0.042 C 
HETATM    3  C4  UNL     1     -34.636  15.595  -2.828  1.00 20.00     0.042 C 
HETATM    4  C6  UNL     1     -34.402  14.915  -4.183  1.00 20.00     0.129 C 
HETATM    5  N7  UNL     1     -36.006  12.824  -4.373  1.00 20.00    -0.196 NA
ENDROOT
BRANCH   4   6
HETATM    6  C2  UNL     1     -34.706  15.904  -5.313  1.00 20.00     0.280 C 
HETATM    7  O8  UNL     1     -34.647  17.123  -5.206  1.00 20.00    -0.263 OA
BRANCH   6   8
HETATM    8  O9  UNL     1     -35.053  15.233  -6.453  1.00 20.00    -0.325 OA
HETATM    9  C5  UNL     1     -34.188  15.429  -7.575  1.00 20.00     0.213 C 
ENDBRANCH   6   8
ENDBRANCH   4   6
TORSDOF 2
ENDMDL
MODEL 6
REMARK VINA RESULT:      -3.8      2.610      3.568
REMARK  2 active torsions:
REMARK  status: ('A' for Active; 'I' for Inactive)
REMARK    1  A    between atoms: C2_2  and  C6_6 
REMARK    2  A    between atoms: C2_2  and  O9_9 
ROOT
HETATM    1  C1  UNL     1     -35.249  13.841  -4.302  1.00 20.00     0.079 C 
HETATM    2  C3  UNL     1     -34.649  15.953  -5.394  1.00 20.00     0.042 C 
HETATM    3  C4  UNL     1     -32.874  14.426  -4.462  1.00 20.00     0.042 C 
HETATM    4  C6  UNL     1     -34.294  14.973  -4.269  1.00 20.00     0.129 C 
HETATM    5  N7  UNL     1     -35.997  12.954  -4.331  1.00 20.00    -0.196 NA
ENDROOT
BRANCH   4   6
HETATM    6  C2  UNL     1     -34.389  15.688  -2.917  1.00 20.00     0.280 C 
HETATM    7  O8  UNL     1     -35.405  15.756  -2.235  1.00 20.00    -0.263 OA
BRANCH   6   8
HETATM    8  O9  UNL     1     -33.183  16.238  -2.583  1.00 20.00    -0.325 OA
HETATM    9  C5  UNL     1     -33.214  17.618  -2.206  1.00 20.00     0.213 C 
ENDBRANCH   6   8
ENDBRANCH   4   6
TORSDOF 2
ENDMDL
MODEL 7
REMARK VINA RESULT:      -3.7      2.221      3.162
REMARK  2 active torsions:
REMARK  status: ('A' for Active; 'I' for Inactive)
REMARK    1  A    between atoms: C2_2  and  C6_6 
REMARK    2  A    between atoms: C2_2  and  O9_9 
ROOT
HETATM    1  C1  UNL     1     -35.324  13.827  -4.292  1.00 20.00     0.079 C 
HETATM    2  C3  UNL     1     -33.048  14.740  -4.260  1.00 20.00     0.042 C 
HETATM    3  C4  UNL     1     -34.796  15.560  -2.640  1.00 20.00     0.042 C 
HETATM    4  C6  UNL     1     -34.536  15.061  -4.067  1.00 20.00     0.129 C 
HETATM    5  N7  UNL     1     -35.939  12.858  -4.465  1.00 20.00    -0.196 NA
ENDROOT
BRANCH   4   6
HETATM    6  C2  UNL     1     -34.963  16.135  -5.073  1.00 20.00     0.280 C 
HETATM    7  O8  UNL     1     -35.274  15.914  -6.237  1.00 20.00    -0.263 OA
BRANCH   6   8
HETATM    8  O9  UNL     1     -34.946  17.370  -4.487  1.00 20.00    -0.325 OA
HETATM    9  C5  UNL     1     -34.101  18.341  -5.112  1.00 20.00     0.213 C 
ENDBRANCH   6   8
ENDBRANCH   4   6
TORSDOF 2
ENDMDL
MODEL 8
REMARK VINA RESULT:      -3.7     10.191     11.498
REMARK  2 active torsions:
REMARK  status: ('A' for Active; 'I' for Inactive)
REMARK    1  A    between atoms: C2_2  and  C6_6 
REMARK    2  A    between atoms: C2_2  and  O9_9 
ROOT
HETATM    1  C1  UNL     1     -42.823   5.836   0.520  1.00 20.00     0.079 C 
HETATM    2  C3  UNL     1     -43.304   5.233  -1.808  1.00 20.00     0.042 C 
HETATM    3  C4  UNL     1     -40.930   5.458  -0.992  1.00 20.00     0.042 C 
HETATM    4  C6  UNL     1     -42.359   6.004  -0.877  1.00 20.00     0.129 C 
HETATM    5  N7  UNL     1     -43.186   5.702   1.614  1.00 20.00    -0.196 NA
ENDROOT
BRANCH   4   6
HETATM    6  C2  UNL     1     -42.373   7.490  -1.250  1.00 20.00     0.280 C 
HETATM    7  O8  UNL     1     -43.253   8.035  -1.905  1.00 20.00    -0.263 OA
BRANCH   6   8
HETATM    8  O9  UNL     1     -41.266   8.117  -0.750  1.00 20.00    -0.325 OA
HETATM    9  C5  UNL     1     -41.520   9.211   0.136  1.00 20.00     0.213 C 
ENDBRANCH   6   8
ENDBRANCH   4   6
TORSDOF 2
ENDMDL
MODEL 9
REMARK VINA RESULT:      -3.6      2.540      3.476
REMARK  2 active torsions:
REMARK  status: ('A' for Active; 'I' for Inactive)
REMARK    1  A    between atoms: C2_2  and  C6_6 
REMARK    2  A    between atoms: C2_2  and  O9_9 
ROOT
HETATM    1  C1  UNL     1     -37.213  14.450  -4.582  1.00 20.00     0.079 C 
HETATM    2  C3  UNL     1     -36.025  16.585  -4.786  1.00 20.00     0.042 C 
HETATM    3  C4  UNL     1     -35.576  14.695  -6.391  1.00 20.00     0.042 C 
HETATM    4  C6  UNL     1     -35.913  15.063  -4.941  1.00 20.00     0.129 C 
HETATM    5  N7  UNL     1     -38.233  13.971  -4.302  1.00 20.00    -0.196 NA
ENDROOT
BRANCH   4   6
HETATM    6  C2  UNL     1     -34.818  14.533  -4.009  1.00 20.00     0.280 C 
HETATM    7  O8  UNL     1     -34.359  13.398  -4.050  1.00 20.00    -0.263 OA
BRANCH   6   8
HETATM    8  O9  UNL     1     -34.430  15.504  -3.128  1.00 20.00    -0.325 OA
HETATM    9  C5  UNL     1     -33.086  15.972  -3.275  1.00 20.00     0.213 C 
ENDBRANCH   6   8
ENDBRANCH   4   6
TORSDOF 2
ENDMDL
