MODEL 1
REMARK VINA RESULT:      -4.6      0.000      0.000
REMARK  3 active torsions:
REMARK  status: ('A' for Active; 'I' for Inactive)
REMARK    1  A    between atoms: C4_4  and  C5_5 
REMARK    2  A    between atoms: C4_4  and  C6_6 
REMARK    3  A    between atoms: C5_5  and  N7_7 
ROOT
HETATM    1  C1  UNL     1     -32.516   7.946   1.551  1.00 20.00     0.157 C 
HETATM    2  N7  UNL     1     -32.159   7.312   2.474  1.00 20.00    -0.276 NA
HETATM    3  S8  UNL     1     -32.979   8.821   0.302  1.00 20.00    -0.055 SA
ENDROOT
BRANCH   2   4
HETATM    4  C5  UNL     1     -33.032   6.194   2.830  1.00 20.00     0.151 C 
BRANCH   4   5
HETATM    5  C4  UNL     1     -33.927   6.586   4.003  1.00 20.00     0.026 C 
BRANCH   5   6
HETATM    6  C6  UNL     1     -34.791   5.444   4.572  1.00 20.00    -0.021 C 
HETATM    7  C2  UNL     1     -34.319   4.105   3.998  1.00 20.00     0.009 C 
HETATM    8  C3  UNL     1     -34.756   5.390   6.100  1.00 20.00     0.009 C 
ENDBRANCH   5   6
ENDBRANCH   4   5
ENDBRANCH   2   4
TORSDOF 3
ENDMDL
MODEL 2
REMARK VINA RESULT:      -3.9      1.704      2.165
REMARK  3 active torsions:
REMARK  status: ('A' for Active; 'I' for Inactive)
REMARK    1  A    between atoms: C4_4  and  C5_5 
REMARK    2  A    between atoms: C4_4  and  C6_6 
REMARK    3  A    between atoms: C5_5  and  N7_7 
ROOT
HETATM    1  C1  UNL     1     -32.913   5.798   2.427  1.00 20.00     0.157 C 
HETATM    2  N7  UNL     1     -33.220   4.669   2.535  1.00 20.00    -0.276 NA
HETATM    3  S8  UNL     1     -32.479   7.321   2.260  1.00 20.00    -0.055 SA
ENDROOT
BRANCH   2   4
HETATM    4  C5  UNL     1     -34.209   4.396   3.579  1.00 20.00     0.151 C 
BRANCH   4   5
HETATM    5  C4  UNL     1     -34.880   5.698   4.013  1.00 20.00     0.026 C 
BRANCH   5   6
HETATM    6  C6  UNL     1     -34.806   5.995   5.524  1.00 20.00    -0.021 C 
HETATM    7  C2  UNL     1     -34.571   4.692   6.294  1.00 20.00     0.009 C 
HETATM    8  C3  UNL     1     -33.709   7.002   5.868  1.00 20.00     0.009 C 
ENDBRANCH   5   6
ENDBRANCH   4   5
ENDBRANCH   2   4
TORSDOF 3
ENDMDL
MODEL 3
REMARK VINA RESULT:      -3.8     11.247     11.901
REMARK  3 active torsions:
REMARK  status: ('A' for Active; 'I' for Inactive)
REMARK    1  A    between atoms: C4_4  and  C5_5 
REMARK    2  A    between atoms: C4_4  and  C6_6 
REMARK    3  A    between atoms: C5_5  and  N7_7 
ROOT
HETATM    1  C1  UNL     1     -38.015  14.593  -4.314  1.00 20.00     0.157 C 
HETATM    2  N7  UNL     1     -37.258  13.707  -4.470  1.00 20.00    -0.276 NA
HETATM    3  S8  UNL     1     -39.058  15.776  -4.094  1.00 20.00    -0.055 SA
ENDROOT
BRANCH   2   4
HETATM    4  C5  UNL     1     -35.935  14.103  -4.953  1.00 20.00     0.151 C 
BRANCH   4   5
HETATM    5  C4  UNL     1     -34.970  14.233  -3.776  1.00 20.00     0.026 C 
BRANCH   5   6
HETATM    6  C6  UNL     1     -34.563  15.678  -3.426  1.00 20.00    -0.021 C 
HETATM    7  C2  UNL     1     -35.086  16.038  -2.033  1.00 20.00     0.009 C 
HETATM    8  C3  UNL     1     -33.049  15.886  -3.477  1.00 20.00     0.009 C 
ENDBRANCH   5   6
ENDBRANCH   4   5
ENDBRANCH   2   4
TORSDOF 3
ENDMDL
MODEL 4
REMARK VINA RESULT:      -3.8     11.454     11.909
REMARK  3 active torsions:
REMARK  status: ('A' for Active; 'I' for Inactive)
REMARK    1  A    between atoms: C4_4  and  C5_5 
REMARK    2  A    between atoms: C4_4  and  C6_6 
REMARK    3  A    between atoms: C5_5  and  N7_7 
ROOT
HETATM    1  C1  UNL     1     -35.374  14.617  -6.402  1.00 20.00     0.157 C 
HETATM    2  N7  UNL     1     -36.122  13.941  -5.799  1.00 20.00    -0.276 NA
HETATM    3  S8  UNL     1     -34.374  15.529  -7.243  1.00 20.00    -0.055 SA
ENDROOT
BRANCH   2   4
HETATM    4  C5  UNL     1     -35.829  13.819  -4.370  1.00 20.00     0.151 C 
BRANCH   4   5
HETATM    5  C4  UNL     1     -35.847  15.199  -3.716  1.00 20.00     0.026 C 
BRANCH   5   6
HETATM    6  C6  UNL     1     -34.719  15.450  -2.696  1.00 20.00    -0.021 C 
HETATM    7  C2  UNL     1     -33.439  15.857  -3.433  1.00 20.00     0.009 C 
HETATM    8  C3  UNL     1     -35.086  16.523  -1.671  1.00 20.00     0.009 C 
ENDBRANCH   5   6
ENDBRANCH   4   5
ENDBRANCH   2   4
TORSDOF 3
ENDMDL
MODEL 5
REMARK VINA RESULT:      -3.7      2.990      4.325
REMARK  3 active torsions:
REMARK  status: ('A' for Active; 'I' for Inactive)
REMARK    1  A    between atoms: C4_4  and  C5_5 
REMARK    2  A    between atoms: C4_4  and  C6_6 
REMARK    3  A    between atoms: C5_5  and  N7_7 
ROOT
HETATM    1  C1  UNL     1     -34.505   4.701   4.632  1.00 20.00     0.157 C 
HETATM    2  N7  UNL     1     -34.325   4.055   3.667  1.00 20.00    -0.276 NA
HETATM    3  S8  UNL     1     -34.766   5.558   5.949  1.00 20.00    -0.055 SA
ENDROOT
BRANCH   2   4
HETATM    4  C5  UNL     1     -33.359   4.614   2.721  1.00 20.00     0.151 C 
BRANCH   4   5
HETATM    5  C4  UNL     1     -33.621   6.106   2.531  1.00 20.00     0.026 C 
BRANCH   5   6
HETATM    6  C6  UNL     1     -32.359   6.970   2.345  1.00 20.00    -0.021 C 
HETATM    7  C2  UNL     1     -32.626   8.054   1.296  1.00 20.00     0.009 C 
HETATM    8  C3  UNL     1     -31.897   7.619   3.650  1.00 20.00     0.009 C 
ENDBRANCH   5   6
ENDBRANCH   4   5
ENDBRANCH   2   4
TORSDOF 3
ENDMDL
MODEL 6
REMARK VINA RESULT:      -3.6     15.472     16.154
REMARK  3 active torsions:
REMARK  status: ('A' for Active; 'I' for Inactive)
REMARK    1  A    between atoms: C4_4  and  C5_5 
REMARK    2  A    between atoms: C4_4  and  C6_6 
REMARK    3  A    between atoms: C5_5  and  N7_7 
ROOT
HETATM    1  C1  UNL     1     -24.654  18.913   7.168  1.00 20.00     0.157 C 
HETATM    2  N7  UNL     1     -23.560  18.653   7.510  1.00 20.00    -0.276 NA
HETATM    3  S8  UNL     1     -26.130  19.262   6.680  1.00 20.00    -0.055 SA
ENDROOT
BRANCH   2   4
HETATM    4  C5  UNL     1     -23.344  18.677   8.957  1.00 20.00     0.151 C 
BRANCH   4   5
HETATM    5  C4  UNL     1     -24.260  17.661   9.637  1.00 20.00     0.026 C 
BRANCH   5   6
HETATM    6  C6  UNL     1     -23.583  16.798  10.720  1.00 20.00    -0.021 C 
HETATM    7  C2  UNL     1     -22.764  17.693  11.655  1.00 20.00     0.009 C 
HETATM    8  C3  UNL     1     -24.591  15.988  11.535  1.00 20.00     0.009 C 
ENDBRANCH   5   6
ENDBRANCH   4   5
ENDBRANCH   2   4
TORSDOF 3
ENDMDL
MODEL 7
REMARK VINA RESULT:      -3.5     11.433     12.113
REMARK  3 active torsions:
REMARK  status: ('A' for Active; 'I' for Inactive)
REMARK    1  A    between atoms: C4_4  and  C5_5 
REMARK    2  A    between atoms: C4_4  and  C6_6 
REMARK    3  A    between atoms: C5_5  and  N7_7 
ROOT
HETATM    1  C1  UNL     1     -36.211  14.392  -5.206  1.00 20.00     0.157 C 
HETATM    2  N7  UNL     1     -35.233  14.182  -5.824  1.00 20.00    -0.276 NA
HETATM    3  S8  UNL     1     -37.549  14.656  -4.383  1.00 20.00    -0.055 SA
ENDROOT
BRANCH   2   4
HETATM    4  C5  UNL     1     -34.094  15.037  -5.485  1.00 20.00     0.151 C 
BRANCH   4   5
HETATM    5  C4  UNL     1     -33.650  14.766  -4.049  1.00 20.00     0.026 C 
BRANCH   5   6
HETATM    6  C6  UNL     1     -33.629  16.003  -3.131  1.00 20.00    -0.021 C 
HETATM    7  C2  UNL     1     -33.676  17.276  -3.980  1.00 20.00     0.009 C 
HETATM    8  C3  UNL     1     -34.785  16.008  -2.130  1.00 20.00     0.009 C 
ENDBRANCH   5   6
ENDBRANCH   4   5
ENDBRANCH   2   4
TORSDOF 3
ENDMDL
MODEL 8
REMARK VINA RESULT:      -3.5     11.562     12.101
REMARK  3 active torsions:
REMARK  status: ('A' for Active; 'I' for Inactive)
REMARK    1  A    between atoms: C4_4  and  C5_5 
REMARK    2  A    between atoms: C4_4  and  C6_6 
REMARK    3  A    between atoms: C5_5  and  N7_7 
ROOT
HETATM    1  C1  UNL     1     -34.270  15.234  -6.212  1.00 20.00     0.157 C 
HETATM    2  N7  UNL     1     -33.802  14.353  -5.592  1.00 20.00    -0.276 NA
HETATM    3  S8  UNL     1     -34.910  16.412  -7.073  1.00 20.00    -0.055 SA
ENDROOT
BRANCH   2   4
HETATM    4  C5  UNL     1     -33.321  14.723  -4.260  1.00 20.00     0.151 C 
BRANCH   4   5
HETATM    5  C4  UNL     1     -34.501  15.091  -3.365  1.00 20.00     0.026 C 
BRANCH   5   6
HETATM    6  C6  UNL     1     -34.429  16.498  -2.740  1.00 20.00    -0.021 C 
HETATM    7  C2  UNL     1     -35.134  16.496  -1.381  1.00 20.00     0.009 C 
HETATM    8  C3  UNL     1     -32.991  16.991  -2.573  1.00 20.00     0.009 C 
ENDBRANCH   5   6
ENDBRANCH   4   5
ENDBRANCH   2   4
TORSDOF 3
ENDMDL
MODEL 9
REMARK VINA RESULT:      -3.4     11.549     12.100
REMARK  3 active torsions:
REMARK  status: ('A' for Active; 'I' for Inactive)
REMARK    1  A    between atoms: C4_4  and  C5_5 
REMARK    2  A    between atoms: C4_4  and  C6_6 
REMARK    3  A    between atoms: C5_5  and  N7_7 
ROOT
HETATM    1  C1  UNL     1     -34.899  15.136  -6.135  1.00 20.00     0.157 C 
HETATM    2  N7  UNL     1     -33.992  14.458  -5.822  1.00 20.00    -0.276 NA
HETATM    3  S8  UNL     1     -36.132  16.040  -6.582  1.00 20.00    -0.055 SA
ENDROOT
BRANCH   2   4
HETATM    4  C5  UNL     1     -33.399  14.781  -4.523  1.00 20.00     0.151 C 
BRANCH   4   5
HETATM    5  C4  UNL     1     -34.499  14.944  -3.476  1.00 20.00     0.026 C 
BRANCH   5   6
HETATM    6  C6  UNL     1     -34.201  15.983  -2.377  1.00 20.00    -0.021 C 
HETATM    7  C2  UNL     1     -33.123  16.955  -2.864  1.00 20.00     0.009 C 
HETATM    8  C3  UNL     1     -35.448  16.764  -1.959  1.00 20.00     0.009 C 
ENDBRANCH   5   6
ENDBRANCH   4   5
ENDBRANCH   2   4
TORSDOF 3
ENDMDL
