MODEL 1
REMARK VINA RESULT:      -3.9      0.000      0.000
REMARK  2 active torsions:
REMARK  status: ('A' for Active; 'I' for Inactive)
REMARK    1  A    between atoms: C1_1  and  C3_3 
REMARK    2  A    between atoms: C2_2  and  C3_3 
ROOT
HETATM    1  C3  UNL     1     -34.324   6.171   4.226  1.00 20.00     0.139 C 
HETATM    2 CL6  UNL     1     -33.101   6.045   2.925  1.00 20.00    -0.120 Cl
ENDROOT
BRANCH   1   3
HETATM    3  C1  UNL     1     -34.886   4.793   4.532  1.00 20.00     0.244 C 
HETATM    4  F4  UNL     1     -34.157   3.843   3.888  1.00 20.00    -0.254 F 
ENDBRANCH   1   3
BRANCH   1   5
HETATM    5  C2  UNL     1     -33.693   6.812   5.452  1.00 20.00     0.244 C 
HETATM    6  F5  UNL     1     -34.529   6.662   6.515  1.00 20.00    -0.254 F 
ENDBRANCH   1   5
TORSDOF 2
ENDMDL
MODEL 2
REMARK VINA RESULT:      -3.9      1.851      2.275
REMARK  2 active torsions:
REMARK  status: ('A' for Active; 'I' for Inactive)
REMARK    1  A    between atoms: C1_1  and  C3_3 
REMARK    2  A    between atoms: C2_2  and  C3_3 
ROOT
HETATM    1  C3  UNL     1     -34.276   6.288   4.210  1.00 20.00     0.139 C 
HETATM    2 CL6  UNL     1     -33.678   6.973   5.752  1.00 20.00    -0.120 Cl
ENDROOT
BRANCH   1   3
HETATM    3  C1  UNL     1     -33.151   6.274   3.189  1.00 20.00     0.244 C 
HETATM    4  F4  UNL     1     -33.111   5.069   2.561  1.00 20.00    -0.254 F 
ENDBRANCH   1   3
BRANCH   1   5
HETATM    5  C2  UNL     1     -34.833   4.895   4.460  1.00 20.00     0.244 C 
HETATM    6  F5  UNL     1     -35.032   4.727   5.795  1.00 20.00    -0.254 F 
ENDBRANCH   1   5
TORSDOF 2
ENDMDL
MODEL 3
REMARK VINA RESULT:      -3.9      1.613      2.897
REMARK  2 active torsions:
REMARK  status: ('A' for Active; 'I' for Inactive)
REMARK    1  A    between atoms: C1_1  and  C3_3 
REMARK    2  A    between atoms: C2_2  and  C3_3 
ROOT
HETATM    1  C3  UNL     1     -34.178   6.320   4.192  1.00 20.00     0.139 C 
HETATM    2 CL6  UNL     1     -34.594   4.579   4.173  1.00 20.00    -0.120 Cl
ENDROOT
BRANCH   1   3
HETATM    3  C1  UNL     1     -33.842   6.748   5.610  1.00 20.00     0.244 C 
HETATM    4  F4  UNL     1     -34.683   6.140   6.489  1.00 20.00    -0.254 F 
ENDBRANCH   1   3
BRANCH   1   5
HETATM    5  C2  UNL     1     -33.024   6.573   3.233  1.00 20.00     0.244 C 
HETATM    6  F5  UNL     1     -32.793   5.447   2.506  1.00 20.00    -0.254 F 
ENDBRANCH   1   5
TORSDOF 2
ENDMDL
MODEL 4
REMARK VINA RESULT:      -3.8      2.056      2.942
REMARK  2 active torsions:
REMARK  status: ('A' for Active; 'I' for Inactive)
REMARK    1  A    between atoms: C1_1  and  C3_3 
REMARK    2  A    between atoms: C2_2  and  C3_3 
ROOT
HETATM    1  C3  UNL     1     -34.359   6.212   4.284  1.00 20.00     0.139 C 
HETATM    2 CL6  UNL     1     -33.759   6.916   5.816  1.00 20.00    -0.120 Cl
ENDROOT
BRANCH   1   3
HETATM    3  C1  UNL     1     -33.260   6.263   3.236  1.00 20.00     0.244 C 
HETATM    4  F4  UNL     1     -32.296   7.142   3.619  1.00 20.00    -0.254 F 
ENDBRANCH   1   3
BRANCH   1   5
HETATM    5  C2  UNL     1     -34.838   4.790   4.535  1.00 20.00     0.244 C 
HETATM    6  F5  UNL     1     -34.126   3.934   3.753  1.00 20.00    -0.254 F 
ENDBRANCH   1   5
TORSDOF 2
ENDMDL
MODEL 5
REMARK VINA RESULT:      -3.4      0.574      2.643
REMARK  2 active torsions:
REMARK  status: ('A' for Active; 'I' for Inactive)
REMARK    1  A    between atoms: C1_1  and  C3_3 
REMARK    2  A    between atoms: C2_2  and  C3_3 
ROOT
HETATM    1  C3  UNL     1     -33.595   5.955   4.459  1.00 20.00     0.139 C 
HETATM    2 CL6  UNL     1     -33.040   6.881   3.030  1.00 20.00    -0.120 Cl
ENDROOT
BRANCH   1   3
HETATM    3  C1  UNL     1     -33.897   6.911   5.600  1.00 20.00     0.244 C 
HETATM    4  F4  UNL     1     -34.714   6.309   6.504  1.00 20.00    -0.254 F 
ENDBRANCH   1   3
BRANCH   1   5
HETATM    5  C2  UNL     1     -34.809   5.121   4.079  1.00 20.00     0.244 C 
HETATM    6  F5  UNL     1     -34.430   3.823   3.933  1.00 20.00    -0.254 F 
ENDBRANCH   1   5
TORSDOF 2
ENDMDL
MODEL 6
REMARK VINA RESULT:      -3.4      1.736      1.966
REMARK  2 active torsions:
REMARK  status: ('A' for Active; 'I' for Inactive)
REMARK    1  A    between atoms: C1_1  and  C3_3 
REMARK    2  A    between atoms: C2_2  and  C3_3 
ROOT
HETATM    1  C3  UNL     1     -33.791   5.945   4.483  1.00 20.00     0.139 C 
HETATM    2 CL6  UNL     1     -35.460   5.370   4.188  1.00 20.00    -0.120 Cl
ENDROOT
BRANCH   1   3
HETATM    3  C1  UNL     1     -33.244   6.591   3.221  1.00 20.00     0.244 C 
HETATM    4  F4  UNL     1     -32.774   5.634   2.378  1.00 20.00    -0.254 F 
ENDBRANCH   1   3
BRANCH   1   5
HETATM    5  C2  UNL     1     -33.790   6.908   5.660  1.00 20.00     0.244 C 
HETATM    6  F5  UNL     1     -34.693   6.483   6.585  1.00 20.00    -0.254 F 
ENDBRANCH   1   5
TORSDOF 2
ENDMDL
MODEL 7
REMARK VINA RESULT:      -3.4      2.178      2.471
REMARK  2 active torsions:
REMARK  status: ('A' for Active; 'I' for Inactive)
REMARK    1  A    between atoms: C1_1  and  C3_3 
REMARK    2  A    between atoms: C2_2  and  C3_3 
ROOT
HETATM    1  C3  UNL     1     -33.706   5.920   4.591  1.00 20.00     0.139 C 
HETATM    2 CL6  UNL     1     -34.079   6.997   5.971  1.00 20.00    -0.120 Cl
ENDROOT
BRANCH   1   3
HETATM    3  C1  UNL     1     -34.917   5.059   4.275  1.00 20.00     0.244 C 
HETATM    4  F4  UNL     1     -34.515   3.816   3.898  1.00 20.00    -0.254 F 
ENDBRANCH   1   3
BRANCH   1   5
HETATM    5  C2  UNL     1     -33.279   6.760   3.396  1.00 20.00     0.244 C 
HETATM    6  F5  UNL     1     -32.755   5.944   2.442  1.00 20.00    -0.254 F 
ENDBRANCH   1   5
TORSDOF 2
ENDMDL
MODEL 8
REMARK VINA RESULT:      -3.3      2.300      2.491
REMARK  2 active torsions:
REMARK  status: ('A' for Active; 'I' for Inactive)
REMARK    1  A    between atoms: C1_1  and  C3_3 
REMARK    2  A    between atoms: C2_2  and  C3_3 
ROOT
HETATM    1  C3  UNL     1     -33.472   6.392   3.028  1.00 20.00     0.139 C 
HETATM    2 CL6  UNL     1     -33.227   4.684   2.551  1.00 20.00    -0.120 Cl
ENDROOT
BRANCH   1   3
HETATM    3  C1  UNL     1     -33.951   6.456   4.468  1.00 20.00     0.244 C 
HETATM    4  F4  UNL     1     -35.125   5.780   4.595  1.00 20.00    -0.254 F 
ENDBRANCH   1   3
BRANCH   1   5
HETATM    5  C2  UNL     1     -32.176   7.162   2.826  1.00 20.00     0.244 C 
HETATM    6  F5  UNL     1     -31.756   7.650   4.025  1.00 20.00    -0.254 F 
ENDBRANCH   1   5
TORSDOF 2
ENDMDL
MODEL 9
REMARK VINA RESULT:      -3.3      1.470      2.371
REMARK  2 active torsions:
REMARK  status: ('A' for Active; 'I' for Inactive)
REMARK    1  A    between atoms: C1_1  and  C3_3 
REMARK    2  A    between atoms: C2_2  and  C3_3 
ROOT
HETATM    1  C3  UNL     1     -33.804   5.452   4.161  1.00 20.00     0.139 C 
HETATM    2 CL6  UNL     1     -33.519   4.998   2.453  1.00 20.00    -0.120 Cl
ENDROOT
BRANCH   1   3
HETATM    3  C1  UNL     1     -33.578   6.945   4.336  1.00 20.00     0.244 C 
HETATM    4  F4  UNL     1     -33.375   7.231   5.649  1.00 20.00    -0.254 F 
ENDBRANCH   1   3
BRANCH   1   5
HETATM    5  C2  UNL     1     -35.211   5.040   4.565  1.00 20.00     0.244 C 
HETATM    6  F5  UNL     1     -35.297   5.020   5.923  1.00 20.00    -0.254 F 
ENDBRANCH   1   5
TORSDOF 2
ENDMDL
