MODEL 1
REMARK VINA RESULT:      -4.8      0.000      0.000
REMARK  1 active torsions:
REMARK  status: ('A' for Active; 'I' for Inactive)
REMARK    1  A    between atoms: C3_3  and  C4_4 
ROOT
HETATM    1  C1  UNL     1     -33.289   4.950   2.772  1.00 20.00     0.197 C 
HETATM    2  C2  UNL     1     -32.953   6.412   2.678  1.00 20.00     0.197 C 
HETATM    3  C3  UNL     1     -34.451   6.105   4.337  1.00 20.00     0.369 C 
HETATM    4  O5  UNL     1     -34.512   4.936   3.509  1.00 20.00    -0.351 OA
HETATM    5  O6  UNL     1     -33.329   6.913   3.960  1.00 20.00    -0.351 OA
ENDROOT
BRANCH   3   6
HETATM    6  C4  UNL     1     -34.314   5.702   5.792  1.00 20.00     0.437 C 
HETATM    7  F7  UNL     1     -33.934   4.415   5.890  1.00 20.00    -0.166 F 
HETATM    8  F8  UNL     1     -33.394   6.466   6.408  1.00 20.00    -0.166 F 
HETATM    9  F9  UNL     1     -35.489   5.849   6.433  1.00 20.00    -0.166 F 
ENDBRANCH   3   6
TORSDOF 1
ENDMDL
MODEL 2
REMARK VINA RESULT:      -4.8      0.004      1.260
REMARK  1 active torsions:
REMARK  status: ('A' for Active; 'I' for Inactive)
REMARK    1  A    between atoms: C3_3  and  C4_4 
ROOT
HETATM    1  C1  UNL     1     -33.290   4.951   2.769  1.00 20.00     0.197 C 
HETATM    2  C2  UNL     1     -32.952   6.414   2.678  1.00 20.00     0.197 C 
HETATM    3  C3  UNL     1     -34.451   6.104   4.337  1.00 20.00     0.369 C 
HETATM    4  O5  UNL     1     -34.512   4.937   3.506  1.00 20.00    -0.351 OA
HETATM    5  O6  UNL     1     -33.328   6.912   3.962  1.00 20.00    -0.351 OA
ENDROOT
BRANCH   3   6
HETATM    6  C4  UNL     1     -34.314   5.698   5.791  1.00 20.00     0.437 C 
HETATM    7  F7  UNL     1     -33.393   6.461   6.408  1.00 20.00    -0.166 F 
HETATM    8  F8  UNL     1     -35.487   5.845   6.433  1.00 20.00    -0.166 F 
HETATM    9  F9  UNL     1     -33.934   4.411   5.886  1.00 20.00    -0.166 F 
ENDBRANCH   3   6
TORSDOF 1
ENDMDL
MODEL 3
REMARK VINA RESULT:      -4.6      2.443      3.450
REMARK  1 active torsions:
REMARK  status: ('A' for Active; 'I' for Inactive)
REMARK    1  A    between atoms: C3_3  and  C4_4 
ROOT
HETATM    1  C1  UNL     1     -33.988   6.047   5.932  1.00 20.00     0.197 C 
HETATM    2  C2  UNL     1     -34.966   5.154   5.219  1.00 20.00     0.197 C 
HETATM    3  C3  UNL     1     -34.086   6.613   3.740  1.00 20.00     0.369 C 
HETATM    4  O5  UNL     1     -33.842   7.156   5.044  1.00 20.00    -0.351 OA
HETATM    5  O6  UNL     1     -34.572   5.270   3.852  1.00 20.00    -0.351 OA
ENDROOT
BRANCH   3   6
HETATM    6  C4  UNL     1     -32.804   6.617   2.930  1.00 20.00     0.437 C 
HETATM    7  F7  UNL     1     -32.424   5.358   2.645  1.00 20.00    -0.166 F 
HETATM    8  F8  UNL     1     -32.980   7.281   1.773  1.00 20.00    -0.166 F 
HETATM    9  F9  UNL     1     -31.814   7.216   3.618  1.00 20.00    -0.166 F 
ENDBRANCH   3   6
TORSDOF 1
ENDMDL
MODEL 4
REMARK VINA RESULT:      -3.9      9.092      9.713
REMARK  1 active torsions:
REMARK  status: ('A' for Active; 'I' for Inactive)
REMARK    1  A    between atoms: C3_3  and  C4_4 
ROOT
HETATM    1  C1  UNL     1     -42.767   5.499  -1.072  1.00 20.00     0.197 C 
HETATM    2  C2  UNL     1     -41.323   5.230  -1.394  1.00 20.00     0.197 C 
HETATM    3  C3  UNL     1     -41.618   7.451  -1.126  1.00 20.00     0.369 C 
HETATM    4  O5  UNL     1     -42.918   6.891  -1.355  1.00 20.00    -0.351 OA
HETATM    5  O6  UNL     1     -40.663   6.403  -0.919  1.00 20.00    -0.351 OA
ENDROOT
BRANCH   3   6
HETATM    6  C4  UNL     1     -41.650   8.350   0.094  1.00 20.00     0.437 C 
HETATM    7  F7  UNL     1     -42.918   8.670   0.410  1.00 20.00    -0.166 F 
HETATM    8  F8  UNL     1     -41.091   7.732   1.150  1.00 20.00    -0.166 F 
HETATM    9  F9  UNL     1     -40.970   9.488  -0.141  1.00 20.00    -0.166 F 
ENDBRANCH   3   6
TORSDOF 1
ENDMDL
MODEL 5
REMARK VINA RESULT:      -3.9     16.051     16.790
REMARK  1 active torsions:
REMARK  status: ('A' for Active; 'I' for Inactive)
REMARK    1  A    between atoms: C3_3  and  C4_4 
ROOT
HETATM    1  C1  UNL     1     -22.397  18.486   9.345  1.00 20.00     0.197 C 
HETATM    2  C2  UNL     1     -23.815  18.791   8.945  1.00 20.00     0.197 C 
HETATM    3  C3  UNL     1     -23.794  16.935  10.228  1.00 20.00     0.369 C 
HETATM    4  O5  UNL     1     -22.454  17.118   9.752  1.00 20.00    -0.351 OA
HETATM    5  O6  UNL     1     -24.584  18.091   9.922  1.00 20.00    -0.351 OA
ENDROOT
BRANCH   3   6
HETATM    6  C4  UNL     1     -23.784  16.716  11.728  1.00 20.00     0.437 C 
HETATM    7  F7  UNL     1     -22.557  16.946  12.229  1.00 20.00    -0.166 F 
HETATM    8  F8  UNL     1     -24.653  17.546  12.332  1.00 20.00    -0.166 F 
HETATM    9  F9  UNL     1     -24.132  15.449  12.021  1.00 20.00    -0.166 F 
ENDBRANCH   3   6
TORSDOF 1
ENDMDL
MODEL 6
REMARK VINA RESULT:      -3.9      8.956      9.645
REMARK  1 active torsions:
REMARK  status: ('A' for Active; 'I' for Inactive)
REMARK    1  A    between atoms: C3_3  and  C4_4 
ROOT
HETATM    1  C1  UNL     1     -41.929   5.513  -0.421  1.00 20.00     0.197 C 
HETATM    2  C2  UNL     1     -42.783   5.498   0.817  1.00 20.00     0.197 C 
HETATM    3  C3  UNL     1     -41.548   7.386   0.795  1.00 20.00     0.369 C 
HETATM    4  O5  UNL     1     -40.920   6.476  -0.118  1.00 20.00    -0.351 OA
HETATM    5  O6  UNL     1     -42.824   6.873   1.197  1.00 20.00    -0.351 OA
ENDROOT
BRANCH   3   6
HETATM    6  C4  UNL     1     -41.735   8.737   0.132  1.00 20.00     0.437 C 
HETATM    7  F7  UNL     1     -41.170   9.707   0.875  1.00 20.00    -0.166 F 
HETATM    8  F8  UNL     1     -41.164   8.747  -1.086  1.00 20.00    -0.166 F 
HETATM    9  F9  UNL     1     -43.044   9.015  -0.008  1.00 20.00    -0.166 F 
ENDBRANCH   3   6
TORSDOF 1
ENDMDL
MODEL 7
REMARK VINA RESULT:      -3.8     16.161     16.680
REMARK  1 active torsions:
REMARK  status: ('A' for Active; 'I' for Inactive)
REMARK    1  A    between atoms: C3_3  and  C4_4 
ROOT
HETATM    1  C1  UNL     1     -25.500  19.173   8.185  1.00 20.00     0.197 C 
HETATM    2  C2  UNL     1     -24.568  19.208   7.004  1.00 20.00     0.197 C 
HETATM    3  C3  UNL     1     -23.394  18.671   8.855  1.00 20.00     0.369 C 
HETATM    4  O5  UNL     1     -24.620  19.263   9.306  1.00 20.00    -0.351 OA
HETATM    5  O6  UNL     1     -23.460  18.424   7.445  1.00 20.00    -0.351 OA
ENDROOT
BRANCH   3   6
HETATM    6  C4  UNL     1     -23.153  17.363   9.584  1.00 20.00     0.437 C 
HETATM    7  F7  UNL     1     -22.435  16.523   8.816  1.00 20.00    -0.166 F 
HETATM    8  F8  UNL     1     -22.476  17.579  10.726  1.00 20.00    -0.166 F 
HETATM    9  F9  UNL     1     -24.323  16.770   9.886  1.00 20.00    -0.166 F 
ENDBRANCH   3   6
TORSDOF 1
ENDMDL
MODEL 8
REMARK VINA RESULT:      -3.8      1.106      1.947
REMARK  1 active torsions:
REMARK  status: ('A' for Active; 'I' for Inactive)
REMARK    1  A    between atoms: C3_3  and  C4_4 
ROOT
HETATM    1  C1  UNL     1     -33.141   6.531   2.517  1.00 20.00     0.197 C 
HETATM    2  C2  UNL     1     -33.158   5.055   2.229  1.00 20.00     0.197 C 
HETATM    3  C3  UNL     1     -33.562   5.384   4.425  1.00 20.00     0.369 C 
HETATM    4  O5  UNL     1     -32.968   6.593   3.933  1.00 20.00    -0.351 OA
HETATM    5  O6  UNL     1     -33.893   4.521   3.330  1.00 20.00    -0.351 OA
ENDROOT
BRANCH   3   6
HETATM    6  C4  UNL     1     -34.819   5.707   5.208  1.00 20.00     0.437 C 
HETATM    7  F7  UNL     1     -35.880   5.786   4.383  1.00 20.00    -0.166 F 
HETATM    8  F8  UNL     1     -35.062   4.753   6.124  1.00 20.00    -0.166 F 
HETATM    9  F9  UNL     1     -34.687   6.885   5.845  1.00 20.00    -0.166 F 
ENDBRANCH   3   6
TORSDOF 1
ENDMDL
MODEL 9
REMARK VINA RESULT:      -3.8     16.506     17.279
REMARK  1 active torsions:
REMARK  status: ('A' for Active; 'I' for Inactive)
REMARK    1  A    between atoms: C3_3  and  C4_4 
ROOT
HETATM    1  C1  UNL     1     -24.435  17.726  11.675  1.00 20.00     0.197 C 
HETATM    2  C2  UNL     1     -23.027  17.603  12.191  1.00 20.00     0.197 C 
HETATM    3  C3  UNL     1     -23.043  17.159   9.979  1.00 20.00     0.369 C 
HETATM    4  O5  UNL     1     -24.397  17.022  10.434  1.00 20.00    -0.351 OA
HETATM    5  O6  UNL     1     -22.238  17.742  11.011  1.00 20.00    -0.351 OA
ENDROOT
BRANCH   3   6
HETATM    6  C4  UNL     1     -22.999  18.042   8.747  1.00 20.00     0.437 C 
HETATM    7  F7  UNL     1     -24.237  18.224   8.254  1.00 20.00    -0.166 F 
HETATM    8  F8  UNL     1     -22.479  19.246   9.048  1.00 20.00    -0.166 F 
HETATM    9  F9  UNL     1     -22.238  17.477   7.791  1.00 20.00    -0.166 F 
ENDBRANCH   3   6
TORSDOF 1
ENDMDL
