MODEL 1
REMARK VINA RESULT:      -4.4      0.000      0.000
REMARK  2 active torsions:
REMARK  status: ('A' for Active; 'I' for Inactive)
REMARK    1  A    between atoms: C5_5  and  C7_7 
REMARK    2  A    between atoms: C6_6  and  O10_10 
ROOT
HETATM    1  C1  UNL     1     -33.306  15.180  -4.046  1.00 20.00     0.006 A 
HETATM    2  C2  UNL     1     -35.102  16.185  -2.595  1.00 20.00     0.006 A 
HETATM    3  C3  UNL     1     -34.241  14.741  -4.903  1.00 20.00    -0.008 A 
HETATM    4  C4  UNL     1     -36.040  15.747  -3.448  1.00 20.00    -0.008 A 
HETATM    5  C6  UNL     1     -33.632  15.950  -2.799  1.00 20.00     0.163 A 
HETATM    6  C7  UNL     1     -35.714  15.000  -4.715  1.00 20.00     0.044 A 
HETATM    7  C8  UNL     1     -36.292  15.725  -5.932  1.00 20.00     0.031 C 
ENDROOT
BRANCH   6   8
HETATM    8  C5  UNL     1     -36.350  13.645  -4.565  1.00 20.00     0.248 C 
HETATM    9  O9  UNL     1     -35.708  12.606  -4.452  1.00 20.00    -0.305 OA
ENDBRANCH   6   8
BRANCH   5  10
HETATM   10  O10 UNL     1     -32.960  17.205  -2.864  1.00 20.00    -0.388 OA
HETATM   11  H20 UNL     1     -32.242  17.101  -3.508  1.00 20.00     0.210 HD
ENDBRANCH   5  10
TORSDOF 2
ENDMDL
MODEL 2
REMARK VINA RESULT:      -4.4     10.053     12.137
REMARK  2 active torsions:
REMARK  status: ('A' for Active; 'I' for Inactive)
REMARK    1  A    between atoms: C5_5  and  C7_7 
REMARK    2  A    between atoms: C6_6  and  O10_10 
ROOT
HETATM    1  C1  UNL     1     -42.982   6.339   1.315  1.00 20.00     0.006 A 
HETATM    2  C2  UNL     1     -41.405   5.657  -0.525  1.00 20.00     0.006 A 
HETATM    3  C3  UNL     1     -43.035   7.582   0.812  1.00 20.00    -0.008 A 
HETATM    4  C4  UNL     1     -41.454   6.898  -1.031  1.00 20.00    -0.008 A 
HETATM    5  C6  UNL     1     -42.162   5.240   0.703  1.00 20.00     0.163 A 
HETATM    6  C7  UNL     1     -42.298   7.995  -0.436  1.00 20.00     0.044 A 
HETATM    7  C8  UNL     1     -43.272   8.550  -1.477  1.00 20.00     0.031 C 
ENDROOT
BRANCH   6   8
HETATM    8  C5  UNL     1     -41.332   9.064  -0.004  1.00 20.00     0.248 C 
HETATM    9  O9  UNL     1     -41.674  10.206   0.289  1.00 20.00    -0.305 OA
ENDBRANCH   6   8
BRANCH   5  10
HETATM   10  O10 UNL     1     -43.038   4.165   0.374  1.00 20.00    -0.388 OA
HETATM   11  H20 UNL     1     -43.268   4.273  -0.563  1.00 20.00     0.210 HD
ENDBRANCH   5  10
TORSDOF 2
ENDMDL
MODEL 3
REMARK VINA RESULT:      -4.3      1.216      3.599
REMARK  2 active torsions:
REMARK  status: ('A' for Active; 'I' for Inactive)
REMARK    1  A    between atoms: C5_5  and  C7_7 
REMARK    2  A    between atoms: C6_6  and  O10_10 
ROOT
HETATM    1  C1  UNL     1     -34.280  14.197  -4.178  1.00 20.00     0.006 A 
HETATM    2  C2  UNL     1     -36.716  14.824  -4.285  1.00 20.00     0.006 A 
HETATM    3  C3  UNL     1     -34.031  15.287  -3.435  1.00 20.00    -0.008 A 
HETATM    4  C4  UNL     1     -36.471  15.915  -3.544  1.00 20.00    -0.008 A 
HETATM    5  C6  UNL     1     -35.649  13.845  -4.684  1.00 20.00     0.163 A 
HETATM    6  C7  UNL     1     -35.104  16.255  -3.010  1.00 20.00     0.044 A 
HETATM    7  C8  UNL     1     -35.138  16.386  -1.487  1.00 20.00     0.031 C 
ENDROOT
BRANCH   6   8
HETATM    8  C5  UNL     1     -34.737  17.572  -3.638  1.00 20.00     0.248 C 
HETATM    9  O9  UNL     1     -34.386  17.689  -4.807  1.00 20.00    -0.305 OA
ENDBRANCH   6   8
BRANCH   5  10
HETATM   10  O10 UNL     1     -35.987  12.553  -4.188  1.00 20.00    -0.388 OA
HETATM   11  H20 UNL     1     -35.156  12.056  -4.123  1.00 20.00     0.210 HD
ENDBRANCH   5  10
TORSDOF 2
ENDMDL
MODEL 4
REMARK VINA RESULT:      -4.2     10.281     11.952
REMARK  2 active torsions:
REMARK  status: ('A' for Active; 'I' for Inactive)
REMARK    1  A    between atoms: C5_5  and  C7_7 
REMARK    2  A    between atoms: C6_6  and  O10_10 
ROOT
HETATM    1  C1  UNL     1     -41.370   5.786  -0.547  1.00 20.00     0.006 A 
HETATM    2  C2  UNL     1     -43.174   6.338   1.120  1.00 20.00     0.006 A 
HETATM    3  C3  UNL     1     -41.253   7.087  -0.854  1.00 20.00    -0.008 A 
HETATM    4  C4  UNL     1     -43.061   7.639   0.816  1.00 20.00    -0.008 A 
HETATM    5  C6  UNL     1     -42.342   5.268   0.473  1.00 20.00     0.163 A 
HETATM    6  C7  UNL     1     -42.067   8.165  -0.187  1.00 20.00     0.044 A 
HETATM    7  C8  UNL     1     -41.152   9.208   0.459  1.00 20.00     0.031 C 
ENDROOT
BRANCH   6   8
HETATM    8  C5  UNL     1     -42.885   8.795  -1.280  1.00 20.00     0.248 C 
HETATM    9  O9  UNL     1     -43.417   8.155  -2.181  1.00 20.00    -0.305 OA
ENDBRANCH   6   8
BRANCH   5  10
HETATM   10  O10 UNL     1     -41.604   4.575   1.477  1.00 20.00    -0.388 OA
HETATM   11  H20 UNL     1     -40.966   4.011   1.011  1.00 20.00     0.210 HD
ENDBRANCH   5  10
TORSDOF 2
ENDMDL
MODEL 5
REMARK VINA RESULT:      -4.2      1.875      3.409
REMARK  2 active torsions:
REMARK  status: ('A' for Active; 'I' for Inactive)
REMARK    1  A    between atoms: C5_5  and  C7_7 
REMARK    2  A    between atoms: C6_6  and  O10_10 
ROOT
HETATM    1  C1  UNL     1     -34.828  14.321  -3.977  1.00 20.00     0.006 A 
HETATM    2  C2  UNL     1     -32.798  15.783  -3.691  1.00 20.00     0.006 A 
HETATM    3  C3  UNL     1     -35.575  15.230  -3.331  1.00 20.00    -0.008 A 
HETATM    4  C4  UNL     1     -33.541  16.693  -3.045  1.00 20.00    -0.008 A 
HETATM    5  C6  UNL     1     -33.358  14.497  -4.228  1.00 20.00     0.163 A 
HETATM    6  C7  UNL     1     -35.022  16.533  -2.816  1.00 20.00     0.044 A 
HETATM    7  C8  UNL     1     -35.790  17.715  -3.410  1.00 20.00     0.031 C 
ENDROOT
BRANCH   6   8
HETATM    8  C5  UNL     1     -35.202  16.491  -1.324  1.00 20.00     0.248 C 
HETATM    9  O9  UNL     1     -34.671  17.286  -0.556  1.00 20.00    -0.305 OA
ENDBRANCH   6   8
BRANCH   5  10
HETATM   10  O10 UNL     1     -33.139  14.440  -5.635  1.00 20.00    -0.388 OA
HETATM   11  H20 UNL     1     -33.901  14.873  -6.052  1.00 20.00     0.210 HD
ENDBRANCH   5  10
TORSDOF 2
ENDMDL
MODEL 6
REMARK VINA RESULT:      -4.1      1.473      1.741
REMARK  2 active torsions:
REMARK  status: ('A' for Active; 'I' for Inactive)
REMARK    1  A    between atoms: C5_5  and  C7_7 
REMARK    2  A    between atoms: C6_6  and  O10_10 
ROOT
HETATM    1  C1  UNL     1     -34.449  14.793  -5.528  1.00 20.00     0.006 A 
HETATM    2  C2  UNL     1     -34.590  15.253  -3.057  1.00 20.00     0.006 A 
HETATM    3  C3  UNL     1     -35.696  15.261  -5.688  1.00 20.00    -0.008 A 
HETATM    4  C4  UNL     1     -35.837  15.722  -3.212  1.00 20.00    -0.008 A 
HETATM    5  C6  UNL     1     -33.758  14.737  -4.196  1.00 20.00     0.163 A 
HETATM    6  C7  UNL     1     -36.522  15.805  -4.551  1.00 20.00     0.044 A 
HETATM    7  C8  UNL     1     -36.959  17.242  -4.844  1.00 20.00     0.031 C 
ENDROOT
BRANCH   6   8
HETATM    8  C5  UNL     1     -37.723  14.905  -4.453  1.00 20.00     0.248 C 
HETATM    9  O9  UNL     1     -37.650  13.681  -4.421  1.00 20.00    -0.305 OA
ENDBRANCH   6   8
BRANCH   5  10
HETATM   10  O10 UNL     1     -32.558  15.501  -4.287  1.00 20.00    -0.388 OA
HETATM   11  H20 UNL     1     -32.214  15.370  -5.185  1.00 20.00     0.210 HD
ENDBRANCH   5  10
TORSDOF 2
ENDMDL
MODEL 7
REMARK VINA RESULT:      -4.1      1.086      1.440
REMARK  2 active torsions:
REMARK  status: ('A' for Active; 'I' for Inactive)
REMARK    1  A    between atoms: C5_5  and  C7_7 
REMARK    2  A    between atoms: C6_6  and  O10_10 
ROOT
HETATM    1  C1  UNL     1     -34.386  15.780  -2.588  1.00 20.00     0.006 A 
HETATM    2  C2  UNL     1     -36.383  16.968  -3.558  1.00 20.00     0.006 A 
HETATM    3  C3  UNL     1     -34.451  14.866  -3.568  1.00 20.00    -0.008 A 
HETATM    4  C4  UNL     1     -36.452  16.056  -4.540  1.00 20.00    -0.008 A 
HETATM    5  C6  UNL     1     -35.344  16.931  -2.475  1.00 20.00     0.163 A 
HETATM    6  C7  UNL     1     -35.476  14.917  -4.672  1.00 20.00     0.044 A 
HETATM    7  C8  UNL     1     -34.791  14.951  -6.040  1.00 20.00     0.031 C 
ENDROOT
BRANCH   6   8
HETATM    8  C5  UNL     1     -36.291  13.661  -4.529  1.00 20.00     0.248 C 
HETATM    9  O9  UNL     1     -35.804  12.536  -4.515  1.00 20.00    -0.305 OA
ENDBRANCH   6   8
BRANCH   5  10
HETATM   10  O10 UNL     1     -34.589  18.140  -2.506  1.00 20.00    -0.388 OA
HETATM   11  H20 UNL     1     -33.844  17.986  -3.107  1.00 20.00     0.210 HD
ENDBRANCH   5  10
TORSDOF 2
ENDMDL
MODEL 8
REMARK VINA RESULT:      -4.1      2.167      3.446
REMARK  2 active torsions:
REMARK  status: ('A' for Active; 'I' for Inactive)
REMARK    1  A    between atoms: C5_5  and  C7_7 
REMARK    2  A    between atoms: C6_6  and  O10_10 
ROOT
HETATM    1  C1  UNL     1     -34.373  16.515  -5.561  1.00 20.00     0.006 A 
HETATM    2  C2  UNL     1     -34.432  14.416  -4.171  1.00 20.00     0.006 A 
HETATM    3  C3  UNL     1     -34.431  17.258  -4.445  1.00 20.00    -0.008 A 
HETATM    4  C4  UNL     1     -34.490  15.155  -3.053  1.00 20.00    -0.008 A 
HETATM    5  C6  UNL     1     -34.368  15.013  -5.548  1.00 20.00     0.163 A 
HETATM    6  C7  UNL     1     -34.467  16.662  -3.062  1.00 20.00     0.044 A 
HETATM    7  C8  UNL     1     -33.304  17.188  -2.219  1.00 20.00     0.031 C 
ENDROOT
BRANCH   6   8
HETATM    8  C5  UNL     1     -35.779  17.093  -2.467  1.00 20.00     0.248 C 
HETATM    9  O9  UNL     1     -36.856  16.970  -3.041  1.00 20.00    -0.305 OA
ENDBRANCH   6   8
BRANCH   5  10
HETATM   10  O10 UNL     1     -33.180  14.569  -6.198  1.00 20.00    -0.388 OA
HETATM   11  H20 UNL     1     -32.435  14.924  -5.687  1.00 20.00     0.210 HD
ENDBRANCH   5  10
TORSDOF 2
ENDMDL
MODEL 9
REMARK VINA RESULT:      -4.0      1.768      3.081
REMARK  2 active torsions:
REMARK  status: ('A' for Active; 'I' for Inactive)
REMARK    1  A    between atoms: C5_5  and  C7_7 
REMARK    2  A    between atoms: C6_6  and  O10_10 
ROOT
HETATM    1  C1  UNL     1     -35.707  16.677  -6.200  1.00 20.00     0.006 A 
HETATM    2  C2  UNL     1     -33.783  15.077  -6.484  1.00 20.00     0.006 A 
HETATM    3  C3  UNL     1     -36.013  16.104  -5.026  1.00 20.00    -0.008 A 
HETATM    4  C4  UNL     1     -34.085  14.502  -5.311  1.00 20.00    -0.008 A 
HETATM    5  C6  UNL     1     -34.560  16.227  -7.059  1.00 20.00     0.163 A 
HETATM    6  C7  UNL     1     -35.218  14.968  -4.434  1.00 20.00     0.044 A 
HETATM    7  C8  UNL     1     -34.704  15.340  -3.042  1.00 20.00     0.031 C 
ENDROOT
BRANCH   6   8
HETATM    8  C5  UNL     1     -36.170  13.808  -4.345  1.00 20.00     0.248 C 
HETATM    9  O9  UNL     1     -35.838  12.643  -4.542  1.00 20.00    -0.305 OA
ENDBRANCH   6   8
BRANCH   5  10
HETATM   10  O10 UNL     1     -33.687  17.338  -7.247  1.00 20.00    -0.388 OA
HETATM   11  H20 UNL     1     -33.443  17.341  -8.187  1.00 20.00     0.210 HD
ENDBRANCH   5  10
TORSDOF 2
ENDMDL
