MODEL 1
REMARK VINA RESULT:      -4.8      0.000      0.000
REMARK  0 active torsions:
REMARK  status: ('A' for Active; 'I' for Inactive)
ROOT
HETATM    1  C1  UNL     1     -34.404   6.484   6.185  1.00 20.00     0.000 C 
HETATM    2  C2  UNL     1     -33.246   7.028   5.347  1.00 20.00     0.001 C 
HETATM    3  C3  UNL     1     -34.778   5.062   5.765  1.00 20.00     0.001 C 
HETATM    4  C4  UNL     1     -33.554   6.953   3.852  1.00 20.00     0.009 C 
HETATM    5  C5  UNL     1     -35.088   4.984   4.271  1.00 20.00     0.009 C 
HETATM    6  C6  UNL     1     -32.863   4.603   2.984  1.00 20.00     0.010 A 
HETATM    7  C7  UNL     1     -33.851   5.164   2.002  1.00 20.00     0.010 A 
HETATM    8  C8  UNL     1     -33.943   5.548   3.461  1.00 20.00    -0.040 A 
ENDROOT
TORSDOF 0
ENDMDL
MODEL 2
REMARK VINA RESULT:      -4.7      0.909      2.323
REMARK  0 active torsions:
REMARK  status: ('A' for Active; 'I' for Inactive)
ROOT
HETATM    1  C1  UNL     1     -34.815   5.366   5.727  1.00 20.00     0.000 C 
HETATM    2  C2  UNL     1     -35.054   4.955   4.273  1.00 20.00     0.001 C 
HETATM    3  C3  UNL     1     -34.269   6.791   5.822  1.00 20.00     0.001 C 
HETATM    4  C4  UNL     1     -33.790   5.124   3.430  1.00 20.00     0.009 C 
HETATM    5  C5  UNL     1     -33.005   6.963   4.982  1.00 20.00     0.009 C 
HETATM    6  C6  UNL     1     -33.703   7.569   2.554  1.00 20.00     0.010 A 
HETATM    7  C7  UNL     1     -32.305   7.027   2.489  1.00 20.00     0.010 A 
HETATM    8  C8  UNL     1     -33.253   6.530   3.555  1.00 20.00    -0.040 A 
ENDROOT
TORSDOF 0
ENDMDL
MODEL 3
REMARK VINA RESULT:      -4.6      1.245      2.067
REMARK  0 active torsions:
REMARK  status: ('A' for Active; 'I' for Inactive)
ROOT
HETATM    1  C1  UNL     1     -34.762   4.708   4.775  1.00 20.00     0.000 C 
HETATM    2  C2  UNL     1     -34.378   6.103   5.273  1.00 20.00     0.001 C 
HETATM    3  C3  UNL     1     -33.768   4.194   3.733  1.00 20.00     0.001 C 
HETATM    4  C4  UNL     1     -34.228   7.088   4.114  1.00 20.00     0.009 C 
HETATM    5  C5  UNL     1     -33.617   5.175   2.572  1.00 20.00     0.009 C 
HETATM    6  C6  UNL     1     -31.801   6.924   3.200  1.00 20.00     0.010 A 
HETATM    7  C7  UNL     1     -32.641   7.531   2.114  1.00 20.00     0.010 A 
HETATM    8  C8  UNL     1     -33.262   6.552   3.084  1.00 20.00    -0.040 A 
ENDROOT
TORSDOF 0
ENDMDL
MODEL 4
REMARK VINA RESULT:      -4.5      0.990      3.255
REMARK  0 active torsions:
REMARK  status: ('A' for Active; 'I' for Inactive)
ROOT
HETATM    1  C1  UNL     1     -32.901   6.249   2.385  1.00 20.00     0.000 C 
HETATM    2  C2  UNL     1     -33.385   4.838   2.723  1.00 20.00     0.001 C 
HETATM    3  C3  UNL     1     -32.612   7.059   3.649  1.00 20.00     0.001 C 
HETATM    4  C4  UNL     1     -34.599   4.872   3.650  1.00 20.00     0.009 C 
HETATM    5  C5  UNL     1     -33.824   7.097   4.577  1.00 20.00     0.009 C 
HETATM    6  C6  UNL     1     -33.759   4.997   6.106  1.00 20.00     0.010 A 
HETATM    7  C7  UNL     1     -35.176   5.493   6.099  1.00 20.00     0.010 A 
HETATM    8  C8  UNL     1     -34.304   5.696   4.881  1.00 20.00    -0.040 A 
ENDROOT
TORSDOF 0
ENDMDL
MODEL 5
REMARK VINA RESULT:      -4.1     12.049     13.011
REMARK  0 active torsions:
REMARK  status: ('A' for Active; 'I' for Inactive)
ROOT
HETATM    1  C1  UNL     1     -35.096  14.218  -4.144  1.00 20.00     0.000 C 
HETATM    2  C2  UNL     1     -33.817  14.771  -4.775  1.00 20.00     0.001 C 
HETATM    3  C3  UNL     1     -35.825  15.287  -3.330  1.00 20.00     0.001 C 
HETATM    4  C4  UNL     1     -32.898  15.390  -3.722  1.00 20.00     0.009 C 
HETATM    5  C5  UNL     1     -34.910  15.907  -2.275  1.00 20.00     0.009 C 
HETATM    6  C6  UNL     1     -33.600  17.867  -3.367  1.00 20.00     0.010 A 
HETATM    7  C7  UNL     1     -32.831  17.447  -2.148  1.00 20.00     0.010 A 
HETATM    8  C8  UNL     1     -33.642  16.426  -2.912  1.00 20.00    -0.040 A 
ENDROOT
TORSDOF 0
ENDMDL
MODEL 6
REMARK VINA RESULT:      -4.1      1.023      2.935
REMARK  0 active torsions:
REMARK  status: ('A' for Active; 'I' for Inactive)
ROOT
HETATM    1  C1  UNL     1     -32.350   6.412   2.354  1.00 20.00     0.000 C 
HETATM    2  C2  UNL     1     -33.064   7.398   3.280  1.00 20.00     0.001 C 
HETATM    3  C3  UNL     1     -33.174   5.140   2.152  1.00 20.00     0.001 C 
HETATM    4  C4  UNL     1     -33.423   6.751   4.616  1.00 20.00     0.009 C 
HETATM    5  C5  UNL     1     -33.533   4.488   3.486  1.00 20.00     0.009 C 
HETATM    6  C6  UNL     1     -35.725   5.570   4.369  1.00 20.00     0.010 A 
HETATM    7  C7  UNL     1     -35.034   4.947   5.547  1.00 20.00     0.010 A 
HETATM    8  C8  UNL     1     -34.216   5.484   4.396  1.00 20.00    -0.040 A 
ENDROOT
TORSDOF 0
ENDMDL
MODEL 7
REMARK VINA RESULT:      -4.0     15.754     17.172
REMARK  0 active torsions:
REMARK  status: ('A' for Active; 'I' for Inactive)
ROOT
HETATM    1  C1  UNL     1     -21.823  17.961  10.286  1.00 20.00     0.000 C 
HETATM    2  C2  UNL     1     -22.822  17.117   9.491  1.00 20.00     0.001 C 
HETATM    3  C3  UNL     1     -21.937  17.694  11.787  1.00 20.00     0.001 C 
HETATM    4  C4  UNL     1     -24.251  17.330   9.986  1.00 20.00     0.009 C 
HETATM    5  C5  UNL     1     -23.365  17.907  12.286  1.00 20.00     0.009 C 
HETATM    6  C6  UNL     1     -24.693  15.697  11.959  1.00 20.00     0.010 A 
HETATM    7  C7  UNL     1     -25.700  16.805  12.070  1.00 20.00     0.010 A 
HETATM    8  C8  UNL     1     -24.339  17.085  11.474  1.00 20.00    -0.040 A 
ENDROOT
TORSDOF 0
ENDMDL
MODEL 8
REMARK VINA RESULT:      -4.0     16.015     17.082
REMARK  0 active torsions:
REMARK  status: ('A' for Active; 'I' for Inactive)
ROOT
HETATM    1  C1  UNL     1     -23.141  18.044   8.324  1.00 20.00     0.000 C 
HETATM    2  C2  UNL     1     -22.768  16.987   9.365  1.00 20.00     0.001 C 
HETATM    3  C3  UNL     1     -23.797  19.262   8.975  1.00 20.00     0.001 C 
HETATM    4  C4  UNL     1     -23.976  16.583  10.209  1.00 20.00     0.009 C 
HETATM    5  C5  UNL     1     -25.006  18.862   9.818  1.00 20.00     0.009 C 
HETATM    6  C6  UNL     1     -24.181  18.238  12.202  1.00 20.00     0.010 A 
HETATM    7  C7  UNL     1     -25.527  17.598  12.019  1.00 20.00     0.010 A 
HETATM    8  C8  UNL     1     -24.624  17.801  10.824  1.00 20.00    -0.040 A 
ENDROOT
TORSDOF 0
ENDMDL
MODEL 9
REMARK VINA RESULT:      -3.9     16.721     17.358
REMARK  0 active torsions:
REMARK  status: ('A' for Active; 'I' for Inactive)
ROOT
HETATM    1  C1  UNL     1     -25.458  18.828  10.551  1.00 20.00     0.000 C 
HETATM    2  C2  UNL     1     -24.634  17.730  11.225  1.00 20.00     0.001 C 
HETATM    3  C3  UNL     1     -25.062  19.003   9.084  1.00 20.00     0.001 C 
HETATM    4  C4  UNL     1     -23.135  17.988  11.082  1.00 20.00     0.009 C 
HETATM    5  C5  UNL     1     -23.564  19.263   8.937  1.00 20.00     0.009 C 
HETATM    6  C6  UNL     1     -22.335  16.976   8.826  1.00 20.00     0.010 A 
HETATM    7  C7  UNL     1     -21.319  18.004   9.234  1.00 20.00     0.010 A 
HETATM    8  C8  UNL     1     -22.767  18.182   9.630  1.00 20.00    -0.040 A 
ENDROOT
TORSDOF 0
ENDMDL
