MODEL 1
REMARK VINA RESULT:      -4.9      0.000      0.000
REMARK  1 active torsions:
REMARK  status: ('A' for Active; 'I' for Inactive)
REMARK    1  A    between atoms: C2_2  and  C7_7 
ROOT
HETATM    1  C1  UNL     1     -34.646   5.421   5.595  1.00 20.00     0.127 C 
HETATM    2  C3  UNL     1     -35.019   4.991   4.194  1.00 20.00     0.079 C 
HETATM    3  C4  UNL     1     -34.133   6.835   5.754  1.00 20.00     0.079 C 
HETATM    4  C5  UNL     1     -33.900   5.320   3.216  1.00 20.00     0.019 C 
HETATM    5  C6  UNL     1     -33.032   7.124   4.743  1.00 20.00     0.019 C 
HETATM    6  C7  UNL     1     -33.473   6.786   3.318  1.00 20.00     0.048 C 
HETATM    7  O8  UNL     1     -34.850   4.695   6.568  1.00 20.00    -0.298 OA
ENDROOT
BRANCH   6   8
HETATM    8  C2  UNL     1     -32.348   7.040   2.363  1.00 20.00     0.235 C 
HETATM    9  O9  UNL     1     -32.430   7.806   1.409  1.00 20.00    -0.306 OA
ENDBRANCH   6   8
TORSDOF 1
ENDMDL
MODEL 2
REMARK VINA RESULT:      -4.7     11.777     12.391
REMARK  1 active torsions:
REMARK  status: ('A' for Active; 'I' for Inactive)
REMARK    1  A    between atoms: C2_2  and  C7_7 
ROOT
HETATM    1  C1  UNL     1     -33.406  16.360  -2.995  1.00 20.00     0.127 C 
HETATM    2  C3  UNL     1     -32.889  15.261  -3.896  1.00 20.00     0.079 C 
HETATM    3  C4  UNL     1     -34.652  16.049  -2.195  1.00 20.00     0.079 C 
HETATM    4  C5  UNL     1     -34.012  14.700  -4.758  1.00 20.00     0.019 C 
HETATM    5  C6  UNL     1     -35.737  15.472  -3.094  1.00 20.00     0.019 C 
HETATM    6  C7  UNL     1     -35.219  14.288  -3.914  1.00 20.00     0.048 C 
HETATM    7  O8  UNL     1     -32.787  17.413  -2.842  1.00 20.00    -0.298 OA
ENDROOT
BRANCH   6   8
HETATM    8  C2  UNL     1     -36.302  13.781  -4.815  1.00 20.00     0.235 C 
HETATM    9  O9  UNL     1     -37.472  13.660  -4.467  1.00 20.00    -0.306 OA
ENDBRANCH   6   8
TORSDOF 1
ENDMDL
MODEL 3
REMARK VINA RESULT:      -4.3      9.235      9.759
REMARK  1 active torsions:
REMARK  status: ('A' for Active; 'I' for Inactive)
REMARK    1  A    between atoms: C2_2  and  C7_7 
ROOT
HETATM    1  C1  UNL     1     -42.649   5.148  -0.460  1.00 20.00     0.127 C 
HETATM    2  C3  UNL     1     -42.971   5.700   0.911  1.00 20.00     0.079 C 
HETATM    3  C4  UNL     1     -41.343   5.594  -1.079  1.00 20.00     0.079 C 
HETATM    4  C5  UNL     1     -42.801   7.213   0.933  1.00 20.00     0.019 C 
HETATM    5  C6  UNL     1     -41.208   7.109  -1.014  1.00 20.00     0.019 C 
HETATM    6  C7  UNL     1     -41.428   7.634   0.406  1.00 20.00     0.048 C 
HETATM    7  O8  UNL     1     -43.360   4.299  -0.996  1.00 20.00    -0.298 OA
ENDROOT
BRANCH   6   8
HETATM    8  C2  UNL     1     -41.333   9.129   0.416  1.00 20.00     0.235 C 
HETATM    9  O9  UNL     1     -42.247   9.867   0.063  1.00 20.00    -0.306 OA
ENDBRANCH   6   8
TORSDOF 1
ENDMDL
MODEL 4
REMARK VINA RESULT:      -4.3     11.401     12.135
REMARK  1 active torsions:
REMARK  status: ('A' for Active; 'I' for Inactive)
REMARK    1  A    between atoms: C2_2  and  C7_7 
ROOT
HETATM    1  C1  UNL     1     -34.898  14.007  -4.037  1.00 20.00     0.127 C 
HETATM    2  C3  UNL     1     -33.628  14.585  -4.620  1.00 20.00     0.079 C 
HETATM    3  C4  UNL     1     -35.861  14.990  -3.408  1.00 20.00     0.079 C 
HETATM    4  C5  UNL     1     -32.949  15.508  -3.617  1.00 20.00     0.019 C 
HETATM    5  C6  UNL     1     -35.134  15.903  -2.431  1.00 20.00     0.019 C 
HETATM    6  C7  UNL     1     -33.915  16.564  -3.078  1.00 20.00     0.048 C 
HETATM    7  O8  UNL     1     -35.182  12.816  -4.163  1.00 20.00    -0.298 OA
ENDROOT
BRANCH   6   8
HETATM    8  C2  UNL     1     -33.204  17.415  -2.072  1.00 20.00     0.235 C 
HETATM    9  O9  UNL     1     -33.630  17.626  -0.941  1.00 20.00    -0.306 OA
ENDBRANCH   6   8
TORSDOF 1
ENDMDL
MODEL 5
REMARK VINA RESULT:      -4.2     11.765     12.460
REMARK  1 active torsions:
REMARK  status: ('A' for Active; 'I' for Inactive)
REMARK    1  A    between atoms: C2_2  and  C7_7 
ROOT
HETATM    1  C1  UNL     1     -33.999  14.729  -4.827  1.00 20.00     0.127 C 
HETATM    2  C3  UNL     1     -35.294  14.309  -4.169  1.00 20.00     0.079 C 
HETATM    3  C4  UNL     1     -32.921  15.269  -3.913  1.00 20.00     0.079 C 
HETATM    4  C5  UNL     1     -35.807  15.405  -3.245  1.00 20.00     0.019 C 
HETATM    5  C6  UNL     1     -33.485  16.346  -2.996  1.00 20.00     0.019 C 
HETATM    6  C7  UNL     1     -34.732  15.858  -2.255  1.00 20.00     0.048 C 
HETATM    7  O8  UNL     1     -33.794  14.542  -6.026  1.00 20.00    -0.298 OA
ENDROOT
BRANCH   6   8
HETATM    8  C2  UNL     1     -35.280  16.959  -1.402  1.00 20.00     0.235 C 
HETATM    9  O9  UNL     1     -35.394  16.878  -0.183  1.00 20.00    -0.306 OA
ENDBRANCH   6   8
TORSDOF 1
ENDMDL
MODEL 6
REMARK VINA RESULT:      -4.2     11.596     12.421
REMARK  1 active torsions:
REMARK  status: ('A' for Active; 'I' for Inactive)
REMARK    1  A    between atoms: C2_2  and  C7_7 
ROOT
HETATM    1  C1  UNL     1     -33.542  16.606  -2.850  1.00 20.00     0.127 C 
HETATM    2  C3  UNL     1     -34.975  17.039  -3.065  1.00 20.00     0.079 C 
HETATM    3  C4  UNL     1     -32.979  15.614  -3.844  1.00 20.00     0.079 C 
HETATM    4  C5  UNL     1     -35.879  15.829  -3.258  1.00 20.00     0.019 C 
HETATM    5  C6  UNL     1     -33.925  14.434  -4.019  1.00 20.00     0.019 C 
HETATM    6  C7  UNL     1     -35.347  14.896  -4.347  1.00 20.00     0.048 C 
HETATM    7  O8  UNL     1     -32.839  17.113  -1.976  1.00 20.00    -0.298 OA
ENDROOT
BRANCH   6   8
HETATM    8  C2  UNL     1     -36.252  13.709  -4.465  1.00 20.00     0.235 C 
HETATM    9  O9  UNL     1     -35.848  12.553  -4.532  1.00 20.00    -0.306 OA
ENDBRANCH   6   8
TORSDOF 1
ENDMDL
MODEL 7
REMARK VINA RESULT:      -4.1     11.925     12.793
REMARK  1 active torsions:
REMARK  status: ('A' for Active; 'I' for Inactive)
REMARK    1  A    between atoms: C2_2  and  C7_7 
ROOT
HETATM    1  C1  UNL     1     -33.426  14.952  -4.419  1.00 20.00     0.127 C 
HETATM    2  C3  UNL     1     -34.097  15.677  -3.273  1.00 20.00     0.079 C 
HETATM    3  C4  UNL     1     -34.145  14.980  -5.749  1.00 20.00     0.079 C 
HETATM    4  C5  UNL     1     -35.557  15.261  -3.157  1.00 20.00     0.019 C 
HETATM    5  C6  UNL     1     -35.604  14.578  -5.580  1.00 20.00     0.019 C 
HETATM    6  C7  UNL     1     -36.293  15.404  -4.491  1.00 20.00     0.048 C 
HETATM    7  O8  UNL     1     -32.305  14.458  -4.301  1.00 20.00    -0.298 OA
ENDROOT
BRANCH   6   8
HETATM    8  C2  UNL     1     -37.709  14.946  -4.325  1.00 20.00     0.235 C 
HETATM    9  O9  UNL     1     -38.053  13.771  -4.392  1.00 20.00    -0.306 OA
ENDBRANCH   6   8
TORSDOF 1
ENDMDL
MODEL 8
REMARK VINA RESULT:      -4.1     12.138     12.515
REMARK  1 active torsions:
REMARK  status: ('A' for Active; 'I' for Inactive)
REMARK    1  A    between atoms: C2_2  and  C7_7 
ROOT
HETATM    1  C1  UNL     1     -35.032  14.516  -4.780  1.00 20.00     0.127 C 
HETATM    2  C3  UNL     1     -36.038  14.903  -3.718  1.00 20.00     0.079 C 
HETATM    3  C4  UNL     1     -33.585  14.440  -4.345  1.00 20.00     0.079 C 
HETATM    4  C5  UNL     1     -35.582  16.154  -2.979  1.00 20.00     0.019 C 
HETATM    5  C6  UNL     1     -33.183  15.702  -3.594  1.00 20.00     0.019 C 
HETATM    6  C7  UNL     1     -34.154  16.011  -2.452  1.00 20.00     0.048 C 
HETATM    7  O8  UNL     1     -35.386  14.178  -5.909  1.00 20.00    -0.298 OA
ENDROOT
BRANCH   6   8
HETATM    8  C2  UNL     1     -33.749  17.281  -1.771  1.00 20.00     0.235 C 
HETATM    9  O9  UNL     1     -32.586  17.664  -1.688  1.00 20.00    -0.306 OA
ENDBRANCH   6   8
TORSDOF 1
ENDMDL
MODEL 9
REMARK VINA RESULT:      -4.0     11.856     12.568
REMARK  1 active torsions:
REMARK  status: ('A' for Active; 'I' for Inactive)
REMARK    1  A    between atoms: C2_2  and  C7_7 
ROOT
HETATM    1  C1  UNL     1     -34.262  17.900  -1.289  1.00 20.00     0.127 C 
HETATM    2  C3  UNL     1     -32.893  17.662  -1.887  1.00 20.00     0.079 C 
HETATM    3  C4  UNL     1     -35.166  16.694  -1.169  1.00 20.00     0.079 C 
HETATM    4  C5  UNL     1     -33.005  16.883  -3.191  1.00 20.00     0.019 C 
HETATM    5  C6  UNL     1     -35.230  15.937  -2.489  1.00 20.00     0.019 C 
HETATM    6  C7  UNL     1     -33.833  15.608  -3.018  1.00 20.00     0.048 C 
HETATM    7  O8  UNL     1     -34.582  18.995  -0.829  1.00 20.00    -0.298 OA
ENDROOT
BRANCH   6   8
HETATM    8  C2  UNL     1     -33.940  14.907  -4.336  1.00 20.00     0.235 C 
HETATM    9  O9  UNL     1     -33.403  13.830  -4.576  1.00 20.00    -0.306 OA
ENDBRANCH   6   8
TORSDOF 1
ENDMDL
