MODEL 1
REMARK VINA RESULT:      -4.1      0.000      0.000
REMARK  3 active torsions:
REMARK  status: ('A' for Active; 'I' for Inactive)
REMARK    1  A    between atoms: C1_1  and  C7_7 
REMARK    2  A    between atoms: C5_5  and  C6_6 
REMARK    3  A    between atoms: C6_6  and  C7_7 
ROOT
HETATM    1  C3  UNL     1     -36.011  16.373  -4.852  1.00 20.00     0.024 C 
HETATM    2  C4  UNL     1     -34.400  14.833  -5.951  1.00 20.00     0.024 C 
HETATM    3  C7  UNL     1     -35.237  15.051  -4.673  1.00 20.00     0.029 C 
ENDROOT
BRANCH   3   4
HETATM    4  C1  UNL     1     -36.248  13.890  -4.525  1.00 20.00     0.226 C 
HETATM    5  O8  UNL     1     -35.894  12.713  -4.562  1.00 20.00    -0.279 OA
HETATM    6 CL9  UNL     1     -37.907  14.398  -4.307  1.00 20.00    -0.043 Cl
ENDBRANCH   3   4
BRANCH   3   7
HETATM    7  C6  UNL     1     -34.309  15.167  -3.437  1.00 20.00     0.017 C 
BRANCH   7   8
HETATM    8  C5  UNL     1     -34.909  15.927  -2.247  1.00 20.00    -0.003 C 
HETATM    9  C2  UNL     1     -33.973  17.027  -1.766  1.00 20.00     0.005 C 
ENDBRANCH   7   8
ENDBRANCH   3   7
TORSDOF 3
ENDMDL
MODEL 2
REMARK VINA RESULT:      -4.1      0.711      1.076
REMARK  3 active torsions:
REMARK  status: ('A' for Active; 'I' for Inactive)
REMARK    1  A    between atoms: C1_1  and  C7_7 
REMARK    2  A    between atoms: C5_5  and  C6_6 
REMARK    3  A    between atoms: C6_6  and  C7_7 
ROOT
HETATM    1  C3  UNL     1     -34.841  15.249  -6.082  1.00 20.00     0.024 C 
HETATM    2  C4  UNL     1     -33.599  14.207  -4.198  1.00 20.00     0.024 C 
HETATM    3  C7  UNL     1     -34.956  14.818  -4.606  1.00 20.00     0.029 C 
ENDROOT
BRANCH   3   4
HETATM    4  C1  UNL     1     -36.056  13.739  -4.479  1.00 20.00     0.226 C 
HETATM    5  O8  UNL     1     -35.793  12.538  -4.494  1.00 20.00    -0.279 OA
HETATM    6 CL9  UNL     1     -37.678  14.374  -4.319  1.00 20.00    -0.043 Cl
ENDBRANCH   3   4
BRANCH   3   7
HETATM    7  C6  UNL     1     -35.267  16.062  -3.735  1.00 20.00     0.017 C 
BRANCH   7   8
HETATM    8  C5  UNL     1     -34.811  15.959  -2.274  1.00 20.00    -0.003 C 
HETATM    9  C2  UNL     1     -33.843  17.078  -1.918  1.00 20.00     0.005 C 
ENDBRANCH   7   8
ENDBRANCH   3   7
TORSDOF 3
ENDMDL
MODEL 3
REMARK VINA RESULT:      -3.9      1.051      3.095
REMARK  3 active torsions:
REMARK  status: ('A' for Active; 'I' for Inactive)
REMARK    1  A    between atoms: C1_1  and  C7_7 
REMARK    2  A    between atoms: C5_5  and  C6_6 
REMARK    3  A    between atoms: C6_6  and  C7_7 
ROOT
HETATM    1  C3  UNL     1     -33.549  14.300  -4.427  1.00 20.00     0.024 C 
HETATM    2  C4  UNL     1     -34.986  15.508  -2.800  1.00 20.00     0.024 C 
HETATM    3  C7  UNL     1     -34.946  14.921  -4.226  1.00 20.00     0.029 C 
ENDROOT
BRANCH   3   4
HETATM    4  C1  UNL     1     -36.015  13.811  -4.348  1.00 20.00     0.226 C 
HETATM    5  O8  UNL     1     -35.711  12.624  -4.445  1.00 20.00    -0.279 OA
HETATM    6 CL9  UNL     1     -37.665  14.391  -4.338  1.00 20.00    -0.043 Cl
ENDBRANCH   3   4
BRANCH   3   7
HETATM    7  C6  UNL     1     -35.159  16.043  -5.275  1.00 20.00     0.017 C 
BRANCH   7   8
HETATM    8  C5  UNL     1     -34.519  15.780  -6.643  1.00 20.00    -0.003 C 
HETATM    9  C2  UNL     1     -35.533  15.214  -7.627  1.00 20.00     0.005 C 
ENDBRANCH   7   8
ENDBRANCH   3   7
TORSDOF 3
ENDMDL
MODEL 4
REMARK VINA RESULT:      -3.9      1.483      1.539
REMARK  3 active torsions:
REMARK  status: ('A' for Active; 'I' for Inactive)
REMARK    1  A    between atoms: C1_1  and  C7_7 
REMARK    2  A    between atoms: C5_5  and  C6_6 
REMARK    3  A    between atoms: C6_6  and  C7_7 
ROOT
HETATM    1  C3  UNL     1     -34.566  16.318  -5.130  1.00 20.00     0.024 C 
HETATM    2  C4  UNL     1     -33.163  14.417  -4.357  1.00 20.00     0.024 C 
HETATM    3  C7  UNL     1     -34.602  14.977  -4.370  1.00 20.00     0.029 C 
ENDROOT
BRANCH   3   4
HETATM    4  C1  UNL     1     -35.521  13.991  -5.127  1.00 20.00     0.226 C 
HETATM    5  O8  UNL     1     -35.932  12.956  -4.606  1.00 20.00    -0.279 OA
HETATM    6 CL9  UNL     1     -35.911  14.475  -6.762  1.00 20.00    -0.043 Cl
ENDBRANCH   3   4
BRANCH   3   7
HETATM    7  C6  UNL     1     -35.093  15.225  -2.921  1.00 20.00     0.017 C 
BRANCH   7   8
HETATM    8  C5  UNL     1     -34.355  16.340  -2.170  1.00 20.00    -0.003 C 
HETATM    9  C2  UNL     1     -35.182  16.862  -1.004  1.00 20.00     0.005 C 
ENDBRANCH   7   8
ENDBRANCH   3   7
TORSDOF 3
ENDMDL
MODEL 5
REMARK VINA RESULT:      -3.7     12.064     12.696
REMARK  3 active torsions:
REMARK  status: ('A' for Active; 'I' for Inactive)
REMARK    1  A    between atoms: C1_1  and  C7_7 
REMARK    2  A    between atoms: C5_5  and  C6_6 
REMARK    3  A    between atoms: C6_6  and  C7_7 
ROOT
HETATM    1  C3  UNL     1     -35.957   5.755   3.729  1.00 20.00     0.024 C 
HETATM    2  C4  UNL     1     -33.980   4.251   3.797  1.00 20.00     0.024 C 
HETATM    3  C7  UNL     1     -34.507   5.633   4.238  1.00 20.00     0.029 C 
ENDROOT
BRANCH   3   4
HETATM    4  C1  UNL     1     -34.505   5.707   5.782  1.00 20.00     0.226 C 
HETATM    5  O8  UNL     1     -34.940   4.790   6.477  1.00 20.00    -0.279 OA
HETATM    6 CL9  UNL     1     -33.843   7.188   6.435  1.00 20.00    -0.043 Cl
ENDBRANCH   3   4
BRANCH   3   7
HETATM    7  C6  UNL     1     -33.649   6.760   3.607  1.00 20.00     0.017 C 
BRANCH   7   8
HETATM    8  C5  UNL     1     -32.796   6.328   2.408  1.00 20.00    -0.003 C 
HETATM    9  C2  UNL     1     -32.385   7.526   1.564  1.00 20.00     0.005 C 
ENDBRANCH   7   8
ENDBRANCH   3   7
TORSDOF 3
ENDMDL
MODEL 6
REMARK VINA RESULT:      -3.7      2.193      2.654
REMARK  3 active torsions:
REMARK  status: ('A' for Active; 'I' for Inactive)
REMARK    1  A    between atoms: C1_1  and  C7_7 
REMARK    2  A    between atoms: C5_5  and  C6_6 
REMARK    3  A    between atoms: C6_6  and  C7_7 
ROOT
HETATM    1  C3  UNL     1     -35.218  15.355  -2.949  1.00 20.00     0.024 C 
HETATM    2  C4  UNL     1     -34.805  16.997  -4.768  1.00 20.00     0.024 C 
HETATM    3  C7  UNL     1     -34.146  15.889  -3.920  1.00 20.00     0.029 C 
ENDROOT
BRANCH   3   4
HETATM    4  C1  UNL     1     -33.691  14.742  -4.852  1.00 20.00     0.226 C 
HETATM    5  O8  UNL     1     -33.175  13.715  -4.414  1.00 20.00    -0.279 OA
HETATM    6 CL9  UNL     1     -33.969  15.037  -6.553  1.00 20.00    -0.043 Cl
ENDBRANCH   3   4
BRANCH   3   7
HETATM    7  C6  UNL     1     -32.963  16.470  -3.104  1.00 20.00     0.017 C 
BRANCH   7   8
HETATM    8  C5  UNL     1     -33.369  17.339  -1.907  1.00 20.00    -0.003 C 
HETATM    9  C2  UNL     1     -32.182  18.122  -1.365  1.00 20.00     0.005 C 
ENDBRANCH   7   8
ENDBRANCH   3   7
TORSDOF 3
ENDMDL
MODEL 7
REMARK VINA RESULT:      -3.6      2.266      2.771
REMARK  3 active torsions:
REMARK  status: ('A' for Active; 'I' for Inactive)
REMARK    1  A    between atoms: C1_1  and  C7_7 
REMARK    2  A    between atoms: C5_5  and  C6_6 
REMARK    3  A    between atoms: C6_6  and  C7_7 
ROOT
HETATM    1  C3  UNL     1     -32.650  14.353  -4.403  1.00 20.00     0.024 C 
HETATM    2  C4  UNL     1     -35.065  13.999  -3.932  1.00 20.00     0.024 C 
HETATM    3  C7  UNL     1     -33.994  15.080  -4.192  1.00 20.00     0.029 C 
ENDROOT
BRANCH   3   4
HETATM    4  C1  UNL     1     -34.358  15.855  -5.479  1.00 20.00     0.226 C 
HETATM    5  O8  UNL     1     -34.554  15.281  -6.548  1.00 20.00    -0.279 OA
HETATM    6 CL9  UNL     1     -34.457  17.589  -5.276  1.00 20.00    -0.043 Cl
ENDBRANCH   3   4
BRANCH   3   7
HETATM    7  C6  UNL     1     -33.876  16.023  -2.966  1.00 20.00     0.017 C 
BRANCH   7   8
HETATM    8  C5  UNL     1     -35.091  16.021  -2.031  1.00 20.00    -0.003 C 
HETATM    9  C2  UNL     1     -34.960  17.089  -0.954  1.00 20.00     0.005 C 
ENDBRANCH   7   8
ENDBRANCH   3   7
TORSDOF 3
ENDMDL
MODEL 8
REMARK VINA RESULT:      -3.6      2.215      3.214
REMARK  3 active torsions:
REMARK  status: ('A' for Active; 'I' for Inactive)
REMARK    1  A    between atoms: C1_1  and  C7_7 
REMARK    2  A    between atoms: C5_5  and  C6_6 
REMARK    3  A    between atoms: C6_6  and  C7_7 
ROOT
HETATM    1  C3  UNL     1     -34.697  16.951  -4.890  1.00 20.00     0.024 C 
HETATM    2  C4  UNL     1     -33.267  16.248  -2.983  1.00 20.00     0.024 C 
HETATM    3  C7  UNL     1     -34.280  15.740  -4.031  1.00 20.00     0.029 C 
ENDROOT
BRANCH   3   4
HETATM    4  C1  UNL     1     -33.591  14.692  -4.934  1.00 20.00     0.226 C 
HETATM    5  O8  UNL     1     -32.928  13.767  -4.468  1.00 20.00    -0.279 OA
HETATM    6 CL9  UNL     1     -33.836  14.941  -6.648  1.00 20.00    -0.043 Cl
ENDBRANCH   3   4
BRANCH   3   7
HETATM    7  C6  UNL     1     -35.533  15.159  -3.327  1.00 20.00     0.017 C 
BRANCH   7   8
HETATM    8  C5  UNL     1     -36.388  14.228  -4.196  1.00 20.00    -0.003 C 
HETATM    9  C2  UNL     1     -37.816  14.740  -4.314  1.00 20.00     0.005 C 
ENDBRANCH   7   8
ENDBRANCH   3   7
TORSDOF 3
ENDMDL
MODEL 9
REMARK VINA RESULT:      -3.6      1.981      2.537
REMARK  3 active torsions:
REMARK  status: ('A' for Active; 'I' for Inactive)
REMARK    1  A    between atoms: C1_1  and  C7_7 
REMARK    2  A    between atoms: C5_5  and  C6_6 
REMARK    3  A    between atoms: C6_6  and  C7_7 
ROOT
HETATM    1  C3  UNL     1     -36.107  13.808  -4.488  1.00 20.00     0.024 C 
HETATM    2  C4  UNL     1     -36.511  16.256  -4.347  1.00 20.00     0.024 C 
HETATM    3  C7  UNL     1     -35.408  15.177  -4.373  1.00 20.00     0.029 C 
ENDROOT
BRANCH   3   4
HETATM    4  C1  UNL     1     -34.515  15.395  -5.616  1.00 20.00     0.226 C 
HETATM    5  O8  UNL     1     -33.820  14.495  -6.082  1.00 20.00    -0.279 OA
HETATM    6 CL9  UNL     1     -34.582  17.011  -6.280  1.00 20.00    -0.043 Cl
ENDBRANCH   3   4
BRANCH   3   7
HETATM    7  C6  UNL     1     -34.585  15.220  -3.059  1.00 20.00     0.017 C 
BRANCH   7   8
HETATM    8  C5  UNL     1     -33.326  16.094  -3.113  1.00 20.00    -0.003 C 
HETATM    9  C2  UNL     1     -33.392  17.220  -2.091  1.00 20.00     0.005 C 
ENDBRANCH   7   8
ENDBRANCH   3   7
TORSDOF 3
ENDMDL
