MODEL 1
REMARK VINA RESULT:      -4.7      0.000      0.000
REMARK  1 active torsions:
REMARK  status: ('A' for Active; 'I' for Inactive)
REMARK    1  A    between atoms: C1_1  and  C6_6 
ROOT
HETATM    1  C2  UNL     1     -34.359  17.251  -4.460  1.00 20.00     0.005 C 
HETATM    2  C3  UNL     1     -35.702  16.846  -3.839  1.00 20.00     0.006 C 
HETATM    3  C4  UNL     1     -33.463  14.939  -4.117  1.00 20.00     0.016 C 
HETATM    4  C5  UNL     1     -33.983  16.370  -2.280  1.00 20.00     0.010 C 
HETATM    5  C6  UNL     1     -34.791  14.494  -3.481  1.00 20.00     0.051 C 
HETATM    6  C7  UNL     1     -33.344  16.408  -3.670  1.00 20.00    -0.013 C 
HETATM    7  C8  UNL     1     -35.298  15.782  -2.800  1.00 20.00    -0.003 C 
ENDROOT
BRANCH   5   8
HETATM    8  C1  UNL     1     -35.755  13.914  -4.466  1.00 20.00     0.236 C 
HETATM    9  O9  UNL     1     -35.946  12.709  -4.597  1.00 20.00    -0.306 OA
ENDBRANCH   5   8
TORSDOF 1
ENDMDL
MODEL 2
REMARK VINA RESULT:      -4.5     10.379     12.134
REMARK  1 active torsions:
REMARK  status: ('A' for Active; 'I' for Inactive)
REMARK    1  A    between atoms: C1_1  and  C6_6 
ROOT
HETATM    1  C2  UNL     1     -42.719   5.982  -1.354  1.00 20.00     0.005 C 
HETATM    2  C3  UNL     1     -41.236   6.237  -1.053  1.00 20.00     0.006 C 
HETATM    3  C4  UNL     1     -43.393   7.622   0.413  1.00 20.00     0.016 C 
HETATM    4  C5  UNL     1     -42.302   5.571   0.955  1.00 20.00     0.010 C 
HETATM    5  C6  UNL     1     -41.919   7.900   0.752  1.00 20.00     0.051 C 
HETATM    6  C7  UNL     1     -43.381   6.131   0.026  1.00 20.00    -0.013 C 
HETATM    7  C8  UNL     1     -41.235   6.549   0.456  1.00 20.00    -0.003 C 
ENDROOT
BRANCH   5   8
HETATM    8  C1  UNL     1     -41.341   9.047  -0.014  1.00 20.00     0.236 C 
HETATM    9  O9  UNL     1     -41.418  10.214   0.356  1.00 20.00    -0.306 OA
ENDBRANCH   5   8
TORSDOF 1
ENDMDL
MODEL 3
REMARK VINA RESULT:      -4.4      1.201      2.104
REMARK  1 active torsions:
REMARK  status: ('A' for Active; 'I' for Inactive)
REMARK    1  A    between atoms: C1_1  and  C6_6 
ROOT
HETATM    1  C2  UNL     1     -32.997  14.840  -4.211  1.00 20.00     0.005 C 
HETATM    2  C3  UNL     1     -33.841  14.872  -5.492  1.00 20.00     0.006 C 
HETATM    3  C4  UNL     1     -35.034  15.262  -2.818  1.00 20.00     0.016 C 
HETATM    4  C5  UNL     1     -34.180  16.904  -4.323  1.00 20.00     0.010 C 
HETATM    5  C6  UNL     1     -35.915  15.309  -4.078  1.00 20.00     0.051 C 
HETATM    6  C7  UNL     1     -33.704  15.864  -3.307  1.00 20.00    -0.013 C 
HETATM    7  C8  UNL     1     -34.959  15.875  -5.148  1.00 20.00    -0.003 C 
ENDROOT
BRANCH   5   8
HETATM    8  C1  UNL     1     -36.505  13.983  -4.440  1.00 20.00     0.236 C 
HETATM    9  O9  UNL     1     -37.709  13.749  -4.414  1.00 20.00    -0.306 OA
ENDBRANCH   5   8
TORSDOF 1
ENDMDL
MODEL 4
REMARK VINA RESULT:      -4.3     11.612     12.707
REMARK  1 active torsions:
REMARK  status: ('A' for Active; 'I' for Inactive)
REMARK    1  A    between atoms: C1_1  and  C6_6 
ROOT
HETATM    1  C2  UNL     1     -33.923   5.010   5.862  1.00 20.00     0.005 C 
HETATM    2  C3  UNL     1     -34.039   6.522   5.631  1.00 20.00     0.006 C 
HETATM    3  C4  UNL     1     -33.645   4.621   3.405  1.00 20.00     0.016 C 
HETATM    4  C5  UNL     1     -35.690   5.438   4.323  1.00 20.00     0.010 C 
HETATM    5  C6  UNL     1     -33.765   6.130   3.129  1.00 20.00     0.051 C 
HETATM    6  C7  UNL     1     -34.586   4.417   4.607  1.00 20.00    -0.013 C 
HETATM    7  C8  UNL     1     -34.711   6.613   4.247  1.00 20.00    -0.003 C 
ENDROOT
BRANCH   5   8
HETATM    8  C1  UNL     1     -32.446   6.835   3.109  1.00 20.00     0.236 C 
HETATM    9  O9  UNL     1     -32.092   7.582   2.203  1.00 20.00    -0.306 OA
ENDBRANCH   5   8
TORSDOF 1
ENDMDL
MODEL 5
REMARK VINA RESULT:      -4.3     10.257     12.015
REMARK  1 active torsions:
REMARK  status: ('A' for Active; 'I' for Inactive)
REMARK    1  A    between atoms: C1_1  and  C6_6 
ROOT
HETATM    1  C2  UNL     1     -42.237   5.590   0.698  1.00 20.00     0.005 C 
HETATM    2  C3  UNL     1     -43.131   6.779   1.073  1.00 20.00     0.006 C 
HETATM    3  C4  UNL     1     -41.083   6.964  -1.047  1.00 20.00     0.016 C 
HETATM    4  C5  UNL     1     -43.382   6.356  -1.245  1.00 20.00     0.010 C 
HETATM    5  C6  UNL     1     -41.965   8.178  -0.709  1.00 20.00     0.051 C 
HETATM    6  C7  UNL     1     -42.033   5.775  -0.815  1.00 20.00    -0.013 C 
HETATM    7  C8  UNL     1     -43.292   7.529  -0.264  1.00 20.00    -0.003 C 
ENDROOT
BRANCH   5   8
HETATM    8  C1  UNL     1     -41.362   9.080   0.320  1.00 20.00     0.236 C 
HETATM    9  O9  UNL     1     -41.531  10.295   0.337  1.00 20.00    -0.306 OA
ENDBRANCH   5   8
TORSDOF 1
ENDMDL
MODEL 6
REMARK VINA RESULT:      -4.3     17.766     18.678
REMARK  1 active torsions:
REMARK  status: ('A' for Active; 'I' for Inactive)
REMARK    1  A    between atoms: C1_1  and  C6_6 
ROOT
HETATM    1  C2  UNL     1     -24.654  18.498  12.073  1.00 20.00     0.005 C 
HETATM    2  C3  UNL     1     -25.177  18.104  10.686  1.00 20.00     0.006 C 
HETATM    3  C4  UNL     1     -22.338  17.794  11.436  1.00 20.00     0.016 C 
HETATM    4  C5  UNL     1     -24.116  16.217  11.647  1.00 20.00     0.010 C 
HETATM    5  C6  UNL     1     -22.823  17.379  10.036  1.00 20.00     0.051 C 
HETATM    6  C7  UNL     1     -23.547  17.462  12.330  1.00 20.00    -0.013 C 
HETATM    7  C8  UNL     1     -24.273  16.920  10.295  1.00 20.00    -0.003 C 
ENDROOT
BRANCH   5   8
HETATM    8  C1  UNL     1     -22.710  18.472   9.021  1.00 20.00     0.236 C 
HETATM    9  O9  UNL     1     -21.764  19.251   8.969  1.00 20.00    -0.306 OA
ENDBRANCH   5   8
TORSDOF 1
ENDMDL
MODEL 7
REMARK VINA RESULT:      -4.3      0.808      1.166
REMARK  1 active torsions:
REMARK  status: ('A' for Active; 'I' for Inactive)
REMARK    1  A    between atoms: C1_1  and  C6_6 
ROOT
HETATM    1  C2  UNL     1     -35.371  17.285  -3.634  1.00 20.00     0.005 C 
HETATM    2  C3  UNL     1     -35.485  16.132  -2.628  1.00 20.00     0.006 C 
HETATM    3  C4  UNL     1     -34.416  15.736  -5.352  1.00 20.00     0.016 C 
HETATM    4  C5  UNL     1     -33.234  16.273  -3.351  1.00 20.00     0.010 C 
HETATM    5  C6  UNL     1     -34.506  14.554  -4.371  1.00 20.00     0.051 C 
HETATM    6  C7  UNL     1     -34.103  16.927  -4.427  1.00 20.00    -0.013 C 
HETATM    7  C8  UNL     1     -34.296  15.227  -2.999  1.00 20.00    -0.003 C 
ENDROOT
BRANCH   5   8
HETATM    8  C1  UNL     1     -35.788  13.792  -4.478  1.00 20.00     0.236 C 
HETATM    9  O9  UNL     1     -35.853  12.568  -4.429  1.00 20.00    -0.306 OA
ENDBRANCH   5   8
TORSDOF 1
ENDMDL
MODEL 8
REMARK VINA RESULT:      -4.1      1.034      1.034
REMARK  1 active torsions:
REMARK  status: ('A' for Active; 'I' for Inactive)
REMARK    1  A    between atoms: C1_1  and  C6_6 
ROOT
HETATM    1  C2  UNL     1     -33.637  17.391  -3.872  1.00 20.00     0.005 C 
HETATM    2  C3  UNL     1     -35.152  17.298  -4.092  1.00 20.00     0.006 C 
HETATM    3  C4  UNL     1     -33.432  14.899  -4.003  1.00 20.00     0.016 C 
HETATM    4  C5  UNL     1     -34.587  15.972  -2.212  1.00 20.00     0.010 C 
HETATM    5  C6  UNL     1     -34.949  14.762  -4.217  1.00 20.00     0.051 C 
HETATM    6  C7  UNL     1     -33.327  16.118  -3.067  1.00 20.00    -0.013 C 
HETATM    7  C8  UNL     1     -35.520  15.958  -3.427  1.00 20.00    -0.003 C 
ENDROOT
BRANCH   5   8
HETATM    8  C1  UNL     1     -35.345  14.749  -5.659  1.00 20.00     0.236 C 
HETATM    9  O9  UNL     1     -35.971  13.832  -6.180  1.00 20.00    -0.306 OA
ENDBRANCH   5   8
TORSDOF 1
ENDMDL
MODEL 9
REMARK VINA RESULT:      -4.1     10.915     11.912
REMARK  1 active torsions:
REMARK  status: ('A' for Active; 'I' for Inactive)
REMARK    1  A    between atoms: C1_1  and  C6_6 
ROOT
HETATM    1  C2  UNL     1     -43.384   8.431   0.301  1.00 20.00     0.005 C 
HETATM    2  C3  UNL     1     -43.305   7.073   1.012  1.00 20.00     0.006 C 
HETATM    3  C4  UNL     1     -41.766   7.650  -1.442  1.00 20.00     0.016 C 
HETATM    4  C5  UNL     1     -41.113   7.952   0.833  1.00 20.00     0.010 C 
HETATM    5  C6  UNL     1     -41.652   6.279  -0.755  1.00 20.00     0.051 C 
HETATM    6  C7  UNL     1     -41.962   8.612  -0.255  1.00 20.00    -0.013 C 
HETATM    7  C8  UNL     1     -41.859   6.619   0.735  1.00 20.00    -0.003 C 
ENDROOT
BRANCH   5   8
HETATM    8  C1  UNL     1     -42.620   5.269  -1.283  1.00 20.00     0.236 C 
HETATM    9  O9  UNL     1     -42.293   4.324  -1.993  1.00 20.00    -0.306 OA
ENDBRANCH   5   8
TORSDOF 1
ENDMDL
