MODEL 1
REMARK VINA RESULT:      -5.0      0.000      0.000
REMARK  4 active torsions:
REMARK  status: ('A' for Active; 'I' for Inactive)
REMARK    1  A    between atoms: C3_3  and  C6_6 
REMARK    2  A    between atoms: C5_5  and  C7_7 
REMARK    3  A    between atoms: C6_6  and  C8_8 
REMARK    4  A    between atoms: C7_7  and  C8_8 
ROOT
HETATM    1  C1  UNL     1     -32.677   7.985   1.454  1.00 20.00     0.059 C 
HETATM    2  C5  UNL     1     -32.543   7.028   2.561  1.00 20.00     0.124 C 
HETATM    3  N9  UNL     1     -32.783   8.739   0.580  1.00 20.00    -0.197 NA
ENDROOT
BRANCH   2   4
HETATM    4  C7  UNL     1     -32.938   5.609   2.151  1.00 20.00     0.014 C 
BRANCH   4   5
HETATM    5  C8  UNL     1     -33.804   4.906   3.205  1.00 20.00     0.005 C 
BRANCH   5   6
HETATM    6  C6  UNL     1     -34.712   5.872   3.978  1.00 20.00     0.033 C 
BRANCH   6   7
HETATM    7  C3  UNL     1     -34.490   5.885   5.473  1.00 20.00    -0.093 C 
HETATM    8  C2  UNL     1     -34.868   4.856   6.247  1.00 20.00     0.014 C 
HETATM    9  C4  UNL     1     -33.795   7.084   6.051  1.00 20.00     0.042 C 
ENDBRANCH   6   7
ENDBRANCH   5   6
ENDBRANCH   4   5
ENDBRANCH   2   4
TORSDOF 4
ENDMDL
MODEL 2
REMARK VINA RESULT:      -4.9      0.086      1.173
REMARK  4 active torsions:
REMARK  status: ('A' for Active; 'I' for Inactive)
REMARK    1  A    between atoms: C3_3  and  C6_6 
REMARK    2  A    between atoms: C5_5  and  C7_7 
REMARK    3  A    between atoms: C6_6  and  C8_8 
REMARK    4  A    between atoms: C7_7  and  C8_8 
ROOT
HETATM    1  C1  UNL     1     -32.673   7.996   1.439  1.00 20.00     0.059 C 
HETATM    2  C5  UNL     1     -32.501   7.060   2.558  1.00 20.00     0.124 C 
HETATM    3  N9  UNL     1     -32.810   8.735   0.556  1.00 20.00    -0.197 NA
ENDROOT
BRANCH   2   4
HETATM    4  C7  UNL     1     -32.883   5.628   2.179  1.00 20.00     0.014 C 
BRANCH   4   5
HETATM    5  C8  UNL     1     -33.836   4.979   3.192  1.00 20.00     0.005 C 
BRANCH   5   6
HETATM    6  C6  UNL     1     -34.665   6.004   3.978  1.00 20.00     0.033 C 
BRANCH   6   7
HETATM    7  C3  UNL     1     -34.394   6.026   5.465  1.00 20.00    -0.093 C 
HETATM    8  C2  UNL     1     -33.769   7.061   6.049  1.00 20.00     0.014 C 
HETATM    9  C4  UNL     1     -34.884   4.855   6.267  1.00 20.00     0.042 C 
ENDBRANCH   6   7
ENDBRANCH   5   6
ENDBRANCH   4   5
ENDBRANCH   2   4
TORSDOF 4
ENDMDL
MODEL 3
REMARK VINA RESULT:      -4.7      2.124      4.214
REMARK  4 active torsions:
REMARK  status: ('A' for Active; 'I' for Inactive)
REMARK    1  A    between atoms: C3_3  and  C6_6 
REMARK    2  A    between atoms: C5_5  and  C7_7 
REMARK    3  A    between atoms: C6_6  and  C8_8 
REMARK    4  A    between atoms: C7_7  and  C8_8 
ROOT
HETATM    1  C1  UNL     1     -34.314   6.183   5.963  1.00 20.00     0.059 C 
HETATM    2  C5  UNL     1     -34.822   4.846   5.625  1.00 20.00     0.124 C 
HETATM    3  N9  UNL     1     -33.912   7.238   6.229  1.00 20.00    -0.197 NA
ENDROOT
BRANCH   2   4
HETATM    4  C7  UNL     1     -34.435   4.421   4.208  1.00 20.00     0.014 C 
BRANCH   4   5
HETATM    5  C8  UNL     1     -34.383   5.599   3.228  1.00 20.00     0.005 C 
BRANCH   5   6
HETATM    6  C6  UNL     1     -33.044   5.705   2.485  1.00 20.00     0.033 C 
BRANCH   6   7
HETATM    7  C3  UNL     1     -32.450   7.095   2.454  1.00 20.00    -0.093 C 
HETATM    8  C2  UNL     1     -31.768   7.590   3.499  1.00 20.00     0.014 C 
HETATM    9  C4  UNL     1     -32.625   7.886   1.189  1.00 20.00     0.042 C 
ENDBRANCH   6   7
ENDBRANCH   5   6
ENDBRANCH   4   5
ENDBRANCH   2   4
TORSDOF 4
ENDMDL
MODEL 4
REMARK VINA RESULT:      -4.4      1.098      1.763
REMARK  4 active torsions:
REMARK  status: ('A' for Active; 'I' for Inactive)
REMARK    1  A    between atoms: C3_3  and  C6_6 
REMARK    2  A    between atoms: C5_5  and  C7_7 
REMARK    3  A    between atoms: C6_6  and  C8_8 
REMARK    4  A    between atoms: C7_7  and  C8_8 
ROOT
HETATM    1  C1  UNL     1     -32.994   8.516   0.344  1.00 20.00     0.059 C 
HETATM    2  C5  UNL     1     -32.150   8.061   1.458  1.00 20.00     0.124 C 
HETATM    3  N9  UNL     1     -33.660   8.874  -0.535  1.00 20.00    -0.197 NA
ENDROOT
BRANCH   2   4
HETATM    4  C7  UNL     1     -32.707   6.805   2.130  1.00 20.00     0.014 C 
BRANCH   4   5
HETATM    5  C8  UNL     1     -32.771   6.928   3.658  1.00 20.00     0.005 C 
BRANCH   5   6
HETATM    6  C6  UNL     1     -34.191   6.758   4.215  1.00 20.00     0.033 C 
BRANCH   6   7
HETATM    7  C3  UNL     1     -34.469   5.404   4.827  1.00 20.00    -0.093 C 
HETATM    8  C2  UNL     1     -34.841   5.278   6.111  1.00 20.00     0.014 C 
HETATM    9  C4  UNL     1     -34.346   4.207   3.929  1.00 20.00     0.042 C 
ENDBRANCH   6   7
ENDBRANCH   5   6
ENDBRANCH   4   5
ENDBRANCH   2   4
TORSDOF 4
ENDMDL
MODEL 5
REMARK VINA RESULT:      -4.3      2.367      4.897
REMARK  4 active torsions:
REMARK  status: ('A' for Active; 'I' for Inactive)
REMARK    1  A    between atoms: C3_3  and  C6_6 
REMARK    2  A    between atoms: C5_5  and  C7_7 
REMARK    3  A    between atoms: C6_6  and  C8_8 
REMARK    4  A    between atoms: C7_7  and  C8_8 
ROOT
HETATM    1  C1  UNL     1     -34.522   5.605   4.984  1.00 20.00     0.059 C 
HETATM    2  C5  UNL     1     -34.490   4.964   3.662  1.00 20.00     0.124 C 
HETATM    3  N9  UNL     1     -34.547   6.112   6.027  1.00 20.00    -0.197 NA
ENDROOT
BRANCH   2   4
HETATM    4  C7  UNL     1     -33.290   5.417   2.828  1.00 20.00     0.014 C 
BRANCH   4   5
HETATM    5  C8  UNL     1     -33.057   6.931   2.898  1.00 20.00     0.005 C 
BRANCH   5   6
HETATM    6  C6  UNL     1     -32.192   7.459   1.745  1.00 20.00     0.033 C 
BRANCH   6   7
HETATM    7  C3  UNL     1     -32.855   8.519   0.895  1.00 20.00    -0.093 C 
HETATM    8  C2  UNL     1     -33.062   9.762   1.359  1.00 20.00     0.014 C 
HETATM    9  C4  UNL     1     -33.242   8.133  -0.503  1.00 20.00     0.042 C 
ENDBRANCH   6   7
ENDBRANCH   5   6
ENDBRANCH   4   5
ENDBRANCH   2   4
TORSDOF 4
ENDMDL
MODEL 6
REMARK VINA RESULT:      -4.3      2.345      4.795
REMARK  4 active torsions:
REMARK  status: ('A' for Active; 'I' for Inactive)
REMARK    1  A    between atoms: C3_3  and  C6_6 
REMARK    2  A    between atoms: C5_5  and  C7_7 
REMARK    3  A    between atoms: C6_6  and  C8_8 
REMARK    4  A    between atoms: C7_7  and  C8_8 
ROOT
HETATM    1  C1  UNL     1     -34.442   5.702   5.042  1.00 20.00     0.059 C 
HETATM    2  C5  UNL     1     -34.520   5.015   3.746  1.00 20.00     0.124 C 
HETATM    3  N9  UNL     1     -34.380   6.245   6.065  1.00 20.00    -0.197 NA
ENDROOT
BRANCH   2   4
HETATM    4  C7  UNL     1     -33.381   5.417   2.808  1.00 20.00     0.014 C 
BRANCH   4   5
HETATM    5  C8  UNL     1     -33.059   6.915   2.872  1.00 20.00     0.005 C 
BRANCH   5   6
HETATM    6  C6  UNL     1     -32.200   7.396   1.694  1.00 20.00     0.033 C 
BRANCH   6   7
HETATM    7  C3  UNL     1     -32.851   8.451   0.830  1.00 20.00    -0.093 C 
HETATM    8  C2  UNL     1     -33.222   8.191  -0.434  1.00 20.00     0.014 C 
HETATM    9  C4  UNL     1     -33.097   9.793   1.456  1.00 20.00     0.042 C 
ENDBRANCH   6   7
ENDBRANCH   5   6
ENDBRANCH   4   5
ENDBRANCH   2   4
TORSDOF 4
ENDMDL
MODEL 7
REMARK VINA RESULT:      -4.2     11.383     12.119
REMARK  4 active torsions:
REMARK  status: ('A' for Active; 'I' for Inactive)
REMARK    1  A    between atoms: C3_3  and  C6_6 
REMARK    2  A    between atoms: C5_5  and  C7_7 
REMARK    3  A    between atoms: C6_6  and  C8_8 
REMARK    4  A    between atoms: C7_7  and  C8_8 
ROOT
HETATM    1  C1  UNL     1     -37.273  14.684  -4.744  1.00 20.00     0.059 C 
HETATM    2  C5  UNL     1     -36.248  15.550  -5.343  1.00 20.00     0.124 C 
HETATM    3  N9  UNL     1     -38.082  14.000  -4.271  1.00 20.00    -0.197 NA
ENDROOT
BRANCH   2   4
HETATM    4  C7  UNL     1     -34.896  14.845  -5.467  1.00 20.00     0.014 C 
BRANCH   4   5
HETATM    5  C8  UNL     1     -34.287  14.486  -4.106  1.00 20.00     0.005 C 
BRANCH   5   6
HETATM    6  C6  UNL     1     -33.294  15.540  -3.595  1.00 20.00     0.033 C 
BRANCH   6   7
HETATM    7  C3  UNL     1     -33.820  16.410  -2.476  1.00 20.00    -0.093 C 
HETATM    8  C2  UNL     1     -35.014  16.179  -1.910  1.00 20.00     0.014 C 
HETATM    9  C4  UNL     1     -32.933  17.525  -2.001  1.00 20.00     0.042 C 
ENDBRANCH   6   7
ENDBRANCH   5   6
ENDBRANCH   4   5
ENDBRANCH   2   4
TORSDOF 4
ENDMDL
MODEL 8
REMARK VINA RESULT:      -4.1     11.189     12.079
REMARK  4 active torsions:
REMARK  status: ('A' for Active; 'I' for Inactive)
REMARK    1  A    between atoms: C3_3  and  C6_6 
REMARK    2  A    between atoms: C5_5  and  C7_7 
REMARK    3  A    between atoms: C6_6  and  C8_8 
REMARK    4  A    between atoms: C7_7  and  C8_8 
ROOT
HETATM    1  C1  UNL     1     -36.080  13.922  -4.300  1.00 20.00     0.059 C 
HETATM    2  C5  UNL     1     -34.691  14.225  -3.928  1.00 20.00     0.124 C 
HETATM    3  N9  UNL     1     -37.176  13.684  -4.593  1.00 20.00    -0.197 NA
ENDROOT
BRANCH   2   4
HETATM    4  C7  UNL     1     -34.590  15.444  -3.010  1.00 20.00     0.014 C 
BRANCH   4   5
HETATM    5  C8  UNL     1     -33.221  16.132  -3.085  1.00 20.00     0.005 C 
BRANCH   5   6
HETATM    6  C6  UNL     1     -33.280  17.627  -2.741  1.00 20.00     0.033 C 
BRANCH   6   7
HETATM    7  C3  UNL     1     -33.026  17.948  -1.286  1.00 20.00    -0.093 C 
HETATM    8  C2  UNL     1     -34.010  17.900  -0.374  1.00 20.00     0.014 C 
HETATM    9  C4  UNL     1     -31.616  18.290  -0.897  1.00 20.00     0.042 C 
ENDBRANCH   6   7
ENDBRANCH   5   6
ENDBRANCH   4   5
ENDBRANCH   2   4
TORSDOF 4
ENDMDL
MODEL 9
REMARK VINA RESULT:      -4.1      2.266      4.472
REMARK  4 active torsions:
REMARK  status: ('A' for Active; 'I' for Inactive)
REMARK    1  A    between atoms: C3_3  and  C6_6 
REMARK    2  A    between atoms: C5_5  and  C7_7 
REMARK    3  A    between atoms: C6_6  and  C8_8 
REMARK    4  A    between atoms: C7_7  and  C8_8 
ROOT
HETATM    1  C1  UNL     1     -34.639   4.658   5.005  1.00 20.00     0.059 C 
HETATM    2  C5  UNL     1     -34.750   5.650   6.083  1.00 20.00     0.124 C 
HETATM    3  N9  UNL     1     -34.550   3.874   4.154  1.00 20.00    -0.197 NA
ENDROOT
BRANCH   2   4
HETATM    4  C7  UNL     1     -33.710   6.763   5.954  1.00 20.00     0.014 C 
BRANCH   4   5
HETATM    5  C8  UNL     1     -33.765   7.473   4.595  1.00 20.00     0.005 C 
BRANCH   5   6
HETATM    6  C6  UNL     1     -32.449   7.370   3.811  1.00 20.00     0.033 C 
BRANCH   6   7
HETATM    7  C3  UNL     1     -32.607   6.931   2.373  1.00 20.00    -0.093 C 
HETATM    8  C2  UNL     1     -32.902   5.660   2.056  1.00 20.00     0.014 C 
HETATM    9  C4  UNL     1     -32.454   7.985   1.314  1.00 20.00     0.042 C 
ENDBRANCH   6   7
ENDBRANCH   5   6
ENDBRANCH   4   5
ENDBRANCH   2   4
TORSDOF 4
ENDMDL
