MODEL 1
REMARK VINA RESULT:      -5.6      0.000      0.000
REMARK  2 active torsions:
REMARK  status: ('A' for Active; 'I' for Inactive)
REMARK    1  A    between atoms: C1_1  and  C3_3 
REMARK    2  A    between atoms: C2_2  and  C3_3 
ROOT
HETATM    1  C3  UNL     1     -34.561   5.813   4.369  1.00 20.00     0.358 C 
HETATM    2  F8  UNL     1     -34.272   7.068   3.943  1.00 20.00    -0.194 F 
HETATM    3  F9  UNL     1     -35.877   5.603   4.118  1.00 20.00    -0.194 F 
ENDROOT
BRANCH   1   4
HETATM    4  C1  UNL     1     -33.744   4.821   3.578  1.00 20.00     0.430 C 
HETATM    5  F4  UNL     1     -34.269   3.580   3.740  1.00 20.00    -0.208 F 
HETATM    6  F5  UNL     1     -33.814   5.107   2.256  1.00 20.00    -0.208 F 
ENDBRANCH   1   4
BRANCH   1   7
HETATM    7  C2  UNL     1     -34.322   5.732   5.857  1.00 20.00     0.430 C 
HETATM    8  F6  UNL     1     -34.366   6.980   6.386  1.00 20.00    -0.208 F 
HETATM    9  F7  UNL     1     -35.310   5.021   6.450  1.00 20.00    -0.208 F 
ENDBRANCH   1   7
TORSDOF 2
ENDMDL
MODEL 2
REMARK VINA RESULT:      -5.5      0.779      3.043
REMARK  2 active torsions:
REMARK  status: ('A' for Active; 'I' for Inactive)
REMARK    1  A    between atoms: C1_1  and  C3_3 
REMARK    2  A    between atoms: C2_2  and  C3_3 
ROOT
HETATM    1  C3  UNL     1     -34.771   5.266   4.481  1.00 20.00     0.358 C 
HETATM    2  F8  UNL     1     -34.567   3.947   4.235  1.00 20.00    -0.194 F 
HETATM    3  F9  UNL     1     -35.975   5.587   3.947  1.00 20.00    -0.194 F 
ENDROOT
BRANCH   1   4
HETATM    4  C1  UNL     1     -34.819   5.488   5.974  1.00 20.00     0.430 C 
HETATM    5  F4  UNL     1     -34.004   4.592   6.586  1.00 20.00    -0.208 F 
HETATM    6  F5  UNL     1     -34.346   6.720   6.278  1.00 20.00    -0.208 F 
ENDBRANCH   1   4
BRANCH   1   7
HETATM    7  C2  UNL     1     -33.693   6.067   3.793  1.00 20.00     0.430 C 
HETATM    8  F6  UNL     1     -33.398   5.490   2.601  1.00 20.00    -0.208 F 
HETATM    9  F7  UNL     1     -34.141   7.316   3.524  1.00 20.00    -0.208 F 
ENDBRANCH   1   7
TORSDOF 2
ENDMDL
MODEL 3
REMARK VINA RESULT:      -5.5      0.778      1.935
REMARK  2 active torsions:
REMARK  status: ('A' for Active; 'I' for Inactive)
REMARK    1  A    between atoms: C1_1  and  C3_3 
REMARK    2  A    between atoms: C2_2  and  C3_3 
ROOT
HETATM    1  C3  UNL     1     -34.773   5.263   4.480  1.00 20.00     0.358 C 
HETATM    2  F8  UNL     1     -35.976   5.592   3.945  1.00 20.00    -0.194 F 
HETATM    3  F9  UNL     1     -34.577   3.944   4.233  1.00 20.00    -0.194 F 
ENDROOT
BRANCH   1   4
HETATM    4  C1  UNL     1     -33.691   6.059   3.791  1.00 20.00     0.430 C 
HETATM    5  F4  UNL     1     -33.397   5.477   2.601  1.00 20.00    -0.208 F 
HETATM    6  F5  UNL     1     -34.133   7.309   3.518  1.00 20.00    -0.208 F 
ENDBRANCH   1   4
BRANCH   1   7
HETATM    7  C2  UNL     1     -34.821   5.486   5.972  1.00 20.00     0.430 C 
HETATM    8  F6  UNL     1     -34.002   4.596   6.585  1.00 20.00    -0.208 F 
HETATM    9  F7  UNL     1     -34.352   6.721   6.273  1.00 20.00    -0.208 F 
ENDBRANCH   1   7
TORSDOF 2
ENDMDL
MODEL 4
REMARK VINA RESULT:      -5.5      0.510      3.105
REMARK  2 active torsions:
REMARK  status: ('A' for Active; 'I' for Inactive)
REMARK    1  A    between atoms: C1_1  and  C3_3 
REMARK    2  A    between atoms: C2_2  and  C3_3 
ROOT
HETATM    1  C3  UNL     1     -34.700   5.792   4.428  1.00 20.00     0.358 C 
HETATM    2  F8  UNL     1     -35.983   5.545   4.062  1.00 20.00    -0.194 F 
HETATM    3  F9  UNL     1     -34.384   7.023   3.955  1.00 20.00    -0.194 F 
ENDROOT
BRANCH   1   4
HETATM    4  C1  UNL     1     -34.610   5.806   5.935  1.00 20.00     0.430 C 
HETATM    5  F4  UNL     1     -34.149   4.605   6.366  1.00 20.00    -0.208 F 
HETATM    6  F5  UNL     1     -33.714   6.738   6.341  1.00 20.00    -0.208 F 
ENDBRANCH   1   4
BRANCH   1   7
HETATM    7  C2  UNL     1     -33.799   4.768   3.785  1.00 20.00     0.430 C 
HETATM    8  F6  UNL     1     -34.415   3.559   3.797  1.00 20.00    -0.208 F 
HETATM    9  F7  UNL     1     -33.585   5.085   2.486  1.00 20.00    -0.208 F 
ENDBRANCH   1   7
TORSDOF 2
ENDMDL
MODEL 5
REMARK VINA RESULT:      -5.5      0.516      1.098
REMARK  2 active torsions:
REMARK  status: ('A' for Active; 'I' for Inactive)
REMARK    1  A    between atoms: C1_1  and  C3_3 
REMARK    2  A    between atoms: C2_2  and  C3_3 
ROOT
HETATM    1  C3  UNL     1     -34.742   5.758   4.439  1.00 20.00     0.358 C 
HETATM    2  F8  UNL     1     -34.394   7.003   4.027  1.00 20.00    -0.194 F 
HETATM    3  F9  UNL     1     -36.006   5.535   4.002  1.00 20.00    -0.194 F 
ENDROOT
BRANCH   1   4
HETATM    4  C1  UNL     1     -33.816   4.750   3.803  1.00 20.00     0.430 C 
HETATM    5  F4  UNL     1     -34.420   3.535   3.791  1.00 20.00    -0.208 F 
HETATM    6  F5  UNL     1     -33.579   5.083   2.512  1.00 20.00    -0.208 F 
ENDBRANCH   1   4
BRANCH   1   7
HETATM    7  C2  UNL     1     -34.725   5.717   5.947  1.00 20.00     0.430 C 
HETATM    8  F6  UNL     1     -34.038   4.622   6.358  1.00 20.00    -0.208 F 
HETATM    9  F7  UNL     1     -34.068   6.796   6.436  1.00 20.00    -0.208 F 
ENDBRANCH   1   7
TORSDOF 2
ENDMDL
MODEL 6
REMARK VINA RESULT:      -5.4      0.762      3.116
REMARK  2 active torsions:
REMARK  status: ('A' for Active; 'I' for Inactive)
REMARK    1  A    between atoms: C1_1  and  C3_3 
REMARK    2  A    between atoms: C2_2  and  C3_3 
ROOT
HETATM    1  C3  UNL     1     -34.631   5.326   4.316  1.00 20.00     0.358 C 
HETATM    2  F8  UNL     1     -34.457   3.996   4.108  1.00 20.00    -0.194 F 
HETATM    3  F9  UNL     1     -35.936   5.599   4.068  1.00 20.00    -0.194 F 
ENDROOT
BRANCH   1   4
HETATM    4  C1  UNL     1     -34.327   5.644   5.760  1.00 20.00     0.430 C 
HETATM    5  F4  UNL     1     -34.509   6.972   5.973  1.00 20.00    -0.208 F 
HETATM    6  F5  UNL     1     -35.194   4.995   6.574  1.00 20.00    -0.208 F 
ENDBRANCH   1   4
BRANCH   1   7
HETATM    7  C2  UNL     1     -33.770   6.092   3.342  1.00 20.00     0.430 C 
HETATM    8  F6  UNL     1     -32.867   6.835   4.030  1.00 20.00    -0.208 F 
HETATM    9  F7  UNL     1     -33.063   5.234   2.569  1.00 20.00    -0.208 F 
ENDBRANCH   1   7
TORSDOF 2
ENDMDL
MODEL 7
REMARK VINA RESULT:      -5.2      0.805      2.988
REMARK  2 active torsions:
REMARK  status: ('A' for Active; 'I' for Inactive)
REMARK    1  A    between atoms: C1_1  and  C3_3 
REMARK    2  A    between atoms: C2_2  and  C3_3 
ROOT
HETATM    1  C3  UNL     1     -34.876   5.312   4.759  1.00 20.00     0.358 C 
HETATM    2  F8  UNL     1     -35.174   4.838   5.994  1.00 20.00    -0.194 F 
HETATM    3  F9  UNL     1     -36.034   5.766   4.218  1.00 20.00    -0.194 F 
ENDROOT
BRANCH   1   4
HETATM    4  C1  UNL     1     -33.909   6.464   4.891  1.00 20.00     0.430 C 
HETATM    5  F4  UNL     1     -34.114   7.338   3.874  1.00 20.00    -0.208 F 
HETATM    6  F5  UNL     1     -34.142   7.139   6.042  1.00 20.00    -0.208 F 
ENDBRANCH   1   4
BRANCH   1   7
HETATM    7  C2  UNL     1     -34.344   4.181   3.913  1.00 20.00     0.430 C 
HETATM    8  F6  UNL     1     -33.478   4.677   2.994  1.00 20.00    -0.208 F 
HETATM    9  F7  UNL     1     -33.644   3.313   4.682  1.00 20.00    -0.208 F 
ENDBRANCH   1   7
TORSDOF 2
ENDMDL
MODEL 8
REMARK VINA RESULT:      -5.0      1.088      2.276
REMARK  2 active torsions:
REMARK  status: ('A' for Active; 'I' for Inactive)
REMARK    1  A    between atoms: C1_1  and  C3_3 
REMARK    2  A    between atoms: C2_2  and  C3_3 
ROOT
HETATM    1  C3  UNL     1     -34.448   5.500   5.699  1.00 20.00     0.358 C 
HETATM    2  F8  UNL     1     -35.599   5.707   6.387  1.00 20.00    -0.194 F 
HETATM    3  F9  UNL     1     -33.854   4.407   6.240  1.00 20.00    -0.194 F 
ENDROOT
BRANCH   1   4
HETATM    4  C1  UNL     1     -34.780   5.215   4.254  1.00 20.00     0.430 C 
HETATM    5  F4  UNL     1     -34.533   3.908   3.988  1.00 20.00    -0.208 F 
HETATM    6  F5  UNL     1     -36.101   5.417   4.030  1.00 20.00    -0.208 F 
ENDBRANCH   1   4
BRANCH   1   7
HETATM    7  C2  UNL     1     -33.545   6.695   5.879  1.00 20.00     0.430 C 
HETATM    8  F6  UNL     1     -33.058   7.075   4.672  1.00 20.00    -0.208 F 
HETATM    9  F7  UNL     1     -34.252   7.744   6.364  1.00 20.00    -0.208 F 
ENDBRANCH   1   7
TORSDOF 2
ENDMDL
MODEL 9
REMARK VINA RESULT:      -5.0      1.152      3.194
REMARK  2 active torsions:
REMARK  status: ('A' for Active; 'I' for Inactive)
REMARK    1  A    between atoms: C1_1  and  C3_3 
REMARK    2  A    between atoms: C2_2  and  C3_3 
ROOT
HETATM    1  C3  UNL     1     -33.856   6.451   4.167  1.00 20.00     0.358 C 
HETATM    2  F8  UNL     1     -34.626   7.482   3.737  1.00 20.00    -0.194 F 
HETATM    3  F9  UNL     1     -33.072   6.931   5.164  1.00 20.00    -0.194 F 
ENDROOT
BRANCH   1   4
HETATM    4  C1  UNL     1     -34.746   5.365   4.721  1.00 20.00     0.430 C 
HETATM    5  F4  UNL     1     -34.918   5.563   6.052  1.00 20.00    -0.208 F 
HETATM    6  F5  UNL     1     -35.974   5.433   4.153  1.00 20.00    -0.208 F 
ENDBRANCH   1   4
BRANCH   1   7
HETATM    7  C2  UNL     1     -32.981   5.983   3.030  1.00 20.00     0.430 C 
HETATM    8  F6  UNL     1     -33.567   4.923   2.420  1.00 20.00    -0.208 F 
HETATM    9  F7  UNL     1     -32.868   6.958   2.097  1.00 20.00    -0.208 F 
ENDBRANCH   1   7
TORSDOF 2
ENDMDL
