MODEL 1
REMARK VINA RESULT:      -4.1      0.000      0.000
REMARK  1 active torsions:
REMARK  status: ('A' for Active; 'I' for Inactive)
REMARK    1  A    between atoms: C1_1  and  C4_4 
ROOT
HETATM    1  C1  UNL     1     -34.015   5.875   3.820  1.00 20.00    -0.080 C 
HETATM    2  C2  UNL     1     -33.291   6.497   3.091  1.00 20.00    -0.106 C 
HETATM    3  C5  UNL     1     -32.411   7.254   2.203  1.00 20.00     0.112 C 
ENDROOT
BRANCH   1   4
HETATM    4  C4  UNL     1     -34.869   5.144   4.688  1.00 20.00     0.054 C 
HETATM    5  C3  UNL     1     -34.800   5.269   6.017  1.00 20.00     0.020 C 
ENDBRANCH   1   4
TORSDOF 1
ENDMDL
MODEL 2
REMARK VINA RESULT:      -3.7      0.611      3.703
REMARK  1 active torsions:
REMARK  status: ('A' for Active; 'I' for Inactive)
REMARK    1  A    between atoms: C1_1  and  C4_4 
ROOT
HETATM    1  C1  UNL     1     -33.275   6.526   3.363  1.00 20.00    -0.080 C 
HETATM    2  C2  UNL     1     -34.099   5.960   4.029  1.00 20.00    -0.106 C 
HETATM    3  C5  UNL     1     -35.101   5.269   4.838  1.00 20.00     0.112 C 
ENDROOT
BRANCH   1   4
HETATM    4  C4  UNL     1     -32.297   7.197   2.582  1.00 20.00     0.054 C 
HETATM    5  C3  UNL     1     -32.619   7.866   1.470  1.00 20.00     0.020 C 
ENDBRANCH   1   4
TORSDOF 1
ENDMDL
MODEL 3
REMARK VINA RESULT:      -3.7      0.541      3.526
REMARK  1 active torsions:
REMARK  status: ('A' for Active; 'I' for Inactive)
REMARK    1  A    between atoms: C1_1  and  C4_4 
ROOT
HETATM    1  C1  UNL     1     -33.705   5.915   3.681  1.00 20.00    -0.080 C 
HETATM    2  C2  UNL     1     -34.271   5.714   4.721  1.00 20.00    -0.106 C 
HETATM    3  C5  UNL     1     -34.960   5.467   5.986  1.00 20.00     0.112 C 
ENDROOT
BRANCH   1   4
HETATM    4  C4  UNL     1     -33.031   6.156   2.454  1.00 20.00     0.054 C 
HETATM    5  C3  UNL     1     -32.467   7.336   2.180  1.00 20.00     0.020 C 
ENDBRANCH   1   4
TORSDOF 1
ENDMDL
MODEL 4
REMARK VINA RESULT:      -3.5      2.177      2.955
REMARK  1 active torsions:
REMARK  status: ('A' for Active; 'I' for Inactive)
REMARK    1  A    between atoms: C1_1  and  C4_4 
ROOT
HETATM    1  C1  UNL     1     -32.771   7.258   2.011  1.00 20.00    -0.080 C 
HETATM    2  C2  UNL     1     -32.762   8.179   1.239  1.00 20.00    -0.106 C 
HETATM    3  C5  UNL     1     -32.749   9.299   0.301  1.00 20.00     0.112 C 
ENDROOT
BRANCH   1   4
HETATM    4  C4  UNL     1     -32.785   6.166   2.918  1.00 20.00     0.054 C 
HETATM    5  C3  UNL     1     -33.327   4.988   2.596  1.00 20.00     0.020 C 
ENDBRANCH   1   4
TORSDOF 1
ENDMDL
MODEL 5
REMARK VINA RESULT:      -3.0     11.774     12.099
REMARK  1 active torsions:
REMARK  status: ('A' for Active; 'I' for Inactive)
REMARK    1  A    between atoms: C1_1  and  C4_4 
ROOT
HETATM    1  C1  UNL     1     -34.688  15.465  -2.822  1.00 20.00    -0.080 C 
HETATM    2  C2  UNL     1     -34.964  16.162  -1.884  1.00 20.00    -0.106 C 
HETATM    3  C5  UNL     1     -35.300  17.013  -0.744  1.00 20.00     0.112 C 
ENDROOT
BRANCH   1   4
HETATM    4  C4  UNL     1     -34.366  14.635  -3.929  1.00 20.00     0.054 C 
HETATM    5  C3  UNL     1     -33.121  14.549  -4.407  1.00 20.00     0.020 C 
ENDBRANCH   1   4
TORSDOF 1
ENDMDL
MODEL 6
REMARK VINA RESULT:      -3.0      8.849      9.180
REMARK  1 active torsions:
REMARK  status: ('A' for Active; 'I' for Inactive)
REMARK    1  A    between atoms: C1_1  and  C4_4 
ROOT
HETATM    1  C1  UNL     1     -41.219   6.913  -0.549  1.00 20.00    -0.080 C 
HETATM    2  C2  UNL     1     -41.326   8.046  -0.166  1.00 20.00    -0.106 C 
HETATM    3  C5  UNL     1     -41.454   9.426   0.299  1.00 20.00     0.112 C 
ENDROOT
BRANCH   1   4
HETATM    4  C4  UNL     1     -41.099   5.573  -1.003  1.00 20.00     0.054 C 
HETATM    5  C3  UNL     1     -42.148   4.891  -1.475  1.00 20.00     0.020 C 
ENDBRANCH   1   4
TORSDOF 1
ENDMDL
MODEL 7
REMARK VINA RESULT:      -2.9      8.934      9.162
REMARK  1 active torsions:
REMARK  status: ('A' for Active; 'I' for Inactive)
REMARK    1  A    between atoms: C1_1  and  C4_4 
ROOT
HETATM    1  C1  UNL     1     -41.670   7.386  -0.169  1.00 20.00    -0.080 C 
HETATM    2  C2  UNL     1     -41.343   6.327  -0.632  1.00 20.00    -0.106 C 
HETATM    3  C5  UNL     1     -40.945   5.039  -1.197  1.00 20.00     0.112 C 
ENDROOT
BRANCH   1   4
HETATM    4  C4  UNL     1     -42.051   8.637   0.384  1.00 20.00     0.054 C 
HETATM    5  C3  UNL     1     -41.227   9.689   0.384  1.00 20.00     0.020 C 
ENDBRANCH   1   4
TORSDOF 1
ENDMDL
MODEL 8
REMARK VINA RESULT:      -2.9     11.792     12.195
REMARK  1 active torsions:
REMARK  status: ('A' for Active; 'I' for Inactive)
REMARK    1  A    between atoms: C1_1  and  C4_4 
ROOT
HETATM    1  C1  UNL     1     -34.879  15.393  -3.042  1.00 20.00    -0.080 C 
HETATM    2  C2  UNL     1     -35.466  14.613  -3.743  1.00 20.00    -0.106 C 
HETATM    3  C5  UNL     1     -36.180  13.664  -4.593  1.00 20.00     0.112 C 
ENDROOT
BRANCH   1   4
HETATM    4  C4  UNL     1     -34.189  16.320  -2.218  1.00 20.00     0.054 C 
HETATM    5  C3  UNL     1     -33.062  16.918  -2.618  1.00 20.00     0.020 C 
ENDBRANCH   1   4
TORSDOF 1
ENDMDL
MODEL 9
REMARK VINA RESULT:      -2.9     11.457     11.952
REMARK  1 active torsions:
REMARK  status: ('A' for Active; 'I' for Inactive)
REMARK    1  A    between atoms: C1_1  and  C4_4 
ROOT
HETATM    1  C1  UNL     1     -34.583  15.060  -3.260  1.00 20.00    -0.080 C 
HETATM    2  C2  UNL     1     -34.246  16.007  -2.603  1.00 20.00    -0.106 C 
HETATM    3  C5  UNL     1     -33.837  17.160  -1.803  1.00 20.00     0.112 C 
ENDROOT
BRANCH   1   4
HETATM    4  C4  UNL     1     -34.976  13.937  -4.035  1.00 20.00     0.054 C 
HETATM    5  C3  UNL     1     -36.215  13.813  -4.521  1.00 20.00     0.020 C 
ENDBRANCH   1   4
TORSDOF 1
ENDMDL
