MODEL 1
REMARK VINA RESULT:      -4.8      0.000      0.000
REMARK  2 active torsions:
REMARK  status: ('A' for Active; 'I' for Inactive)
REMARK    1  A    between atoms: C1_1  and  C2_2 
REMARK    2  A    between atoms: C1_1  and  C3_3 
ROOT
HETATM    1  C3  UNL     1     -34.892   5.309   4.712  1.00 20.00     0.390 C 
HETATM    2  F5  UNL     1     -36.073   5.495   4.082  1.00 20.00    -0.171 F 
HETATM    3  F6  UNL     1     -34.372   4.143   4.272  1.00 20.00    -0.171 F 
HETATM    4  F7  UNL     1     -35.148   5.180   6.030  1.00 20.00    -0.171 F 
ENDROOT
BRANCH   1   5
HETATM    5  C1  UNL     1     -33.957   6.467   4.437  1.00 20.00     0.148 C 
BRANCH   5   6
HETATM    6  C2  UNL     1     -33.220   6.307   3.119  1.00 20.00     0.230 C 
HETATM    7  F4  UNL     1     -32.050   6.996   3.172  1.00 20.00    -0.255 F 
ENDBRANCH   5   6
ENDBRANCH   1   5
TORSDOF 2
ENDMDL
MODEL 2
REMARK VINA RESULT:      -4.8      0.033      1.427
REMARK  2 active torsions:
REMARK  status: ('A' for Active; 'I' for Inactive)
REMARK    1  A    between atoms: C1_1  and  C2_2 
REMARK    2  A    between atoms: C1_1  and  C3_3 
ROOT
HETATM    1  C3  UNL     1     -34.900   5.318   4.701  1.00 20.00     0.390 C 
HETATM    2  F5  UNL     1     -34.356   4.167   4.247  1.00 20.00    -0.171 F 
HETATM    3  F6  UNL     1     -35.149   5.161   6.019  1.00 20.00    -0.171 F 
HETATM    4  F7  UNL     1     -36.080   5.490   4.070  1.00 20.00    -0.171 F 
ENDROOT
BRANCH   1   5
HETATM    5  C1  UNL     1     -33.963   6.480   4.453  1.00 20.00     0.148 C 
BRANCH   5   6
HETATM    6  C2  UNL     1     -33.214   6.342   3.139  1.00 20.00     0.230 C 
HETATM    7  F4  UNL     1     -32.046   7.035   3.212  1.00 20.00    -0.255 F 
ENDBRANCH   5   6
ENDBRANCH   1   5
TORSDOF 2
ENDMDL
MODEL 3
REMARK VINA RESULT:      -4.8      0.043      1.436
REMARK  2 active torsions:
REMARK  status: ('A' for Active; 'I' for Inactive)
REMARK    1  A    between atoms: C1_1  and  C2_2 
REMARK    2  A    between atoms: C1_1  and  C3_3 
ROOT
HETATM    1  C3  UNL     1     -34.903   5.306   4.667  1.00 20.00     0.390 C 
HETATM    2  F5  UNL     1     -35.133   5.158   5.991  1.00 20.00    -0.171 F 
HETATM    3  F6  UNL     1     -36.096   5.490   4.062  1.00 20.00    -0.171 F 
HETATM    4  F7  UNL     1     -34.377   4.151   4.211  1.00 20.00    -0.171 F 
ENDROOT
BRANCH   1   5
HETATM    5  C1  UNL     1     -33.974   6.475   4.419  1.00 20.00     0.148 C 
BRANCH   5   6
HETATM    6  C2  UNL     1     -33.203   6.329   3.120  1.00 20.00     0.230 C 
HETATM    7  F4  UNL     1     -32.036   7.021   3.209  1.00 20.00    -0.255 F 
ENDBRANCH   5   6
ENDBRANCH   1   5
TORSDOF 2
ENDMDL
MODEL 4
REMARK VINA RESULT:      -4.7      1.604      2.102
REMARK  2 active torsions:
REMARK  status: ('A' for Active; 'I' for Inactive)
REMARK    1  A    between atoms: C1_1  and  C2_2 
REMARK    2  A    between atoms: C1_1  and  C3_3 
ROOT
HETATM    1  C3  UNL     1     -34.769   5.145   4.320  1.00 20.00     0.390 C 
HETATM    2  F5  UNL     1     -36.060   5.404   4.014  1.00 20.00    -0.171 F 
HETATM    3  F6  UNL     1     -33.998   5.937   3.544  1.00 20.00    -0.171 F 
HETATM    4  F7  UNL     1     -34.519   3.862   3.986  1.00 20.00    -0.171 F 
ENDROOT
BRANCH   1   5
HETATM    5  C1  UNL     1     -34.512   5.397   5.790  1.00 20.00     0.148 C 
BRANCH   5   6
HETATM    6  C2  UNL     1     -34.216   6.859   6.076  1.00 20.00     0.230 C 
HETATM    7  F4  UNL     1     -32.940   7.141   5.701  1.00 20.00    -0.255 F 
ENDBRANCH   5   6
ENDBRANCH   1   5
TORSDOF 2
ENDMDL
MODEL 5
REMARK VINA RESULT:      -4.7      1.541      2.303
REMARK  2 active torsions:
REMARK  status: ('A' for Active; 'I' for Inactive)
REMARK    1  A    between atoms: C1_1  and  C2_2 
REMARK    2  A    between atoms: C1_1  and  C3_3 
ROOT
HETATM    1  C3  UNL     1     -34.898   5.182   4.478  1.00 20.00     0.390 C 
HETATM    2  F5  UNL     1     -34.383   4.175   3.737  1.00 20.00    -0.171 F 
HETATM    3  F6  UNL     1     -34.970   4.753   5.756  1.00 20.00    -0.171 F 
HETATM    4  F7  UNL     1     -36.154   5.409   4.042  1.00 20.00    -0.171 F 
ENDROOT
BRANCH   1   5
HETATM    5  C1  UNL     1     -34.036   6.420   4.360  1.00 20.00     0.148 C 
BRANCH   5   6
HETATM    6  C2  UNL     1     -33.467   6.850   5.700  1.00 20.00     0.230 C 
HETATM    7  F4  UNL     1     -34.487   7.160   6.544  1.00 20.00    -0.255 F 
ENDBRANCH   5   6
ENDBRANCH   1   5
TORSDOF 2
ENDMDL
MODEL 6
REMARK VINA RESULT:      -4.6      1.517      1.962
REMARK  2 active torsions:
REMARK  status: ('A' for Active; 'I' for Inactive)
REMARK    1  A    between atoms: C1_1  and  C2_2 
REMARK    2  A    between atoms: C1_1  and  C3_3 
ROOT
HETATM    1  C3  UNL     1     -34.964   5.402   4.712  1.00 20.00     0.390 C 
HETATM    2  F5  UNL     1     -34.308   6.579   4.815  1.00 20.00    -0.171 F 
HETATM    3  F6  UNL     1     -36.167   5.651   4.153  1.00 20.00    -0.171 F 
HETATM    4  F7  UNL     1     -35.171   4.939   5.962  1.00 20.00    -0.171 F 
ENDROOT
BRANCH   1   5
HETATM    5  C1  UNL     1     -34.164   4.422   3.881  1.00 20.00     0.148 C 
BRANCH   5   6
HETATM    6  C2  UNL     1     -33.449   5.100   2.727  1.00 20.00     0.230 C 
HETATM    7  F4  UNL     1     -32.885   4.154   1.929  1.00 20.00    -0.255 F 
ENDBRANCH   5   6
ENDBRANCH   1   5
TORSDOF 2
ENDMDL
MODEL 7
REMARK VINA RESULT:      -4.6      1.232      1.563
REMARK  2 active torsions:
REMARK  status: ('A' for Active; 'I' for Inactive)
REMARK    1  A    between atoms: C1_1  and  C2_2 
REMARK    2  A    between atoms: C1_1  and  C3_3 
ROOT
HETATM    1  C3  UNL     1     -34.905   5.395   4.735  1.00 20.00     0.390 C 
HETATM    2  F5  UNL     1     -36.091   5.593   4.119  1.00 20.00    -0.171 F 
HETATM    3  F6  UNL     1     -35.161   4.950   5.984  1.00 20.00    -0.171 F 
HETATM    4  F7  UNL     1     -34.291   6.592   4.835  1.00 20.00    -0.171 F 
ENDROOT
BRANCH   1   5
HETATM    5  C1  UNL     1     -34.065   4.403   3.959  1.00 20.00     0.148 C 
BRANCH   5   6
HETATM    6  C2  UNL     1     -33.643   4.944   2.605  1.00 20.00     0.230 C 
HETATM    7  F4  UNL     1     -32.589   5.788   2.767  1.00 20.00    -0.255 F 
ENDBRANCH   5   6
ENDBRANCH   1   5
TORSDOF 2
ENDMDL
MODEL 8
REMARK VINA RESULT:      -4.2      1.777      3.521
REMARK  2 active torsions:
REMARK  status: ('A' for Active; 'I' for Inactive)
REMARK    1  A    between atoms: C1_1  and  C2_2 
REMARK    2  A    between atoms: C1_1  and  C3_3 
ROOT
HETATM    1  C3  UNL     1     -32.859   6.799   3.122  1.00 20.00     0.390 C 
HETATM    2  F5  UNL     1     -32.431   5.649   2.556  1.00 20.00    -0.171 F 
HETATM    3  F6  UNL     1     -33.220   7.636   2.126  1.00 20.00    -0.171 F 
HETATM    4  F7  UNL     1     -31.813   7.350   3.771  1.00 20.00    -0.171 F 
ENDROOT
BRANCH   1   5
HETATM    5  C1  UNL     1     -34.015   6.528   4.060  1.00 20.00     0.148 C 
BRANCH   5   6
HETATM    6  C2  UNL     1     -33.675   6.867   5.500  1.00 20.00     0.230 C 
HETATM    7  F4  UNL     1     -34.587   6.287   6.326  1.00 20.00    -0.255 F 
ENDBRANCH   5   6
ENDBRANCH   1   5
TORSDOF 2
ENDMDL
MODEL 9
REMARK VINA RESULT:      -4.2      1.777      3.493
REMARK  2 active torsions:
REMARK  status: ('A' for Active; 'I' for Inactive)
REMARK    1  A    between atoms: C1_1  and  C2_2 
REMARK    2  A    between atoms: C1_1  and  C3_3 
ROOT
HETATM    1  C3  UNL     1     -32.855   6.787   3.126  1.00 20.00     0.390 C 
HETATM    2  F5  UNL     1     -33.219   7.622   2.128  1.00 20.00    -0.171 F 
HETATM    3  F6  UNL     1     -31.816   7.356   3.776  1.00 20.00    -0.171 F 
HETATM    4  F7  UNL     1     -32.419   5.642   2.563  1.00 20.00    -0.171 F 
ENDROOT
BRANCH   1   5
HETATM    5  C1  UNL     1     -34.019   6.540   4.061  1.00 20.00     0.148 C 
BRANCH   5   6
HETATM    6  C2  UNL     1     -33.674   6.859   5.504  1.00 20.00     0.230 C 
HETATM    7  F4  UNL     1     -34.597   6.290   6.324  1.00 20.00    -0.255 F 
ENDBRANCH   5   6
ENDBRANCH   1   5
TORSDOF 2
ENDMDL
