MODEL 1
REMARK VINA RESULT:      -4.9      0.000      0.000
REMARK  2 active torsions:
REMARK  status: ('A' for Active; 'I' for Inactive)
REMARK    1  A    between atoms: C7_7  and  C10_10 
REMARK    2  A    between atoms: C8_8  and  C9_9 
ROOT
HETATM    1  C1  UNL     1     -33.179  16.766  -2.678  1.00 20.00    -0.019 A 
HETATM    2  C3  UNL     1     -33.091  17.650  -1.677  1.00 20.00    -0.087 A 
HETATM    3  C5  UNL     1     -34.268  17.595  -0.753  1.00 20.00     0.039 A 
HETATM    4  C8  UNL     1     -34.420  15.938  -2.602  1.00 20.00     0.021 A 
HETATM    5  C10 UNL     1     -35.159  16.487  -1.333  1.00 20.00     0.005 A 
HETATM    6  C11 UNL     1     -31.987  18.620  -1.447  1.00 20.00     0.043 C 
ENDROOT
BRANCH   4   7
HETATM    7  C9  UNL     1     -35.451  16.188  -3.732  1.00 20.00     0.022 C 
HETATM    8  C4  UNL     1     -34.704  16.073  -5.045  1.00 20.00    -0.082 C 
HETATM    9  C2  UNL     1     -34.396  14.777  -5.217  1.00 20.00    -0.019 C 
HETATM   10  C12 UNL     1     -34.371  17.238  -5.895  1.00 20.00     0.043 C 
HETATM   11  C7  UNL     1     -34.932  14.027  -4.015  1.00 20.00     0.014 C 
HETATM   12  C6  UNL     1     -36.206  14.852  -3.793  1.00 20.00     0.018 C 
ENDBRANCH   4   7
TORSDOF 2
ENDMDL
MODEL 2
REMARK VINA RESULT:      -4.7      1.438      4.411
REMARK  2 active torsions:
REMARK  status: ('A' for Active; 'I' for Inactive)
REMARK    1  A    between atoms: C7_7  and  C10_10 
REMARK    2  A    between atoms: C8_8  and  C9_9 
ROOT
HETATM    1  C1  UNL     1     -35.206  15.564  -2.822  1.00 20.00    -0.019 A 
HETATM    2  C3  UNL     1     -35.006  14.657  -3.785  1.00 20.00    -0.087 A 
HETATM    3  C5  UNL     1     -33.606  14.677  -4.315  1.00 20.00     0.039 A 
HETATM    4  C8  UNL     1     -33.974  16.349  -2.510  1.00 20.00     0.021 A 
HETATM    5  C10 UNL     1     -32.905  15.776  -3.503  1.00 20.00     0.005 A 
HETATM    6  C11 UNL     1     -36.013  13.709  -4.331  1.00 20.00     0.043 C 
ENDROOT
BRANCH   4   7
HETATM    7  C9  UNL     1     -34.028  17.849  -2.896  1.00 20.00     0.022 C 
HETATM    8  C4  UNL     1     -35.019  18.510  -1.958  1.00 20.00    -0.082 C 
HETATM    9  C2  UNL     1     -34.453  18.545  -0.740  1.00 20.00    -0.019 C 
HETATM   10  C12 UNL     1     -36.364  18.956  -2.382  1.00 20.00     0.043 C 
HETATM   11  C7  UNL     1     -33.087  17.903  -0.864  1.00 20.00     0.014 C 
HETATM   12  C6  UNL     1     -32.738  18.399  -2.272  1.00 20.00     0.018 C 
ENDBRANCH   4   7
TORSDOF 2
ENDMDL
MODEL 3
REMARK VINA RESULT:      -4.6      1.227      4.195
REMARK  2 active torsions:
REMARK  status: ('A' for Active; 'I' for Inactive)
REMARK    1  A    between atoms: C7_7  and  C10_10 
REMARK    2  A    between atoms: C8_8  and  C9_9 
ROOT
HETATM    1  C1  UNL     1     -34.462  17.388  -5.779  1.00 20.00    -0.019 A 
HETATM    2  C3  UNL     1     -34.144  17.438  -7.078  1.00 20.00    -0.087 A 
HETATM    3  C5  UNL     1     -34.150  16.088  -7.726  1.00 20.00     0.039 A 
HETATM    4  C8  UNL     1     -34.762  16.000  -5.317  1.00 20.00     0.021 A 
HETATM    5  C10 UNL     1     -34.547  15.124  -6.599  1.00 20.00     0.005 A 
HETATM    6  C11 UNL     1     -33.799  18.656  -7.858  1.00 20.00     0.043 C 
ENDROOT
BRANCH   4   7
HETATM    7  C9  UNL     1     -33.739  15.399  -4.319  1.00 20.00     0.022 C 
HETATM    8  C4  UNL     1     -33.897  16.156  -3.016  1.00 20.00    -0.082 C 
HETATM    9  C2  UNL     1     -35.073  15.789  -2.481  1.00 20.00    -0.019 C 
HETATM   10  C12 UNL     1     -32.910  17.143  -2.525  1.00 20.00     0.043 C 
HETATM   11  C7  UNL     1     -35.703  14.790  -3.429  1.00 20.00     0.014 C 
HETATM   12  C6  UNL     1     -34.420  14.090  -3.894  1.00 20.00     0.018 C 
ENDBRANCH   4   7
TORSDOF 2
ENDMDL
MODEL 4
REMARK VINA RESULT:      -4.6      1.617      4.546
REMARK  2 active torsions:
REMARK  status: ('A' for Active; 'I' for Inactive)
REMARK    1  A    between atoms: C7_7  and  C10_10 
REMARK    2  A    between atoms: C8_8  and  C9_9 
ROOT
HETATM    1  C1  UNL     1     -35.068  15.874  -2.109  1.00 20.00    -0.019 A 
HETATM    2  C3  UNL     1     -34.334  15.447  -3.143  1.00 20.00    -0.087 A 
HETATM    3  C5  UNL     1     -33.068  16.228  -3.313  1.00 20.00     0.039 A 
HETATM    4  C8  UNL     1     -34.424  17.007  -1.379  1.00 20.00     0.021 A 
HETATM    5  C10 UNL     1     -33.098  17.260  -2.177  1.00 20.00     0.005 A 
HETATM    6  C11 UNL     1     -34.675  14.337  -4.072  1.00 20.00     0.043 C 
ENDROOT
BRANCH   4   7
HETATM    7  C9  UNL     1     -35.155  18.369  -1.494  1.00 20.00     0.022 C 
HETATM    8  C4  UNL     1     -36.533  18.182  -0.890  1.00 20.00    -0.082 C 
HETATM    9  C2  UNL     1     -36.372  18.050   0.437  1.00 20.00    -0.019 C 
HETATM   10  C12 UNL     1     -37.771  18.115  -1.697  1.00 20.00     0.043 C 
HETATM   11  C7  UNL     1     -34.887  18.144   0.719  1.00 20.00     0.014 C 
HETATM   12  C6  UNL     1     -34.526  19.180  -0.352  1.00 20.00     0.018 C 
ENDBRANCH   4   7
TORSDOF 2
ENDMDL
MODEL 5
REMARK VINA RESULT:      -4.4      1.708      4.216
REMARK  2 active torsions:
REMARK  status: ('A' for Active; 'I' for Inactive)
REMARK    1  A    between atoms: C7_7  and  C10_10 
REMARK    2  A    between atoms: C8_8  and  C9_9 
ROOT
HETATM    1  C1  UNL     1     -35.510  16.617  -5.547  1.00 20.00    -0.019 A 
HETATM    2  C3  UNL     1     -36.682  16.459  -6.173  1.00 20.00    -0.087 A 
HETATM    3  C5  UNL     1     -37.841  16.418  -5.226  1.00 20.00     0.039 A 
HETATM    4  C8  UNL     1     -35.663  16.732  -4.066  1.00 20.00     0.021 A 
HETATM    5  C10 UNL     1     -37.208  16.590  -3.838  1.00 20.00     0.005 A 
HETATM    6  C11 UNL     1     -36.891  16.320  -7.639  1.00 20.00     0.043 C 
ENDROOT
BRANCH   4   7
HETATM    7  C9  UNL     1     -35.088  15.548  -3.247  1.00 20.00     0.022 C 
HETATM    8  C4  UNL     1     -33.599  15.502  -3.524  1.00 20.00    -0.082 C 
HETATM    9  C2  UNL     1     -33.047  16.567  -2.920  1.00 20.00    -0.019 C 
HETATM   10  C12 UNL     1     -32.961  14.465  -4.365  1.00 20.00     0.043 C 
HETATM   11  C7  UNL     1     -34.169  17.327  -2.243  1.00 20.00     0.014 C 
HETATM   12  C6  UNL     1     -35.026  16.127  -1.826  1.00 20.00     0.018 C 
ENDBRANCH   4   7
TORSDOF 2
ENDMDL
MODEL 6
REMARK VINA RESULT:      -4.3      1.086      1.279
REMARK  2 active torsions:
REMARK  status: ('A' for Active; 'I' for Inactive)
REMARK    1  A    between atoms: C7_7  and  C10_10 
REMARK    2  A    between atoms: C8_8  and  C9_9 
ROOT
HETATM    1  C1  UNL     1     -33.381  16.645  -3.532  1.00 20.00    -0.019 A 
HETATM    2  C3  UNL     1     -33.400  17.077  -2.265  1.00 20.00    -0.087 A 
HETATM    3  C5  UNL     1     -34.642  16.668  -1.535  1.00 20.00     0.039 A 
HETATM    4  C8  UNL     1     -34.594  15.848  -3.883  1.00 20.00     0.021 A 
HETATM    5  C10 UNL     1     -35.447  15.865  -2.568  1.00 20.00     0.005 A 
HETATM    6  C11 UNL     1     -32.351  17.886  -1.590  1.00 20.00     0.043 C 
ENDROOT
BRANCH   4   7
HETATM    7  C9  UNL     1     -35.545  16.510  -4.913  1.00 20.00     0.022 C 
HETATM    8  C4  UNL     1     -34.834  16.483  -6.251  1.00 20.00    -0.082 C 
HETATM    9  C2  UNL     1     -34.807  15.205  -6.663  1.00 20.00    -0.019 C 
HETATM   10  C12 UNL     1     -34.257  17.687  -6.889  1.00 20.00     0.043 C 
HETATM   11  C7  UNL     1     -35.495  14.378  -5.597  1.00 20.00     0.014 C 
HETATM   12  C6  UNL     1     -36.566  15.396  -5.187  1.00 20.00     0.018 C 
ENDBRANCH   4   7
TORSDOF 2
ENDMDL
MODEL 7
REMARK VINA RESULT:      -4.3      1.402      4.130
REMARK  2 active torsions:
REMARK  status: ('A' for Active; 'I' for Inactive)
REMARK    1  A    between atoms: C7_7  and  C10_10 
REMARK    2  A    between atoms: C8_8  and  C9_9 
ROOT
HETATM    1  C1  UNL     1     -33.311  16.283  -3.396  1.00 20.00    -0.019 A 
HETATM    2  C3  UNL     1     -33.392  15.040  -3.884  1.00 20.00    -0.087 A 
HETATM    3  C5  UNL     1     -34.746  14.431  -3.691  1.00 20.00     0.039 A 
HETATM    4  C8  UNL     1     -34.600  16.750  -2.803  1.00 20.00     0.021 A 
HETATM    5  C10 UNL     1     -35.560  15.524  -2.983  1.00 20.00     0.005 A 
HETATM    6  C11 UNL     1     -32.301  14.276  -4.545  1.00 20.00     0.043 C 
ENDROOT
BRANCH   4   7
HETATM    7  C9  UNL     1     -34.588  16.950  -1.266  1.00 20.00     0.022 C 
HETATM    8  C4  UNL     1     -33.784  18.205  -0.991  1.00 20.00    -0.082 C 
HETATM    9  C2  UNL     1     -34.516  19.249  -1.413  1.00 20.00    -0.019 C 
HETATM   10  C12 UNL     1     -32.424  18.186  -0.409  1.00 20.00     0.043 C 
HETATM   11  C7  UNL     1     -35.807  18.691  -1.975  1.00 20.00     0.014 C 
HETATM   12  C6  UNL     1     -35.986  17.525  -0.995  1.00 20.00     0.018 C 
ENDBRANCH   4   7
TORSDOF 2
ENDMDL
MODEL 8
REMARK VINA RESULT:      -4.3      1.211      1.889
REMARK  2 active torsions:
REMARK  status: ('A' for Active; 'I' for Inactive)
REMARK    1  A    between atoms: C7_7  and  C10_10 
REMARK    2  A    between atoms: C8_8  and  C9_9 
ROOT
HETATM    1  C1  UNL     1     -34.524  16.419  -1.853  1.00 20.00    -0.019 A 
HETATM    2  C3  UNL     1     -34.459  17.660  -1.356  1.00 20.00    -0.087 A 
HETATM    3  C5  UNL     1     -35.469  18.580  -1.969  1.00 20.00     0.039 A 
HETATM    4  C8  UNL     1     -35.602  16.268  -2.876  1.00 20.00     0.021 A 
HETATM    5  C10 UNL     1     -36.231  17.701  -2.970  1.00 20.00     0.005 A 
HETATM    6  C11 UNL     1     -33.511  18.150  -0.320  1.00 20.00     0.043 C 
ENDROOT
BRANCH   4   7
HETATM    7  C9  UNL     1     -35.110  16.017  -4.324  1.00 20.00     0.022 C 
HETATM    8  C4  UNL     1     -34.444  14.655  -4.333  1.00 20.00    -0.082 C 
HETATM    9  C2  UNL     1     -35.414  13.736  -4.193  1.00 20.00    -0.019 C 
HETATM   10  C12 UNL     1     -32.980  14.467  -4.429  1.00 20.00     0.043 C 
HETATM   11  C7  UNL     1     -36.726  14.484  -4.085  1.00 20.00     0.014 C 
HETATM   12  C6  UNL     1     -36.405  15.630  -5.052  1.00 20.00     0.018 C 
ENDBRANCH   4   7
TORSDOF 2
ENDMDL
MODEL 9
REMARK VINA RESULT:      -4.3      1.274      2.494
REMARK  2 active torsions:
REMARK  status: ('A' for Active; 'I' for Inactive)
REMARK    1  A    between atoms: C7_7  and  C10_10 
REMARK    2  A    between atoms: C8_8  and  C9_9 
ROOT
HETATM    1  C1  UNL     1     -35.634  17.208  -3.022  1.00 20.00    -0.019 A 
HETATM    2  C3  UNL     1     -35.302  17.807  -1.873  1.00 20.00    -0.087 A 
HETATM    3  C5  UNL     1     -33.920  17.454  -1.416  1.00 20.00     0.039 A 
HETATM    4  C8  UNL     1     -34.531  16.359  -3.564  1.00 20.00     0.021 A 
HETATM    5  C10 UNL     1     -33.389  16.505  -2.500  1.00 20.00     0.005 A 
HETATM    6  C11 UNL     1     -36.158  18.722  -1.072  1.00 20.00     0.043 C 
ENDROOT
BRANCH   4   7
HETATM    7  C9  UNL     1     -34.807  14.833  -3.560  1.00 20.00     0.022 C 
HETATM    8  C4  UNL     1     -35.875  14.575  -4.603  1.00 20.00    -0.082 C 
HETATM    9  C2  UNL     1     -35.311  14.764  -5.808  1.00 20.00    -0.019 C 
HETATM   10  C12 UNL     1     -37.275  14.235  -4.265  1.00 20.00     0.043 C 
HETATM   11  C7  UNL     1     -33.867  15.153  -5.568  1.00 20.00     0.014 C 
HETATM   12  C6  UNL     1     -33.605  14.277  -4.338  1.00 20.00     0.018 C 
ENDBRANCH   4   7
TORSDOF 2
ENDMDL
