MODEL 1
REMARK VINA RESULT:      -4.0      0.000      0.000
REMARK  0 active torsions:
REMARK  status: ('A' for Active; 'I' for Inactive)
ROOT
HETATM    1  C1  UNL     1     -23.163  16.994   9.786  1.00 20.00     0.072 C 
HETATM    2  C2  UNL     1     -23.221  18.406   9.226  1.00 20.00     0.173 C 
HETATM    3  C3  UNL     1     -24.987  18.116  10.716  1.00 20.00     0.255 C 
HETATM    4  C4  UNL     1     -23.880  17.140  11.117  1.00 20.00     0.154 C 
HETATM    5  O5  UNL     1     -24.397  19.027   9.773  1.00 20.00    -0.367 OA
HETATM    6 CL6  UNL     1     -25.751  18.996  12.048  1.00 20.00    -0.092 Cl
HETATM    7 CL7  UNL     1     -24.518  15.595  11.706  1.00 20.00    -0.098 Cl
HETATM    8 CL8  UNL     1     -22.745  17.819  12.330  1.00 20.00    -0.098 Cl
ENDROOT
TORSDOF 0
ENDMDL
MODEL 2
REMARK VINA RESULT:      -3.6     23.395     24.074
REMARK  0 active torsions:
REMARK  status: ('A' for Active; 'I' for Inactive)
ROOT
HETATM    1  C1  UNL     1     -41.911   7.784  -1.304  1.00 20.00     0.072 C 
HETATM    2  C2  UNL     1     -41.427   8.405  -0.003  1.00 20.00     0.173 C 
HETATM    3  C3  UNL     1     -42.873   6.650   0.496  1.00 20.00     0.255 C 
HETATM    4  C4  UNL     1     -42.265   6.370  -0.878  1.00 20.00     0.154 C 
HETATM    5  O5  UNL     1     -42.101   7.720   1.066  1.00 20.00    -0.367 OA
HETATM    6 CL6  UNL     1     -42.944   5.268   1.599  1.00 20.00    -0.092 Cl
HETATM    7 CL7  UNL     1     -43.417   5.606  -1.988  1.00 20.00    -0.098 Cl
HETATM    8 CL8  UNL     1     -40.768   5.382  -0.800  1.00 20.00    -0.098 Cl
ENDROOT
TORSDOF 0
ENDMDL
MODEL 3
REMARK VINA RESULT:      -3.5     19.310     19.742
REMARK  0 active torsions:
REMARK  status: ('A' for Active; 'I' for Inactive)
ROOT
HETATM    1  C1  UNL     1     -35.719  14.812  -3.863  1.00 20.00     0.072 C 
HETATM    2  C2  UNL     1     -36.185  13.609  -4.668  1.00 20.00     0.173 C 
HETATM    3  C3  UNL     1     -35.136  15.112  -6.104  1.00 20.00     0.255 C 
HETATM    4  C4  UNL     1     -34.569  15.340  -4.702  1.00 20.00     0.154 C 
HETATM    5  O5  UNL     1     -35.867  13.876  -6.044  1.00 20.00    -0.367 OA
HETATM    6 CL6  UNL     1     -33.947  15.079  -7.414  1.00 20.00    -0.092 Cl
HETATM    7 CL7  UNL     1     -34.233  17.050  -4.375  1.00 20.00    -0.098 Cl
HETATM    8 CL8  UNL     1     -33.097  14.370  -4.369  1.00 20.00    -0.098 Cl
ENDROOT
TORSDOF 0
ENDMDL
MODEL 4
REMARK VINA RESULT:      -3.5      1.768      2.686
REMARK  0 active torsions:
REMARK  status: ('A' for Active; 'I' for Inactive)
ROOT
HETATM    1  C1  UNL     1     -25.019  16.574  11.911  1.00 20.00     0.072 C 
HETATM    2  C2  UNL     1     -24.294  15.651  10.945  1.00 20.00     0.173 C 
HETATM    3  C3  UNL     1     -24.366  17.790  10.029  1.00 20.00     0.255 C 
HETATM    4  C4  UNL     1     -24.453  17.935  11.549  1.00 20.00     0.154 C 
HETATM    5  O5  UNL     1     -23.979  16.429   9.778  1.00 20.00    -0.367 OA
HETATM    6 CL6  UNL     1     -23.271  18.917   9.214  1.00 20.00    -0.092 Cl
HETATM    7 CL7  UNL     1     -25.526  19.258  12.044  1.00 20.00    -0.098 Cl
HETATM    8 CL8  UNL     1     -22.852  18.141  12.332  1.00 20.00    -0.098 Cl
ENDROOT
TORSDOF 0
ENDMDL
MODEL 5
REMARK VINA RESULT:      -3.5     18.097     18.521
REMARK  0 active torsions:
REMARK  status: ('A' for Active; 'I' for Inactive)
ROOT
HETATM    1  C1  UNL     1     -33.284  15.573  -3.572  1.00 20.00     0.072 C 
HETATM    2  C2  UNL     1     -33.235  14.705  -4.820  1.00 20.00     0.173 C 
HETATM    3  C3  UNL     1     -35.291  14.395  -3.770  1.00 20.00     0.255 C 
HETATM    4  C4  UNL     1     -34.776  15.781  -3.378  1.00 20.00     0.154 C 
HETATM    5  O5  UNL     1     -34.459  13.951  -4.856  1.00 20.00    -0.367 OA
HETATM    6 CL6  UNL     1     -37.002  14.311  -4.213  1.00 20.00    -0.092 Cl
HETATM    7 CL7  UNL     1     -35.179  16.205  -1.704  1.00 20.00    -0.098 Cl
HETATM    8 CL8  UNL     1     -35.342  17.082  -4.476  1.00 20.00    -0.098 Cl
ENDROOT
TORSDOF 0
ENDMDL
MODEL 6
REMARK VINA RESULT:      -3.4     23.553     24.234
REMARK  0 active torsions:
REMARK  status: ('A' for Active; 'I' for Inactive)
ROOT
HETATM    1  C1  UNL     1     -42.783   5.046   0.669  1.00 20.00     0.072 C 
HETATM    2  C2  UNL     1     -43.417   6.160   1.487  1.00 20.00     0.173 C 
HETATM    3  C3  UNL     1     -41.636   7.040   0.270  1.00 20.00     0.255 C 
HETATM    4  C4  UNL     1     -42.143   5.807  -0.479  1.00 20.00     0.154 C 
HETATM    5  O5  UNL     1     -42.632   7.344   1.262  1.00 20.00    -0.367 OA
HETATM    6 CL6  UNL     1     -41.292   8.457  -0.732  1.00 20.00    -0.092 Cl
HETATM    7 CL7  UNL     1     -40.831   4.889  -1.240  1.00 20.00    -0.098 Cl
HETATM    8 CL8  UNL     1     -43.393   6.191  -1.708  1.00 20.00    -0.098 Cl
ENDROOT
TORSDOF 0
ENDMDL
MODEL 7
REMARK VINA RESULT:      -3.4     23.037     23.678
REMARK  0 active torsions:
REMARK  status: ('A' for Active; 'I' for Inactive)
ROOT
HETATM    1  C1  UNL     1     -40.774   7.275  -1.189  1.00 20.00     0.072 C 
HETATM    2  C2  UNL     1     -40.996   5.771  -1.156  1.00 20.00     0.173 C 
HETATM    3  C3  UNL     1     -41.923   6.710   0.763  1.00 20.00     0.255 C 
HETATM    4  C4  UNL     1     -41.906   7.791  -0.318  1.00 20.00     0.154 C 
HETATM    5  O5  UNL     1     -41.640   5.469   0.094  1.00 20.00    -0.367 OA
HETATM    6 CL6  UNL     1     -43.417   6.591   1.703  1.00 20.00    -0.092 Cl
HETATM    7 CL7  UNL     1     -41.562   9.402   0.339  1.00 20.00    -0.098 Cl
HETATM    8 CL8  UNL     1     -43.417   7.851  -1.283  1.00 20.00    -0.098 Cl
ENDROOT
TORSDOF 0
ENDMDL
MODEL 8
REMARK VINA RESULT:      -3.3     18.226     18.678
REMARK  0 active torsions:
REMARK  status: ('A' for Active; 'I' for Inactive)
ROOT
HETATM    1  C1  UNL     1     -35.043  15.692  -2.563  1.00 20.00     0.072 C 
HETATM    2  C2  UNL     1     -33.630  16.244  -2.654  1.00 20.00     0.173 C 
HETATM    3  C3  UNL     1     -34.011  14.853  -4.482  1.00 20.00     0.255 C 
HETATM    4  C4  UNL     1     -35.367  15.383  -4.014  1.00 20.00     0.154 C 
HETATM    5  O5  UNL     1     -33.017  15.643  -3.807  1.00 20.00    -0.367 OA
HETATM    6 CL6  UNL     1     -33.745  14.867  -6.231  1.00 20.00    -0.092 Cl
HETATM    7 CL7  UNL     1     -36.657  14.177  -4.170  1.00 20.00    -0.098 Cl
HETATM    8 CL8  UNL     1     -35.859  16.895  -4.847  1.00 20.00    -0.098 Cl
ENDROOT
TORSDOF 0
ENDMDL
MODEL 9
REMARK VINA RESULT:      -3.3     18.618     19.112
REMARK  0 active torsions:
REMARK  status: ('A' for Active; 'I' for Inactive)
ROOT
HETATM    1  C1  UNL     1     -36.650  15.510  -4.440  1.00 20.00     0.072 C 
HETATM    2  C2  UNL     1     -36.607  13.991  -4.443  1.00 20.00     0.173 C 
HETATM    3  C3  UNL     1     -34.471  14.804  -4.888  1.00 20.00     0.255 C 
HETATM    4  C4  UNL     1     -35.217  15.877  -4.095  1.00 20.00     0.154 C 
HETATM    5  O5  UNL     1     -35.266  13.609  -4.793  1.00 20.00    -0.367 OA
HETATM    6 CL6  UNL     1     -32.805  14.493  -4.376  1.00 20.00    -0.092 Cl
HETATM    7 CL7  UNL     1     -34.803  17.519  -4.620  1.00 20.00    -0.098 Cl
HETATM    8 CL8  UNL     1     -34.980  15.739  -2.322  1.00 20.00    -0.098 Cl
ENDROOT
TORSDOF 0
ENDMDL
