MODEL 1
REMARK VINA RESULT:      -4.1      0.000      0.000
REMARK  3 active torsions:
REMARK  status: ('A' for Active; 'I' for Inactive)
REMARK    1  A    between atoms: C5_5  and  C6_6 
REMARK    2  A    between atoms: C5_5  and  N8_8 
REMARK    3  A    between atoms: C6_6  and  N9_9 
ROOT
HETATM    1  C1  UNL     1     -26.385  18.776   5.106  1.00 20.00     0.157 C 
HETATM    2  N8  UNL     1     -26.107  18.670   6.241  1.00 20.00    -0.274 NA
HETATM    3  S10 UNL     1     -26.791  18.907   3.571  1.00 20.00    -0.055 SA
ENDROOT
BRANCH   2   4
HETATM    4  C5  UNL     1     -24.816  19.252   6.615  1.00 20.00     0.172 C 
BRANCH   4   5
HETATM    5  C6  UNL     1     -24.587  19.093   8.113  1.00 20.00     0.172 C 
BRANCH   5   6
HETATM    6  N9  UNL     1     -23.303  18.476   8.434  1.00 20.00    -0.280 N 
HETATM    7  C4  UNL     1     -22.694  18.462   9.655  1.00 20.00     0.113 A 
HETATM    8  C2  UNL     1     -21.519  17.774   9.481  1.00 20.00     0.040 A 
HETATM    9  C3  UNL     1     -21.519  17.416   8.119  1.00 20.00     0.140 A 
HETATM   10  N7  UNL     1     -22.607  17.844   7.474  1.00 20.00    -0.185 NA
ENDBRANCH   5   6
ENDBRANCH   4   5
ENDBRANCH   2   4
TORSDOF 3
ENDMDL
MODEL 2
REMARK VINA RESULT:      -4.0     14.920     16.550
REMARK  3 active torsions:
REMARK  status: ('A' for Active; 'I' for Inactive)
REMARK    1  A    between atoms: C5_5  and  C6_6 
REMARK    2  A    between atoms: C5_5  and  N8_8 
REMARK    3  A    between atoms: C6_6  and  N9_9 
ROOT
HETATM    1  C1  UNL     1     -38.596  14.754  -4.180  1.00 20.00     0.157 C 
HETATM    2  N8  UNL     1     -37.817  13.900  -4.384  1.00 20.00    -0.274 NA
HETATM    3  S10 UNL     1     -39.673  15.892  -3.891  1.00 20.00    -0.055 SA
ENDROOT
BRANCH   2   4
HETATM    4  C5  UNL     1     -36.543  14.352  -4.949  1.00 20.00     0.172 C 
BRANCH   4   5
HETATM    5  C6  UNL     1     -35.389  13.879  -4.073  1.00 20.00     0.172 C 
BRANCH   5   6
HETATM    6  N9  UNL     1     -34.670  14.976  -3.431  1.00 20.00    -0.280 N 
HETATM    7  C4  UNL     1     -35.138  15.773  -2.428  1.00 20.00     0.113 A 
HETATM    8  C2  UNL     1     -34.125  16.656  -2.146  1.00 20.00     0.040 A 
HETATM    9  C3  UNL     1     -33.093  16.303  -3.036  1.00 20.00     0.140 A 
HETATM   10  N7  UNL     1     -33.421  15.277  -3.825  1.00 20.00    -0.185 NA
ENDBRANCH   5   6
ENDBRANCH   4   5
ENDBRANCH   2   4
TORSDOF 3
ENDMDL
MODEL 3
REMARK VINA RESULT:      -4.0     14.553     16.127
REMARK  3 active torsions:
REMARK  status: ('A' for Active; 'I' for Inactive)
REMARK    1  A    between atoms: C5_5  and  C6_6 
REMARK    2  A    between atoms: C5_5  and  N8_8 
REMARK    3  A    between atoms: C6_6  and  N9_9 
ROOT
HETATM    1  C1  UNL     1     -35.332  14.768  -6.566  1.00 20.00     0.157 C 
HETATM    2  N8  UNL     1     -36.001  13.967  -6.029  1.00 20.00    -0.274 NA
HETATM    3  S10 UNL     1     -34.431  15.843  -7.321  1.00 20.00    -0.055 SA
ENDROOT
BRANCH   2   4
HETATM    4  C5  UNL     1     -36.116  14.132  -4.579  1.00 20.00     0.172 C 
BRANCH   4   5
HETATM    5  C6  UNL     1     -34.746  13.980  -3.927  1.00 20.00     0.172 C 
BRANCH   5   6
HETATM    6  N9  UNL     1     -34.303  15.188  -3.237  1.00 20.00    -0.280 N 
HETATM    7  C4  UNL     1     -33.147  15.875  -3.467  1.00 20.00     0.113 A 
HETATM    8  C2  UNL     1     -33.157  16.931  -2.591  1.00 20.00     0.040 A 
HETATM    9  C3  UNL     1     -34.363  16.788  -1.879  1.00 20.00     0.140 A 
HETATM   10  N7  UNL     1     -35.068  15.723  -2.269  1.00 20.00    -0.185 NA
ENDBRANCH   5   6
ENDBRANCH   4   5
ENDBRANCH   2   4
TORSDOF 3
ENDMDL
MODEL 4
REMARK VINA RESULT:      -4.0     14.451     16.098
REMARK  3 active torsions:
REMARK  status: ('A' for Active; 'I' for Inactive)
REMARK    1  A    between atoms: C5_5  and  C6_6 
REMARK    2  A    between atoms: C5_5  and  N8_8 
REMARK    3  A    between atoms: C6_6  and  N9_9 
ROOT
HETATM    1  C1  UNL     1     -35.334  14.763  -6.564  1.00 20.00     0.157 C 
HETATM    2  N8  UNL     1     -36.007  13.963  -6.031  1.00 20.00    -0.274 NA
HETATM    3  S10 UNL     1     -34.428  15.837  -7.315  1.00 20.00    -0.055 SA
ENDROOT
BRANCH   2   4
HETATM    4  C5  UNL     1     -36.105  14.111  -4.577  1.00 20.00     0.172 C 
BRANCH   4   5
HETATM    5  C6  UNL     1     -34.722  13.992  -3.947  1.00 20.00     0.172 C 
BRANCH   5   6
HETATM    6  N9  UNL     1     -34.308  15.201  -3.242  1.00 20.00    -0.280 N 
HETATM    7  C4  UNL     1     -35.008  15.849  -2.267  1.00 20.00     0.113 A 
HETATM    8  C2  UNL     1     -34.236  16.924  -1.901  1.00 20.00     0.040 A 
HETATM    9  C3  UNL     1     -33.091  16.829  -2.716  1.00 20.00     0.140 A 
HETATM   10  N7  UNL     1     -33.131  15.778  -3.539  1.00 20.00    -0.185 NA
ENDBRANCH   5   6
ENDBRANCH   4   5
ENDBRANCH   2   4
TORSDOF 3
ENDMDL
MODEL 5
REMARK VINA RESULT:      -3.9     15.507     17.034
REMARK  3 active torsions:
REMARK  status: ('A' for Active; 'I' for Inactive)
REMARK    1  A    between atoms: C5_5  and  C6_6 
REMARK    2  A    between atoms: C5_5  and  N8_8 
REMARK    3  A    between atoms: C6_6  and  N9_9 
ROOT
HETATM    1  C1  UNL     1     -39.231  14.854  -4.105  1.00 20.00     0.157 C 
HETATM    2  N8  UNL     1     -38.406  14.078  -4.412  1.00 20.00    -0.274 NA
HETATM    3  S10 UNL     1     -40.370  15.884  -3.682  1.00 20.00    -0.055 SA
ENDROOT
BRANCH   2   4
HETATM    4  C5  UNL     1     -37.113  14.665  -4.772  1.00 20.00     0.172 C 
BRANCH   4   5
HETATM    5  C6  UNL     1     -35.982  13.738  -4.342  1.00 20.00     0.172 C 
BRANCH   5   6
HETATM    6  N9  UNL     1     -34.735  14.445  -4.068  1.00 20.00    -0.280 N 
HETATM    7  C4  UNL     1     -34.560  15.463  -3.176  1.00 20.00     0.113 A 
HETATM    8  C2  UNL     1     -33.235  15.811  -3.259  1.00 20.00     0.040 A 
HETATM    9  C3  UNL     1     -32.701  14.942  -4.230  1.00 20.00     0.140 A 
HETATM   10  N7  UNL     1     -33.615  14.105  -4.729  1.00 20.00    -0.185 NA
ENDBRANCH   5   6
ENDBRANCH   4   5
ENDBRANCH   2   4
TORSDOF 3
ENDMDL
MODEL 6
REMARK VINA RESULT:      -3.8     14.928     16.227
REMARK  3 active torsions:
REMARK  status: ('A' for Active; 'I' for Inactive)
REMARK    1  A    between atoms: C5_5  and  C6_6 
REMARK    2  A    between atoms: C5_5  and  N8_8 
REMARK    3  A    between atoms: C6_6  and  N9_9 
ROOT
HETATM    1  C1  UNL     1     -32.547   7.930   1.497  1.00 20.00     0.157 C 
HETATM    2  N8  UNL     1     -32.232   7.312   2.444  1.00 20.00    -0.274 NA
HETATM    3  S10 UNL     1     -32.962   8.793   0.224  1.00 20.00    -0.055 SA
ENDROOT
BRANCH   2   4
HETATM    4  C5  UNL     1     -32.535   5.881   2.375  1.00 20.00     0.172 C 
BRANCH   4   5
HETATM    5  C6  UNL     1     -34.002   5.643   2.713  1.00 20.00     0.172 C 
BRANCH   5   6
HETATM    6  N9  UNL     1     -34.265   5.635   4.149  1.00 20.00    -0.280 N 
HETATM    7  C4  UNL     1     -34.026   6.656   5.021  1.00 20.00     0.113 A 
HETATM    8  C2  UNL     1     -34.427   6.200   6.252  1.00 20.00     0.040 A 
HETATM    9  C3  UNL     1     -34.892   4.893   6.010  1.00 20.00     0.140 A 
HETATM   10  N7  UNL     1     -34.794   4.542   4.725  1.00 20.00    -0.185 NA
ENDBRANCH   5   6
ENDBRANCH   4   5
ENDBRANCH   2   4
TORSDOF 3
ENDMDL
MODEL 7
REMARK VINA RESULT:      -3.8     10.267     13.259
REMARK  3 active torsions:
REMARK  status: ('A' for Active; 'I' for Inactive)
REMARK    1  A    between atoms: C5_5  and  C6_6 
REMARK    2  A    between atoms: C5_5  and  N8_8 
REMARK    3  A    between atoms: C6_6  and  N9_9 
ROOT
HETATM    1  C1  UNL     1     -31.035  18.581   0.536  1.00 20.00     0.157 C 
HETATM    2  N8  UNL     1     -30.838  18.332  -0.593  1.00 20.00    -0.274 NA
HETATM    3  S10 UNL     1     -31.273  18.912   2.076  1.00 20.00    -0.055 SA
ENDROOT
BRANCH   2   4
HETATM    4  C5  UNL     1     -31.948  18.647  -1.496  1.00 20.00     0.172 C 
BRANCH   4   5
HETATM    5  C6  UNL     1     -33.232  18.003  -0.986  1.00 20.00     0.172 C 
BRANCH   5   6
HETATM    6  N9  UNL     1     -33.747  16.969  -1.880  1.00 20.00    -0.280 N 
HETATM    7  C4  UNL     1     -34.970  16.369  -1.803  1.00 20.00     0.113 A 
HETATM    8  C2  UNL     1     -35.014  15.471  -2.840  1.00 20.00     0.040 A 
HETATM    9  C3  UNL     1     -33.767  15.611  -3.480  1.00 20.00     0.140 A 
HETATM   10  N7  UNL     1     -32.988  16.524  -2.895  1.00 20.00    -0.185 NA
ENDBRANCH   5   6
ENDBRANCH   4   5
ENDBRANCH   2   4
TORSDOF 3
ENDMDL
MODEL 8
REMARK VINA RESULT:      -3.7      3.338      4.990
REMARK  3 active torsions:
REMARK  status: ('A' for Active; 'I' for Inactive)
REMARK    1  A    between atoms: C5_5  and  C6_6 
REMARK    2  A    between atoms: C5_5  and  N8_8 
REMARK    3  A    between atoms: C6_6  and  N9_9 
ROOT
HETATM    1  C1  UNL     1     -23.998  16.631  10.945  1.00 20.00     0.157 C 
HETATM    2  N8  UNL     1     -23.335  17.116  10.107  1.00 20.00    -0.274 NA
HETATM    3  S10 UNL     1     -24.881  15.948  12.081  1.00 20.00    -0.055 SA
ENDROOT
BRANCH   2   4
HETATM    4  C5  UNL     1     -23.708  18.484   9.741  1.00 20.00     0.172 C 
BRANCH   4   5
HETATM    5  C6  UNL     1     -23.283  18.773   8.306  1.00 20.00     0.172 C 
BRANCH   5   6
HETATM    6  N9  UNL     1     -24.413  18.953   7.399  1.00 20.00    -0.280 N 
HETATM    7  C4  UNL     1     -25.733  18.958   7.742  1.00 20.00     0.113 A 
HETATM    8  C2  UNL     1     -26.424  19.159   6.573  1.00 20.00     0.040 A 
HETATM    9  C3  UNL     1     -25.425  19.263   5.587  1.00 20.00     0.140 A 
HETATM   10  N7  UNL     1     -24.193  19.137   6.086  1.00 20.00    -0.185 NA
ENDBRANCH   5   6
ENDBRANCH   4   5
ENDBRANCH   2   4
TORSDOF 3
ENDMDL
MODEL 9
REMARK VINA RESULT:      -3.5     14.075     15.387
REMARK  3 active torsions:
REMARK  status: ('A' for Active; 'I' for Inactive)
REMARK    1  A    between atoms: C5_5  and  C6_6 
REMARK    2  A    between atoms: C5_5  and  N8_8 
REMARK    3  A    between atoms: C6_6  and  N9_9 
ROOT
HETATM    1  C1  UNL     1     -35.193  15.149  -5.922  1.00 20.00     0.157 C 
HETATM    2  N8  UNL     1     -34.362  14.381  -5.612  1.00 20.00    -0.274 NA
HETATM    3  S10 UNL     1     -36.318  16.184  -6.373  1.00 20.00    -0.055 SA
ENDROOT
BRANCH   2   4
HETATM    4  C5  UNL     1     -34.081  14.325  -4.176  1.00 20.00     0.172 C 
BRANCH   4   5
HETATM    5  C6  UNL     1     -33.234  15.524  -3.764  1.00 20.00     0.172 C 
BRANCH   5   6
HETATM    6  N9  UNL     1     -33.796  16.261  -2.636  1.00 20.00    -0.280 N 
HETATM    7  C4  UNL     1     -33.222  17.318  -1.993  1.00 20.00     0.113 A 
HETATM    8  C2  UNL     1     -34.105  17.684  -1.007  1.00 20.00     0.040 A 
HETATM    9  C3  UNL     1     -35.178  16.782  -1.144  1.00 20.00     0.140 A 
HETATM   10  N7  UNL     1     -34.994  15.910  -2.138  1.00 20.00    -0.185 NA
ENDBRANCH   5   6
ENDBRANCH   4   5
ENDBRANCH   2   4
TORSDOF 3
ENDMDL
