MODEL 1
REMARK VINA RESULT:      -4.2      0.000      0.000
REMARK  0 active torsions:
REMARK  status: ('A' for Active; 'I' for Inactive)
ROOT
HETATM    1  C1  UNL     1     -34.496  16.346  -5.082  1.00 20.00     0.048 C 
HETATM    2  C2  UNL     1     -32.943  14.796  -4.206  1.00 20.00     0.177 C 
HETATM    3  C3  UNL     1     -33.820  15.960  -3.766  1.00 20.00    -0.023 C 
HETATM    4  C4  UNL     1     -34.505  15.053  -5.912  1.00 20.00     0.054 C 
HETATM    5  C5  UNL     1     -34.854  15.495  -2.728  1.00 20.00     0.017 C 
HETATM    6  C6  UNL     1     -32.998  17.105  -3.176  1.00 20.00     0.017 C 
HETATM    7  C7  UNL     1     -33.870  15.268  -7.288  1.00 20.00     0.045 C 
HETATM    8  C8  UNL     1     -35.909  14.473  -6.079  1.00 20.00     0.045 C 
HETATM    9  O9  UNL     1     -33.703  14.093  -5.197  1.00 20.00    -0.380 OA
ENDROOT
TORSDOF 0
ENDMDL
MODEL 2
REMARK VINA RESULT:      -4.1     18.191     18.960
REMARK  0 active torsions:
REMARK  status: ('A' for Active; 'I' for Inactive)
ROOT
HETATM    1  C1  UNL     1     -24.560  17.658  10.106  1.00 20.00     0.048 C 
HETATM    2  C2  UNL     1     -23.293  17.968  12.075  1.00 20.00     0.177 C 
HETATM    3  C3  UNL     1     -24.580  17.312  11.595  1.00 20.00    -0.023 C 
HETATM    4  C4  UNL     1     -23.071  17.828   9.762  1.00 20.00     0.054 C 
HETATM    5  C5  UNL     1     -24.526  15.792  11.812  1.00 20.00     0.017 C 
HETATM    6  C6  UNL     1     -25.809  17.877  12.306  1.00 20.00     0.017 C 
HETATM    7  C7  UNL     1     -22.802  19.179   9.096  1.00 20.00     0.045 C 
HETATM    8  C8  UNL     1     -22.543  16.702   8.875  1.00 20.00     0.045 C 
HETATM    9  O9  UNL     1     -22.350  17.794  11.010  1.00 20.00    -0.380 OA
ENDROOT
TORSDOF 0
ENDMDL
MODEL 3
REMARK VINA RESULT:      -3.9      1.545      2.505
REMARK  0 active torsions:
REMARK  status: ('A' for Active; 'I' for Inactive)
ROOT
HETATM    1  C1  UNL     1     -35.071  15.265  -3.115  1.00 20.00     0.048 C 
HETATM    2  C2  UNL     1     -34.361  16.608  -4.924  1.00 20.00     0.177 C 
HETATM    3  C3  UNL     1     -33.796  15.823  -3.748  1.00 20.00    -0.023 C 
HETATM    4  C4  UNL     1     -36.078  15.178  -4.273  1.00 20.00     0.054 C 
HETATM    5  C5  UNL     1     -32.881  14.692  -4.242  1.00 20.00     0.017 C 
HETATM    6  C6  UNL     1     -33.014  16.718  -2.786  1.00 20.00     0.017 C 
HETATM    7  C7  UNL     1     -37.380  15.908  -3.937  1.00 20.00     0.045 C 
HETATM    8  C8  UNL     1     -36.386  13.737  -4.676  1.00 20.00     0.045 C 
HETATM    9  O9  UNL     1     -35.474  15.842  -5.401  1.00 20.00    -0.380 OA
ENDROOT
TORSDOF 0
ENDMDL
MODEL 4
REMARK VINA RESULT:      -3.9      1.024      1.198
REMARK  0 active torsions:
REMARK  status: ('A' for Active; 'I' for Inactive)
ROOT
HETATM    1  C1  UNL     1     -35.358  16.219  -4.582  1.00 20.00     0.048 C 
HETATM    2  C2  UNL     1     -33.478  14.878  -4.086  1.00 20.00     0.177 C 
HETATM    3  C3  UNL     1     -34.195  16.128  -3.594  1.00 20.00    -0.023 C 
HETATM    4  C4  UNL     1     -35.598  14.772  -5.041  1.00 20.00     0.054 C 
HETATM    5  C5  UNL     1     -34.702  15.929  -2.157  1.00 20.00     0.017 C 
HETATM    6  C6  UNL     1     -33.293  17.360  -3.642  1.00 20.00     0.017 C 
HETATM    7  C7  UNL     1     -35.570  14.659  -6.567  1.00 20.00     0.045 C 
HETATM    8  C8  UNL     1     -36.908  14.197  -4.506  1.00 20.00     0.045 C 
HETATM    9  O9  UNL     1     -34.512  13.983  -4.516  1.00 20.00    -0.380 OA
ENDROOT
TORSDOF 0
ENDMDL
MODEL 5
REMARK VINA RESULT:      -3.8     16.613     18.511
REMARK  0 active torsions:
REMARK  status: ('A' for Active; 'I' for Inactive)
ROOT
HETATM    1  C1  UNL     1     -23.713  16.961   9.793  1.00 20.00     0.048 C 
HETATM    2  C2  UNL     1     -25.130  18.116  11.290  1.00 20.00     0.177 C 
HETATM    3  C3  UNL     1     -24.102  16.993  11.271  1.00 20.00    -0.023 C 
HETATM    4  C4  UNL     1     -23.974  18.389   9.288  1.00 20.00     0.054 C 
HETATM    5  C5  UNL     1     -22.896  17.349  12.154  1.00 20.00     0.017 C 
HETATM    6  C6  UNL     1     -24.696  15.667  11.745  1.00 20.00     0.017 C 
HETATM    7  C7  UNL     1     -24.884  18.389   8.058  1.00 20.00     0.045 C 
HETATM    8  C8  UNL     1     -22.683  19.144   8.973  1.00 20.00     0.045 C 
HETATM    9  O9  UNL     1     -24.657  19.087  10.348  1.00 20.00    -0.380 OA
ENDROOT
TORSDOF 0
ENDMDL
MODEL 6
REMARK VINA RESULT:      -3.8     11.327     12.425
REMARK  0 active torsions:
REMARK  status: ('A' for Active; 'I' for Inactive)
ROOT
HETATM    1  C1  UNL     1     -41.577   7.462  -1.243  1.00 20.00     0.048 C 
HETATM    2  C2  UNL     1     -41.917   7.131   1.072  1.00 20.00     0.177 C 
HETATM    3  C3  UNL     1     -41.985   8.227   0.017  1.00 20.00    -0.023 C 
HETATM    4  C4  UNL     1     -41.980   6.005  -0.964  1.00 20.00     0.054 C 
HETATM    5  C5  UNL     1     -43.417   8.772  -0.106  1.00 20.00     0.017 C 
HETATM    6  C6  UNL     1     -41.034   9.382   0.329  1.00 20.00     0.017 C 
HETATM    7  C7  UNL     1     -40.799   5.051  -1.165  1.00 20.00     0.045 C 
HETATM    8  C8  UNL     1     -43.161   5.550  -1.820  1.00 20.00     0.045 C 
HETATM    9  O9  UNL     1     -42.374   5.939   0.421  1.00 20.00    -0.380 OA
ENDROOT
TORSDOF 0
ENDMDL
MODEL 7
REMARK VINA RESULT:      -3.8      1.535      2.568
REMARK  0 active torsions:
REMARK  status: ('A' for Active; 'I' for Inactive)
ROOT
HETATM    1  C1  UNL     1     -34.774  15.089  -3.226  1.00 20.00     0.048 C 
HETATM    2  C2  UNL     1     -35.334  17.344  -3.649  1.00 20.00     0.177 C 
HETATM    3  C3  UNL     1     -34.574  16.489  -2.645  1.00 20.00    -0.023 C 
HETATM    4  C4  UNL     1     -34.980  15.315  -4.732  1.00 20.00     0.054 C 
HETATM    5  C5  UNL     1     -33.086  16.873  -2.623  1.00 20.00     0.017 C 
HETATM    6  C6  UNL     1     -35.146  16.619  -1.234  1.00 20.00     0.017 C 
HETATM    7  C7  UNL     1     -36.271  14.657  -5.225  1.00 20.00     0.045 C 
HETATM    8  C8  UNL     1     -33.799  14.819  -5.566  1.00 20.00     0.045 C 
HETATM    9  O9  UNL     1     -35.102  16.738  -4.927  1.00 20.00    -0.380 OA
ENDROOT
TORSDOF 0
ENDMDL
MODEL 8
REMARK VINA RESULT:      -3.6      1.370      1.571
REMARK  0 active torsions:
REMARK  status: ('A' for Active; 'I' for Inactive)
ROOT
HETATM    1  C1  UNL     1     -35.046  16.214  -4.778  1.00 20.00     0.048 C 
HETATM    2  C2  UNL     1     -34.542  14.102  -3.846  1.00 20.00     0.177 C 
HETATM    3  C3  UNL     1     -34.414  15.587  -3.535  1.00 20.00    -0.023 C 
HETATM    4  C4  UNL     1     -36.031  15.153  -5.295  1.00 20.00     0.054 C 
HETATM    5  C5  UNL     1     -35.209  15.945  -2.269  1.00 20.00     0.017 C 
HETATM    6  C6  UNL     1     -32.957  16.008  -3.348  1.00 20.00     0.017 C 
HETATM    7  C7  UNL     1     -35.776  14.825  -6.768  1.00 20.00     0.045 C 
HETATM    8  C8  UNL     1     -37.489  15.565  -5.104  1.00 20.00     0.045 C 
HETATM    9  O9  UNL     1     -35.796  13.957  -4.525  1.00 20.00    -0.380 OA
ENDROOT
TORSDOF 0
ENDMDL
MODEL 9
REMARK VINA RESULT:      -3.6      1.233      3.413
REMARK  0 active torsions:
REMARK  status: ('A' for Active; 'I' for Inactive)
ROOT
HETATM    1  C1  UNL     1     -33.724  15.086  -4.615  1.00 20.00     0.048 C 
HETATM    2  C2  UNL     1     -34.753  16.873  -5.767  1.00 20.00     0.177 C 
HETATM    3  C3  UNL     1     -34.510  15.376  -5.894  1.00 20.00    -0.023 C 
HETATM    4  C4  UNL     1     -34.173  16.172  -3.624  1.00 20.00     0.054 C 
HETATM    5  C5  UNL     1     -35.842  14.611  -5.913  1.00 20.00     0.017 C 
HETATM    6  C6  UNL     1     -33.716  15.031  -7.154  1.00 20.00     0.017 C 
HETATM    7  C7  UNL     1     -32.976  16.928  -3.043  1.00 20.00     0.045 C 
HETATM    8  C8  UNL     1     -35.029  15.613  -2.489  1.00 20.00     0.045 C 
HETATM    9  O9  UNL     1     -34.973  17.112  -4.371  1.00 20.00    -0.380 OA
ENDROOT
TORSDOF 0
ENDMDL
