MODEL 1
REMARK VINA RESULT:      -5.2      0.000      0.000
REMARK  5 active torsions:
REMARK  status: ('A' for Active; 'I' for Inactive)
REMARK    1  A    between atoms: C2_2  and  C3_3 
REMARK    2  A    between atoms: C3_3  and  C4_4 
REMARK    3  A    between atoms: C4_4  and  C5_5 
REMARK    4  A    between atoms: C5_5  and  C6_6 
REMARK    5  A    between atoms: C6_6  and  C7_7 
ROOT
HETATM    1  C1  UNL     1     -32.669   8.192   1.164  1.00 20.00     0.059 C 
HETATM    2  C2  UNL     1     -32.218   7.264   2.210  1.00 20.00     0.124 C 
HETATM    3  N8  UNL     1     -33.023   8.925   0.337  1.00 20.00    -0.197 NA
ENDROOT
BRANCH   2   4
HETATM    4  C3  UNL     1     -33.383   6.527   2.872  1.00 20.00     0.014 C 
BRANCH   4   5
HETATM    5  C4  UNL     1     -33.370   5.020   2.593  1.00 20.00     0.001 C 
BRANCH   5   6
HETATM    6  C5  UNL     1     -34.117   4.247   3.684  1.00 20.00     0.001 C 
BRANCH   6   7
HETATM    7  C6  UNL     1     -35.115   5.149   4.417  1.00 20.00     0.015 C 
BRANCH   7   8
HETATM    8  C7  UNL     1     -34.789   5.331   5.896  1.00 20.00     0.114 C 
HETATM    9 CL9  UNL     1     -33.948   6.866   6.211  1.00 20.00    -0.130 Cl
ENDBRANCH   7   8
ENDBRANCH   6   7
ENDBRANCH   5   6
ENDBRANCH   4   5
ENDBRANCH   2   4
TORSDOF 5
ENDMDL
MODEL 2
REMARK VINA RESULT:      -4.7      2.925      4.547
REMARK  5 active torsions:
REMARK  status: ('A' for Active; 'I' for Inactive)
REMARK    1  A    between atoms: C2_2  and  C3_3 
REMARK    2  A    between atoms: C3_3  and  C4_4 
REMARK    3  A    between atoms: C4_4  and  C5_5 
REMARK    4  A    between atoms: C5_5  and  C6_6 
REMARK    5  A    between atoms: C6_6  and  C7_7 
ROOT
HETATM    1  C1  UNL     1     -34.214   6.255   5.940  1.00 20.00     0.059 C 
HETATM    2  C2  UNL     1     -34.889   4.985   5.640  1.00 20.00     0.124 C 
HETATM    3  N8  UNL     1     -33.681   7.258   6.178  1.00 20.00    -0.197 NA
ENDROOT
BRANCH   2   4
HETATM    4  C3  UNL     1     -34.507   4.436   4.264  1.00 20.00     0.014 C 
BRANCH   4   5
HETATM    5  C4  UNL     1     -34.453   5.522   3.184  1.00 20.00     0.001 C 
BRANCH   5   6
HETATM    6  C5  UNL     1     -33.040   5.663   2.610  1.00 20.00     0.001 C 
BRANCH   6   7
HETATM    7  C6  UNL     1     -32.594   7.128   2.590  1.00 20.00     0.015 C 
BRANCH   7   8
HETATM    8  C7  UNL     1     -32.299   7.650   1.188  1.00 20.00     0.114 C 
HETATM    9 CL9  UNL     1     -33.077   9.219   0.880  1.00 20.00    -0.130 Cl
ENDBRANCH   7   8
ENDBRANCH   6   7
ENDBRANCH   5   6
ENDBRANCH   4   5
ENDBRANCH   2   4
TORSDOF 5
ENDMDL
MODEL 3
REMARK VINA RESULT:      -4.6      1.641      2.113
REMARK  5 active torsions:
REMARK  status: ('A' for Active; 'I' for Inactive)
REMARK    1  A    between atoms: C2_2  and  C3_3 
REMARK    2  A    between atoms: C3_3  and  C4_4 
REMARK    3  A    between atoms: C4_4  and  C5_5 
REMARK    4  A    between atoms: C5_5  and  C6_6 
REMARK    5  A    between atoms: C6_6  and  C7_7 
ROOT
HETATM    1  C1  UNL     1     -32.719   8.175   1.297  1.00 20.00     0.059 C 
HETATM    2  C2  UNL     1     -32.480   6.949   2.070  1.00 20.00     0.124 C 
HETATM    3  N8  UNL     1     -32.909   9.143   0.685  1.00 20.00    -0.197 NA
ENDROOT
BRANCH   2   4
HETATM    4  C3  UNL     1     -32.391   7.218   3.573  1.00 20.00     0.014 C 
BRANCH   4   5
HETATM    5  C4  UNL     1     -33.765   7.291   4.247  1.00 20.00     0.001 C 
BRANCH   5   6
HETATM    6  C5  UNL     1     -33.695   6.821   5.702  1.00 20.00     0.001 C 
BRANCH   6   7
HETATM    7  C6  UNL     1     -34.613   5.618   5.941  1.00 20.00     0.015 C 
BRANCH   7   8
HETATM    8  C7  UNL     1     -35.243   5.078   4.661  1.00 20.00     0.114 C 
HETATM    9 CL9  UNL     1     -34.163   3.953   3.807  1.00 20.00    -0.130 Cl
ENDBRANCH   7   8
ENDBRANCH   6   7
ENDBRANCH   5   6
ENDBRANCH   4   5
ENDBRANCH   2   4
TORSDOF 5
ENDMDL
MODEL 4
REMARK VINA RESULT:      -4.4      0.848      1.362
REMARK  5 active torsions:
REMARK  status: ('A' for Active; 'I' for Inactive)
REMARK    1  A    between atoms: C2_2  and  C3_3 
REMARK    2  A    between atoms: C3_3  and  C4_4 
REMARK    3  A    between atoms: C4_4  and  C5_5 
REMARK    4  A    between atoms: C5_5  and  C6_6 
REMARK    5  A    between atoms: C6_6  and  C7_7 
ROOT
HETATM    1  C1  UNL     1     -32.790   8.591   0.679  1.00 20.00     0.059 C 
HETATM    2  C2  UNL     1     -32.080   7.410   1.188  1.00 20.00     0.124 C 
HETATM    3  N8  UNL     1     -33.351   9.523   0.275  1.00 20.00    -0.197 NA
ENDROOT
BRANCH   2   4
HETATM    4  C3  UNL     1     -32.082   7.346   2.716  1.00 20.00     0.014 C 
BRANCH   4   5
HETATM    5  C4  UNL     1     -33.314   6.629   3.280  1.00 20.00     0.001 C 
BRANCH   5   6
HETATM    6  C5  UNL     1     -33.403   5.191   2.763  1.00 20.00     0.001 C 
BRANCH   6   7
HETATM    7  C6  UNL     1     -34.222   4.311   3.713  1.00 20.00     0.015 C 
BRANCH   7   8
HETATM    8  C7  UNL     1     -35.235   5.096   4.539  1.00 20.00     0.114 C 
HETATM    9 CL9  UNL     1     -34.694   5.327   6.217  1.00 20.00    -0.130 Cl
ENDBRANCH   7   8
ENDBRANCH   6   7
ENDBRANCH   5   6
ENDBRANCH   4   5
ENDBRANCH   2   4
TORSDOF 5
ENDMDL
MODEL 5
REMARK VINA RESULT:      -4.4      3.302      4.933
REMARK  5 active torsions:
REMARK  status: ('A' for Active; 'I' for Inactive)
REMARK    1  A    between atoms: C2_2  and  C3_3 
REMARK    2  A    between atoms: C3_3  and  C4_4 
REMARK    3  A    between atoms: C4_4  and  C5_5 
REMARK    4  A    between atoms: C5_5  and  C6_6 
REMARK    5  A    between atoms: C6_6  and  C7_7 
ROOT
HETATM    1  C1  UNL     1     -34.543   4.624   4.849  1.00 20.00     0.059 C 
HETATM    2  C2  UNL     1     -34.617   5.644   5.903  1.00 20.00     0.124 C 
HETATM    3  N8  UNL     1     -34.487   3.818   4.016  1.00 20.00    -0.197 NA
ENDROOT
BRANCH   2   4
HETATM    4  C3  UNL     1     -33.781   6.881   5.573  1.00 20.00     0.014 C 
BRANCH   4   5
HETATM    5  C4  UNL     1     -33.824   7.249   4.085  1.00 20.00     0.001 C 
BRANCH   5   6
HETATM    6  C5  UNL     1     -32.426   7.204   3.462  1.00 20.00     0.001 C 
BRANCH   6   7
HETATM    7  C6  UNL     1     -32.500   7.202   1.932  1.00 20.00     0.015 C 
BRANCH   7   8
HETATM    8  C7  UNL     1     -32.682   8.594   1.337  1.00 20.00     0.114 C 
HETATM    9 CL9  UNL     1     -33.342   8.535  -0.314  1.00 20.00    -0.130 Cl
ENDBRANCH   7   8
ENDBRANCH   6   7
ENDBRANCH   5   6
ENDBRANCH   4   5
ENDBRANCH   2   4
TORSDOF 5
ENDMDL
MODEL 6
REMARK VINA RESULT:      -4.1     11.098     12.016
REMARK  5 active torsions:
REMARK  status: ('A' for Active; 'I' for Inactive)
REMARK    1  A    between atoms: C2_2  and  C3_3 
REMARK    2  A    between atoms: C3_3  and  C4_4 
REMARK    3  A    between atoms: C4_4  and  C5_5 
REMARK    4  A    between atoms: C5_5  and  C6_6 
REMARK    5  A    between atoms: C6_6  and  C7_7 
ROOT
HETATM    1  C1  UNL     1     -36.254  13.898  -4.265  1.00 20.00     0.059 C 
HETATM    2  C2  UNL     1     -34.803  13.936  -4.039  1.00 20.00     0.124 C 
HETATM    3  N8  UNL     1     -37.400  13.866  -4.444  1.00 20.00    -0.197 NA
ENDROOT
BRANCH   2   4
HETATM    4  C3  UNL     1     -34.326  15.308  -3.561  1.00 20.00     0.014 C 
BRANCH   4   5
HETATM    5  C4  UNL     1     -35.073  15.798  -2.316  1.00 20.00     0.001 C 
BRANCH   5   6
HETATM    6  C5  UNL     1     -34.414  17.051  -1.731  1.00 20.00     0.001 C 
BRANCH   6   7
HETATM    7  C6  UNL     1     -32.961  17.182  -2.197  1.00 20.00     0.015 C 
BRANCH   7   8
HETATM    8  C7  UNL     1     -32.298  18.478  -1.744  1.00 20.00     0.114 C 
HETATM    9 CL9  UNL     1     -31.076  18.198  -0.482  1.00 20.00    -0.130 Cl
ENDBRANCH   7   8
ENDBRANCH   6   7
ENDBRANCH   5   6
ENDBRANCH   4   5
ENDBRANCH   2   4
TORSDOF 5
ENDMDL
MODEL 7
REMARK VINA RESULT:      -4.0     11.130     11.681
REMARK  5 active torsions:
REMARK  status: ('A' for Active; 'I' for Inactive)
REMARK    1  A    between atoms: C2_2  and  C3_3 
REMARK    2  A    between atoms: C3_3  and  C4_4 
REMARK    3  A    between atoms: C4_4  and  C5_5 
REMARK    4  A    between atoms: C5_5  and  C6_6 
REMARK    5  A    between atoms: C6_6  and  C7_7 
ROOT
HETATM    1  C1  UNL     1     -36.877  14.154  -4.609  1.00 20.00     0.059 C 
HETATM    2  C2  UNL     1     -35.477  14.413  -4.971  1.00 20.00     0.124 C 
HETATM    3  N8  UNL     1     -37.983  13.949  -4.324  1.00 20.00    -0.197 NA
ENDROOT
BRANCH   2   4
HETATM    4  C3  UNL     1     -34.550  14.393  -3.755  1.00 20.00     0.014 C 
BRANCH   4   5
HETATM    5  C4  UNL     1     -33.524  15.531  -3.770  1.00 20.00     0.001 C 
BRANCH   5   6
HETATM    6  C5  UNL     1     -33.695  16.448  -2.556  1.00 20.00     0.001 C 
BRANCH   6   7
HETATM    7  C6  UNL     1     -35.009  16.158  -1.823  1.00 20.00     0.015 C 
BRANCH   7   8
HETATM    8  C7  UNL     1     -35.404  17.253  -0.838  1.00 20.00     0.114 C 
HETATM    9 CL9  UNL     1     -33.990  17.971  -0.034  1.00 20.00    -0.130 Cl
ENDBRANCH   7   8
ENDBRANCH   6   7
ENDBRANCH   5   6
ENDBRANCH   4   5
ENDBRANCH   2   4
TORSDOF 5
ENDMDL
MODEL 8
REMARK VINA RESULT:      -3.9     10.835     11.412
REMARK  5 active torsions:
REMARK  status: ('A' for Active; 'I' for Inactive)
REMARK    1  A    between atoms: C2_2  and  C3_3 
REMARK    2  A    between atoms: C3_3  and  C4_4 
REMARK    3  A    between atoms: C4_4  and  C5_5 
REMARK    4  A    between atoms: C5_5  and  C6_6 
REMARK    5  A    between atoms: C6_6  and  C7_7 
ROOT
HETATM    1  C1  UNL     1     -35.189  13.677  -4.302  1.00 20.00     0.059 C 
HETATM    2  C2  UNL     1     -34.175  14.696  -3.999  1.00 20.00     0.124 C 
HETATM    3  N8  UNL     1     -35.988  12.871  -4.543  1.00 20.00    -0.197 NA
ENDROOT
BRANCH   2   4
HETATM    4  C3  UNL     1     -34.547  15.539  -2.778  1.00 20.00     0.014 C 
BRANCH   4   5
HETATM    5  C4  UNL     1     -33.558  16.680  -2.518  1.00 20.00     0.001 C 
BRANCH   5   6
HETATM    6  C5  UNL     1     -33.938  17.468  -1.261  1.00 20.00     0.001 C 
BRANCH   6   7
HETATM    7  C6  UNL     1     -35.321  17.058  -0.747  1.00 20.00     0.015 C 
BRANCH   7   8
HETATM    8  C7  UNL     1     -35.491  17.263   0.754  1.00 20.00     0.114 C 
HETATM    9 CL9  UNL     1     -34.053  18.001   1.495  1.00 20.00    -0.130 Cl
ENDBRANCH   7   8
ENDBRANCH   6   7
ENDBRANCH   5   6
ENDBRANCH   4   5
ENDBRANCH   2   4
TORSDOF 5
ENDMDL
MODEL 9
REMARK VINA RESULT:      -3.9     11.624     12.419
REMARK  5 active torsions:
REMARK  status: ('A' for Active; 'I' for Inactive)
REMARK    1  A    between atoms: C2_2  and  C3_3 
REMARK    2  A    between atoms: C3_3  and  C4_4 
REMARK    3  A    between atoms: C4_4  and  C5_5 
REMARK    4  A    between atoms: C5_5  and  C6_6 
REMARK    5  A    between atoms: C6_6  and  C7_7 
ROOT
HETATM    1  C1  UNL     1     -31.671  18.246  -0.820  1.00 20.00     0.059 C 
HETATM    2  C2  UNL     1     -33.050  18.076  -1.297  1.00 20.00     0.124 C 
HETATM    3  N8  UNL     1     -30.582  18.382  -0.441  1.00 20.00    -0.197 NA
ENDROOT
BRANCH   2   4
HETATM    4  C3  UNL     1     -33.184  16.911  -2.279  1.00 20.00     0.014 C 
BRANCH   4   5
HETATM    5  C4  UNL     1     -34.528  16.185  -2.160  1.00 20.00     0.001 C 
BRANCH   5   6
HETATM    6  C5  UNL     1     -34.660  15.086  -3.219  1.00 20.00     0.001 C 
BRANCH   6   7
HETATM    7  C6  UNL     1     -33.542  15.184  -4.261  1.00 20.00     0.015 C 
BRANCH   7   8
HETATM    8  C7  UNL     1     -34.016  14.899  -5.682  1.00 20.00     0.114 C 
HETATM    9 CL9  UNL     1     -35.731  14.429  -5.733  1.00 20.00    -0.130 Cl
ENDBRANCH   7   8
ENDBRANCH   6   7
ENDBRANCH   5   6
ENDBRANCH   4   5
ENDBRANCH   2   4
TORSDOF 5
ENDMDL
