MODEL 1
REMARK VINA RESULT:      -4.3      0.000      0.000
REMARK  3 active torsions:
REMARK  status: ('A' for Active; 'I' for Inactive)
REMARK    1  A    between atoms: C4_4  and  C6_6 
REMARK    2  A    between atoms: C5_5  and  C6_6 
REMARK    3  A    between atoms: C6_6  and  N7_7 
ROOT
HETATM    1  C1  UNL     1     -32.599   7.576   2.098  1.00 20.00     0.158 C 
HETATM    2  N7  UNL     1     -32.508   6.863   3.023  1.00 20.00    -0.270 NA
HETATM    3  S8  UNL     1     -32.688   8.543   0.835  1.00 20.00    -0.055 SA
ENDROOT
BRANCH   2   4
HETATM    4  C6  UNL     1     -33.781   6.560   3.692  1.00 20.00     0.109 C 
BRANCH   4   5
HETATM    5  C4  UNL     1     -33.635   6.868   5.186  1.00 20.00     0.023 C 
HETATM    6  C2  UNL     1     -34.479   5.947   6.059  1.00 20.00     0.007 C 
ENDBRANCH   4   5
BRANCH   4   7
HETATM    7  C5  UNL     1     -34.110   5.079   3.469  1.00 20.00     0.023 C 
HETATM    8  C3  UNL     1     -33.238   4.445   2.424  1.00 20.00     0.007 C 
ENDBRANCH   4   7
ENDBRANCH   2   4
TORSDOF 3
ENDMDL
MODEL 2
REMARK VINA RESULT:      -3.7     11.338     11.892
REMARK  3 active torsions:
REMARK  status: ('A' for Active; 'I' for Inactive)
REMARK    1  A    between atoms: C4_4  and  C6_6 
REMARK    2  A    between atoms: C5_5  and  C6_6 
REMARK    3  A    between atoms: C6_6  and  N7_7 
ROOT
HETATM    1  C1  UNL     1     -33.998  14.872  -5.915  1.00 20.00     0.158 C 
HETATM    2  N7  UNL     1     -33.724  14.283  -4.940  1.00 20.00    -0.270 NA
HETATM    3  S8  UNL     1     -34.339  15.664  -7.255  1.00 20.00    -0.055 SA
ENDROOT
BRANCH   2   4
HETATM    4  C6  UNL     1     -34.783  14.257  -3.921  1.00 20.00     0.109 C 
BRANCH   4   5
HETATM    5  C4  UNL     1     -36.031  13.606  -4.528  1.00 20.00     0.023 C 
HETATM    6  C2  UNL     1     -37.290  14.434  -4.303  1.00 20.00     0.007 C 
ENDBRANCH   4   5
BRANCH   4   7
HETATM    7  C5  UNL     1     -35.075  15.697  -3.483  1.00 20.00     0.023 C 
HETATM    8  C3  UNL     1     -34.226  16.131  -2.324  1.00 20.00     0.007 C 
ENDBRANCH   4   7
ENDBRANCH   2   4
TORSDOF 3
ENDMDL
MODEL 3
REMARK VINA RESULT:      -3.6     11.549     12.093
REMARK  3 active torsions:
REMARK  status: ('A' for Active; 'I' for Inactive)
REMARK    1  A    between atoms: C4_4  and  C6_6 
REMARK    2  A    between atoms: C5_5  and  C6_6 
REMARK    3  A    between atoms: C6_6  and  N7_7 
ROOT
HETATM    1  C1  UNL     1     -34.054  15.020  -6.422  1.00 20.00     0.158 C 
HETATM    2  N7  UNL     1     -33.967  14.608  -5.328  1.00 20.00    -0.270 NA
HETATM    3  S8  UNL     1     -34.142  15.560  -7.918  1.00 20.00    -0.055 SA
ENDROOT
BRANCH   2   4
HETATM    4  C6  UNL     1     -35.045  15.037  -4.424  1.00 20.00     0.109 C 
BRANCH   4   5
HETATM    5  C4  UNL     1     -34.454  15.253  -3.026  1.00 20.00     0.023 C 
HETATM    6  C2  UNL     1     -33.404  16.357  -3.000  1.00 20.00     0.007 C 
ENDBRANCH   4   5
BRANCH   4   7
HETATM    7  C5  UNL     1     -36.124  13.949  -4.400  1.00 20.00     0.023 C 
HETATM    8  C3  UNL     1     -37.514  14.515  -4.384  1.00 20.00     0.007 C 
ENDBRANCH   4   7
ENDBRANCH   2   4
TORSDOF 3
ENDMDL
MODEL 4
REMARK VINA RESULT:      -3.6     11.363     12.477
REMARK  3 active torsions:
REMARK  status: ('A' for Active; 'I' for Inactive)
REMARK    1  A    between atoms: C4_4  and  C6_6 
REMARK    2  A    between atoms: C5_5  and  C6_6 
REMARK    3  A    between atoms: C6_6  and  N7_7 
ROOT
HETATM    1  C1  UNL     1     -38.367  14.560  -4.281  1.00 20.00     0.158 C 
HETATM    2  N7  UNL     1     -37.404  13.916  -4.459  1.00 20.00    -0.270 NA
HETATM    3  S8  UNL     1     -39.694  15.406  -4.032  1.00 20.00    -0.055 SA
ENDROOT
BRANCH   2   4
HETATM    4  C6  UNL     1     -36.192  14.694  -4.753  1.00 20.00     0.109 C 
BRANCH   4   5
HETATM    5  C4  UNL     1     -35.738  14.370  -6.181  1.00 20.00     0.023 C 
HETATM    6  C2  UNL     1     -34.637  15.304  -6.670  1.00 20.00     0.007 C 
ENDBRANCH   4   5
BRANCH   4   7
HETATM    7  C5  UNL     1     -35.109  14.315  -3.736  1.00 20.00     0.023 C 
HETATM    8  C3  UNL     1     -34.676  15.479  -2.893  1.00 20.00     0.007 C 
ENDBRANCH   4   7
ENDBRANCH   2   4
TORSDOF 3
ENDMDL
MODEL 5
REMARK VINA RESULT:      -3.5     11.533     12.215
REMARK  3 active torsions:
REMARK  status: ('A' for Active; 'I' for Inactive)
REMARK    1  A    between atoms: C4_4  and  C6_6 
REMARK    2  A    between atoms: C5_5  and  C6_6 
REMARK    3  A    between atoms: C6_6  and  N7_7 
ROOT
HETATM    1  C1  UNL     1     -37.899  14.493  -4.359  1.00 20.00     0.158 C 
HETATM    2  N7  UNL     1     -37.008  13.744  -4.494  1.00 20.00    -0.270 NA
HETATM    3  S8  UNL     1     -39.133  15.484  -4.176  1.00 20.00    -0.055 SA
ENDROOT
BRANCH   2   4
HETATM    4  C6  UNL     1     -35.678  14.369  -4.509  1.00 20.00     0.109 C 
BRANCH   4   5
HETATM    5  C4  UNL     1     -35.471  15.112  -3.184  1.00 20.00     0.023 C 
HETATM    6  C2  UNL     1     -34.056  15.655  -3.033  1.00 20.00     0.007 C 
ENDBRANCH   4   5
BRANCH   4   7
HETATM    7  C5  UNL     1     -35.606  15.337  -5.697  1.00 20.00     0.023 C 
HETATM    8  C3  UNL     1     -34.500  14.996  -6.653  1.00 20.00     0.007 C 
ENDBRANCH   4   7
ENDBRANCH   2   4
TORSDOF 3
ENDMDL
MODEL 6
REMARK VINA RESULT:      -3.4      0.783      2.383
REMARK  3 active torsions:
REMARK  status: ('A' for Active; 'I' for Inactive)
REMARK    1  A    between atoms: C4_4  and  C6_6 
REMARK    2  A    between atoms: C5_5  and  C6_6 
REMARK    3  A    between atoms: C6_6  and  N7_7 
ROOT
HETATM    1  C1  UNL     1     -32.406   7.815   2.033  1.00 20.00     0.158 C 
HETATM    2  N7  UNL     1     -31.992   7.395   3.046  1.00 20.00    -0.270 NA
HETATM    3  S8  UNL     1     -32.940   8.408   0.654  1.00 20.00    -0.055 SA
ENDROOT
BRANCH   2   4
HETATM    4  C6  UNL     1     -32.797   6.316   3.637  1.00 20.00     0.109 C 
BRANCH   4   5
HETATM    5  C4  UNL     1     -33.274   5.389   2.513  1.00 20.00     0.023 C 
HETATM    6  C2  UNL     1     -33.925   4.117   3.041  1.00 20.00     0.007 C 
ENDBRANCH   4   5
BRANCH   4   7
HETATM    7  C5  UNL     1     -33.988   6.942   4.373  1.00 20.00     0.023 C 
HETATM    8  C3  UNL     1     -33.977   6.648   5.844  1.00 20.00     0.007 C 
ENDBRANCH   4   7
ENDBRANCH   2   4
TORSDOF 3
ENDMDL
MODEL 7
REMARK VINA RESULT:      -3.4     11.382     11.737
REMARK  3 active torsions:
REMARK  status: ('A' for Active; 'I' for Inactive)
REMARK    1  A    between atoms: C4_4  and  C6_6 
REMARK    2  A    between atoms: C5_5  and  C6_6 
REMARK    3  A    between atoms: C6_6  and  N7_7 
ROOT
HETATM    1  C1  UNL     1     -37.262  15.579  -4.094  1.00 20.00     0.158 C 
HETATM    2  N7  UNL     1     -36.181  16.007  -3.948  1.00 20.00    -0.270 NA
HETATM    3  S8  UNL     1     -38.739  15.024  -4.314  1.00 20.00    -0.055 SA
ENDROOT
BRANCH   2   4
HETATM    4  C6  UNL     1     -35.309  15.191  -3.091  1.00 20.00     0.109 C 
BRANCH   4   5
HETATM    5  C4  UNL     1     -34.337  16.120  -2.355  1.00 20.00     0.023 C 
HETATM    6  C2  UNL     1     -35.002  16.875  -1.211  1.00 20.00     0.007 C 
ENDBRANCH   4   5
BRANCH   4   7
HETATM    7  C5  UNL     1     -34.550  14.193  -3.975  1.00 20.00     0.023 C 
HETATM    8  C3  UNL     1     -33.172  14.670  -4.330  1.00 20.00     0.007 C 
ENDBRANCH   4   7
ENDBRANCH   2   4
TORSDOF 3
ENDMDL
MODEL 8
REMARK VINA RESULT:      -3.4      9.546     10.044
REMARK  3 active torsions:
REMARK  status: ('A' for Active; 'I' for Inactive)
REMARK    1  A    between atoms: C4_4  and  C6_6 
REMARK    2  A    between atoms: C5_5  and  C6_6 
REMARK    3  A    between atoms: C6_6  and  N7_7 
ROOT
HETATM    1  C1  UNL     1     -41.928   4.599  -1.793  1.00 20.00     0.158 C 
HETATM    2  N7  UNL     1     -41.314   5.379  -1.170  1.00 20.00    -0.270 NA
HETATM    3  S8  UNL     1     -42.733   3.518  -2.642  1.00 20.00    -0.055 SA
ENDROOT
BRANCH   2   4
HETATM    4  C6  UNL     1     -42.103   6.505  -0.650  1.00 20.00     0.109 C 
BRANCH   4   5
HETATM    5  C4  UNL     1     -41.485   7.812  -1.159  1.00 20.00     0.023 C 
HETATM    6  C2  UNL     1     -41.414   8.885  -0.080  1.00 20.00     0.007 C 
ENDBRANCH   4   5
BRANCH   4   7
HETATM    7  C5  UNL     1     -42.081   6.450   0.883  1.00 20.00     0.023 C 
HETATM    8  C3  UNL     1     -43.261   5.718   1.451  1.00 20.00     0.007 C 
ENDBRANCH   4   7
ENDBRANCH   2   4
TORSDOF 3
ENDMDL
MODEL 9
REMARK VINA RESULT:      -3.3      2.496      3.549
REMARK  3 active torsions:
REMARK  status: ('A' for Active; 'I' for Inactive)
REMARK    1  A    between atoms: C4_4  and  C6_6 
REMARK    2  A    between atoms: C5_5  and  C6_6 
REMARK    3  A    between atoms: C6_6  and  N7_7 
ROOT
HETATM    1  C1  UNL     1     -34.126   6.352   4.928  1.00 20.00     0.158 C 
HETATM    2  N7  UNL     1     -33.645   7.118   4.183  1.00 20.00    -0.270 NA
HETATM    3  S8  UNL     1     -34.799   5.337   5.956  1.00 20.00    -0.055 SA
ENDROOT
BRANCH   2   4
HETATM    4  C6  UNL     1     -32.718   6.526   3.208  1.00 20.00     0.109 C 
BRANCH   4   5
HETATM    5  C4  UNL     1     -32.035   7.658   2.433  1.00 20.00     0.023 C 
HETATM    6  C2  UNL     1     -32.821   8.078   1.197  1.00 20.00     0.007 C 
ENDBRANCH   4   5
BRANCH   4   7
HETATM    7  C5  UNL     1     -33.516   5.620   2.263  1.00 20.00     0.023 C 
HETATM    8  C3  UNL     1     -33.047   4.195   2.297  1.00 20.00     0.007 C 
ENDBRANCH   4   7
ENDBRANCH   2   4
TORSDOF 3
ENDMDL
