MODEL 1
REMARK VINA RESULT:      -6.7      0.000      0.000
REMARK  2 active torsions:
REMARK  status: ('A' for Active; 'I' for Inactive)
REMARK    1  A    between atoms: C1_1  and  C4_4 
REMARK    2  A    between atoms: C3_3  and  C4_4 
ROOT
HETATM    1  C4  UNL     1     -34.775   5.294   4.526  1.00 20.00     0.359 C 
HETATM    2  F10 UNL     1     -34.521   4.016   4.129  1.00 20.00    -0.192 F 
HETATM    3  F11 UNL     1     -35.992   5.612   4.005  1.00 20.00    -0.192 F 
ENDROOT
BRANCH   1   4
HETATM    4  C1  UNL     1     -33.693   6.201   4.030  1.00 20.00     0.238 C 
HETATM    5  C2  UNL     1     -33.150   6.158   2.810  1.00 20.00     0.307 C 
HETATM    6  F6  UNL     1     -32.176   7.021   2.453  1.00 20.00    -0.170 F 
HETATM    7  F7  UNL     1     -33.578   5.234   1.923  1.00 20.00    -0.170 F 
HETATM    8  F5  UNL     1     -33.216   7.132   4.892  1.00 20.00    -0.198 F 
ENDBRANCH   1   4
BRANCH   1   9
HETATM    9  C3  UNL     1     -34.882   5.310   6.034  1.00 20.00     0.432 C 
HETATM   10  F8  UNL     1     -33.865   4.603   6.584  1.00 20.00    -0.207 F 
HETATM   11  F9  UNL     1     -34.752   6.587   6.477  1.00 20.00    -0.207 F 
ENDBRANCH   1   9
TORSDOF 2
ENDMDL
MODEL 2
REMARK VINA RESULT:      -6.7      1.063      2.119
REMARK  2 active torsions:
REMARK  status: ('A' for Active; 'I' for Inactive)
REMARK    1  A    between atoms: C1_1  and  C4_4 
REMARK    2  A    between atoms: C3_3  and  C4_4 
ROOT
HETATM    1  C4  UNL     1     -34.670   5.863   4.410  1.00 20.00     0.359 C 
HETATM    2  F10 UNL     1     -36.019   5.782   4.248  1.00 20.00    -0.192 F 
HETATM    3  F11 UNL     1     -34.322   7.122   4.028  1.00 20.00    -0.192 F 
ENDROOT
BRANCH   1   4
HETATM    4  C1  UNL     1     -33.996   4.814   3.582  1.00 20.00     0.238 C 
HETATM    5  C2  UNL     1     -33.229   5.051   2.514  1.00 20.00     0.307 C 
HETATM    6  F6  UNL     1     -32.662   4.036   1.828  1.00 20.00    -0.170 F 
HETATM    7  F7  UNL     1     -33.022   6.323   2.112  1.00 20.00    -0.170 F 
HETATM    8  F5  UNL     1     -34.193   3.520   3.934  1.00 20.00    -0.198 F 
ENDBRANCH   1   4
BRANCH   1   9
HETATM    9  C3  UNL     1     -34.359   5.710   5.883  1.00 20.00     0.432 C 
HETATM   10  F8  UNL     1     -34.384   6.918   6.495  1.00 20.00    -0.207 F 
HETATM   11  F9  UNL     1     -35.327   4.958   6.467  1.00 20.00    -0.207 F 
ENDBRANCH   1   9
TORSDOF 2
ENDMDL
MODEL 3
REMARK VINA RESULT:      -6.1      1.185      3.694
REMARK  2 active torsions:
REMARK  status: ('A' for Active; 'I' for Inactive)
REMARK    1  A    between atoms: C1_1  and  C4_4 
REMARK    2  A    between atoms: C3_3  and  C4_4 
ROOT
HETATM    1  C4  UNL     1     -33.238   5.957   2.824  1.00 20.00     0.359 C 
HETATM    2  F10 UNL     1     -34.092   5.699   1.795  1.00 20.00    -0.192 F 
HETATM    3  F11 UNL     1     -32.292   4.979   2.779  1.00 20.00    -0.192 F 
ENDROOT
BRANCH   1   4
HETATM    4  C1  UNL     1     -33.991   5.957   4.118  1.00 20.00     0.238 C 
HETATM    5  C2  UNL     1     -34.611   4.899   4.648  1.00 20.00     0.307 C 
HETATM    6  F6  UNL     1     -35.266   4.996   5.824  1.00 20.00    -0.170 F 
HETATM    7  F7  UNL     1     -34.586   3.717   3.996  1.00 20.00    -0.170 F 
HETATM    8  F5  UNL     1     -34.061   7.127   4.798  1.00 20.00    -0.198 F 
ENDBRANCH   1   4
BRANCH   1   9
HETATM    9  C3  UNL     1     -32.563   7.285   2.560  1.00 20.00     0.432 C 
HETATM   10  F8  UNL     1     -31.499   7.442   3.385  1.00 20.00    -0.207 F 
HETATM   11  F9  UNL     1     -32.077   7.293   1.293  1.00 20.00    -0.207 F 
ENDBRANCH   1   9
TORSDOF 2
ENDMDL
MODEL 4
REMARK VINA RESULT:      -5.9      0.763      1.815
REMARK  2 active torsions:
REMARK  status: ('A' for Active; 'I' for Inactive)
REMARK    1  A    between atoms: C1_1  and  C4_4 
REMARK    2  A    between atoms: C3_3  and  C4_4 
ROOT
HETATM    1  C4  UNL     1     -34.547   5.159   4.233  1.00 20.00     0.359 C 
HETATM    2  F10 UNL     1     -34.771   3.816   4.291  1.00 20.00    -0.192 F 
HETATM    3  F11 UNL     1     -35.766   5.732   4.034  1.00 20.00    -0.192 F 
ENDROOT
BRANCH   1   4
HETATM    4  C1  UNL     1     -33.590   5.465   3.124  1.00 20.00     0.238 C 
HETATM    5  C2  UNL     1     -33.021   6.653   2.904  1.00 20.00     0.307 C 
HETATM    6  F6  UNL     1     -32.166   6.833   1.875  1.00 20.00    -0.170 F 
HETATM    7  F7  UNL     1     -33.306   7.690   3.721  1.00 20.00    -0.170 F 
HETATM    8  F5  UNL     1     -33.289   4.460   2.266  1.00 20.00    -0.198 F 
ENDBRANCH   1   4
BRANCH   1   9
HETATM    9  C3  UNL     1     -34.021   5.611   5.578  1.00 20.00     0.432 C 
HETATM   10  F8  UNL     1     -34.648   6.747   5.968  1.00 20.00    -0.207 F 
HETATM   11  F9  UNL     1     -34.312   4.668   6.510  1.00 20.00    -0.207 F 
ENDBRANCH   1   9
TORSDOF 2
ENDMDL
MODEL 5
REMARK VINA RESULT:      -5.8      1.004      3.468
REMARK  2 active torsions:
REMARK  status: ('A' for Active; 'I' for Inactive)
REMARK    1  A    between atoms: C1_1  and  C4_4 
REMARK    2  A    between atoms: C3_3  and  C4_4 
ROOT
HETATM    1  C4  UNL     1     -34.312   5.064   3.763  1.00 20.00     0.359 C 
HETATM    2  F10 UNL     1     -35.642   5.034   3.471  1.00 20.00    -0.192 F 
HETATM    3  F11 UNL     1     -34.017   3.843   4.287  1.00 20.00    -0.192 F 
ENDROOT
BRANCH   1   4
HETATM    4  C1  UNL     1     -34.030   6.175   4.726  1.00 20.00     0.238 C 
HETATM    5  C2  UNL     1     -34.442   6.216   5.996  1.00 20.00     0.307 C 
HETATM    6  F6  UNL     1     -34.137   7.264   6.791  1.00 20.00    -0.170 F 
HETATM    7  F7  UNL     1     -35.176   5.197   6.492  1.00 20.00    -0.170 F 
HETATM    8  F5  UNL     1     -33.314   7.230   4.267  1.00 20.00    -0.198 F 
ENDBRANCH   1   4
BRANCH   1   9
HETATM    9  C3  UNL     1     -33.545   5.226   2.469  1.00 20.00     0.432 C 
HETATM   10  F8  UNL     1     -32.400   5.918   2.687  1.00 20.00    -0.207 F 
HETATM   11  F9  UNL     1     -33.178   4.002   2.013  1.00 20.00    -0.207 F 
ENDBRANCH   1   9
TORSDOF 2
ENDMDL
MODEL 6
REMARK VINA RESULT:      -5.7      1.007      3.966
REMARK  2 active torsions:
REMARK  status: ('A' for Active; 'I' for Inactive)
REMARK    1  A    between atoms: C1_1  and  C4_4 
REMARK    2  A    between atoms: C3_3  and  C4_4 
ROOT
HETATM    1  C4  UNL     1     -33.605   6.614   3.670  1.00 20.00     0.359 C 
HETATM    2  F10 UNL     1     -32.508   7.070   4.338  1.00 20.00    -0.192 F 
HETATM    3  F11 UNL     1     -34.353   7.715   3.386  1.00 20.00    -0.192 F 
ENDROOT
BRANCH   1   4
HETATM    4  C1  UNL     1     -34.344   5.632   4.523  1.00 20.00     0.238 C 
HETATM    5  C2  UNL     1     -34.637   5.802   5.816  1.00 20.00     0.307 C 
HETATM    6  F6  UNL     1     -35.311   4.857   6.504  1.00 20.00    -0.170 F 
HETATM    7  F7  UNL     1     -34.249   6.932   6.443  1.00 20.00    -0.170 F 
HETATM    8  F5  UNL     1     -34.736   4.472   3.942  1.00 20.00    -0.198 F 
ENDBRANCH   1   4
BRANCH   1   9
HETATM    9  C3  UNL     1     -33.145   6.001   2.366  1.00 20.00     0.432 C 
HETATM   10  F8  UNL     1     -32.276   6.830   1.739  1.00 20.00    -0.207 F 
HETATM   11  F9  UNL     1     -32.468   4.853   2.627  1.00 20.00    -0.207 F 
ENDBRANCH   1   9
TORSDOF 2
ENDMDL
MODEL 7
REMARK VINA RESULT:      -5.6      1.050      3.781
REMARK  2 active torsions:
REMARK  status: ('A' for Active; 'I' for Inactive)
REMARK    1  A    between atoms: C1_1  and  C4_4 
REMARK    2  A    between atoms: C3_3  and  C4_4 
ROOT
HETATM    1  C4  UNL     1     -33.384   5.804   2.960  1.00 20.00     0.359 C 
HETATM    2  F10 UNL     1     -34.102   5.443   1.860  1.00 20.00    -0.192 F 
HETATM    3  F11 UNL     1     -32.359   4.912   3.047  1.00 20.00    -0.192 F 
ENDROOT
BRANCH   1   4
HETATM    4  C1  UNL     1     -34.263   5.775   4.170  1.00 20.00     0.238 C 
HETATM    5  C2  UNL     1     -34.017   6.416   5.317  1.00 20.00     0.307 C 
HETATM    6  F6  UNL     1     -34.873   6.329   6.357  1.00 20.00    -0.170 F 
HETATM    7  F7  UNL     1     -32.895   7.156   5.438  1.00 20.00    -0.170 F 
HETATM    8  F5  UNL     1     -35.391   5.027   4.103  1.00 20.00    -0.198 F 
ENDBRANCH   1   4
BRANCH   1   9
HETATM    9  C3  UNL     1     -32.800   7.178   2.715  1.00 20.00     0.432 C 
HETATM   10  F8  UNL     1     -31.505   7.215   3.116  1.00 20.00    -0.207 F 
HETATM   11  F9  UNL     1     -32.801   7.432   1.382  1.00 20.00    -0.207 F 
ENDBRANCH   1   9
TORSDOF 2
ENDMDL
MODEL 8
REMARK VINA RESULT:      -5.6      1.093      2.434
REMARK  2 active torsions:
REMARK  status: ('A' for Active; 'I' for Inactive)
REMARK    1  A    between atoms: C1_1  and  C4_4 
REMARK    2  A    between atoms: C3_3  and  C4_4 
ROOT
HETATM    1  C4  UNL     1     -33.985   6.394   4.645  1.00 20.00     0.359 C 
HETATM    2  F10 UNL     1     -34.772   7.502   4.734  1.00 20.00    -0.192 F 
HETATM    3  F11 UNL     1     -33.091   6.486   5.668  1.00 20.00    -0.192 F 
ENDROOT
BRANCH   1   4
HETATM    4  C1  UNL     1     -33.312   6.358   3.308  1.00 20.00     0.238 C 
HETATM    5  C2  UNL     1     -32.283   7.128   2.943  1.00 20.00     0.307 C 
HETATM    6  F6  UNL     1     -31.741   7.023   1.711  1.00 20.00    -0.170 F 
HETATM    7  F7  UNL     1     -31.781   8.027   3.816  1.00 20.00    -0.170 F 
HETATM    8  F5  UNL     1     -33.796   5.486   2.391  1.00 20.00    -0.198 F 
ENDBRANCH   1   4
BRANCH   1   9
HETATM    9  C3  UNL     1     -34.852   5.176   4.877  1.00 20.00     0.432 C 
HETATM   10  F8  UNL     1     -35.162   5.067   6.192  1.00 20.00    -0.207 F 
HETATM   11  F9  UNL     1     -36.025   5.331   4.213  1.00 20.00    -0.207 F 
ENDBRANCH   1   9
TORSDOF 2
ENDMDL
MODEL 9
REMARK VINA RESULT:      -5.6      0.786      1.688
REMARK  2 active torsions:
REMARK  status: ('A' for Active; 'I' for Inactive)
REMARK    1  A    between atoms: C1_1  and  C4_4 
REMARK    2  A    between atoms: C3_3  and  C4_4 
ROOT
HETATM    1  C4  UNL     1     -34.308   6.180   4.834  1.00 20.00     0.359 C 
HETATM    2  F10 UNL     1     -35.472   6.262   4.131  1.00 20.00    -0.192 F 
HETATM    3  F11 UNL     1     -34.514   6.882   5.982  1.00 20.00    -0.192 F 
ENDROOT
BRANCH   1   4
HETATM    4  C1  UNL     1     -33.185   6.744   4.021  1.00 20.00     0.238 C 
HETATM    5  C2  UNL     1     -32.929   6.439   2.745  1.00 20.00     0.307 C 
HETATM    6  F6  UNL     1     -31.890   7.001   2.092  1.00 20.00    -0.170 F 
HETATM    7  F7  UNL     1     -33.719   5.554   2.101  1.00 20.00    -0.170 F 
HETATM    8  F5  UNL     1     -32.352   7.622   4.631  1.00 20.00    -0.198 F 
ENDBRANCH   1   4
BRANCH   1   9
HETATM    9  C3  UNL     1     -34.073   4.731   5.197  1.00 20.00     0.432 C 
HETATM   10  F8  UNL     1     -34.698   4.433   6.363  1.00 20.00    -0.207 F 
HETATM   11  F9  UNL     1     -34.629   3.937   4.246  1.00 20.00    -0.207 F 
ENDBRANCH   1   9
TORSDOF 2
ENDMDL
