MODEL 1
REMARK VINA RESULT:      -5.1      0.000      0.000
REMARK  2 active torsions:
REMARK  status: ('A' for Active; 'I' for Inactive)
REMARK    1  A    between atoms: C2_2  and  C3_3 
REMARK    2  A    between atoms: C3_3  and  C4_4 
ROOT
HETATM    1  C1  UNL     1     -32.751   7.124   2.135  1.00 20.00     0.059 C 
HETATM    2  C2  UNL     1     -33.070   5.990   3.012  1.00 20.00     0.132 C 
HETATM    3  N5  UNL     1     -32.496   8.018   1.440  1.00 20.00    -0.197 NA
ENDROOT
BRANCH   2   4
HETATM    4  C3  UNL     1     -33.941   6.434   4.186  1.00 20.00     0.131 C 
BRANCH   4   5
HETATM    5  C4  UNL     1     -34.875   5.333   4.644  1.00 20.00     0.388 C 
HETATM    6  F6  UNL     1     -34.417   4.116   4.281  1.00 20.00    -0.171 F 
HETATM    7  F7  UNL     1     -35.024   5.342   5.985  1.00 20.00    -0.171 F 
HETATM    8  F8  UNL     1     -36.099   5.493   4.094  1.00 20.00    -0.171 F 
ENDBRANCH   4   5
ENDBRANCH   2   4
TORSDOF 2
ENDMDL
MODEL 2
REMARK VINA RESULT:      -5.1      0.030      1.340
REMARK  2 active torsions:
REMARK  status: ('A' for Active; 'I' for Inactive)
REMARK    1  A    between atoms: C2_2  and  C3_3 
REMARK    2  A    between atoms: C3_3  and  C4_4 
ROOT
HETATM    1  C1  UNL     1     -32.760   7.111   2.157  1.00 20.00     0.059 C 
HETATM    2  C2  UNL     1     -33.095   5.972   3.021  1.00 20.00     0.132 C 
HETATM    3  N5  UNL     1     -32.493   8.009   1.472  1.00 20.00    -0.197 NA
ENDROOT
BRANCH   2   4
HETATM    4  C3  UNL     1     -33.941   6.419   4.213  1.00 20.00     0.131 C 
BRANCH   4   5
HETATM    5  C4  UNL     1     -34.897   5.336   4.664  1.00 20.00     0.388 C 
HETATM    6  F6  UNL     1     -35.052   5.342   6.005  1.00 20.00    -0.171 F 
HETATM    7  F7  UNL     1     -36.114   5.490   4.101  1.00 20.00    -0.171 F 
HETATM    8  F8  UNL     1     -34.433   4.116   4.309  1.00 20.00    -0.171 F 
ENDBRANCH   4   5
ENDBRANCH   2   4
TORSDOF 2
ENDMDL
MODEL 3
REMARK VINA RESULT:      -5.1      0.016      1.336
REMARK  2 active torsions:
REMARK  status: ('A' for Active; 'I' for Inactive)
REMARK    1  A    between atoms: C2_2  and  C3_3 
REMARK    2  A    between atoms: C3_3  and  C4_4 
ROOT
HETATM    1  C1  UNL     1     -32.752   7.118   2.125  1.00 20.00     0.059 C 
HETATM    2  C2  UNL     1     -33.072   5.987   3.005  1.00 20.00     0.132 C 
HETATM    3  N5  UNL     1     -32.497   8.010   1.428  1.00 20.00    -0.197 NA
ENDROOT
BRANCH   2   4
HETATM    4  C3  UNL     1     -33.933   6.436   4.184  1.00 20.00     0.131 C 
BRANCH   4   5
HETATM    5  C4  UNL     1     -34.878   5.345   4.642  1.00 20.00     0.388 C 
HETATM    6  F6  UNL     1     -36.106   5.498   4.103  1.00 20.00    -0.171 F 
HETATM    7  F7  UNL     1     -34.419   4.123   4.298  1.00 20.00    -0.171 F 
HETATM    8  F8  UNL     1     -35.012   5.369   5.987  1.00 20.00    -0.171 F 
ENDBRANCH   4   5
ENDBRANCH   2   4
TORSDOF 2
ENDMDL
MODEL 4
REMARK VINA RESULT:      -4.9      1.150      1.763
REMARK  2 active torsions:
REMARK  status: ('A' for Active; 'I' for Inactive)
REMARK    1  A    between atoms: C2_2  and  C3_3 
REMARK    2  A    between atoms: C3_3  and  C4_4 
ROOT
HETATM    1  C1  UNL     1     -32.903   6.207   2.650  1.00 20.00     0.059 C 
HETATM    2  C2  UNL     1     -33.713   4.982   2.655  1.00 20.00     0.132 C 
HETATM    3  N5  UNL     1     -32.263   7.175   2.643  1.00 20.00    -0.197 NA
ENDROOT
BRANCH   2   4
HETATM    4  C3  UNL     1     -33.953   4.489   4.081  1.00 20.00     0.131 C 
BRANCH   4   5
HETATM    5  C4  UNL     1     -34.905   5.390   4.838  1.00 20.00     0.388 C 
HETATM    6  F6  UNL     1     -34.338   6.583   5.116  1.00 20.00    -0.171 F 
HETATM    7  F7  UNL     1     -36.033   5.617   4.131  1.00 20.00    -0.171 F 
HETATM    8  F8  UNL     1     -35.264   4.821   6.010  1.00 20.00    -0.171 F 
ENDBRANCH   4   5
ENDBRANCH   2   4
TORSDOF 2
ENDMDL
MODEL 5
REMARK VINA RESULT:      -4.8      1.534      1.757
REMARK  2 active torsions:
REMARK  status: ('A' for Active; 'I' for Inactive)
REMARK    1  A    between atoms: C2_2  and  C3_3 
REMARK    2  A    between atoms: C3_3  and  C4_4 
ROOT
HETATM    1  C1  UNL     1     -33.216   6.046   2.935  1.00 20.00     0.059 C 
HETATM    2  C2  UNL     1     -34.048   4.953   3.454  1.00 20.00     0.132 C 
HETATM    3  N5  UNL     1     -32.555   6.908   2.524  1.00 20.00    -0.197 NA
ENDROOT
BRANCH   2   4
HETATM    4  C3  UNL     1     -35.116   5.483   4.410  1.00 20.00     0.131 C 
BRANCH   4   5
HETATM    5  C4  UNL     1     -34.608   5.569   5.833  1.00 20.00     0.388 C 
HETATM    6  F6  UNL     1     -33.890   4.476   6.167  1.00 20.00    -0.171 F 
HETATM    7  F7  UNL     1     -33.824   6.654   6.009  1.00 20.00    -0.171 F 
HETATM    8  F8  UNL     1     -35.640   5.664   6.700  1.00 20.00    -0.171 F 
ENDBRANCH   4   5
ENDBRANCH   2   4
TORSDOF 2
ENDMDL
MODEL 6
REMARK VINA RESULT:      -4.3      3.369      4.064
REMARK  2 active torsions:
REMARK  status: ('A' for Active; 'I' for Inactive)
REMARK    1  A    between atoms: C2_2  and  C3_3 
REMARK    2  A    between atoms: C3_3  and  C4_4 
ROOT
HETATM    1  C1  UNL     1     -34.764   5.203   5.295  1.00 20.00     0.059 C 
HETATM    2  C2  UNL     1     -34.501   5.464   3.874  1.00 20.00     0.132 C 
HETATM    3  N5  UNL     1     -34.974   4.993   6.417  1.00 20.00    -0.197 NA
ENDROOT
BRANCH   2   4
HETATM    4  C3  UNL     1     -33.812   6.815   3.683  1.00 20.00     0.131 C 
BRANCH   4   5
HETATM    5  C4  UNL     1     -32.657   6.726   2.709  1.00 20.00     0.388 C 
HETATM    6  F6  UNL     1     -32.913   7.417   1.578  1.00 20.00    -0.171 F 
HETATM    7  F7  UNL     1     -31.520   7.214   3.249  1.00 20.00    -0.171 F 
HETATM    8  F8  UNL     1     -32.427   5.440   2.362  1.00 20.00    -0.171 F 
ENDBRANCH   4   5
ENDBRANCH   2   4
TORSDOF 2
ENDMDL
MODEL 7
REMARK VINA RESULT:      -4.3      2.900      3.525
REMARK  2 active torsions:
REMARK  status: ('A' for Active; 'I' for Inactive)
REMARK    1  A    between atoms: C2_2  and  C3_3 
REMARK    2  A    between atoms: C3_3  and  C4_4 
ROOT
HETATM    1  C1  UNL     1     -34.485   6.146   5.400  1.00 20.00     0.059 C 
HETATM    2  C2  UNL     1     -35.126   5.270   4.411  1.00 20.00     0.132 C 
HETATM    3  N5  UNL     1     -33.981   6.841   6.181  1.00 20.00    -0.197 NA
ENDROOT
BRANCH   2   4
HETATM    4  C3  UNL     1     -34.112   4.313   3.787  1.00 20.00     0.131 C 
BRANCH   4   5
HETATM    5  C4  UNL     1     -33.405   4.934   2.601  1.00 20.00     0.388 C 
HETATM    6  F6  UNL     1     -32.545   5.899   2.989  1.00 20.00    -0.171 F 
HETATM    7  F7  UNL     1     -32.711   4.010   1.903  1.00 20.00    -0.171 F 
HETATM    8  F8  UNL     1     -34.300   5.496   1.758  1.00 20.00    -0.171 F 
ENDBRANCH   4   5
ENDBRANCH   2   4
TORSDOF 2
ENDMDL
MODEL 8
REMARK VINA RESULT:      -4.3      3.367      4.045
REMARK  2 active torsions:
REMARK  status: ('A' for Active; 'I' for Inactive)
REMARK    1  A    between atoms: C2_2  and  C3_3 
REMARK    2  A    between atoms: C3_3  and  C4_4 
ROOT
HETATM    1  C1  UNL     1     -34.767   5.202   5.310  1.00 20.00     0.059 C 
HETATM    2  C2  UNL     1     -34.519   5.474   3.887  1.00 20.00     0.132 C 
HETATM    3  N5  UNL     1     -34.965   4.985   6.432  1.00 20.00    -0.197 NA
ENDROOT
BRANCH   2   4
HETATM    4  C3  UNL     1     -33.821   6.820   3.700  1.00 20.00     0.131 C 
BRANCH   4   5
HETATM    5  C4  UNL     1     -32.662   6.724   2.731  1.00 20.00     0.388 C 
HETATM    6  F6  UNL     1     -31.525   7.211   3.273  1.00 20.00    -0.171 F 
HETATM    7  F7  UNL     1     -32.435   5.445   2.362  1.00 20.00    -0.171 F 
HETATM    8  F8  UNL     1     -32.921   7.434   1.611  1.00 20.00    -0.171 F 
ENDBRANCH   4   5
ENDBRANCH   2   4
TORSDOF 2
ENDMDL
MODEL 9
REMARK VINA RESULT:      -4.2      4.065      4.964
REMARK  2 active torsions:
REMARK  status: ('A' for Active; 'I' for Inactive)
REMARK    1  A    between atoms: C2_2  and  C3_3 
REMARK    2  A    between atoms: C3_3  and  C4_4 
ROOT
HETATM    1  C1  UNL     1     -33.001   5.962   2.545  1.00 20.00     0.059 C 
HETATM    2  C2  UNL     1     -32.601   7.374   2.490  1.00 20.00     0.132 C 
HETATM    3  N5  UNL     1     -33.318   4.846   2.591  1.00 20.00    -0.197 NA
ENDROOT
BRANCH   2   4
HETATM    4  C3  UNL     1     -32.212   7.779   1.069  1.00 20.00     0.131 C 
BRANCH   4   5
HETATM    5  C4  UNL     1     -33.063   8.920   0.554  1.00 20.00     0.388 C 
HETATM    6  F6  UNL     1     -33.971   9.311   1.473  1.00 20.00    -0.171 F 
HETATM    7  F7  UNL     1     -32.306   9.991   0.233  1.00 20.00    -0.171 F 
HETATM    8  F8  UNL     1     -33.735   8.546  -0.557  1.00 20.00    -0.171 F 
ENDBRANCH   4   5
ENDBRANCH   2   4
TORSDOF 2
ENDMDL
