MODEL 1
REMARK VINA RESULT:      -4.6      0.000      0.000
REMARK  4 active torsions:
REMARK  status: ('A' for Active; 'I' for Inactive)
REMARK    1  A    between atoms: C3_3  and  C5_5 
REMARK    2  A    between atoms: C4_4  and  C6_6 
REMARK    3  A    between atoms: C5_5  and  C7_7 
REMARK    4  A    between atoms: C6_6  and  C7_7 
ROOT
HETATM    1  C1  UNL     1     -32.614   7.812   1.527  1.00 20.00     0.059 C 
HETATM    2  C4  UNL     1     -32.621   6.885   2.666  1.00 20.00     0.124 C 
HETATM    3  N8  UNL     1     -32.609   8.545   0.627  1.00 20.00    -0.197 NA
ENDROOT
BRANCH   2   4
HETATM    4  C6  UNL     1     -32.980   5.458   2.249  1.00 20.00     0.014 C 
BRANCH   4   5
HETATM    5  C7  UNL     1     -33.940   4.777   3.233  1.00 20.00     0.006 C 
BRANCH   5   6
HETATM    6  C5  UNL     1     -34.814   5.772   4.008  1.00 20.00     0.050 C 
BRANCH   6   7
HETATM    7  C3  UNL     1     -34.549   5.815   5.487  1.00 20.00     0.002 C 
HETATM    8  C2  UNL     1     -34.907   4.848   6.341  1.00 20.00     0.032 C 
HETATM    9 CL9  UNL     1     -33.676   7.193   6.065  1.00 20.00    -0.090 Cl
ENDBRANCH   6   7
ENDBRANCH   5   6
ENDBRANCH   4   5
ENDBRANCH   2   4
TORSDOF 4
ENDMDL
MODEL 2
REMARK VINA RESULT:      -4.6      2.734      4.202
REMARK  4 active torsions:
REMARK  status: ('A' for Active; 'I' for Inactive)
REMARK    1  A    between atoms: C3_3  and  C5_5 
REMARK    2  A    between atoms: C4_4  and  C6_6 
REMARK    3  A    between atoms: C5_5  and  C7_7 
REMARK    4  A    between atoms: C6_6  and  C7_7 
ROOT
HETATM    1  C1  UNL     1     -34.335   6.129   5.976  1.00 20.00     0.059 C 
HETATM    2  C4  UNL     1     -34.824   4.789   5.625  1.00 20.00     0.124 C 
HETATM    3  N8  UNL     1     -33.950   7.188   6.253  1.00 20.00    -0.197 NA
ENDROOT
BRANCH   2   4
HETATM    4  C6  UNL     1     -34.429   4.383   4.204  1.00 20.00     0.014 C 
BRANCH   4   5
HETATM    5  C7  UNL     1     -34.386   5.574   3.238  1.00 20.00     0.006 C 
BRANCH   5   6
HETATM    6  C5  UNL     1     -33.049   5.700   2.494  1.00 20.00     0.050 C 
BRANCH   6   7
HETATM    7  C3  UNL     1     -32.452   7.079   2.515  1.00 20.00     0.002 C 
HETATM    8  C2  UNL     1     -31.772   7.586   3.551  1.00 20.00     0.032 C 
HETATM    9 CL9  UNL     1     -32.635   8.010   1.067  1.00 20.00    -0.090 Cl
ENDBRANCH   6   7
ENDBRANCH   5   6
ENDBRANCH   4   5
ENDBRANCH   2   4
TORSDOF 4
ENDMDL
MODEL 3
REMARK VINA RESULT:      -4.3      1.431      1.616
REMARK  4 active torsions:
REMARK  status: ('A' for Active; 'I' for Inactive)
REMARK    1  A    between atoms: C3_3  and  C5_5 
REMARK    2  A    between atoms: C4_4  and  C6_6 
REMARK    3  A    between atoms: C5_5  and  C7_7 
REMARK    4  A    between atoms: C6_6  and  C7_7 
ROOT
HETATM    1  C1  UNL     1     -32.682   8.245   1.170  1.00 20.00     0.059 C 
HETATM    2  C4  UNL     1     -32.077   7.297   2.115  1.00 20.00     0.124 C 
HETATM    3  N8  UNL     1     -33.160   8.994   0.423  1.00 20.00    -0.197 NA
ENDROOT
BRANCH   2   4
HETATM    4  C6  UNL     1     -33.124   6.603   2.988  1.00 20.00     0.014 C 
BRANCH   4   5
HETATM    5  C7  UNL     1     -33.326   5.129   2.610  1.00 20.00     0.006 C 
BRANCH   5   6
HETATM    6  C5  UNL     1     -33.957   4.300   3.737  1.00 20.00     0.050 C 
BRANCH   6   7
HETATM    7  C3  UNL     1     -34.913   5.062   4.612  1.00 20.00     0.002 C 
HETATM    8  C2  UNL     1     -34.712   5.299   5.914  1.00 20.00     0.032 C 
HETATM    9 CL9  UNL     1     -36.319   5.699   3.829  1.00 20.00    -0.090 Cl
ENDBRANCH   6   7
ENDBRANCH   5   6
ENDBRANCH   4   5
ENDBRANCH   2   4
TORSDOF 4
ENDMDL
MODEL 4
REMARK VINA RESULT:      -4.1     11.263     12.204
REMARK  4 active torsions:
REMARK  status: ('A' for Active; 'I' for Inactive)
REMARK    1  A    between atoms: C3_3  and  C5_5 
REMARK    2  A    between atoms: C4_4  and  C6_6 
REMARK    3  A    between atoms: C5_5  and  C7_7 
REMARK    4  A    between atoms: C6_6  and  C7_7 
ROOT
HETATM    1  C1  UNL     1     -36.067  13.907  -4.281  1.00 20.00     0.059 C 
HETATM    2  C4  UNL     1     -34.668  14.162  -3.914  1.00 20.00     0.124 C 
HETATM    3  N8  UNL     1     -37.172  13.704  -4.572  1.00 20.00    -0.197 NA
ENDROOT
BRANCH   2   4
HETATM    4  C6  UNL     1     -34.518  15.408  -3.039  1.00 20.00     0.014 C 
BRANCH   4   5
HETATM    5  C7  UNL     1     -33.160  16.099  -3.221  1.00 20.00     0.006 C 
BRANCH   5   6
HETATM    6  C5  UNL     1     -33.192  17.592  -2.864  1.00 20.00     0.050 C 
BRANCH   6   7
HETATM    7  C3  UNL     1     -32.902  17.893  -1.420  1.00 20.00     0.002 C 
HETATM    8  C2  UNL     1     -31.705  18.280  -0.961  1.00 20.00     0.032 C 
HETATM    9 CL9  UNL     1     -34.242  17.769  -0.332  1.00 20.00    -0.090 Cl
ENDBRANCH   6   7
ENDBRANCH   5   6
ENDBRANCH   4   5
ENDBRANCH   2   4
TORSDOF 4
ENDMDL
MODEL 5
REMARK VINA RESULT:      -4.1      2.879      4.811
REMARK  4 active torsions:
REMARK  status: ('A' for Active; 'I' for Inactive)
REMARK    1  A    between atoms: C3_3  and  C5_5 
REMARK    2  A    between atoms: C4_4  and  C6_6 
REMARK    3  A    between atoms: C5_5  and  C7_7 
REMARK    4  A    between atoms: C6_6  and  C7_7 
ROOT
HETATM    1  C1  UNL     1     -34.441   5.797   5.053  1.00 20.00     0.059 C 
HETATM    2  C4  UNL     1     -34.539   5.151   3.737  1.00 20.00     0.124 C 
HETATM    3  N8  UNL     1     -34.365   6.308   6.092  1.00 20.00    -0.197 NA
ENDROOT
BRANCH   2   4
HETATM    4  C6  UNL     1     -33.356   5.501   2.832  1.00 20.00     0.014 C 
BRANCH   4   5
HETATM    5  C7  UNL     1     -32.996   6.992   2.878  1.00 20.00     0.006 C 
BRANCH   5   6
HETATM    6  C5  UNL     1     -32.163   7.448   1.672  1.00 20.00     0.050 C 
BRANCH   6   7
HETATM    7  C3  UNL     1     -32.827   8.487   0.813  1.00 20.00     0.002 C 
HETATM    8  C2  UNL     1     -33.318   8.248  -0.409  1.00 20.00     0.032 C 
HETATM    9 CL9  UNL     1     -32.992  10.062   1.513  1.00 20.00    -0.090 Cl
ENDBRANCH   6   7
ENDBRANCH   5   6
ENDBRANCH   4   5
ENDBRANCH   2   4
TORSDOF 4
ENDMDL
MODEL 6
REMARK VINA RESULT:      -4.0      2.763      4.601
REMARK  4 active torsions:
REMARK  status: ('A' for Active; 'I' for Inactive)
REMARK    1  A    between atoms: C3_3  and  C5_5 
REMARK    2  A    between atoms: C4_4  and  C6_6 
REMARK    3  A    between atoms: C5_5  and  C7_7 
REMARK    4  A    between atoms: C6_6  and  C7_7 
ROOT
HETATM    1  C1  UNL     1     -34.661   4.629   5.000  1.00 20.00     0.059 C 
HETATM    2  C4  UNL     1     -34.803   5.607   6.088  1.00 20.00     0.124 C 
HETATM    3  N8  UNL     1     -34.549   3.857   4.142  1.00 20.00    -0.197 NA
ENDROOT
BRANCH   2   4
HETATM    4  C6  UNL     1     -33.794   6.751   5.972  1.00 20.00     0.014 C 
BRANCH   4   5
HETATM    5  C7  UNL     1     -33.812   7.418   4.590  1.00 20.00     0.006 C 
BRANCH   5   6
HETATM    6  C5  UNL     1     -32.479   7.282   3.839  1.00 20.00     0.050 C 
BRANCH   6   7
HETATM    7  C3  UNL     1     -32.618   6.978   2.374  1.00 20.00     0.002 C 
HETATM    8  C2  UNL     1     -32.489   7.891   1.403  1.00 20.00     0.032 C 
HETATM    9 CL9  UNL     1     -32.911   5.322   1.964  1.00 20.00    -0.090 Cl
ENDBRANCH   6   7
ENDBRANCH   5   6
ENDBRANCH   4   5
ENDBRANCH   2   4
TORSDOF 4
ENDMDL
MODEL 7
REMARK VINA RESULT:      -3.9     11.421     12.203
REMARK  4 active torsions:
REMARK  status: ('A' for Active; 'I' for Inactive)
REMARK    1  A    between atoms: C3_3  and  C5_5 
REMARK    2  A    between atoms: C4_4  and  C6_6 
REMARK    3  A    between atoms: C5_5  and  C7_7 
REMARK    4  A    between atoms: C6_6  and  C7_7 
ROOT
HETATM    1  C1  UNL     1     -36.718  13.960  -4.376  1.00 20.00     0.059 C 
HETATM    2  C4  UNL     1     -35.249  13.955  -4.356  1.00 20.00     0.124 C 
HETATM    3  N8  UNL     1     -37.879  13.962  -4.391  1.00 20.00    -0.197 NA
ENDROOT
BRANCH   2   4
HETATM    4  C6  UNL     1     -34.655  14.941  -5.364  1.00 20.00     0.014 C 
BRANCH   4   5
HETATM    5  C7  UNL     1     -34.094  16.204  -4.696  1.00 20.00     0.006 C 
BRANCH   5   6
HETATM    6  C5  UNL     1     -33.262  15.903  -3.441  1.00 20.00     0.050 C 
BRANCH   6   7
HETATM    7  C3  UNL     1     -33.637  16.718  -2.236  1.00 20.00     0.002 C 
HETATM    8  C2  UNL     1     -32.888  17.710  -1.739  1.00 20.00     0.032 C 
HETATM    9 CL9  UNL     1     -35.165  16.349  -1.511  1.00 20.00    -0.090 Cl
ENDBRANCH   6   7
ENDBRANCH   5   6
ENDBRANCH   4   5
ENDBRANCH   2   4
TORSDOF 4
ENDMDL
MODEL 8
REMARK VINA RESULT:      -3.9     11.579     12.361
REMARK  4 active torsions:
REMARK  status: ('A' for Active; 'I' for Inactive)
REMARK    1  A    between atoms: C3_3  and  C5_5 
REMARK    2  A    between atoms: C4_4  and  C6_6 
REMARK    3  A    between atoms: C5_5  and  C7_7 
REMARK    4  A    between atoms: C6_6  and  C7_7 
ROOT
HETATM    1  C1  UNL     1     -31.612  18.522  -0.847  1.00 20.00     0.059 C 
HETATM    2  C4  UNL     1     -32.950  18.781  -1.395  1.00 20.00     0.124 C 
HETATM    3  N8  UNL     1     -30.554  18.318  -0.415  1.00 20.00    -0.197 NA
ENDROOT
BRANCH   2   4
HETATM    4  C6  UNL     1     -33.856  17.551  -1.313  1.00 20.00     0.014 C 
BRANCH   4   5
HETATM    5  C7  UNL     1     -33.728  16.639  -2.541  1.00 20.00     0.006 C 
BRANCH   5   6
HETATM    6  C5  UNL     1     -34.851  15.597  -2.636  1.00 20.00     0.050 C 
BRANCH   6   7
HETATM    7  C3  UNL     1     -34.688  14.607  -3.755  1.00 20.00     0.002 C 
HETATM    8  C2  UNL     1     -35.703  13.945  -4.324  1.00 20.00     0.032 C 
HETATM    9 CL9  UNL     1     -33.076  14.383  -4.346  1.00 20.00    -0.090 Cl
ENDBRANCH   6   7
ENDBRANCH   5   6
ENDBRANCH   4   5
ENDBRANCH   2   4
TORSDOF 4
ENDMDL
MODEL 9
REMARK VINA RESULT:      -3.9     11.501     12.264
REMARK  4 active torsions:
REMARK  status: ('A' for Active; 'I' for Inactive)
REMARK    1  A    between atoms: C3_3  and  C5_5 
REMARK    2  A    between atoms: C4_4  and  C6_6 
REMARK    3  A    between atoms: C5_5  and  C7_7 
REMARK    4  A    between atoms: C6_6  and  C7_7 
ROOT
HETATM    1  C1  UNL     1     -36.512  13.786  -4.460  1.00 20.00     0.059 C 
HETATM    2  C4  UNL     1     -37.326  14.985  -4.217  1.00 20.00     0.124 C 
HETATM    3  N8  UNL     1     -35.870  12.839  -4.652  1.00 20.00    -0.197 NA
ENDROOT
BRANCH   2   4
HETATM    4  C6  UNL     1     -36.491  16.266  -4.245  1.00 20.00     0.014 C 
BRANCH   4   5
HETATM    5  C7  UNL     1     -36.152  16.782  -2.840  1.00 20.00     0.006 C 
BRANCH   5   6
HETATM    6  C5  UNL     1     -35.018  15.996  -2.167  1.00 20.00     0.050 C 
BRANCH   6   7
HETATM    7  C3  UNL     1     -33.650  16.274  -2.724  1.00 20.00     0.002 C 
HETATM    8  C2  UNL     1     -32.871  17.288  -2.327  1.00 20.00     0.032 C 
HETATM    9 CL9  UNL     1     -33.069  15.156  -3.911  1.00 20.00    -0.090 Cl
ENDBRANCH   6   7
ENDBRANCH   5   6
ENDBRANCH   4   5
ENDBRANCH   2   4
TORSDOF 4
ENDMDL
