MODEL 1
REMARK VINA RESULT:      -5.3      0.000      0.000
REMARK  1 active torsions:
REMARK  status: ('A' for Active; 'I' for Inactive)
REMARK    1  A    between atoms: C2_2  and  C4_4 
ROOT
HETATM    1  C4  UNL     1     -34.862   5.333   4.666  1.00 20.00     0.407 C 
HETATM    2  F5  UNL     1     -34.982   5.455   6.013  1.00 20.00    -0.167 F 
HETATM    3  F6  UNL     1     -36.113   5.439   4.150  1.00 20.00    -0.167 F 
HETATM    4  F7  UNL     1     -34.445   4.064   4.423  1.00 20.00    -0.167 F 
ENDROOT
BRANCH   1   5
HETATM    5  C2  UNL     1     -33.954   6.371   4.106  1.00 20.00     0.084 C 
HETATM    6  C1  UNL     1     -33.211   6.212   3.002  1.00 20.00    -0.026 C 
HETATM    7  C3  UNL     1     -32.305   7.264   2.453  1.00 20.00     0.036 C 
ENDBRANCH   1   5
TORSDOF 1
ENDMDL
MODEL 2
REMARK VINA RESULT:      -5.3      0.066      1.405
REMARK  1 active torsions:
REMARK  status: ('A' for Active; 'I' for Inactive)
REMARK    1  A    between atoms: C2_2  and  C4_4 
ROOT
HETATM    1  C4  UNL     1     -34.881   5.317   4.651  1.00 20.00     0.407 C 
HETATM    2  F5  UNL     1     -36.137   5.461   4.156  1.00 20.00    -0.167 F 
HETATM    3  F6  UNL     1     -34.466   4.070   4.312  1.00 20.00    -0.167 F 
HETATM    4  F7  UNL     1     -34.989   5.339   6.004  1.00 20.00    -0.167 F 
ENDROOT
BRANCH   1   5
HETATM    5  C2  UNL     1     -33.964   6.359   4.114  1.00 20.00     0.084 C 
HETATM    6  C1  UNL     1     -33.211   6.211   3.015  1.00 20.00    -0.026 C 
HETATM    7  C3  UNL     1     -32.296   7.267   2.488  1.00 20.00     0.036 C 
ENDBRANCH   1   5
TORSDOF 1
ENDMDL
MODEL 3
REMARK VINA RESULT:      -5.3      0.056      1.442
REMARK  1 active torsions:
REMARK  status: ('A' for Active; 'I' for Inactive)
REMARK    1  A    between atoms: C2_2  and  C4_4 
ROOT
HETATM    1  C4  UNL     1     -34.888   5.335   4.648  1.00 20.00     0.407 C 
HETATM    2  F5  UNL     1     -34.461   4.084   4.339  1.00 20.00    -0.167 F 
HETATM    3  F6  UNL     1     -34.989   5.391   6.001  1.00 20.00    -0.167 F 
HETATM    4  F7  UNL     1     -36.149   5.451   4.157  1.00 20.00    -0.167 F 
ENDROOT
BRANCH   1   5
HETATM    5  C2  UNL     1     -33.954   6.371   4.130  1.00 20.00     0.084 C 
HETATM    6  C1  UNL     1     -33.204   6.231   3.028  1.00 20.00    -0.026 C 
HETATM    7  C3  UNL     1     -32.271   7.281   2.521  1.00 20.00     0.036 C 
ENDBRANCH   1   5
TORSDOF 1
ENDMDL
MODEL 4
REMARK VINA RESULT:      -4.5      2.716      3.688
REMARK  1 active torsions:
REMARK  status: ('A' for Active; 'I' for Inactive)
REMARK    1  A    between atoms: C2_2  and  C4_4 
ROOT
HETATM    1  C4  UNL     1     -32.754   6.840   2.887  1.00 20.00     0.407 C 
HETATM    2  F5  UNL     1     -31.516   7.280   3.233  1.00 20.00    -0.167 F 
HETATM    3  F6  UNL     1     -32.581   5.675   2.214  1.00 20.00    -0.167 F 
HETATM    4  F7  UNL     1     -33.253   7.736   1.997  1.00 20.00    -0.167 F 
ENDROOT
BRANCH   1   5
HETATM    5  C2  UNL     1     -33.617   6.652   4.085  1.00 20.00     0.084 C 
HETATM    6  C1  UNL     1     -34.199   5.494   4.424  1.00 20.00    -0.026 C 
HETATM    7  C3  UNL     1     -35.063   5.321   5.630  1.00 20.00     0.036 C 
ENDBRANCH   1   5
TORSDOF 1
ENDMDL
MODEL 5
REMARK VINA RESULT:      -4.5      2.700      3.649
REMARK  1 active torsions:
REMARK  status: ('A' for Active; 'I' for Inactive)
REMARK    1  A    between atoms: C2_2  and  C4_4 
ROOT
HETATM    1  C4  UNL     1     -32.760   6.831   2.919  1.00 20.00     0.407 C 
HETATM    2  F5  UNL     1     -32.611   5.668   2.235  1.00 20.00    -0.167 F 
HETATM    3  F6  UNL     1     -33.278   7.734   2.048  1.00 20.00    -0.167 F 
HETATM    4  F7  UNL     1     -31.511   7.263   3.234  1.00 20.00    -0.167 F 
ENDROOT
BRANCH   1   5
HETATM    5  C2  UNL     1     -33.641   6.655   4.106  1.00 20.00     0.084 C 
HETATM    6  C1  UNL     1     -34.196   5.491   4.469  1.00 20.00    -0.026 C 
HETATM    7  C3  UNL     1     -35.079   5.330   5.663  1.00 20.00     0.036 C 
ENDBRANCH   1   5
TORSDOF 1
ENDMDL
MODEL 6
REMARK VINA RESULT:      -4.2      2.527      3.408
REMARK  1 active torsions:
REMARK  status: ('A' for Active; 'I' for Inactive)
REMARK    1  A    between atoms: C2_2  and  C4_4 
ROOT
HETATM    1  C4  UNL     1     -33.373   5.230   2.559  1.00 20.00     0.407 C 
HETATM    2  F5  UNL     1     -32.630   4.169   2.150  1.00 20.00    -0.167 F 
HETATM    3  F6  UNL     1     -34.230   5.521   1.547  1.00 20.00    -0.167 F 
HETATM    4  F7  UNL     1     -32.524   6.284   2.666  1.00 20.00    -0.167 F 
ENDROOT
BRANCH   1   5
HETATM    5  C2  UNL     1     -34.104   4.927   3.820  1.00 20.00     0.084 C 
HETATM    6  C1  UNL     1     -34.292   5.805   4.814  1.00 20.00    -0.026 C 
HETATM    7  C3  UNL     1     -35.029   5.486   6.074  1.00 20.00     0.036 C 
ENDBRANCH   1   5
TORSDOF 1
ENDMDL
MODEL 7
REMARK VINA RESULT:      -4.2      2.428      3.504
REMARK  1 active torsions:
REMARK  status: ('A' for Active; 'I' for Inactive)
REMARK    1  A    between atoms: C2_2  and  C4_4 
ROOT
HETATM    1  C4  UNL     1     -33.279   5.600   2.523  1.00 20.00     0.407 C 
HETATM    2  F5  UNL     1     -32.474   6.588   2.053  1.00 20.00    -0.167 F 
HETATM    3  F6  UNL     1     -32.543   4.459   2.515  1.00 20.00    -0.167 F 
HETATM    4  F7  UNL     1     -34.269   5.433   1.609  1.00 20.00    -0.167 F 
ENDROOT
BRANCH   1   5
HETATM    5  C2  UNL     1     -33.781   5.912   3.889  1.00 20.00     0.084 C 
HETATM    6  C1  UNL     1     -34.515   5.076   4.635  1.00 20.00    -0.026 C 
HETATM    7  C3  UNL     1     -35.011   5.404   6.005  1.00 20.00     0.036 C 
ENDBRANCH   1   5
TORSDOF 1
ENDMDL
MODEL 8
REMARK VINA RESULT:      -4.0      4.447      5.208
REMARK  1 active torsions:
REMARK  status: ('A' for Active; 'I' for Inactive)
REMARK    1  A    between atoms: C2_2  and  C4_4 
ROOT
HETATM    1  C4  UNL     1     -32.697   8.558   0.459  1.00 20.00     0.407 C 
HETATM    2  F5  UNL     1     -32.473   9.898   0.459  1.00 20.00    -0.167 F 
HETATM    3  F6  UNL     1     -31.535   7.967   0.078  1.00 20.00    -0.167 F 
HETATM    4  F7  UNL     1     -33.601   8.313  -0.522  1.00 20.00    -0.167 F 
ENDROOT
BRANCH   1   5
HETATM    5  C2  UNL     1     -33.133   8.081   1.800  1.00 20.00     0.084 C 
HETATM    6  C1  UNL     1     -32.734   6.931   2.361  1.00 20.00    -0.026 C 
HETATM    7  C3  UNL     1     -33.182   6.466   3.708  1.00 20.00     0.036 C 
ENDBRANCH   1   5
TORSDOF 1
ENDMDL
MODEL 9
REMARK VINA RESULT:      -3.9      2.728      3.349
REMARK  1 active torsions:
REMARK  status: ('A' for Active; 'I' for Inactive)
REMARK    1  A    between atoms: C2_2  and  C4_4 
ROOT
HETATM    1  C4  UNL     1     -32.692   6.770   3.004  1.00 20.00     0.407 C 
HETATM    2  F5  UNL     1     -33.526   6.802   4.075  1.00 20.00    -0.167 F 
HETATM    3  F6  UNL     1     -32.482   5.462   2.710  1.00 20.00    -0.167 F 
HETATM    4  F7  UNL     1     -31.503   7.275   3.419  1.00 20.00    -0.167 F 
ENDROOT
BRANCH   1   5
HETATM    5  C2  UNL     1     -33.272   7.500   1.843  1.00 20.00     0.084 C 
HETATM    6  C1  UNL     1     -32.566   8.268   1.003  1.00 20.00    -0.026 C 
HETATM    7  C3  UNL     1     -33.163   8.994  -0.158  1.00 20.00     0.036 C 
ENDBRANCH   1   5
TORSDOF 1
ENDMDL
