MODEL 1
REMARK VINA RESULT:      -5.4      0.000      0.000
REMARK  2 active torsions:
REMARK  status: ('A' for Active; 'I' for Inactive)
REMARK    1  A    between atoms: C2_2  and  C3_3 
REMARK    2  A    between atoms: C3_3  and  O9_9 
ROOT
HETATM    1  C1  UNL     1     -34.244   5.378   3.620  1.00 20.00    -0.013 C 
HETATM    2  C2  UNL     1     -33.499   6.420   4.007  1.00 20.00     0.013 C 
HETATM    3  C4  UNL     1     -35.178   4.936   4.697  1.00 20.00     0.028 C 
HETATM    4  C5  UNL     1     -33.818   6.840   5.407  1.00 20.00     0.045 C 
HETATM    5  C6  UNL     1     -34.641   5.662   5.930  1.00 20.00     0.009 C 
ENDROOT
BRANCH   2   6
HETATM    6  C3  UNL     1     -32.520   7.099   3.219  1.00 20.00     0.288 C 
HETATM    7  O8  UNL     1     -31.530   7.661   3.682  1.00 20.00    -0.260 OA
BRANCH   6   8
HETATM    8  O9  UNL     1     -32.868   7.018   1.905  1.00 20.00    -0.323 OA
HETATM    9  C7  UNL     1     -32.643   8.197   1.125  1.00 20.00     0.213 C 
ENDBRANCH   6   8
ENDBRANCH   2   6
TORSDOF 2
ENDMDL
MODEL 2
REMARK VINA RESULT:      -5.1      1.017      1.477
REMARK  2 active torsions:
REMARK  status: ('A' for Active; 'I' for Inactive)
REMARK    1  A    between atoms: C2_2  and  C3_3 
REMARK    2  A    between atoms: C3_3  and  O9_9 
ROOT
HETATM    1  C1  UNL     1     -34.596   4.938   4.418  1.00 20.00    -0.013 C 
HETATM    2  C2  UNL     1     -33.777   5.896   3.970  1.00 20.00     0.013 C 
HETATM    3  C4  UNL     1     -35.132   5.258   5.774  1.00 20.00     0.028 C 
HETATM    4  C5  UNL     1     -33.636   7.010   4.958  1.00 20.00     0.045 C 
HETATM    5  C6  UNL     1     -34.236   6.409   6.229  1.00 20.00     0.009 C 
ENDROOT
BRANCH   2   6
HETATM    6  C3  UNL     1     -33.110   5.916   2.707  1.00 20.00     0.288 C 
HETATM    7  O8  UNL     1     -33.197   5.023   1.867  1.00 20.00    -0.260 OA
BRANCH   6   8
HETATM    8  O9  UNL     1     -32.383   7.062   2.602  1.00 20.00    -0.323 OA
HETATM    9  C7  UNL     1     -32.599   7.833   1.414  1.00 20.00     0.213 C 
ENDBRANCH   6   8
ENDBRANCH   2   6
TORSDOF 2
ENDMDL
MODEL 3
REMARK VINA RESULT:      -4.7     11.164     11.865
REMARK  2 active torsions:
REMARK  status: ('A' for Active; 'I' for Inactive)
REMARK    1  A    between atoms: C2_2  and  C3_3 
REMARK    2  A    between atoms: C3_3  and  O9_9 
ROOT
HETATM    1  C1  UNL     1     -35.226  15.418  -2.763  1.00 20.00    -0.013 C 
HETATM    2  C2  UNL     1     -35.071  14.730  -3.900  1.00 20.00     0.013 C 
HETATM    3  C4  UNL     1     -34.054  16.299  -2.486  1.00 20.00     0.028 C 
HETATM    4  C5  UNL     1     -33.768  15.043  -4.564  1.00 20.00     0.045 C 
HETATM    5  C6  UNL     1     -33.001  15.780  -3.465  1.00 20.00     0.009 C 
ENDROOT
BRANCH   2   6
HETATM    6  C3  UNL     1     -36.008  13.813  -4.467  1.00 20.00     0.288 C 
HETATM    7  O8  UNL     1     -35.891  12.590  -4.422  1.00 20.00    -0.260 OA
BRANCH   6   8
HETATM    8  O9  UNL     1     -37.022  14.511  -5.049  1.00 20.00    -0.323 OA
HETATM    9  C7  UNL     1     -38.255  14.547  -4.320  1.00 20.00     0.213 C 
ENDBRANCH   6   8
ENDBRANCH   2   6
TORSDOF 2
ENDMDL
MODEL 4
REMARK VINA RESULT:      -4.6     11.125     11.804
REMARK  2 active torsions:
REMARK  status: ('A' for Active; 'I' for Inactive)
REMARK    1  A    between atoms: C2_2  and  C3_3 
REMARK    2  A    between atoms: C3_3  and  O9_9 
ROOT
HETATM    1  C1  UNL     1     -33.723  14.835  -4.379  1.00 20.00    -0.013 C 
HETATM    2  C2  UNL     1     -34.962  14.638  -3.913  1.00 20.00     0.013 C 
HETATM    3  C4  UNL     1     -32.961  15.800  -3.532  1.00 20.00     0.028 C 
HETATM    4  C5  UNL     1     -35.223  15.441  -2.679  1.00 20.00     0.045 C 
HETATM    5  C6  UNL     1     -34.053  16.425  -2.665  1.00 20.00     0.009 C 
ENDROOT
BRANCH   2   6
HETATM    6  C3  UNL     1     -35.946  13.767  -4.471  1.00 20.00     0.288 C 
HETATM    7  O8  UNL     1     -35.890  12.540  -4.421  1.00 20.00    -0.260 OA
BRANCH   6   8
HETATM    8  O9  UNL     1     -36.928  14.511  -5.050  1.00 20.00    -0.323 OA
HETATM    9  C7  UNL     1     -38.172  14.565  -4.343  1.00 20.00     0.213 C 
ENDBRANCH   6   8
ENDBRANCH   2   6
TORSDOF 2
ENDMDL
MODEL 5
REMARK VINA RESULT:      -4.6     10.990     11.764
REMARK  2 active torsions:
REMARK  status: ('A' for Active; 'I' for Inactive)
REMARK    1  A    between atoms: C2_2  and  C3_3 
REMARK    2  A    between atoms: C3_3  and  O9_9 
ROOT
HETATM    1  C1  UNL     1     -35.175  15.582  -2.551  1.00 20.00    -0.013 C 
HETATM    2  C2  UNL     1     -34.255  15.202  -3.445  1.00 20.00     0.013 C 
HETATM    3  C4  UNL     1     -34.769  16.829  -1.837  1.00 20.00     0.028 C 
HETATM    4  C5  UNL     1     -33.088  16.136  -3.471  1.00 20.00     0.045 C 
HETATM    5  C6  UNL     1     -33.290  16.960  -2.198  1.00 20.00     0.009 C 
ENDROOT
BRANCH   2   6
HETATM    6  C3  UNL     1     -34.335  14.067  -4.309  1.00 20.00     0.288 C 
HETATM    7  O8  UNL     1     -34.618  12.932  -3.932  1.00 20.00    -0.260 OA
BRANCH   6   8
HETATM    8  O9  UNL     1     -34.050  14.453  -5.583  1.00 20.00    -0.323 OA
HETATM    9  C7  UNL     1     -35.170  14.861  -6.378  1.00 20.00     0.213 C 
ENDBRANCH   6   8
ENDBRANCH   2   6
TORSDOF 2
ENDMDL
MODEL 6
REMARK VINA RESULT:      -4.6     10.981     11.798
REMARK  2 active torsions:
REMARK  status: ('A' for Active; 'I' for Inactive)
REMARK    1  A    between atoms: C2_2  and  C3_3 
REMARK    2  A    between atoms: C3_3  and  O9_9 
ROOT
HETATM    1  C1  UNL     1     -33.023  15.934  -3.453  1.00 20.00    -0.013 C 
HETATM    2  C2  UNL     1     -34.128  15.180  -3.466  1.00 20.00     0.013 C 
HETATM    3  C4  UNL     1     -33.097  17.003  -2.413  1.00 20.00     0.028 C 
HETATM    4  C5  UNL     1     -35.116  15.625  -2.436  1.00 20.00     0.045 C 
HETATM    5  C6  UNL     1     -34.574  16.994  -2.022  1.00 20.00     0.009 C 
ENDROOT
BRANCH   2   6
HETATM    6  C3  UNL     1     -34.378  14.063  -4.321  1.00 20.00     0.288 C 
HETATM    7  O8  UNL     1     -34.643  12.932  -3.919  1.00 20.00    -0.260 OA
BRANCH   6   8
HETATM    8  O9  UNL     1     -34.275  14.460  -5.619  1.00 20.00    -0.323 OA
HETATM    9  C7  UNL     1     -35.508  14.769  -6.279  1.00 20.00     0.213 C 
ENDBRANCH   6   8
ENDBRANCH   2   6
TORSDOF 2
ENDMDL
MODEL 7
REMARK VINA RESULT:      -4.5     11.265     11.941
REMARK  2 active torsions:
REMARK  status: ('A' for Active; 'I' for Inactive)
REMARK    1  A    between atoms: C2_2  and  C3_3 
REMARK    2  A    between atoms: C3_3  and  O9_9 
ROOT
HETATM    1  C1  UNL     1     -35.462  15.522  -2.904  1.00 20.00    -0.013 C 
HETATM    2  C2  UNL     1     -35.030  14.781  -3.931  1.00 20.00     0.013 C 
HETATM    3  C4  UNL     1     -34.411  16.467  -2.423  1.00 20.00     0.028 C 
HETATM    4  C5  UNL     1     -33.620  15.115  -4.300  1.00 20.00     0.045 C 
HETATM    5  C6  UNL     1     -33.147  15.942  -3.103  1.00 20.00     0.009 C 
ENDROOT
BRANCH   2   6
HETATM    6  C3  UNL     1     -35.784  13.795  -4.638  1.00 20.00     0.288 C 
HETATM    7  O8  UNL     1     -35.733  12.589  -4.405  1.00 20.00    -0.260 OA
BRANCH   6   8
HETATM    8  O9  UNL     1     -36.545  14.407  -5.586  1.00 20.00    -0.323 OA
HETATM    9  C7  UNL     1     -35.891  14.684  -6.830  1.00 20.00     0.213 C 
ENDBRANCH   6   8
ENDBRANCH   2   6
TORSDOF 2
ENDMDL
MODEL 8
REMARK VINA RESULT:      -4.3     11.205     11.777
REMARK  2 active torsions:
REMARK  status: ('A' for Active; 'I' for Inactive)
REMARK    1  A    between atoms: C2_2  and  C3_3 
REMARK    2  A    between atoms: C3_3  and  O9_9 
ROOT
HETATM    1  C1  UNL     1     -32.933  16.402  -3.178  1.00 20.00    -0.013 C 
HETATM    2  C2  UNL     1     -33.994  15.590  -3.250  1.00 20.00     0.013 C 
HETATM    3  C4  UNL     1     -33.051  17.367  -2.046  1.00 20.00     0.028 C 
HETATM    4  C5  UNL     1     -34.991  15.886  -2.174  1.00 20.00     0.045 C 
HETATM    5  C6  UNL     1     -34.520  17.241  -1.644  1.00 20.00     0.009 C 
ENDROOT
BRANCH   2   6
HETATM    6  C3  UNL     1     -34.195  14.542  -4.199  1.00 20.00     0.288 C 
HETATM    7  O8  UNL     1     -33.474  14.350  -5.176  1.00 20.00    -0.260 OA
BRANCH   6   8
HETATM    8  O9  UNL     1     -35.290  13.817  -3.842  1.00 20.00    -0.323 OA
HETATM    9  C7  UNL     1     -36.340  13.752  -4.813  1.00 20.00     0.213 C 
ENDBRANCH   6   8
ENDBRANCH   2   6
TORSDOF 2
ENDMDL
MODEL 9
REMARK VINA RESULT:      -4.3     15.313     16.154
REMARK  2 active torsions:
REMARK  status: ('A' for Active; 'I' for Inactive)
REMARK    1  A    between atoms: C2_2  and  C3_3 
REMARK    2  A    between atoms: C3_3  and  O9_9 
ROOT
HETATM    1  C1  UNL     1     -23.966  16.406  10.180  1.00 20.00    -0.013 C 
HETATM    2  C2  UNL     1     -23.042  17.284   9.775  1.00 20.00     0.013 C 
HETATM    3  C4  UNL     1     -24.123  16.413  11.664  1.00 20.00     0.028 C 
HETATM    4  C5  UNL     1     -22.434  18.019  10.927  1.00 20.00     0.045 C 
HETATM    5  C6  UNL     1     -22.896  17.197  12.130  1.00 20.00     0.009 C 
ENDROOT
BRANCH   2   6
HETATM    6  C3  UNL     1     -22.658  17.545   8.424  1.00 20.00     0.288 C 
HETATM    7  O8  UNL     1     -22.077  16.735   7.704  1.00 20.00    -0.260 OA
BRANCH   6   8
HETATM    8  O9  UNL     1     -23.036  18.807   8.085  1.00 20.00    -0.323 OA
HETATM    9  C7  UNL     1     -24.366  18.945   7.571  1.00 20.00     0.213 C 
ENDBRANCH   6   8
ENDBRANCH   2   6
TORSDOF 2
ENDMDL
