MODEL 1
REMARK VINA RESULT:      -4.6      0.000      0.000
REMARK  1 active torsions:
REMARK  status: ('A' for Active; 'I' for Inactive)
REMARK    1  A    between atoms: C4_4  and  C5_5 
ROOT
HETATM    1  C1  UNL     1     -33.068   6.339   2.868  1.00 20.00     0.059 C 
HETATM    2  C5  UNL     1     -33.855   5.251   3.458  1.00 20.00     0.128 C 
HETATM    3  N6  UNL     1     -32.444   7.198   2.398  1.00 20.00    -0.197 NA
ENDROOT
BRANCH   2   4
HETATM    4  C4  UNL     1     -34.683   5.886   4.519  1.00 20.00    -0.002 A 
HETATM    5  C2  UNL     1     -34.827   5.228   5.864  1.00 20.00     0.006 A 
HETATM    6  C3  UNL     1     -34.027   6.493   5.729  1.00 20.00     0.006 A 
ENDBRANCH   2   4
TORSDOF 1
ENDMDL
MODEL 2
REMARK VINA RESULT:      -3.8      2.349      3.402
REMARK  1 active torsions:
REMARK  status: ('A' for Active; 'I' for Inactive)
REMARK    1  A    between atoms: C4_4  and  C5_5 
ROOT
HETATM    1  C1  UNL     1     -34.266   4.827   3.709  1.00 20.00     0.059 C 
HETATM    2  C5  UNL     1     -33.302   5.254   2.689  1.00 20.00     0.128 C 
HETATM    3  N6  UNL     1     -35.028   4.486   4.515  1.00 20.00    -0.197 NA
ENDROOT
BRANCH   2   4
HETATM    4  C4  UNL     1     -33.201   6.733   2.828  1.00 20.00    -0.002 A 
HETATM    5  C2  UNL     1     -31.877   7.376   3.139  1.00 20.00     0.006 A 
HETATM    6  C3  UNL     1     -32.493   7.545   1.778  1.00 20.00     0.006 A 
ENDBRANCH   2   4
TORSDOF 1
ENDMDL
MODEL 3
REMARK VINA RESULT:      -3.7     11.872     12.243
REMARK  1 active torsions:
REMARK  status: ('A' for Active; 'I' for Inactive)
REMARK    1  A    between atoms: C4_4  and  C5_5 
ROOT
HETATM    1  C1  UNL     1     -36.429  14.199  -4.593  1.00 20.00     0.059 C 
HETATM    2  C5  UNL     1     -35.107  14.797  -4.806  1.00 20.00     0.128 C 
HETATM    3  N6  UNL     1     -37.477  13.726  -4.427  1.00 20.00    -0.197 NA
ENDROOT
BRANCH   2   4
HETATM    4  C4  UNL     1     -34.459  14.825  -3.466  1.00 20.00    -0.002 A 
HETATM    5  C2  UNL     1     -33.555  15.966  -3.085  1.00 20.00     0.006 A 
HETATM    6  C3  UNL     1     -34.902  15.824  -2.433  1.00 20.00     0.006 A 
ENDBRANCH   2   4
TORSDOF 1
ENDMDL
MODEL 4
REMARK VINA RESULT:      -3.6      2.185      3.439
REMARK  1 active torsions:
REMARK  status: ('A' for Active; 'I' for Inactive)
REMARK    1  A    between atoms: C4_4  and  C5_5 
ROOT
HETATM    1  C1  UNL     1     -34.381   5.847   5.563  1.00 20.00     0.059 C 
HETATM    2  C5  UNL     1     -33.554   6.920   5.002  1.00 20.00     0.128 C 
HETATM    3  N6  UNL     1     -35.036   4.998   6.010  1.00 20.00    -0.197 NA
ENDROOT
BRANCH   2   4
HETATM    4  C4  UNL     1     -33.703   6.810   3.525  1.00 20.00    -0.002 A 
HETATM    5  C2  UNL     1     -32.507   6.973   2.627  1.00 20.00     0.006 A 
HETATM    6  C3  UNL     1     -33.143   5.621   2.794  1.00 20.00     0.006 A 
ENDBRANCH   2   4
TORSDOF 1
ENDMDL
MODEL 5
REMARK VINA RESULT:      -3.6      8.815      9.357
REMARK  1 active torsions:
REMARK  status: ('A' for Active; 'I' for Inactive)
REMARK    1  A    between atoms: C4_4  and  C5_5 
ROOT
HETATM    1  C1  UNL     1     -41.481   8.919   0.400  1.00 20.00     0.059 C 
HETATM    2  C5  UNL     1     -41.371   7.469   0.588  1.00 20.00     0.128 C 
HETATM    3  N6  UNL     1     -41.567  10.068   0.255  1.00 20.00    -0.197 NA
ENDROOT
BRANCH   2   4
HETATM    4  C4  UNL     1     -41.393   6.885  -0.782  1.00 20.00    -0.002 A 
HETATM    5  C2  UNL     1     -40.927   5.473  -1.012  1.00 20.00     0.006 A 
HETATM    6  C3  UNL     1     -42.387   5.812  -1.131  1.00 20.00     0.006 A 
ENDBRANCH   2   4
TORSDOF 1
ENDMDL
MODEL 6
REMARK VINA RESULT:      -3.5      2.015      3.194
REMARK  1 active torsions:
REMARK  status: ('A' for Active; 'I' for Inactive)
REMARK    1  A    between atoms: C4_4  and  C5_5 
ROOT
HETATM    1  C1  UNL     1     -34.639   5.805   5.390  1.00 20.00     0.059 C 
HETATM    2  C5  UNL     1     -34.943   4.989   4.209  1.00 20.00     0.128 C 
HETATM    3  N6  UNL     1     -34.403   6.451   6.326  1.00 20.00    -0.197 NA
ENDROOT
BRANCH   2   4
HETATM    4  C4  UNL     1     -33.638   4.779   3.523  1.00 20.00    -0.002 A 
HETATM    5  C2  UNL     1     -33.580   4.666   2.024  1.00 20.00     0.006 A 
HETATM    6  C3  UNL     1     -33.026   5.884   2.707  1.00 20.00     0.006 A 
ENDBRANCH   2   4
TORSDOF 1
ENDMDL
MODEL 7
REMARK VINA RESULT:      -3.4      8.781      9.224
REMARK  1 active torsions:
REMARK  status: ('A' for Active; 'I' for Inactive)
REMARK    1  A    between atoms: C4_4  and  C5_5 
ROOT
HETATM    1  C1  UNL     1     -40.996   5.801  -0.614  1.00 20.00     0.059 C 
HETATM    2  C5  UNL     1     -41.237   6.839   0.395  1.00 20.00     0.128 C 
HETATM    3  N6  UNL     1     -40.806   4.977  -1.409  1.00 20.00    -0.197 NA
ENDROOT
BRANCH   2   4
HETATM    4  C4  UNL     1     -41.506   8.087  -0.372  1.00 20.00    -0.002 A 
HETATM    5  C2  UNL     1     -42.749   8.890  -0.101  1.00 20.00     0.006 A 
HETATM    6  C3  UNL     1     -41.404   9.426   0.305  1.00 20.00     0.006 A 
ENDBRANCH   2   4
TORSDOF 1
ENDMDL
MODEL 8
REMARK VINA RESULT:      -3.4      1.348      1.638
REMARK  1 active torsions:
REMARK  status: ('A' for Active; 'I' for Inactive)
REMARK    1  A    between atoms: C4_4  and  C5_5 
ROOT
HETATM    1  C1  UNL     1     -33.392   5.445   2.872  1.00 20.00     0.059 C 
HETATM    2  C5  UNL     1     -33.760   6.564   3.746  1.00 20.00     0.128 C 
HETATM    3  N6  UNL     1     -33.101   4.562   2.177  1.00 20.00    -0.197 NA
ENDROOT
BRANCH   2   4
HETATM    4  C4  UNL     1     -33.639   6.043   5.136  1.00 20.00    -0.002 A 
HETATM    5  C2  UNL     1     -34.400   6.694   6.258  1.00 20.00     0.006 A 
HETATM    6  C3  UNL     1     -34.795   5.325   5.777  1.00 20.00     0.006 A 
ENDBRANCH   2   4
TORSDOF 1
ENDMDL
MODEL 9
REMARK VINA RESULT:      -3.3      2.641      4.434
REMARK  1 active torsions:
REMARK  status: ('A' for Active; 'I' for Inactive)
REMARK    1  A    between atoms: C4_4  and  C5_5 
ROOT
HETATM    1  C1  UNL     1     -32.979   6.102   2.532  1.00 20.00     0.059 C 
HETATM    2  C5  UNL     1     -32.291   7.352   2.195  1.00 20.00     0.128 C 
HETATM    3  N6  UNL     1     -33.521   5.111   2.802  1.00 20.00    -0.197 NA
ENDROOT
BRANCH   2   4
HETATM    4  C4  UNL     1     -33.230   8.100   1.313  1.00 20.00    -0.002 A 
HETATM    5  C2  UNL     1     -32.872   9.475   0.818  1.00 20.00     0.006 A 
HETATM    6  C3  UNL     1     -32.895   8.315  -0.137  1.00 20.00     0.006 A 
ENDBRANCH   2   4
TORSDOF 1
ENDMDL
