MODEL 1
REMARK VINA RESULT:      -4.0      0.000      0.000
REMARK  2 active torsions:
REMARK  status: ('A' for Active; 'I' for Inactive)
REMARK    1  A    between atoms: C7_7  and  O9_9 
REMARK    2  A    between atoms: C8_8  and  O9_9 
ROOT
HETATM    1  C1  UNL     1     -25.431  19.168   7.601  1.00 20.00     0.015 C 
HETATM    2  C2  UNL     1     -24.654  18.559   8.285  1.00 20.00    -0.086 C 
HETATM    3  C3  UNL     1     -22.373  17.630   8.413  1.00 20.00     0.053 C 
HETATM    4  C7  UNL     1     -23.708  17.814   9.122  1.00 20.00     0.196 C 
ENDROOT
BRANCH   4   5
HETATM    5  O9  UNL     1     -23.499  18.522  10.333  1.00 20.00    -0.364 OA
BRANCH   5   6
HETATM    6  C8  UNL     1     -23.823  17.717  11.468  1.00 20.00     0.051 C 
HETATM    7  C4  UNL     1     -24.272  16.341  10.975  1.00 20.00     0.045 C 
HETATM    8  C5  UNL     1     -22.563  17.598  12.322  1.00 20.00     0.045 C 
HETATM    9  C6  UNL     1     -24.940  18.406  12.250  1.00 20.00     0.045 C 
ENDBRANCH   5   6
ENDBRANCH   4   5
TORSDOF 2
ENDMDL
MODEL 2
REMARK VINA RESULT:      -3.4     15.636     17.553
REMARK  2 active torsions:
REMARK  status: ('A' for Active; 'I' for Inactive)
REMARK    1  A    between atoms: C7_7  and  O9_9 
REMARK    2  A    between atoms: C8_8  and  O9_9 
ROOT
HETATM    1  C1  UNL     1     -32.446  18.416  -2.452  1.00 20.00     0.015 C 
HETATM    2  C2  UNL     1     -33.135  17.440  -2.578  1.00 20.00    -0.086 C 
HETATM    3  C3  UNL     1     -35.080  16.212  -1.690  1.00 20.00     0.053 C 
HETATM    4  C7  UNL     1     -33.973  16.245  -2.733  1.00 20.00     0.196 C 
ENDROOT
BRANCH   4   5
HETATM    5  O9  UNL     1     -34.552  16.248  -4.028  1.00 20.00    -0.364 OA
BRANCH   5   6
HETATM    6  C8  UNL     1     -34.325  15.008  -4.700  1.00 20.00     0.051 C 
HETATM    7  C4  UNL     1     -35.405  14.016  -4.269  1.00 20.00     0.045 C 
HETATM    8  C5  UNL     1     -34.411  15.277  -6.201  1.00 20.00     0.045 C 
HETATM    9  C6  UNL     1     -32.935  14.499  -4.323  1.00 20.00     0.045 C 
ENDBRANCH   5   6
ENDBRANCH   4   5
TORSDOF 2
ENDMDL
MODEL 3
REMARK VINA RESULT:      -3.3     15.736     17.417
REMARK  2 active torsions:
REMARK  status: ('A' for Active; 'I' for Inactive)
REMARK    1  A    between atoms: C7_7  and  O9_9 
REMARK    2  A    between atoms: C8_8  and  O9_9 
ROOT
HETATM    1  C1  UNL     1     -36.299  13.657  -4.553  1.00 20.00     0.015 C 
HETATM    2  C2  UNL     1     -35.337  14.258  -4.157  1.00 20.00    -0.086 C 
HETATM    3  C3  UNL     1     -32.892  14.512  -4.355  1.00 20.00     0.053 C 
HETATM    4  C7  UNL     1     -34.163  14.992  -3.670  1.00 20.00     0.196 C 
ENDROOT
BRANCH   4   5
HETATM    5  O9  UNL     1     -34.339  16.376  -3.929  1.00 20.00    -0.364 OA
BRANCH   5   6
HETATM    6  C8  UNL     1     -34.347  17.133  -2.718  1.00 20.00     0.051 C 
HETATM    7  C4  UNL     1     -32.902  17.426  -2.317  1.00 20.00     0.045 C 
HETATM    8  C5  UNL     1     -35.103  18.431  -2.992  1.00 20.00     0.045 C 
HETATM    9  C6  UNL     1     -35.057  16.315  -1.639  1.00 20.00     0.045 C 
ENDBRANCH   5   6
ENDBRANCH   4   5
TORSDOF 2
ENDMDL
MODEL 4
REMARK VINA RESULT:      -3.3     15.657     17.424
REMARK  2 active torsions:
REMARK  status: ('A' for Active; 'I' for Inactive)
REMARK    1  A    between atoms: C7_7  and  O9_9 
REMARK    2  A    between atoms: C8_8  and  O9_9 
ROOT
HETATM    1  C1  UNL     1     -35.524  17.075  -0.090  1.00 20.00     0.015 C 
HETATM    2  C2  UNL     1     -35.004  16.905  -1.159  1.00 20.00    -0.086 C 
HETATM    3  C3  UNL     1     -32.909  17.119  -2.443  1.00 20.00     0.053 C 
HETATM    4  C7  UNL     1     -34.371  16.698  -2.466  1.00 20.00     0.196 C 
ENDROOT
BRANCH   4   5
HETATM    5  O9  UNL     1     -34.455  15.324  -2.812  1.00 20.00    -0.364 OA
BRANCH   5   6
HETATM    6  C8  UNL     1     -34.917  15.155  -4.154  1.00 20.00     0.051 C 
HETATM    7  C4  UNL     1     -35.548  16.466  -4.620  1.00 20.00     0.045 C 
HETATM    8  C5  UNL     1     -33.707  14.803  -5.015  1.00 20.00     0.045 C 
HETATM    9  C6  UNL     1     -35.941  14.020  -4.175  1.00 20.00     0.045 C 
ENDBRANCH   5   6
ENDBRANCH   4   5
TORSDOF 2
ENDMDL
MODEL 5
REMARK VINA RESULT:      -3.3     15.658     17.428
REMARK  2 active torsions:
REMARK  status: ('A' for Active; 'I' for Inactive)
REMARK    1  A    between atoms: C7_7  and  O9_9 
REMARK    2  A    between atoms: C8_8  and  O9_9 
ROOT
HETATM    1  C1  UNL     1     -35.539  17.036  -0.063  1.00 20.00     0.015 C 
HETATM    2  C2  UNL     1     -35.024  16.875  -1.136  1.00 20.00    -0.086 C 
HETATM    3  C3  UNL     1     -32.935  17.096  -2.428  1.00 20.00     0.053 C 
HETATM    4  C7  UNL     1     -34.398  16.678  -2.448  1.00 20.00     0.196 C 
ENDROOT
BRANCH   4   5
HETATM    5  O9  UNL     1     -34.487  15.308  -2.806  1.00 20.00    -0.364 OA
BRANCH   5   6
HETATM    6  C8  UNL     1     -34.922  15.153  -4.158  1.00 20.00     0.051 C 
HETATM    7  C4  UNL     1     -33.709  14.817  -5.025  1.00 20.00     0.045 C 
HETATM    8  C5  UNL     1     -35.936  14.011  -4.185  1.00 20.00     0.045 C 
HETATM    9  C6  UNL     1     -35.572  16.460  -4.612  1.00 20.00     0.045 C 
ENDBRANCH   5   6
ENDBRANCH   4   5
TORSDOF 2
ENDMDL
MODEL 6
REMARK VINA RESULT:      -3.3     15.801     17.633
REMARK  2 active torsions:
REMARK  status: ('A' for Active; 'I' for Inactive)
REMARK    1  A    between atoms: C7_7  and  O9_9 
REMARK    2  A    between atoms: C8_8  and  O9_9 
ROOT
HETATM    1  C1  UNL     1     -35.467  16.996  -0.270  1.00 20.00     0.015 C 
HETATM    2  C2  UNL     1     -34.975  16.793  -1.347  1.00 20.00    -0.086 C 
HETATM    3  C3  UNL     1     -32.893  16.887  -2.665  1.00 20.00     0.053 C 
HETATM    4  C7  UNL     1     -34.376  16.547  -2.663  1.00 20.00     0.196 C 
ENDROOT
BRANCH   4   5
HETATM    5  O9  UNL     1     -34.542  15.179  -3.002  1.00 20.00    -0.364 OA
BRANCH   5   6
HETATM    6  C8  UNL     1     -35.093  15.033  -4.312  1.00 20.00     0.051 C 
HETATM    7  C4  UNL     1     -35.976  13.785  -4.332  1.00 20.00     0.045 C 
HETATM    8  C5  UNL     1     -35.921  16.282  -4.604  1.00 20.00     0.045 C 
HETATM    9  C6  UNL     1     -33.944  14.903  -5.311  1.00 20.00     0.045 C 
ENDBRANCH   5   6
ENDBRANCH   4   5
TORSDOF 2
ENDMDL
MODEL 7
REMARK VINA RESULT:      -3.3     16.106     16.882
REMARK  2 active torsions:
REMARK  status: ('A' for Active; 'I' for Inactive)
REMARK    1  A    between atoms: C7_7  and  O9_9 
REMARK    2  A    between atoms: C8_8  and  O9_9 
ROOT
HETATM    1  C1  UNL     1     -32.268   7.685   1.847  1.00 20.00     0.015 C 
HETATM    2  C2  UNL     1     -32.847   6.737   2.302  1.00 20.00    -0.086 C 
HETATM    3  C3  UNL     1     -33.141   4.292   2.167  1.00 20.00     0.053 C 
HETATM    4  C7  UNL     1     -33.558   5.581   2.860  1.00 20.00     0.196 C 
ENDROOT
BRANCH   4   5
HETATM    5  O9  UNL     1     -33.269   5.480   4.246  1.00 20.00    -0.364 OA
BRANCH   5   6
HETATM    6  C8  UNL     1     -34.420   5.776   5.039  1.00 20.00     0.051 C 
HETATM    7  C4  UNL     1     -34.588   4.672   6.082  1.00 20.00     0.045 C 
HETATM    8  C5  UNL     1     -34.178   7.123   5.715  1.00 20.00     0.045 C 
HETATM    9  C6  UNL     1     -35.638   5.847   4.118  1.00 20.00     0.045 C 
ENDBRANCH   5   6
ENDBRANCH   4   5
TORSDOF 2
ENDMDL
MODEL 8
REMARK VINA RESULT:      -3.3      1.288      3.050
REMARK  2 active torsions:
REMARK  status: ('A' for Active; 'I' for Inactive)
REMARK    1  A    between atoms: C7_7  and  O9_9 
REMARK    2  A    between atoms: C8_8  and  O9_9 
ROOT
HETATM    1  C1  UNL     1     -21.297  17.854   8.818  1.00 20.00     0.015 C 
HETATM    2  C2  UNL     1     -21.814  17.728   9.895  1.00 20.00    -0.086 C 
HETATM    3  C3  UNL     1     -21.439  17.765  12.332  1.00 20.00     0.053 C 
HETATM    4  C7  UNL     1     -22.447  17.572  11.209  1.00 20.00     0.196 C 
ENDROOT
BRANCH   4   5
HETATM    5  O9  UNL     1     -23.485  18.530  11.343  1.00 20.00    -0.364 OA
BRANCH   5   6
HETATM    6  C8  UNL     1     -24.759  17.962  11.034  1.00 20.00     0.051 C 
HETATM    7  C4  UNL     1     -25.796  18.544  11.994  1.00 20.00     0.045 C 
HETATM    8  C5  UNL     1     -25.090  18.336   9.592  1.00 20.00     0.045 C 
HETATM    9  C6  UNL     1     -24.664  16.444  11.189  1.00 20.00     0.045 C 
ENDBRANCH   5   6
ENDBRANCH   4   5
TORSDOF 2
ENDMDL
MODEL 9
REMARK VINA RESULT:      -3.3     15.470     17.035
REMARK  2 active torsions:
REMARK  status: ('A' for Active; 'I' for Inactive)
REMARK    1  A    between atoms: C7_7  and  O9_9 
REMARK    2  A    between atoms: C8_8  and  O9_9 
ROOT
HETATM    1  C1  UNL     1     -32.933  14.455  -4.422  1.00 20.00     0.015 C 
HETATM    2  C2  UNL     1     -33.928  14.971  -3.989  1.00 20.00    -0.086 C 
HETATM    3  C3  UNL     1     -36.382  14.804  -3.825  1.00 20.00     0.053 C 
HETATM    4  C7  UNL     1     -35.141  15.605  -3.461  1.00 20.00     0.196 C 
ENDROOT
BRANCH   4   5
HETATM    5  O9  UNL     1     -35.042  15.695  -2.048  1.00 20.00    -0.364 OA
BRANCH   5   6
HETATM    6  C8  UNL     1     -34.929  17.054  -1.622  1.00 20.00     0.051 C 
HETATM    7  C4  UNL     1     -35.464  17.163  -0.195  1.00 20.00     0.045 C 
HETATM    8  C5  UNL     1     -33.449  17.429  -1.672  1.00 20.00     0.045 C 
HETATM    9  C6  UNL     1     -35.739  17.931  -2.576  1.00 20.00     0.045 C 
ENDBRANCH   5   6
ENDBRANCH   4   5
TORSDOF 2
ENDMDL
