MODEL 1
REMARK VINA RESULT:      -4.4      0.000      0.000
REMARK  2 active torsions:
REMARK  status: ('A' for Active; 'I' for Inactive)
REMARK    1  A    between atoms: C1_1  and  C2_2 
REMARK    2  A    between atoms: C1_1  and  C3_3 
ROOT
HETATM    1  C3  UNL     1     -34.694   5.434   4.439  1.00 20.00     0.256 C 
HETATM    2  F4  UNL     1     -35.983   5.624   4.036  1.00 20.00    -0.207 F 
HETATM    3 CL5  UNL     1     -34.671   5.439   6.221  1.00 20.00    -0.066 Cl
HETATM    4 CL6  UNL     1     -34.158   3.846   3.835  1.00 20.00    -0.066 Cl
ENDROOT
BRANCH   1   5
HETATM    5  C1  UNL     1     -33.854   6.575   3.859  1.00 20.00     0.089 C 
BRANCH   5   6
HETATM    6  C2  UNL     1     -32.919   6.185   2.723  1.00 20.00     0.090 C 
HETATM    7 BR7  UNL     1     -32.511   7.761   1.646  1.00 20.00    -0.096 Br
ENDBRANCH   5   6
ENDBRANCH   1   5
TORSDOF 2
ENDMDL
MODEL 2
REMARK VINA RESULT:      -3.8      3.427      3.848
REMARK  2 active torsions:
REMARK  status: ('A' for Active; 'I' for Inactive)
REMARK    1  A    between atoms: C1_1  and  C2_2 
REMARK    2  A    between atoms: C1_1  and  C3_3 
ROOT
HETATM    1  C3  UNL     1     -32.767   6.838   2.905  1.00 20.00     0.256 C 
HETATM    2  F4  UNL     1     -31.565   7.033   3.520  1.00 20.00    -0.207 F 
HETATM    3 CL5  UNL     1     -32.809   7.865   1.449  1.00 20.00    -0.066 Cl
HETATM    4 CL6  UNL     1     -32.873   5.123   2.435  1.00 20.00    -0.066 Cl
ENDROOT
BRANCH   1   5
HETATM    5  C1  UNL     1     -33.865   7.223   3.900  1.00 20.00     0.089 C 
BRANCH   5   6
HETATM    6  C2  UNL     1     -33.614   6.806   5.343  1.00 20.00     0.090 C 
HETATM    7 BR7  UNL     1     -34.753   5.284   5.787  1.00 20.00    -0.096 Br
ENDBRANCH   5   6
ENDBRANCH   1   5
TORSDOF 2
ENDMDL
MODEL 3
REMARK VINA RESULT:      -3.6      3.585      3.825
REMARK  2 active torsions:
REMARK  status: ('A' for Active; 'I' for Inactive)
REMARK    1  A    between atoms: C1_1  and  C2_2 
REMARK    2  A    between atoms: C1_1  and  C3_3 
ROOT
HETATM    1  C3  UNL     1     -32.745   6.845   2.771  1.00 20.00     0.256 C 
HETATM    2  F4  UNL     1     -32.356   5.585   2.422  1.00 20.00    -0.207 F 
HETATM    3 CL5  UNL     1     -31.473   7.545   3.802  1.00 20.00    -0.066 Cl
HETATM    4 CL6  UNL     1     -32.905   7.804   1.278  1.00 20.00    -0.066 Cl
ENDROOT
BRANCH   1   5
HETATM    5  C1  UNL     1     -34.078   6.729   3.516  1.00 20.00     0.089 C 
BRANCH   5   6
HETATM    6  C2  UNL     1     -34.458   5.323   3.959  1.00 20.00     0.090 C 
HETATM    7 BR7  UNL     1     -34.720   5.298   5.893  1.00 20.00    -0.096 Br
ENDBRANCH   5   6
ENDBRANCH   1   5
TORSDOF 2
ENDMDL
MODEL 4
REMARK VINA RESULT:      -3.6      1.569      1.935
REMARK  2 active torsions:
REMARK  status: ('A' for Active; 'I' for Inactive)
REMARK    1  A    between atoms: C1_1  and  C2_2 
REMARK    2  A    between atoms: C1_1  and  C3_3 
ROOT
HETATM    1  C3  UNL     1     -34.394   5.404   4.248  1.00 20.00     0.256 C 
HETATM    2  F4  UNL     1     -34.220   4.110   4.642  1.00 20.00    -0.207 F 
HETATM    3 CL5  UNL     1     -36.113   5.625   3.838  1.00 20.00    -0.066 Cl
HETATM    4 CL6  UNL     1     -33.962   6.457   5.618  1.00 20.00    -0.066 Cl
ENDROOT
BRANCH   1   5
HETATM    5  C1  UNL     1     -33.488   5.646   3.038  1.00 20.00     0.089 C 
BRANCH   5   6
HETATM    6  C2  UNL     1     -32.586   6.869   3.131  1.00 20.00     0.090 C 
HETATM    7 BR7  UNL     1     -32.612   7.827   1.431  1.00 20.00    -0.096 Br
ENDBRANCH   5   6
ENDBRANCH   1   5
TORSDOF 2
ENDMDL
MODEL 5
REMARK VINA RESULT:      -3.3     16.917     17.318
REMARK  2 active torsions:
REMARK  status: ('A' for Active; 'I' for Inactive)
REMARK    1  A    between atoms: C1_1  and  C2_2 
REMARK    2  A    between atoms: C1_1  and  C3_3 
ROOT
HETATM    1  C3  UNL     1     -24.097  17.560  11.424  1.00 20.00     0.256 C 
HETATM    2  F4  UNL     1     -24.898  18.364  12.180  1.00 20.00    -0.207 F 
HETATM    3 CL5  UNL     1     -22.437  17.690  12.058  1.00 20.00    -0.066 Cl
HETATM    4 CL6  UNL     1     -24.678  15.885  11.600  1.00 20.00    -0.066 Cl
ENDROOT
BRANCH   1   5
HETATM    5  C1  UNL     1     -24.189  18.044   9.975  1.00 20.00     0.089 C 
BRANCH   5   6
HETATM    6  C2  UNL     1     -22.924  18.682   9.417  1.00 20.00     0.090 C 
HETATM    7 BR7  UNL     1     -21.990  17.394   8.286  1.00 20.00    -0.096 Br
ENDBRANCH   5   6
ENDBRANCH   1   5
TORSDOF 2
ENDMDL
MODEL 6
REMARK VINA RESULT:      -3.3      9.261      9.502
REMARK  2 active torsions:
REMARK  status: ('A' for Active; 'I' for Inactive)
REMARK    1  A    between atoms: C1_1  and  C2_2 
REMARK    2  A    between atoms: C1_1  and  C3_3 
ROOT
HETATM    1  C3  UNL     1     -41.622   8.056   0.222  1.00 20.00     0.256 C 
HETATM    2  F4  UNL     1     -40.843   7.353   1.092  1.00 20.00    -0.207 F 
HETATM    3 CL5  UNL     1     -41.229   9.784   0.409  1.00 20.00    -0.066 Cl
HETATM    4 CL6  UNL     1     -41.218   7.524  -1.430  1.00 20.00    -0.066 Cl
ENDROOT
BRANCH   1   5
HETATM    5  C1  UNL     1     -43.084   7.768   0.570  1.00 20.00     0.089 C 
BRANCH   5   6
HETATM    6  C2  UNL     1     -43.335   6.456   1.302  1.00 20.00     0.090 C 
HETATM    7 BR7  UNL     1     -43.417   4.995   0.011  1.00 20.00    -0.096 Br
ENDBRANCH   5   6
ENDBRANCH   1   5
TORSDOF 2
ENDMDL
MODEL 7
REMARK VINA RESULT:      -3.2     11.912     12.116
REMARK  2 active torsions:
REMARK  status: ('A' for Active; 'I' for Inactive)
REMARK    1  A    between atoms: C1_1  and  C2_2 
REMARK    2  A    between atoms: C1_1  and  C3_3 
ROOT
HETATM    1  C3  UNL     1     -34.571  14.352  -4.111  1.00 20.00     0.256 C 
HETATM    2  F4  UNL     1     -34.745  13.065  -3.695  1.00 20.00    -0.207 F 
HETATM    3 CL5  UNL     1     -32.821  14.637  -4.290  1.00 20.00    -0.066 Cl
HETATM    4 CL6  UNL     1     -35.374  14.533  -5.691  1.00 20.00    -0.066 Cl
ENDROOT
BRANCH   1   5
HETATM    5  C1  UNL     1     -35.188  15.270  -3.052  1.00 20.00     0.089 C 
BRANCH   5   6
HETATM    6  C2  UNL     1     -34.211  16.198  -2.343  1.00 20.00     0.090 C 
HETATM    7 BR7  UNL     1     -35.125  17.106  -0.877  1.00 20.00    -0.096 Br
ENDBRANCH   5   6
ENDBRANCH   1   5
TORSDOF 2
ENDMDL
MODEL 8
REMARK VINA RESULT:      -3.2     11.928     12.253
REMARK  2 active torsions:
REMARK  status: ('A' for Active; 'I' for Inactive)
REMARK    1  A    between atoms: C1_1  and  C2_2 
REMARK    2  A    between atoms: C1_1  and  C3_3 
ROOT
HETATM    1  C3  UNL     1     -34.979  14.426  -4.051  1.00 20.00     0.256 C 
HETATM    2  F4  UNL     1     -34.464  13.217  -3.686  1.00 20.00    -0.207 F 
HETATM    3 CL5  UNL     1     -34.276  14.868  -5.627  1.00 20.00    -0.066 Cl
HETATM    4 CL6  UNL     1     -36.744  14.247  -4.208  1.00 20.00    -0.066 Cl
ENDROOT
BRANCH   1   5
HETATM    5  C1  UNL     1     -34.606  15.436  -2.962  1.00 20.00     0.089 C 
BRANCH   5   6
HETATM    6  C2  UNL     1     -33.277  16.152  -3.164  1.00 20.00     0.090 C 
HETATM    7 BR7  UNL     1     -33.117  17.604  -1.869  1.00 20.00    -0.096 Br
ENDBRANCH   5   6
ENDBRANCH   1   5
TORSDOF 2
ENDMDL
MODEL 9
REMARK VINA RESULT:      -3.2      1.377      1.685
REMARK  2 active torsions:
REMARK  status: ('A' for Active; 'I' for Inactive)
REMARK    1  A    between atoms: C1_1  and  C2_2 
REMARK    2  A    between atoms: C1_1  and  C3_3 
ROOT
HETATM    1  C3  UNL     1     -34.609   5.551   4.517  1.00 20.00     0.256 C 
HETATM    2  F4  UNL     1     -34.695   5.734   5.866  1.00 20.00    -0.207 F 
HETATM    3 CL5  UNL     1     -34.042   3.887   4.226  1.00 20.00    -0.066 Cl
HETATM    4 CL6  UNL     1     -36.238   5.760   3.829  1.00 20.00    -0.066 Cl
ENDROOT
BRANCH   1   5
HETATM    5  C1  UNL     1     -33.624   6.588   3.971  1.00 20.00     0.089 C 
BRANCH   5   6
HETATM    6  C2  UNL     1     -32.887   6.183   2.701  1.00 20.00     0.090 C 
HETATM    7 BR7  UNL     1     -32.516   7.771   1.630  1.00 20.00    -0.096 Br
ENDBRANCH   5   6
ENDBRANCH   1   5
TORSDOF 2
ENDMDL
