MODEL 1
REMARK VINA RESULT:      -4.6      0.000      0.000
REMARK  3 active torsions:
REMARK  status: ('A' for Active; 'I' for Inactive)
REMARK    1  A    between atoms: C3_3  and  C5_5 
REMARK    2  A    between atoms: C4_4  and  C6_6 
REMARK    3  A    between atoms: C5_5  and  C6_6 
ROOT
HETATM    1  C1  UNL     1     -32.751   8.174   1.044  1.00 20.00     0.059 C 
HETATM    2  C4  UNL     1     -32.188   7.526   2.235  1.00 20.00     0.124 C 
HETATM    3  N7  UNL     1     -33.193   8.687   0.101  1.00 20.00    -0.197 NA
ENDROOT
BRANCH   2   4
HETATM    4  C6  UNL     1     -33.076   6.392   2.751  1.00 20.00     0.020 C 
BRANCH   4   5
HETATM    5  C5  UNL     1     -33.759   6.732   4.083  1.00 20.00     0.051 C 
BRANCH   5   6
HETATM    6  C3  UNL     1     -34.309   5.514   4.770  1.00 20.00     0.002 C 
HETATM    7  C2  UNL     1     -34.837   5.520   5.999  1.00 20.00     0.032 C 
HETATM    8 CL8  UNL     1     -34.281   4.047   3.851  1.00 20.00    -0.090 Cl
ENDBRANCH   5   6
ENDBRANCH   4   5
ENDBRANCH   2   4
TORSDOF 3
ENDMDL
MODEL 2
REMARK VINA RESULT:      -4.4      1.534      1.534
REMARK  3 active torsions:
REMARK  status: ('A' for Active; 'I' for Inactive)
REMARK    1  A    between atoms: C3_3  and  C5_5 
REMARK    2  A    between atoms: C4_4  and  C6_6 
REMARK    3  A    between atoms: C5_5  and  C6_6 
ROOT
HETATM    1  C1  UNL     1     -32.557   7.797   1.616  1.00 20.00     0.059 C 
HETATM    2  C4  UNL     1     -32.330   6.986   2.819  1.00 20.00     0.124 C 
HETATM    3  N7  UNL     1     -32.734   8.440   0.665  1.00 20.00    -0.197 NA
ENDROOT
BRANCH   2   4
HETATM    4  C6  UNL     1     -33.235   5.753   2.865  1.00 20.00     0.020 C 
BRANCH   4   5
HETATM    5  C5  UNL     1     -34.558   6.015   3.599  1.00 20.00     0.051 C 
BRANCH   5   6
HETATM    6  C3  UNL     1     -34.428   5.844   5.086  1.00 20.00     0.002 C 
HETATM    7  C2  UNL     1     -34.813   4.749   5.750  1.00 20.00     0.032 C 
HETATM    8 CL8  UNL     1     -33.679   7.152   5.938  1.00 20.00    -0.090 Cl
ENDBRANCH   5   6
ENDBRANCH   4   5
ENDBRANCH   2   4
TORSDOF 3
ENDMDL
MODEL 3
REMARK VINA RESULT:      -4.1     10.908     11.579
REMARK  3 active torsions:
REMARK  status: ('A' for Active; 'I' for Inactive)
REMARK    1  A    between atoms: C3_3  and  C5_5 
REMARK    2  A    between atoms: C4_4  and  C6_6 
REMARK    3  A    between atoms: C5_5  and  C6_6 
ROOT
HETATM    1  C1  UNL     1     -36.910  14.183  -4.620  1.00 20.00     0.059 C 
HETATM    2  C4  UNL     1     -35.518  14.435  -5.013  1.00 20.00     0.124 C 
HETATM    3  N7  UNL     1     -38.012  13.982  -4.312  1.00 20.00    -0.197 NA
ENDROOT
BRANCH   2   4
HETATM    4  C6  UNL     1     -34.546  14.264  -3.843  1.00 20.00     0.020 C 
BRANCH   4   5
HETATM    5  C5  UNL     1     -33.485  15.372  -3.787  1.00 20.00     0.051 C 
BRANCH   5   6
HETATM    6  C3  UNL     1     -33.704  16.313  -2.636  1.00 20.00     0.002 C 
HETATM    7  C2  UNL     1     -32.870  17.307  -2.312  1.00 20.00     0.032 C 
HETATM    8 CL8  UNL     1     -35.167  16.087  -1.738  1.00 20.00    -0.090 Cl
ENDBRANCH   5   6
ENDBRANCH   4   5
ENDBRANCH   2   4
TORSDOF 3
ENDMDL
MODEL 4
REMARK VINA RESULT:      -4.1      2.986      4.234
REMARK  3 active torsions:
REMARK  status: ('A' for Active; 'I' for Inactive)
REMARK    1  A    between atoms: C3_3  and  C5_5 
REMARK    2  A    between atoms: C4_4  and  C6_6 
REMARK    3  A    between atoms: C5_5  and  C6_6 
ROOT
HETATM    1  C1  UNL     1     -34.026   6.476   6.054  1.00 20.00     0.059 C 
HETATM    2  C4  UNL     1     -34.831   5.248   6.005  1.00 20.00     0.124 C 
HETATM    3  N7  UNL     1     -33.389   7.445   6.096  1.00 20.00    -0.197 NA
ENDROOT
BRANCH   2   4
HETATM    4  C6  UNL     1     -34.841   4.618   4.611  1.00 20.00     0.020 C 
BRANCH   4   5
HETATM    5  C5  UNL     1     -34.721   5.659   3.489  1.00 20.00     0.051 C 
BRANCH   5   6
HETATM    6  C3  UNL     1     -33.422   5.544   2.740  1.00 20.00     0.002 C 
HETATM    7  C2  UNL     1     -32.999   4.424   2.143  1.00 20.00     0.032 C 
HETATM    8 CL8  UNL     1     -32.479   6.991   2.628  1.00 20.00    -0.090 Cl
ENDBRANCH   5   6
ENDBRANCH   4   5
ENDBRANCH   2   4
TORSDOF 3
ENDMDL
MODEL 5
REMARK VINA RESULT:      -4.1     11.102     11.566
REMARK  3 active torsions:
REMARK  status: ('A' for Active; 'I' for Inactive)
REMARK    1  A    between atoms: C3_3  and  C5_5 
REMARK    2  A    between atoms: C4_4  and  C6_6 
REMARK    3  A    between atoms: C5_5  and  C6_6 
ROOT
HETATM    1  C1  UNL     1     -36.872  14.125  -4.616  1.00 20.00     0.059 C 
HETATM    2  C4  UNL     1     -35.472  14.355  -4.995  1.00 20.00     0.124 C 
HETATM    3  N7  UNL     1     -37.980  13.943  -4.319  1.00 20.00    -0.197 NA
ENDROOT
BRANCH   2   4
HETATM    4  C6  UNL     1     -34.524  14.252  -3.798  1.00 20.00     0.020 C 
BRANCH   4   5
HETATM    5  C5  UNL     1     -33.585  15.461  -3.680  1.00 20.00     0.051 C 
BRANCH   5   6
HETATM    6  C3  UNL     1     -33.918  16.328  -2.499  1.00 20.00     0.002 C 
HETATM    7  C2  UNL     1     -35.052  16.233  -1.795  1.00 20.00     0.032 C 
HETATM    8 CL8  UNL     1     -32.703  17.468  -2.027  1.00 20.00    -0.090 Cl
ENDBRANCH   5   6
ENDBRANCH   4   5
ENDBRANCH   2   4
TORSDOF 3
ENDMDL
MODEL 6
REMARK VINA RESULT:      -4.1      2.962      4.461
REMARK  3 active torsions:
REMARK  status: ('A' for Active; 'I' for Inactive)
REMARK    1  A    between atoms: C3_3  and  C5_5 
REMARK    2  A    between atoms: C4_4  and  C6_6 
REMARK    3  A    between atoms: C5_5  and  C6_6 
ROOT
HETATM    1  C1  UNL     1     -34.508   5.752   5.479  1.00 20.00     0.059 C 
HETATM    2  C4  UNL     1     -34.672   4.800   4.373  1.00 20.00     0.124 C 
HETATM    3  N7  UNL     1     -34.376   6.502   6.355  1.00 20.00    -0.197 NA
ENDROOT
BRANCH   2   4
HETATM    4  C6  UNL     1     -34.463   5.458   3.007  1.00 20.00     0.020 C 
BRANCH   4   5
HETATM    5  C5  UNL     1     -32.980   5.571   2.625  1.00 20.00     0.051 C 
BRANCH   5   6
HETATM    6  C3  UNL     1     -32.523   6.999   2.530  1.00 20.00     0.002 C 
HETATM    7  C2  UNL     1     -32.641   7.752   1.431  1.00 20.00     0.032 C 
HETATM    8 CL8  UNL     1     -31.861   7.682   3.977  1.00 20.00    -0.090 Cl
ENDBRANCH   5   6
ENDBRANCH   4   5
ENDBRANCH   2   4
TORSDOF 3
ENDMDL
MODEL 7
REMARK VINA RESULT:      -3.9     11.044     11.593
REMARK  3 active torsions:
REMARK  status: ('A' for Active; 'I' for Inactive)
REMARK    1  A    between atoms: C3_3  and  C5_5 
REMARK    2  A    between atoms: C4_4  and  C6_6 
REMARK    3  A    between atoms: C5_5  and  C6_6 
ROOT
HETATM    1  C1  UNL     1     -36.393  13.818  -4.429  1.00 20.00     0.059 C 
HETATM    2  C4  UNL     1     -37.080  15.096  -4.205  1.00 20.00     0.124 C 
HETATM    3  N7  UNL     1     -35.852  12.806  -4.609  1.00 20.00    -0.197 NA
ENDROOT
BRANCH   2   4
HETATM    4  C6  UNL     1     -36.147  16.159  -3.620  1.00 20.00     0.020 C 
BRANCH   4   5
HETATM    5  C5  UNL     1     -35.110  15.571  -2.653  1.00 20.00     0.051 C 
BRANCH   5   6
HETATM    6  C3  UNL     1     -33.704  15.938  -3.033  1.00 20.00     0.002 C 
HETATM    7  C2  UNL     1     -33.047  16.995  -2.542  1.00 20.00     0.032 C 
HETATM    8 CL8  UNL     1     -32.910  14.865  -4.136  1.00 20.00    -0.090 Cl
ENDBRANCH   5   6
ENDBRANCH   4   5
ENDBRANCH   2   4
TORSDOF 3
ENDMDL
MODEL 8
REMARK VINA RESULT:      -3.9     11.288     11.692
REMARK  3 active torsions:
REMARK  status: ('A' for Active; 'I' for Inactive)
REMARK    1  A    between atoms: C3_3  and  C5_5 
REMARK    2  A    between atoms: C4_4  and  C6_6 
REMARK    3  A    between atoms: C5_5  and  C6_6 
ROOT
HETATM    1  C1  UNL     1     -36.128  13.989  -4.275  1.00 20.00     0.059 C 
HETATM    2  C4  UNL     1     -34.771  14.409  -3.904  1.00 20.00     0.124 C 
HETATM    3  N7  UNL     1     -37.201  13.655  -4.570  1.00 20.00    -0.197 NA
ENDROOT
BRANCH   2   4
HETATM    4  C6  UNL     1     -34.776  15.489  -2.820  1.00 20.00     0.020 C 
BRANCH   4   5
HETATM    5  C5  UNL     1     -33.532  16.388  -2.873  1.00 20.00     0.051 C 
BRANCH   5   6
HETATM    6  C3  UNL     1     -33.472  17.347  -1.718  1.00 20.00     0.002 C 
HETATM    7  C2  UNL     1     -34.502  17.604  -0.903  1.00 20.00     0.032 C 
HETATM    8 CL8  UNL     1     -31.938  18.097  -1.432  1.00 20.00    -0.090 Cl
ENDBRANCH   5   6
ENDBRANCH   4   5
ENDBRANCH   2   4
TORSDOF 3
ENDMDL
MODEL 9
REMARK VINA RESULT:      -3.9     11.308     11.794
REMARK  3 active torsions:
REMARK  status: ('A' for Active; 'I' for Inactive)
REMARK    1  A    between atoms: C3_3  and  C5_5 
REMARK    2  A    between atoms: C4_4  and  C6_6 
REMARK    3  A    between atoms: C5_5  and  C6_6 
ROOT
HETATM    1  C1  UNL     1     -31.735  18.185  -0.876  1.00 20.00     0.059 C 
HETATM    2  C4  UNL     1     -33.102  17.887  -1.323  1.00 20.00     0.124 C 
HETATM    3  N7  UNL     1     -30.656  18.420  -0.519  1.00 20.00    -0.197 NA
ENDROOT
BRANCH   2   4
HETATM    4  C6  UNL     1     -33.127  16.899  -2.491  1.00 20.00     0.020 C 
BRANCH   4   5
HETATM    5  C5  UNL     1     -34.362  15.987  -2.471  1.00 20.00     0.051 C 
BRANCH   5   6
HETATM    6  C3  UNL     1     -34.333  14.964  -3.571  1.00 20.00     0.002 C 
HETATM    7  C2  UNL     1     -35.417  14.338  -4.041  1.00 20.00     0.032 C 
HETATM    8 CL8  UNL     1     -32.783  14.653  -4.278  1.00 20.00    -0.090 Cl
ENDBRANCH   5   6
ENDBRANCH   4   5
ENDBRANCH   2   4
TORSDOF 3
ENDMDL
