MODEL 1
REMARK VINA RESULT:      -4.4      0.000      0.000
REMARK  2 active torsions:
REMARK  status: ('A' for Active; 'I' for Inactive)
REMARK    1  A    between atoms: C5_5  and  C6_6 
REMARK    2  A    between atoms: C6_6  and  N7_7 
ROOT
HETATM    1  C1  UNL     1     -32.652   7.615   1.978  1.00 20.00     0.158 C 
HETATM    2  N7  UNL     1     -32.636   6.945   2.940  1.00 20.00    -0.270 NA
HETATM    3  S8  UNL     1     -32.646   8.541   0.682  1.00 20.00    -0.055 SA
ENDROOT
BRANCH   2   4
HETATM    4  C6  UNL     1     -33.770   6.019   3.063  1.00 20.00     0.109 C 
HETATM    5  C4  UNL     1     -33.272   4.611   2.756  1.00 20.00     0.035 C 
BRANCH   4   6
HETATM    6  C5  UNL     1     -34.415   6.149   4.459  1.00 20.00     0.002 C 
HETATM    7  C2  UNL     1     -33.499   6.920   5.417  1.00 20.00     0.011 C 
HETATM    8  C3  UNL     1     -34.807   4.808   5.087  1.00 20.00     0.011 C 
ENDBRANCH   4   6
ENDBRANCH   2   4
TORSDOF 2
ENDMDL
MODEL 2
REMARK VINA RESULT:      -3.7     11.490     12.002
REMARK  2 active torsions:
REMARK  status: ('A' for Active; 'I' for Inactive)
REMARK    1  A    between atoms: C5_5  and  C6_6 
REMARK    2  A    between atoms: C6_6  and  N7_7 
ROOT
HETATM    1  C1  UNL     1     -34.033  15.007  -6.418  1.00 20.00     0.158 C 
HETATM    2  N7  UNL     1     -33.863  14.629  -5.321  1.00 20.00    -0.270 NA
HETATM    3  S8  UNL     1     -34.234  15.505  -7.917  1.00 20.00    -0.055 SA
ENDROOT
BRANCH   2   4
HETATM    4  C6  UNL     1     -34.895  15.044  -4.361  1.00 20.00     0.109 C 
HETATM    5  C4  UNL     1     -35.901  13.906  -4.222  1.00 20.00     0.035 C 
BRANCH   4   6
HETATM    6  C5  UNL     1     -34.245  15.454  -3.023  1.00 20.00     0.002 C 
HETATM    7  C2  UNL     1     -35.274  16.098  -2.088  1.00 20.00     0.011 C 
HETATM    8  C3  UNL     1     -33.037  16.382  -3.181  1.00 20.00     0.011 C 
ENDBRANCH   4   6
ENDBRANCH   2   4
TORSDOF 2
ENDMDL
MODEL 3
REMARK VINA RESULT:      -3.7     15.796     16.765
REMARK  2 active torsions:
REMARK  status: ('A' for Active; 'I' for Inactive)
REMARK    1  A    between atoms: C5_5  and  C6_6 
REMARK    2  A    between atoms: C6_6  and  N7_7 
ROOT
HETATM    1  C1  UNL     1     -24.254  19.217   8.242  1.00 20.00     0.158 C 
HETATM    2  N7  UNL     1     -23.244  19.260   8.837  1.00 20.00    -0.270 NA
HETATM    3  S8  UNL     1     -25.624  19.193   7.430  1.00 20.00    -0.055 SA
ENDROOT
BRANCH   2   4
HETATM    4  C6  UNL     1     -22.814  17.977   9.410  1.00 20.00     0.109 C 
HETATM    5  C4  UNL     1     -21.294  17.998   9.536  1.00 20.00     0.035 C 
BRANCH   4   6
HETATM    6  C5  UNL     1     -23.536  17.723  10.749  1.00 20.00     0.002 C 
HETATM    7  C2  UNL     1     -22.551  17.780  11.923  1.00 20.00     0.011 C 
HETATM    8  C3  UNL     1     -24.315  16.405  10.792  1.00 20.00     0.011 C 
ENDBRANCH   4   6
ENDBRANCH   2   4
TORSDOF 2
ENDMDL
MODEL 4
REMARK VINA RESULT:      -3.5     15.756     16.345
REMARK  2 active torsions:
REMARK  status: ('A' for Active; 'I' for Inactive)
REMARK    1  A    between atoms: C5_5  and  C6_6 
REMARK    2  A    between atoms: C6_6  and  N7_7 
ROOT
HETATM    1  C1  UNL     1     -22.727  17.058   9.178  1.00 20.00     0.158 C 
HETATM    2  N7  UNL     1     -23.517  16.876  10.025  1.00 20.00    -0.270 NA
HETATM    3  S8  UNL     1     -21.649  17.271   8.025  1.00 20.00    -0.055 SA
ENDROOT
BRANCH   2   4
HETATM    4  C6  UNL     1     -24.040  18.099  10.650  1.00 20.00     0.109 C 
HETATM    5  C4  UNL     1     -24.887  18.836   9.617  1.00 20.00     0.035 C 
BRANCH   4   6
HETATM    6  C5  UNL     1     -24.813  17.750  11.939  1.00 20.00     0.002 C 
HETATM    7  C2  UNL     1     -25.081  16.244  12.028  1.00 20.00     0.011 C 
HETATM    8  C3  UNL     1     -26.128  18.520  12.099  1.00 20.00     0.011 C 
ENDBRANCH   4   6
ENDBRANCH   2   4
TORSDOF 2
ENDMDL
MODEL 5
REMARK VINA RESULT:      -3.5      1.057      1.505
REMARK  2 active torsions:
REMARK  status: ('A' for Active; 'I' for Inactive)
REMARK    1  A    between atoms: C5_5  and  C6_6 
REMARK    2  A    between atoms: C6_6  and  N7_7 
ROOT
HETATM    1  C1  UNL     1     -32.883   7.584   1.533  1.00 20.00     0.158 C 
HETATM    2  N7  UNL     1     -32.894   6.530   2.047  1.00 20.00    -0.270 NA
HETATM    3  S8  UNL     1     -32.872   8.999   0.804  1.00 20.00    -0.055 SA
ENDROOT
BRANCH   2   4
HETATM    4  C6  UNL     1     -32.705   6.555   3.504  1.00 20.00     0.109 C 
HETATM    5  C4  UNL     1     -31.928   7.818   3.861  1.00 20.00     0.035 C 
BRANCH   4   6
HETATM    6  C5  UNL     1     -34.067   6.452   4.221  1.00 20.00     0.002 C 
HETATM    7  C2  UNL     1     -33.938   6.826   5.702  1.00 20.00     0.011 C 
HETATM    8  C3  UNL     1     -34.733   5.079   4.090  1.00 20.00     0.011 C 
ENDBRANCH   4   6
ENDBRANCH   2   4
TORSDOF 2
ENDMDL
MODEL 6
REMARK VINA RESULT:      -3.4     11.509     11.958
REMARK  2 active torsions:
REMARK  status: ('A' for Active; 'I' for Inactive)
REMARK    1  A    between atoms: C5_5  and  C6_6 
REMARK    2  A    between atoms: C6_6  and  N7_7 
ROOT
HETATM    1  C1  UNL     1     -34.716  14.996  -6.092  1.00 20.00     0.158 C 
HETATM    2  N7  UNL     1     -34.991  14.352  -5.151  1.00 20.00    -0.270 NA
HETATM    3  S8  UNL     1     -34.368  15.855  -7.387  1.00 20.00    -0.055 SA
ENDROOT
BRANCH   2   4
HETATM    4  C6  UNL     1     -34.120  14.562  -3.987  1.00 20.00     0.109 C 
HETATM    5  C4  UNL     1     -32.679  14.313  -4.420  1.00 20.00     0.035 C 
BRANCH   4   6
HETATM    6  C5  UNL     1     -34.349  15.969  -3.397  1.00 20.00     0.002 C 
HETATM    7  C2  UNL     1     -33.015  16.685  -3.154  1.00 20.00     0.011 C 
HETATM    8  C3  UNL     1     -35.180  15.974  -2.111  1.00 20.00     0.011 C 
ENDBRANCH   4   6
ENDBRANCH   2   4
TORSDOF 2
ENDMDL
MODEL 7
REMARK VINA RESULT:      -3.4     11.453     11.964
REMARK  2 active torsions:
REMARK  status: ('A' for Active; 'I' for Inactive)
REMARK    1  A    between atoms: C5_5  and  C6_6 
REMARK    2  A    between atoms: C6_6  and  N7_7 
ROOT
HETATM    1  C1  UNL     1     -32.576  17.809  -1.914  1.00 20.00     0.158 C 
HETATM    2  N7  UNL     1     -33.110  17.327  -2.841  1.00 20.00    -0.270 NA
HETATM    3  S8  UNL     1     -31.838  18.487  -0.677  1.00 20.00    -0.055 SA
ENDROOT
BRANCH   2   4
HETATM    4  C6  UNL     1     -33.860  16.098  -2.548  1.00 20.00     0.109 C 
HETATM    5  C4  UNL     1     -35.074  16.472  -1.703  1.00 20.00     0.035 C 
BRANCH   4   6
HETATM    6  C5  UNL     1     -34.227  15.372  -3.858  1.00 20.00     0.002 C 
HETATM    7  C2  UNL     1     -35.489  14.521  -3.679  1.00 20.00     0.011 C 
HETATM    8  C3  UNL     1     -33.096  14.507  -4.424  1.00 20.00     0.011 C 
ENDBRANCH   4   6
ENDBRANCH   2   4
TORSDOF 2
ENDMDL
MODEL 8
REMARK VINA RESULT:      -3.3     11.750     12.277
REMARK  2 active torsions:
REMARK  status: ('A' for Active; 'I' for Inactive)
REMARK    1  A    between atoms: C5_5  and  C6_6 
REMARK    2  A    between atoms: C6_6  and  N7_7 
ROOT
HETATM    1  C1  UNL     1     -35.445  15.731  -6.452  1.00 20.00     0.158 C 
HETATM    2  N7  UNL     1     -34.745  15.562  -5.526  1.00 20.00    -0.270 NA
HETATM    3  S8  UNL     1     -36.366  15.967  -7.730  1.00 20.00    -0.055 SA
ENDROOT
BRANCH   2   4
HETATM    4  C6  UNL     1     -35.449  15.254  -4.274  1.00 20.00     0.109 C 
HETATM    5  C4  UNL     1     -36.084  13.874  -4.411  1.00 20.00     0.035 C 
BRANCH   4   6
HETATM    6  C5  UNL     1     -34.482  15.366  -3.077  1.00 20.00     0.002 C 
HETATM    7  C2  UNL     1     -35.111  16.171  -1.935  1.00 20.00     0.011 C 
HETATM    8  C3  UNL     1     -33.117  15.961  -3.438  1.00 20.00     0.011 C 
ENDBRANCH   4   6
ENDBRANCH   2   4
TORSDOF 2
ENDMDL
MODEL 9
REMARK VINA RESULT:      -3.3     11.288     12.156
REMARK  2 active torsions:
REMARK  status: ('A' for Active; 'I' for Inactive)
REMARK    1  A    between atoms: C5_5  and  C6_6 
REMARK    2  A    between atoms: C6_6  and  N7_7 
ROOT
HETATM    1  C1  UNL     1     -32.547  17.829  -1.974  1.00 20.00     0.158 C 
HETATM    2  N7  UNL     1     -33.039  17.350  -2.925  1.00 20.00    -0.270 NA
HETATM    3  S8  UNL     1     -31.866  18.506  -0.704  1.00 20.00    -0.055 SA
ENDROOT
BRANCH   2   4
HETATM    4  C6  UNL     1     -33.682  16.049  -2.693  1.00 20.00     0.109 C 
HETATM    5  C4  UNL     1     -34.967  16.287  -1.906  1.00 20.00     0.035 C 
BRANCH   4   6
HETATM    6  C5  UNL     1     -33.912  15.321  -4.034  1.00 20.00     0.002 C 
HETATM    7  C2  UNL     1     -34.469  16.281  -5.091  1.00 20.00     0.011 C 
HETATM    8  C3  UNL     1     -34.818  14.092  -3.923  1.00 20.00     0.011 C 
ENDBRANCH   4   6
ENDBRANCH   2   4
TORSDOF 2
ENDMDL
