MODEL 1
REMARK VINA RESULT:      -3.6      0.000      0.000
REMARK  0 active torsions:
REMARK  status: ('A' for Active; 'I' for Inactive)
ROOT
HETATM    1  C1  UNL     1     -23.499  18.510   9.716  1.00 20.00     0.018 A 
HETATM    2  C2  UNL     1     -22.728  17.278   9.311  1.00 20.00     0.018 A 
HETATM    3  C3  UNL     1     -23.223  17.424  10.735  1.00 20.00     0.083 A 
HETATM    4  C4  UNL     1     -24.848  18.764   9.133  1.00 20.00     0.012 C 
HETATM    5  C5  UNL     1     -21.293  17.396   8.927  1.00 20.00     0.012 C 
HETATM    6 BR6  UNL     1     -22.013  17.830  12.159  1.00 20.00    -0.072 Br
HETATM    7 BR7  UNL     1     -24.615  16.248  11.316  1.00 20.00    -0.072 Br
ENDROOT
TORSDOF 0
ENDMDL
MODEL 2
REMARK VINA RESULT:      -3.5      1.678      2.121
REMARK  0 active torsions:
REMARK  status: ('A' for Active; 'I' for Inactive)
ROOT
HETATM    1  C1  UNL     1     -25.123  18.692  11.459  1.00 20.00     0.018 A 
HETATM    2  C2  UNL     1     -24.618  18.130  10.153  1.00 20.00     0.018 A 
HETATM    3  C3  UNL     1     -24.173  17.513  11.463  1.00 20.00     0.083 A 
HETATM    4  C4  UNL     1     -26.570  18.580  11.801  1.00 20.00     0.012 C 
HETATM    5  C5  UNL     1     -23.723  18.953   9.290  1.00 20.00     0.012 C 
HETATM    6 BR6  UNL     1     -22.405  17.800  12.134  1.00 20.00    -0.072 Br
HETATM    7 BR7  UNL     1     -24.796  15.752  11.872  1.00 20.00    -0.072 Br
ENDROOT
TORSDOF 0
ENDMDL
MODEL 3
REMARK VINA RESULT:      -3.5     17.807     18.522
REMARK  0 active torsions:
REMARK  status: ('A' for Active; 'I' for Inactive)
ROOT
HETATM    1  C1  UNL     1     -34.785  15.503  -2.649  1.00 20.00     0.018 A 
HETATM    2  C2  UNL     1     -33.988  15.673  -3.919  1.00 20.00     0.018 A 
HETATM    3  C3  UNL     1     -35.494  15.529  -3.986  1.00 20.00     0.083 A 
HETATM    4  C4  UNL     1     -34.852  16.621  -1.663  1.00 20.00     0.012 C 
HETATM    5  C5  UNL     1     -33.044  14.602  -4.347  1.00 20.00     0.012 C 
HETATM    6 BR6  UNL     1     -36.300  13.905  -4.595  1.00 20.00    -0.072 Br
HETATM    7 BR7  UNL     1     -36.508  17.057  -4.531  1.00 20.00    -0.072 Br
ENDROOT
TORSDOF 0
ENDMDL
MODEL 4
REMARK VINA RESULT:      -3.4     17.801     18.557
REMARK  0 active torsions:
REMARK  status: ('A' for Active; 'I' for Inactive)
ROOT
HETATM    1  C1  UNL     1     -34.016  15.709  -3.886  1.00 20.00     0.018 A 
HETATM    2  C2  UNL     1     -34.806  15.523  -2.615  1.00 20.00     0.018 A 
HETATM    3  C3  UNL     1     -35.520  15.549  -3.951  1.00 20.00     0.083 A 
HETATM    4  C4  UNL     1     -33.059  14.651  -4.324  1.00 20.00     0.012 C 
HETATM    5  C5  UNL     1     -34.884  16.633  -1.623  1.00 20.00     0.012 C 
HETATM    6 BR6  UNL     1     -36.552  17.069  -4.484  1.00 20.00    -0.072 Br
HETATM    7 BR7  UNL     1     -36.309  13.920  -4.567  1.00 20.00    -0.072 Br
ENDROOT
TORSDOF 0
ENDMDL
MODEL 5
REMARK VINA RESULT:      -3.2     16.983     17.913
REMARK  0 active torsions:
REMARK  status: ('A' for Active; 'I' for Inactive)
ROOT
HETATM    1  C1  UNL     1     -33.320  15.678  -3.537  1.00 20.00     0.018 A 
HETATM    2  C2  UNL     1     -34.714  16.033  -3.082  1.00 20.00     0.018 A 
HETATM    3  C3  UNL     1     -33.972  16.954  -4.028  1.00 20.00     0.083 A 
HETATM    4  C4  UNL     1     -33.106  14.482  -4.402  1.00 20.00     0.012 C 
HETATM    5  C5  UNL     1     -34.964  16.359  -1.649  1.00 20.00     0.012 C 
HETATM    6 BR6  UNL     1     -33.246  18.614  -3.414  1.00 20.00    -0.072 Br
HETATM    7 BR7  UNL     1     -34.622  17.098  -5.820  1.00 20.00    -0.072 Br
ENDROOT
TORSDOF 0
ENDMDL
MODEL 6
REMARK VINA RESULT:      -3.1     16.631     17.824
REMARK  0 active torsions:
REMARK  status: ('A' for Active; 'I' for Inactive)
ROOT
HETATM    1  C1  UNL     1     -35.283  16.366  -2.447  1.00 20.00     0.018 A 
HETATM    2  C2  UNL     1     -34.224  15.468  -3.038  1.00 20.00     0.018 A 
HETATM    3  C3  UNL     1     -34.346  16.902  -3.509  1.00 20.00     0.083 A 
HETATM    4  C4  UNL     1     -35.204  16.757  -1.010  1.00 20.00     0.012 C 
HETATM    5  C5  UNL     1     -34.627  14.297  -3.868  1.00 20.00     0.012 C 
HETATM    6 BR6  UNL     1     -35.089  17.314  -5.223  1.00 20.00    -0.072 Br
HETATM    7 BR7  UNL     1     -32.934  18.109  -3.053  1.00 20.00    -0.072 Br
ENDROOT
TORSDOF 0
ENDMDL
MODEL 7
REMARK VINA RESULT:      -3.1     17.738     18.964
REMARK  0 active torsions:
REMARK  status: ('A' for Active; 'I' for Inactive)
ROOT
HETATM    1  C1  UNL     1     -34.296  15.843  -5.360  1.00 20.00     0.018 A 
HETATM    2  C2  UNL     1     -33.868  15.332  -4.006  1.00 20.00     0.018 A 
HETATM    3  C3  UNL     1     -35.340  15.413  -4.351  1.00 20.00     0.083 A 
HETATM    4  C4  UNL     1     -33.966  15.058  -6.584  1.00 20.00     0.012 C 
HETATM    5  C5  UNL     1     -33.201  16.256  -3.045  1.00 20.00     0.012 C 
HETATM    6 BR6  UNL     1     -36.455  16.770  -3.594  1.00 20.00    -0.072 Br
HETATM    7 BR7  UNL     1     -36.293  13.768  -4.565  1.00 20.00    -0.072 Br
ENDROOT
TORSDOF 0
ENDMDL
MODEL 8
REMARK VINA RESULT:      -3.0     17.793     19.131
REMARK  0 active torsions:
REMARK  status: ('A' for Active; 'I' for Inactive)
ROOT
HETATM    1  C1  UNL     1     -35.535  15.980  -3.325  1.00 20.00     0.018 A 
HETATM    2  C2  UNL     1     -35.999  14.631  -3.816  1.00 20.00     0.018 A 
HETATM    3  C3  UNL     1     -34.874  15.349  -4.533  1.00 20.00     0.083 A 
HETATM    4  C4  UNL     1     -34.872  16.094  -1.994  1.00 20.00     0.012 C 
HETATM    5  C5  UNL     1     -37.369  14.482  -4.386  1.00 20.00     0.012 C 
HETATM    6 BR6  UNL     1     -35.161  16.174  -6.234  1.00 20.00    -0.072 Br
HETATM    7 BR7  UNL     1     -33.121  14.595  -4.411  1.00 20.00    -0.072 Br
ENDROOT
TORSDOF 0
ENDMDL
MODEL 9
REMARK VINA RESULT:      -2.9     16.736     17.696
REMARK  0 active torsions:
REMARK  status: ('A' for Active; 'I' for Inactive)
ROOT
HETATM    1  C1  UNL     1     -35.223  15.483  -2.804  1.00 20.00     0.018 A 
HETATM    2  C2  UNL     1     -35.678  16.824  -3.324  1.00 20.00     0.018 A 
HETATM    3  C3  UNL     1     -34.717  16.754  -2.155  1.00 20.00     0.083 A 
HETATM    4  C4  UNL     1     -34.373  14.606  -3.662  1.00 20.00     0.012 C 
HETATM    5  C5  UNL     1     -37.107  17.224  -3.187  1.00 20.00     0.012 C 
HETATM    6 BR6  UNL     1     -35.306  17.136  -0.376  1.00 20.00    -0.072 Br
HETATM    7 BR7  UNL     1     -32.925  17.357  -2.440  1.00 20.00    -0.072 Br
ENDROOT
TORSDOF 0
ENDMDL
