MODEL 1
REMARK VINA RESULT:      -4.2      0.000      0.000
REMARK  3 active torsions:
REMARK  status: ('A' for Active; 'I' for Inactive)
REMARK    1  A    between atoms: C1_1  and  C3_3 
REMARK    2  A    between atoms: C1_1  and  N4_4 
REMARK    3  A    between atoms: C2_2  and  C3_3 
ROOT
HETATM    1  C1  UNL     1     -35.849  14.970  -4.429  1.00 20.00     0.222 C 
ENDROOT
BRANCH   1   2
HETATM    2  C3  UNL     1     -34.536  14.739  -3.688  1.00 20.00     0.120 C 
HETATM    3 CL8  UNL     1     -34.354  15.913  -2.340  1.00 20.00    -0.122 Cl
BRANCH   2   4
HETATM    4  C2  UNL     1     -33.315  14.804  -4.612  1.00 20.00     0.136 C 
HETATM    5 CL7  UNL     1     -33.734  14.874  -6.343  1.00 20.00    -0.129 Cl
ENDBRANCH   2   4
ENDBRANCH   1   2
BRANCH   1   6
HETATM    6  N4  UNL     1     -36.599  13.701  -4.475  1.00 20.00    -0.154 N 
HETATM    7  O5  UNL     1     -35.940  12.650  -4.542  1.00 20.00    -0.536 OA
HETATM    8  O6  UNL     1     -37.839  13.762  -4.428  1.00 20.00    -0.536 OA
ENDBRANCH   1   6
TORSDOF 3
ENDMDL
MODEL 2
REMARK VINA RESULT:      -4.2      0.031      1.102
REMARK  3 active torsions:
REMARK  status: ('A' for Active; 'I' for Inactive)
REMARK    1  A    between atoms: C1_1  and  C3_3 
REMARK    2  A    between atoms: C1_1  and  N4_4 
REMARK    3  A    between atoms: C2_2  and  C3_3 
ROOT
HETATM    1  C1  UNL     1     -35.865  14.988  -4.399  1.00 20.00     0.222 C 
ENDROOT
BRANCH   1   2
HETATM    2  C3  UNL     1     -34.549  14.762  -3.663  1.00 20.00     0.120 C 
HETATM    3 CL8  UNL     1     -34.368  15.932  -2.312  1.00 20.00    -0.122 Cl
BRANCH   2   4
HETATM    4  C2  UNL     1     -33.331  14.835  -4.590  1.00 20.00     0.136 C 
HETATM    5 CL7  UNL     1     -33.755  14.875  -6.321  1.00 20.00    -0.129 Cl
ENDBRANCH   2   4
ENDBRANCH   1   2
BRANCH   1   6
HETATM    6  N4  UNL     1     -36.603  13.713  -4.459  1.00 20.00    -0.154 N 
HETATM    7  O5  UNL     1     -37.844  13.769  -4.435  1.00 20.00    -0.536 OA
HETATM    8  O6  UNL     1     -35.940  12.666  -4.544  1.00 20.00    -0.536 OA
ENDBRANCH   1   6
TORSDOF 3
ENDMDL
MODEL 3
REMARK VINA RESULT:      -4.2      1.619      1.619
REMARK  3 active torsions:
REMARK  status: ('A' for Active; 'I' for Inactive)
REMARK    1  A    between atoms: C1_1  and  C3_3 
REMARK    2  A    between atoms: C1_1  and  N4_4 
REMARK    3  A    between atoms: C2_2  and  C3_3 
ROOT
HETATM    1  C1  UNL     1     -35.522  14.839  -4.657  1.00 20.00     0.222 C 
ENDROOT
BRANCH   1   2
HETATM    2  C3  UNL     1     -34.609  14.950  -3.441  1.00 20.00     0.120 C 
HETATM    3 CL8  UNL     1     -35.396  15.911  -2.142  1.00 20.00    -0.122 Cl
BRANCH   2   4
HETATM    4  C2  UNL     1     -33.239  15.546  -3.781  1.00 20.00     0.136 C 
HETATM    5 CL7  UNL     1     -32.775  16.909  -2.731  1.00 20.00    -0.129 Cl
ENDBRANCH   2   4
ENDBRANCH   1   2
BRANCH   1   6
HETATM    6  N4  UNL     1     -36.344  13.620  -4.526  1.00 20.00    -0.154 N 
HETATM    7  O5  UNL     1     -35.746  12.534  -4.446  1.00 20.00    -0.536 OA
HETATM    8  O6  UNL     1     -37.578  13.758  -4.488  1.00 20.00    -0.536 OA
ENDBRANCH   1   6
TORSDOF 3
ENDMDL
MODEL 4
REMARK VINA RESULT:      -3.9      1.673      2.380
REMARK  3 active torsions:
REMARK  status: ('A' for Active; 'I' for Inactive)
REMARK    1  A    between atoms: C1_1  and  C3_3 
REMARK    2  A    between atoms: C1_1  and  N4_4 
REMARK    3  A    between atoms: C2_2  and  C3_3 
ROOT
HETATM    1  C1  UNL     1     -35.527  14.829  -4.519  1.00 20.00     0.222 C 
ENDROOT
BRANCH   1   2
HETATM    2  C3  UNL     1     -35.963  15.760  -3.393  1.00 20.00     0.120 C 
HETATM    3 CL8  UNL     1     -36.389  17.382  -4.039  1.00 20.00    -0.122 Cl
BRANCH   2   4
HETATM    4  C2  UNL     1     -34.906  15.893  -2.292  1.00 20.00     0.136 C 
HETATM    5 CL7  UNL     1     -33.274  16.256  -2.911  1.00 20.00    -0.129 Cl
ENDBRANCH   2   4
ENDBRANCH   1   2
BRANCH   1   6
HETATM    6  N4  UNL     1     -36.359  13.611  -4.478  1.00 20.00    -0.154 N 
HETATM    7  O5  UNL     1     -37.592  13.761  -4.474  1.00 20.00    -0.536 OA
HETATM    8  O6  UNL     1     -35.775  12.514  -4.467  1.00 20.00    -0.536 OA
ENDBRANCH   1   6
TORSDOF 3
ENDMDL
MODEL 5
REMARK VINA RESULT:      -3.9     18.898     19.460
REMARK  3 active torsions:
REMARK  status: ('A' for Active; 'I' for Inactive)
REMARK    1  A    between atoms: C1_1  and  C3_3 
REMARK    2  A    between atoms: C1_1  and  N4_4 
REMARK    3  A    between atoms: C2_2  and  C3_3 
ROOT
HETATM    1  C1  UNL     1     -22.691  17.093   9.532  1.00 20.00     0.222 C 
ENDROOT
BRANCH   1   2
HETATM    2  C3  UNL     1     -23.276  17.825  10.735  1.00 20.00     0.120 C 
HETATM    3 CL8  UNL     1     -22.161  17.726  12.140  1.00 20.00    -0.122 Cl
BRANCH   2   4
HETATM    4  C2  UNL     1     -24.664  17.306  11.126  1.00 20.00     0.136 C 
HETATM    5 CL7  UNL     1     -24.660  15.616  11.690  1.00 20.00    -0.129 Cl
ENDBRANCH   2   4
ENDBRANCH   1   2
BRANCH   1   6
HETATM    6  N4  UNL     1     -22.252  18.089   8.536  1.00 20.00    -0.154 N 
HETATM    7  O5  UNL     1     -21.904  19.204   8.959  1.00 20.00    -0.536 OA
HETATM    8  O6  UNL     1     -22.243  17.747   7.342  1.00 20.00    -0.536 OA
ENDBRANCH   1   6
TORSDOF 3
ENDMDL
MODEL 6
REMARK VINA RESULT:      -3.9     11.374     11.786
REMARK  3 active torsions:
REMARK  status: ('A' for Active; 'I' for Inactive)
REMARK    1  A    between atoms: C1_1  and  C3_3 
REMARK    2  A    between atoms: C1_1  and  N4_4 
REMARK    3  A    between atoms: C2_2  and  C3_3 
ROOT
HETATM    1  C1  UNL     1     -33.691   6.527   4.544  1.00 20.00     0.222 C 
ENDROOT
BRANCH   1   2
HETATM    2  C3  UNL     1     -33.451   6.391   3.045  1.00 20.00     0.120 C 
HETATM    3 CL8  UNL     1     -33.141   4.676   2.605  1.00 20.00    -0.122 Cl
BRANCH   2   4
HETATM    4  C2  UNL     1     -32.306   7.278   2.545  1.00 20.00     0.136 C 
HETATM    5 CL7  UNL     1     -32.708   8.200   1.074  1.00 20.00    -0.129 Cl
ENDBRANCH   2   4
ENDBRANCH   1   2
BRANCH   1   6
HETATM    6  N4  UNL     1     -34.761   5.593   4.942  1.00 20.00    -0.154 N 
HETATM    7  O5  UNL     1     -34.622   4.990   6.019  1.00 20.00    -0.536 OA
HETATM    8  O6  UNL     1     -35.740   5.481   4.185  1.00 20.00    -0.536 OA
ENDBRANCH   1   6
TORSDOF 3
ENDMDL
MODEL 7
REMARK VINA RESULT:      -3.8     18.863     19.446
REMARK  3 active torsions:
REMARK  status: ('A' for Active; 'I' for Inactive)
REMARK    1  A    between atoms: C1_1  and  C3_3 
REMARK    2  A    between atoms: C1_1  and  N4_4 
REMARK    3  A    between atoms: C2_2  and  C3_3 
ROOT
HETATM    1  C1  UNL     1     -22.924  17.146   9.497  1.00 20.00     0.222 C 
ENDROOT
BRANCH   1   2
HETATM    2  C3  UNL     1     -23.387  17.916  10.729  1.00 20.00     0.120 C 
HETATM    3 CL8  UNL     1     -22.235  17.689  12.089  1.00 20.00    -0.122 Cl
BRANCH   2   4
HETATM    4  C2  UNL     1     -24.804  17.534  11.169  1.00 20.00     0.136 C 
HETATM    5 CL7  UNL     1     -25.642  18.822  12.072  1.00 20.00    -0.129 Cl
ENDBRANCH   2   4
ENDBRANCH   1   2
BRANCH   1   6
HETATM    6  N4  UNL     1     -22.321  18.094   8.541  1.00 20.00    -0.154 N 
HETATM    7  O5  UNL     1     -22.310  17.767   7.343  1.00 20.00    -0.536 OA
HETATM    8  O6  UNL     1     -21.877  19.163   8.991  1.00 20.00    -0.536 OA
ENDBRANCH   1   6
TORSDOF 3
ENDMDL
MODEL 8
REMARK VINA RESULT:      -3.6      1.452      2.442
REMARK  3 active torsions:
REMARK  status: ('A' for Active; 'I' for Inactive)
REMARK    1  A    between atoms: C1_1  and  C3_3 
REMARK    2  A    between atoms: C1_1  and  N4_4 
REMARK    3  A    between atoms: C2_2  and  C3_3 
ROOT
HETATM    1  C1  UNL     1     -35.747  14.810  -4.033  1.00 20.00     0.222 C 
ENDROOT
BRANCH   1   2
HETATM    2  C3  UNL     1     -34.525  15.609  -4.473  1.00 20.00     0.120 C 
HETATM    3 CL8  UNL     1     -33.031  14.624  -4.307  1.00 20.00    -0.122 Cl
BRANCH   2   4
HETATM    4  C2  UNL     1     -34.373  16.929  -3.709  1.00 20.00     0.136 C 
HETATM    5 CL7  UNL     1     -33.832  16.719  -2.024  1.00 20.00    -0.129 Cl
ENDBRANCH   2   4
ENDBRANCH   1   2
BRANCH   1   6
HETATM    6  N4  UNL     1     -35.896  13.641  -4.920  1.00 20.00    -0.154 N 
HETATM    7  O5  UNL     1     -36.073  13.861  -6.129  1.00 20.00    -0.536 OA
HETATM    8  O6  UNL     1     -35.820  12.513  -4.405  1.00 20.00    -0.536 OA
ENDBRANCH   1   6
TORSDOF 3
ENDMDL
MODEL 9
REMARK VINA RESULT:      -3.6     11.315     12.008
REMARK  3 active torsions:
REMARK  status: ('A' for Active; 'I' for Inactive)
REMARK    1  A    between atoms: C1_1  and  C3_3 
REMARK    2  A    between atoms: C1_1  and  N4_4 
REMARK    3  A    between atoms: C2_2  and  C3_3 
ROOT
HETATM    1  C1  UNL     1     -33.068   6.031   2.943  1.00 20.00     0.222 C 
ENDROOT
BRANCH   1   2
HETATM    2  C3  UNL     1     -34.132   6.407   3.969  1.00 20.00     0.120 C 
HETATM    3 CL8  UNL     1     -33.378   7.145   5.423  1.00 20.00    -0.122 Cl
BRANCH   2   4
HETATM    4  C2  UNL     1     -35.008   5.217   4.377  1.00 20.00     0.136 C 
HETATM    5 CL7  UNL     1     -34.971   4.871   6.124  1.00 20.00    -0.129 Cl
ENDBRANCH   2   4
ENDBRANCH   1   2
BRANCH   1   6
HETATM    6  N4  UNL     1     -32.343   7.251   2.541  1.00 20.00    -0.154 N 
HETATM    7  O5  UNL     1     -31.415   7.632   3.273  1.00 20.00    -0.536 OA
HETATM    8  O6  UNL     1     -32.695   7.811   1.489  1.00 20.00    -0.536 OA
ENDBRANCH   1   6
TORSDOF 3
ENDMDL
