MODEL 1
REMARK VINA RESULT:      -4.7      0.000      0.000
REMARK  0 active torsions:
REMARK  status: ('A' for Active; 'I' for Inactive)
ROOT
HETATM    1  C1  UNL     1     -36.378  14.093  -4.177  1.00 20.00     0.064 C 
HETATM    2  C2  UNL     1     -34.385  17.102  -4.556  1.00 20.00     0.005 C 
HETATM    3  C3  UNL     1     -34.481  15.955  -5.571  1.00 20.00     0.006 C 
HETATM    4  C4  UNL     1     -34.947  15.529  -2.694  1.00 20.00     0.024 C 
HETATM    5  C5  UNL     1     -32.897  15.359  -3.909  1.00 20.00     0.010 C 
HETATM    6  C6  UNL     1     -35.025  14.339  -3.670  1.00 20.00     0.097 C 
HETATM    7  C7  UNL     1     -33.835  16.405  -3.302  1.00 20.00    -0.013 C 
HETATM    8  C8  UNL     1     -34.004  14.731  -4.762  1.00 20.00     0.003 C 
HETATM    9  N9  UNL     1     -37.449  13.898  -4.580  1.00 20.00    -0.197 NA
ENDROOT
TORSDOF 0
ENDMDL
MODEL 2
REMARK VINA RESULT:      -4.6      1.020      1.929
REMARK  0 active torsions:
REMARK  status: ('A' for Active; 'I' for Inactive)
ROOT
HETATM    1  C1  UNL     1     -36.950  14.439  -4.505  1.00 20.00     0.064 C 
HETATM    2  C2  UNL     1     -34.943  16.127  -1.997  1.00 20.00     0.005 C 
HETATM    3  C3  UNL     1     -36.047  16.771  -2.847  1.00 20.00     0.006 C 
HETATM    4  C4  UNL     1     -34.547  14.412  -3.775  1.00 20.00     0.024 C 
HETATM    5  C5  UNL     1     -34.047  16.723  -4.120  1.00 20.00     0.010 C 
HETATM    6  C6  UNL     1     -35.626  15.042  -4.678  1.00 20.00     0.097 C 
HETATM    7  C7  UNL     1     -33.943  15.632  -3.053  1.00 20.00    -0.013 C 
HETATM    8  C8  UNL     1     -35.559  16.537  -4.291  1.00 20.00     0.003 C 
HETATM    9  N9  UNL     1     -37.999  13.962  -4.369  1.00 20.00    -0.197 NA
ENDROOT
TORSDOF 0
ENDMDL
MODEL 3
REMARK VINA RESULT:      -4.4     10.486     11.798
REMARK  0 active torsions:
REMARK  status: ('A' for Active; 'I' for Inactive)
ROOT
HETATM    1  C1  UNL     1     -42.312   5.165  -1.439  1.00 20.00     0.064 C 
HETATM    2  C2  UNL     1     -43.332   8.123   0.400  1.00 20.00     0.005 C 
HETATM    3  C3  UNL     1     -43.355   7.962  -1.127  1.00 20.00     0.006 C 
HETATM    4  C4  UNL     1     -41.498   6.431   0.571  1.00 20.00     0.024 C 
HETATM    5  C5  UNL     1     -41.157   8.557  -0.464  1.00 20.00     0.010 C 
HETATM    6  C6  UNL     1     -41.461   6.257  -0.959  1.00 20.00     0.097 C 
HETATM    7  C7  UNL     1     -41.848   7.921   0.744  1.00 20.00    -0.013 C 
HETATM    8  C8  UNL     1     -41.882   7.654  -1.468  1.00 20.00     0.003 C 
HETATM    9  N9  UNL     1     -42.987   4.301  -1.820  1.00 20.00    -0.197 NA
ENDROOT
TORSDOF 0
ENDMDL
MODEL 4
REMARK VINA RESULT:      -4.4     10.481     11.914
REMARK  0 active torsions:
REMARK  status: ('A' for Active; 'I' for Inactive)
ROOT
HETATM    1  C1  UNL     1     -42.018   9.196   0.238  1.00 20.00     0.064 C 
HETATM    2  C2  UNL     1     -41.075   5.753  -0.415  1.00 20.00     0.005 C 
HETATM    3  C3  UNL     1     -41.190   6.868  -1.465  1.00 20.00     0.006 C 
HETATM    4  C4  UNL     1     -42.735   6.927   1.042  1.00 20.00     0.024 C 
HETATM    5  C5  UNL     1     -43.354   5.985  -1.064  1.00 20.00     0.010 C 
HETATM    6  C6  UNL     1     -42.907   8.054   0.006  1.00 20.00     0.097 C 
HETATM    7  C7  UNL     1     -42.496   5.683   0.166  1.00 20.00    -0.013 C 
HETATM    8  C8  UNL     1     -42.657   7.323  -1.333  1.00 20.00     0.003 C 
HETATM    9  N9  UNL     1     -41.314  10.100   0.421  1.00 20.00    -0.197 NA
ENDROOT
TORSDOF 0
ENDMDL
MODEL 5
REMARK VINA RESULT:      -4.4     10.078     11.993
REMARK  0 active torsions:
REMARK  status: ('A' for Active; 'I' for Inactive)
ROOT
HETATM    1  C1  UNL     1     -41.466   9.005  -0.240  1.00 20.00     0.064 C 
HETATM    2  C2  UNL     1     -43.417   6.031   0.479  1.00 20.00     0.005 C 
HETATM    3  C3  UNL     1     -42.008   6.331   1.010  1.00 20.00     0.006 C 
HETATM    4  C4  UNL     1     -42.994   7.476  -1.518  1.00 20.00     0.024 C 
HETATM    5  C5  UNL     1     -41.814   5.428  -1.174  1.00 20.00     0.010 C 
HETATM    6  C6  UNL     1     -41.561   7.783  -1.043  1.00 20.00     0.097 C 
HETATM    7  C7  UNL     1     -43.216   6.027  -1.044  1.00 20.00    -0.013 C 
HETATM    8  C8  UNL     1     -41.176   6.495  -0.279  1.00 20.00     0.003 C 
HETATM    9  N9  UNL     1     -41.389   9.972   0.396  1.00 20.00    -0.197 NA
ENDROOT
TORSDOF 0
ENDMDL
MODEL 6
REMARK VINA RESULT:      -4.3      0.945      1.885
REMARK  0 active torsions:
REMARK  status: ('A' for Active; 'I' for Inactive)
ROOT
HETATM    1  C1  UNL     1     -37.253  14.769  -4.089  1.00 20.00     0.064 C 
HETATM    2  C2  UNL     1     -33.755  14.918  -5.042  1.00 20.00     0.005 C 
HETATM    3  C3  UNL     1     -34.338  14.083  -3.893  1.00 20.00     0.006 C 
HETATM    4  C4  UNL     1     -35.646  16.543  -4.848  1.00 20.00     0.024 C 
HETATM    5  C5  UNL     1     -34.012  16.302  -3.123  1.00 20.00     0.010 C 
HETATM    6  C6  UNL     1     -36.254  15.756  -3.671  1.00 20.00     0.097 C 
HETATM    7  C7  UNL     1     -34.131  16.355  -4.647  1.00 20.00    -0.013 C 
HETATM    8  C8  UNL     1     -35.007  15.144  -2.995  1.00 20.00     0.003 C 
HETATM    9  N9  UNL     1     -38.044  13.986  -4.419  1.00 20.00    -0.197 NA
ENDROOT
TORSDOF 0
ENDMDL
MODEL 7
REMARK VINA RESULT:      -4.3     18.065     19.050
REMARK  0 active torsions:
REMARK  status: ('A' for Active; 'I' for Inactive)
ROOT
HETATM    1  C1  UNL     1     -22.390  17.344   8.900  1.00 20.00     0.064 C 
HETATM    2  C2  UNL     1     -23.913  16.137  11.965  1.00 20.00     0.005 C 
HETATM    3  C3  UNL     1     -24.654  16.454  10.659  1.00 20.00     0.006 C 
HETATM    4  C4  UNL     1     -22.110  17.762  11.361  1.00 20.00     0.024 C 
HETATM    5  C5  UNL     1     -24.336  18.477  11.854  1.00 20.00     0.010 C 
HETATM    6  C6  UNL     1     -22.831  18.136  10.052  1.00 20.00     0.097 C 
HETATM    7  C7  UNL     1     -23.274  17.485  12.332  1.00 20.00    -0.013 C 
HETATM    8  C8  UNL     1     -24.320  17.940  10.419  1.00 20.00     0.003 C 
HETATM    9  N9  UNL     1     -22.043  16.716   7.988  1.00 20.00    -0.197 NA
ENDROOT
TORSDOF 0
ENDMDL
MODEL 8
REMARK VINA RESULT:      -4.3     17.659     18.680
REMARK  0 active torsions:
REMARK  status: ('A' for Active; 'I' for Inactive)
ROOT
HETATM    1  C1  UNL     1     -24.092  18.573   8.862  1.00 20.00     0.064 C 
HETATM    2  C2  UNL     1     -23.118  18.140  12.331  1.00 20.00     0.005 C 
HETATM    3  C3  UNL     1     -22.521  17.393  11.130  1.00 20.00     0.006 C 
HETATM    4  C4  UNL     1     -25.260  18.474  11.083  1.00 20.00     0.024 C 
HETATM    5  C5  UNL     1     -24.529  16.306  11.770  1.00 20.00     0.010 C 
HETATM    6  C6  UNL     1     -24.716  17.705   9.863  1.00 20.00     0.097 C 
HETATM    7  C7  UNL     1     -24.603  17.749  12.273  1.00 20.00    -0.013 C 
HETATM    8  C8  UNL     1     -23.746  16.690  10.510  1.00 20.00     0.003 C 
HETATM    9  N9  UNL     1     -23.597  19.260   8.068  1.00 20.00    -0.197 NA
ENDROOT
TORSDOF 0
ENDMDL
MODEL 9
REMARK VINA RESULT:      -4.2     10.840     11.967
REMARK  0 active torsions:
REMARK  status: ('A' for Active; 'I' for Inactive)
ROOT
HETATM    1  C1  UNL     1     -42.992   5.476   0.948  1.00 20.00     0.064 C 
HETATM    2  C2  UNL     1     -42.328   7.988  -1.585  1.00 20.00     0.005 C 
HETATM    3  C3  UNL     1     -41.372   6.863  -1.163  1.00 20.00     0.006 C 
HETATM    4  C4  UNL     1     -43.417   7.934   0.665  1.00 20.00     0.024 C 
HETATM    5  C5  UNL     1     -41.157   8.654   0.378  1.00 20.00     0.010 C 
HETATM    6  C6  UNL     1     -42.461   6.827   1.147  1.00 20.00     0.097 C 
HETATM    7  C7  UNL     1     -42.534   8.771  -0.280  1.00 20.00    -0.013 C 
HETATM    8  C8  UNL     1     -41.173   7.122   0.345  1.00 20.00     0.003 C 
HETATM    9  N9  UNL     1     -43.412   4.405   0.790  1.00 20.00    -0.197 NA
ENDROOT
TORSDOF 0
ENDMDL
