MODEL 1
REMARK VINA RESULT:      -4.6      0.000      0.000
REMARK  2 active torsions:
REMARK  status: ('A' for Active; 'I' for Inactive)
REMARK    1  A    between atoms: C7_7  and  C8_8 
REMARK    2  A    between atoms: C9_9  and  C10_10 
ROOT
HETATM    1  C1  UNL     1     -38.159  16.194  -5.017  1.00 20.00     0.047 C 
HETATM    2  C2  UNL     1     -37.552  17.263  -4.458  1.00 20.00    -0.017 C 
HETATM    3  C5  UNL     1     -37.497  14.997  -4.393  1.00 20.00     0.154 C 
HETATM    4  C7  UNL     1     -36.742  16.828  -3.285  1.00 20.00     0.028 C 
HETATM    5  C10 UNL     1     -36.203  15.491  -3.847  1.00 20.00     0.075 C 
HETATM    6  O11 UNL     1     -37.905  13.853  -4.437  1.00 20.00    -0.293 OA
ENDROOT
BRANCH   5   7
HETATM    7  C9  UNL     1     -35.138  15.103  -2.834  1.00 20.00     0.021 C 
HETATM    8  C4  UNL     1     -34.019  16.106  -2.671  1.00 20.00    -0.025 C 
HETATM    9  C3  UNL     1     -33.314  16.129  -3.819  1.00 20.00    -0.025 C 
HETATM   10  C8  UNL     1     -34.044  15.230  -4.818  1.00 20.00     0.017 C 
HETATM   11  C6  UNL     1     -34.381  14.133  -3.794  1.00 20.00     0.018 C 
ENDBRANCH   5   7
TORSDOF 2
ENDMDL
MODEL 2
REMARK VINA RESULT:      -4.4      1.971      2.553
REMARK  2 active torsions:
REMARK  status: ('A' for Active; 'I' for Inactive)
REMARK    1  A    between atoms: C7_7  and  C8_8 
REMARK    2  A    between atoms: C9_9  and  C10_10 
ROOT
HETATM    1  C1  UNL     1     -35.842  15.758  -6.909  1.00 20.00     0.047 C 
HETATM    2  C2  UNL     1     -36.807  15.931  -5.980  1.00 20.00    -0.017 C 
HETATM    3  C5  UNL     1     -34.672  15.189  -6.157  1.00 20.00     0.154 C 
HETATM    4  C7  UNL     1     -36.431  15.225  -4.723  1.00 20.00     0.028 C 
HETATM    5  C10 UNL     1     -34.912  15.522  -4.725  1.00 20.00     0.075 C 
HETATM    6  O11 UNL     1     -33.692  14.667  -6.651  1.00 20.00    -0.293 OA
ENDROOT
BRANCH   5   7
HETATM    7  C9  UNL     1     -34.479  15.084  -3.335  1.00 20.00     0.021 C 
HETATM    8  C4  UNL     1     -35.001  15.942  -2.206  1.00 20.00    -0.025 C 
HETATM    9  C3  UNL     1     -34.422  17.154  -2.307  1.00 20.00    -0.025 C 
HETATM   10  C8  UNL     1     -33.602  17.159  -3.597  1.00 20.00     0.017 C 
HETATM   11  C6  UNL     1     -33.062  15.730  -3.421  1.00 20.00     0.018 C 
ENDBRANCH   5   7
TORSDOF 2
ENDMDL
MODEL 3
REMARK VINA RESULT:      -4.4     17.929     19.186
REMARK  2 active torsions:
REMARK  status: ('A' for Active; 'I' for Inactive)
REMARK    1  A    between atoms: C7_7  and  C8_8 
REMARK    2  A    between atoms: C9_9  and  C10_10 
ROOT
HETATM    1  C1  UNL     1     -22.139  17.461   7.612  1.00 20.00     0.047 C 
HETATM    2  C2  UNL     1     -21.303  17.032   8.582  1.00 20.00    -0.017 C 
HETATM    3  C5  UNL     1     -23.185  18.271   8.326  1.00 20.00     0.154 C 
HETATM    4  C7  UNL     1     -21.578  17.768   9.848  1.00 20.00     0.028 C 
HETATM    5  C10 UNL     1     -23.120  17.845   9.751  1.00 20.00     0.075 C 
HETATM    6  O11 UNL     1     -23.979  19.028   7.805  1.00 20.00    -0.293 OA
ENDROOT
BRANCH   5   7
HETATM    7  C9  UNL     1     -23.522  18.330  11.136  1.00 20.00     0.021 C 
HETATM    8  C4  UNL     1     -23.136  17.409  12.270  1.00 20.00    -0.025 C 
HETATM    9  C3  UNL     1     -23.861  16.280  12.150  1.00 20.00    -0.025 C 
HETATM   10  C8  UNL     1     -24.649  16.382  10.845  1.00 20.00     0.017 C 
HETATM   11  C6  UNL     1     -25.007  17.868  11.018  1.00 20.00     0.018 C 
ENDBRANCH   5   7
TORSDOF 2
ENDMDL
MODEL 4
REMARK VINA RESULT:      -4.4      1.545      1.622
REMARK  2 active torsions:
REMARK  status: ('A' for Active; 'I' for Inactive)
REMARK    1  A    between atoms: C7_7  and  C8_8 
REMARK    2  A    between atoms: C9_9  and  C10_10 
ROOT
HETATM    1  C1  UNL     1     -36.516  16.399  -6.833  1.00 20.00     0.047 C 
HETATM    2  C2  UNL     1     -36.806  17.270  -5.843  1.00 20.00    -0.017 C 
HETATM    3  C5  UNL     1     -36.085  15.140  -6.134  1.00 20.00     0.154 C 
HETATM    4  C7  UNL     1     -36.875  16.550  -4.540  1.00 20.00     0.028 C 
HETATM    5  C10 UNL     1     -35.709  15.554  -4.754  1.00 20.00     0.075 C 
HETATM    6  O11 UNL     1     -35.970  14.044  -6.646  1.00 20.00    -0.293 OA
ENDROOT
BRANCH   5   7
HETATM    7  C9  UNL     1     -35.513  14.960  -3.368  1.00 20.00     0.021 C 
HETATM    8  C4  UNL     1     -34.948  15.913  -2.341  1.00 20.00    -0.025 C 
HETATM    9  C3  UNL     1     -33.683  16.205  -2.699  1.00 20.00    -0.025 C 
HETATM   10  C8  UNL     1     -33.433  15.547  -4.056  1.00 20.00     0.017 C 
HETATM   11  C6  UNL     1     -34.172  14.242  -3.714  1.00 20.00     0.018 C 
ENDBRANCH   5   7
TORSDOF 2
ENDMDL
MODEL 5
REMARK VINA RESULT:      -4.2      1.878      3.786
REMARK  2 active torsions:
REMARK  status: ('A' for Active; 'I' for Inactive)
REMARK    1  A    between atoms: C7_7  and  C8_8 
REMARK    2  A    between atoms: C9_9  and  C10_10 
ROOT
HETATM    1  C1  UNL     1     -33.399  16.835  -2.328  1.00 20.00     0.047 C 
HETATM    2  C2  UNL     1     -32.943  16.144  -3.395  1.00 20.00    -0.017 C 
HETATM    3  C5  UNL     1     -34.788  16.314  -2.088  1.00 20.00     0.154 C 
HETATM    4  C7  UNL     1     -33.846  14.992  -3.674  1.00 20.00     0.028 C 
HETATM    5  C10 UNL     1     -35.203  15.669  -3.365  1.00 20.00     0.075 C 
HETATM    6  O11 UNL     1     -35.454  16.493  -1.088  1.00 20.00    -0.293 OA
ENDROOT
BRANCH   5   7
HETATM    7  C9  UNL     1     -36.211  14.661  -3.892  1.00 20.00     0.021 C 
HETATM    8  C4  UNL     1     -36.074  14.330  -5.360  1.00 20.00    -0.025 C 
HETATM    9  C3  UNL     1     -36.392  15.434  -6.063  1.00 20.00    -0.025 C 
HETATM   10  C8  UNL     1     -36.618  16.563  -5.059  1.00 20.00     0.017 C 
HETATM   11  C6  UNL     1     -37.372  15.692  -4.041  1.00 20.00     0.018 C 
ENDBRANCH   5   7
TORSDOF 2
ENDMDL
MODEL 6
REMARK VINA RESULT:      -4.1      1.941      3.434
REMARK  2 active torsions:
REMARK  status: ('A' for Active; 'I' for Inactive)
REMARK    1  A    between atoms: C7_7  and  C8_8 
REMARK    2  A    between atoms: C9_9  and  C10_10 
ROOT
HETATM    1  C1  UNL     1     -35.153  15.474  -2.739  1.00 20.00     0.047 C 
HETATM    2  C2  UNL     1     -33.894  15.579  -3.216  1.00 20.00    -0.017 C 
HETATM    3  C5  UNL     1     -35.960  14.918  -3.879  1.00 20.00     0.154 C 
HETATM    4  C7  UNL     1     -33.779  14.841  -4.506  1.00 20.00     0.028 C 
HETATM    5  C10 UNL     1     -35.162  15.191  -5.107  1.00 20.00     0.075 C 
HETATM    6  O11 UNL     1     -37.077  14.449  -3.800  1.00 20.00    -0.293 OA
ENDROOT
BRANCH   5   7
HETATM    7  C9  UNL     1     -35.034  14.718  -6.546  1.00 20.00     0.021 C 
HETATM    8  C4  UNL     1     -33.948  15.399  -7.346  1.00 20.00    -0.025 C 
HETATM    9  C3  UNL     1     -34.302  16.689  -7.509  1.00 20.00    -0.025 C 
HETATM   10  C8  UNL     1     -35.577  16.915  -6.696  1.00 20.00     0.017 C 
HETATM   11  C6  UNL     1     -36.224  15.574  -7.080  1.00 20.00     0.018 C 
ENDBRANCH   5   7
TORSDOF 2
ENDMDL
MODEL 7
REMARK VINA RESULT:      -4.1      2.095      3.715
REMARK  2 active torsions:
REMARK  status: ('A' for Active; 'I' for Inactive)
REMARK    1  A    between atoms: C7_7  and  C8_8 
REMARK    2  A    between atoms: C9_9  and  C10_10 
ROOT
HETATM    1  C1  UNL     1     -33.839  18.282  -1.564  1.00 20.00     0.047 C 
HETATM    2  C2  UNL     1     -32.933  18.064  -2.542  1.00 20.00    -0.017 C 
HETATM    3  C5  UNL     1     -34.645  17.016  -1.488  1.00 20.00     0.154 C 
HETATM    4  C7  UNL     1     -32.912  16.617  -2.899  1.00 20.00     0.028 C 
HETATM    5  C10 UNL     1     -34.427  16.320  -2.787  1.00 20.00     0.075 C 
HETATM    6  O11 UNL     1     -35.398  16.703  -0.587  1.00 20.00    -0.293 OA
ENDROOT
BRANCH   5   7
HETATM    7  C9  UNL     1     -34.547  14.937  -3.406  1.00 20.00     0.021 C 
HETATM    8  C4  UNL     1     -34.094  14.842  -4.844  1.00 20.00    -0.025 C 
HETATM    9  C3  UNL     1     -34.952  15.558  -5.597  1.00 20.00    -0.025 C 
HETATM   10  C8  UNL     1     -35.920  16.255  -4.641  1.00 20.00     0.017 C 
HETATM   11  C6  UNL     1     -36.075  15.049  -3.699  1.00 20.00     0.018 C 
ENDBRANCH   5   7
TORSDOF 2
ENDMDL
MODEL 8
REMARK VINA RESULT:      -4.1      3.571      5.204
REMARK  2 active torsions:
REMARK  status: ('A' for Active; 'I' for Inactive)
REMARK    1  A    between atoms: C7_7  and  C8_8 
REMARK    2  A    between atoms: C9_9  and  C10_10 
ROOT
HETATM    1  C1  UNL     1     -32.131  18.527   0.171  1.00 20.00     0.047 C 
HETATM    2  C2  UNL     1     -33.316  18.101   0.661  1.00 20.00    -0.017 C 
HETATM    3  C5  UNL     1     -32.350  18.677  -1.309  1.00 20.00     0.154 C 
HETATM    4  C7  UNL     1     -34.376  18.255  -0.375  1.00 20.00     0.028 C 
HETATM    5  C10 UNL     1     -33.552  17.856  -1.623  1.00 20.00     0.075 C 
HETATM    6  O11 UNL     1     -31.619  19.263  -2.081  1.00 20.00    -0.293 OA
ENDROOT
BRANCH   5   7
HETATM    7  C9  UNL     1     -34.617  17.707  -2.698  1.00 20.00     0.021 C 
HETATM    8  C4  UNL     1     -35.406  16.420  -2.639  1.00 20.00    -0.025 C 
HETATM    9  C3  UNL     1     -34.568  15.408  -2.938  1.00 20.00    -0.025 C 
HETATM   10  C8  UNL     1     -33.166  16.003  -3.069  1.00 20.00     0.017 C 
HETATM   11  C6  UNL     1     -33.624  17.266  -3.817  1.00 20.00     0.018 C 
ENDBRANCH   5   7
TORSDOF 2
ENDMDL
MODEL 9
REMARK VINA RESULT:      -4.0      1.668      2.953
REMARK  2 active torsions:
REMARK  status: ('A' for Active; 'I' for Inactive)
REMARK    1  A    between atoms: C7_7  and  C8_8 
REMARK    2  A    between atoms: C9_9  and  C10_10 
ROOT
HETATM    1  C1  UNL     1     -36.213  13.743  -4.633  1.00 20.00     0.047 C 
HETATM    2  C2  UNL     1     -35.066  13.406  -4.005  1.00 20.00    -0.017 C 
HETATM    3  C5  UNL     1     -36.089  15.214  -4.916  1.00 20.00     0.154 C 
HETATM    4  C7  UNL     1     -34.077  14.514  -4.133  1.00 20.00     0.028 C 
HETATM    5  C10 UNL     1     -35.041  15.716  -3.984  1.00 20.00     0.075 C 
HETATM    6  O11 UNL     1     -36.789  15.856  -5.673  1.00 20.00    -0.293 OA
ENDROOT
BRANCH   5   7
HETATM    7  C9  UNL     1     -34.091  16.892  -3.818  1.00 20.00     0.021 C 
HETATM    8  C4  UNL     1     -33.250  16.858  -2.563  1.00 20.00    -0.025 C 
HETATM    9  C3  UNL     1     -34.073  17.015  -1.509  1.00 20.00    -0.025 C 
HETATM   10  C8  UNL     1     -35.504  17.020  -2.047  1.00 20.00     0.017 C 
HETATM   11  C6  UNL     1     -35.180  17.874  -3.285  1.00 20.00     0.018 C 
ENDBRANCH   5   7
TORSDOF 2
ENDMDL
