MODEL 1
REMARK VINA RESULT:      -5.0      0.000      0.000
REMARK  1 active torsions:
REMARK  status: ('A' for Active; 'I' for Inactive)
REMARK    1  A    between atoms: C8_8  and  C12_12 
ROOT
HETATM    1  C1  UNL     1     -33.463  16.202  -2.680  1.00 20.00    -0.023 C 
HETATM    2  C2  UNL     1     -34.773  16.094  -2.389  1.00 20.00    -0.081 C 
HETATM    3  C3  UNL     1     -32.823  15.523  -3.862  1.00 20.00     0.034 C 
HETATM    4  C4  UNL     1     -34.901  14.130  -3.925  1.00 20.00     0.018 C 
HETATM    5  C5  UNL     1     -34.463  15.683  -5.822  1.00 20.00     0.173 C 
HETATM    6  C6  UNL     1     -35.701  15.265  -3.269  1.00 20.00     0.043 C 
HETATM    7  C7  UNL     1     -33.805  14.763  -4.780  1.00 20.00     0.014 C 
HETATM    8  C8  UNL     1     -36.314  16.184  -4.350  1.00 20.00     0.133 C 
HETATM    9  C9  UNL     1     -35.386  16.778  -1.204  1.00 20.00     0.043 C 
HETATM   10  O13 UNL     1     -35.302  16.679  -5.240  1.00 20.00    -0.384 OA
ENDROOT
BRANCH   8  11
HETATM   11  C12 UNL     1     -37.451  15.531  -5.134  1.00 20.00     0.007 C 
HETATM   12  C10 UNL     1     -38.479  14.923  -4.181  1.00 20.00     0.012 C 
HETATM   13  C11 UNL     1     -38.112  16.544  -6.064  1.00 20.00     0.012 C 
ENDBRANCH   8  11
TORSDOF 1
ENDMDL
MODEL 2
REMARK VINA RESULT:      -4.5      1.449      3.124
REMARK  1 active torsions:
REMARK  status: ('A' for Active; 'I' for Inactive)
REMARK    1  A    between atoms: C8_8  and  C12_12 
ROOT
HETATM    1  C1  UNL     1     -35.446  15.531  -2.600  1.00 20.00    -0.023 C 
HETATM    2  C2  UNL     1     -35.606  15.004  -3.828  1.00 20.00    -0.081 C 
HETATM    3  C3  UNL     1     -34.216  16.293  -2.183  1.00 20.00     0.034 C 
HETATM    4  C4  UNL     1     -33.153  15.277  -4.208  1.00 20.00     0.018 C 
HETATM    5  C5  UNL     1     -33.501  17.743  -4.168  1.00 20.00     0.173 C 
HETATM    6  C6  UNL     1     -34.525  15.164  -4.890  1.00 20.00     0.043 C 
HETATM    7  C7  UNL     1     -33.180  16.511  -3.306  1.00 20.00     0.014 C 
HETATM    8  C8  UNL     1     -34.822  16.437  -5.715  1.00 20.00     0.133 C 
HETATM    9  C9  UNL     1     -36.840  14.247  -4.218  1.00 20.00     0.043 C 
HETATM   10  O13 UNL     1     -34.718  17.614  -4.901  1.00 20.00    -0.384 OA
ENDROOT
BRANCH   8  11
HETATM   11  C12 UNL     1     -33.957  16.568  -6.968  1.00 20.00     0.007 C 
HETATM   12  C10 UNL     1     -34.019  15.288  -7.799  1.00 20.00     0.012 C 
HETATM   13  C11 UNL     1     -34.396  17.771  -7.798  1.00 20.00     0.012 C 
ENDBRANCH   8  11
TORSDOF 1
ENDMDL
MODEL 3
REMARK VINA RESULT:      -4.3      1.518      2.066
REMARK  1 active torsions:
REMARK  status: ('A' for Active; 'I' for Inactive)
REMARK    1  A    between atoms: C8_8  and  C12_12 
ROOT
HETATM    1  C1  UNL     1     -33.620  17.946  -1.052  1.00 20.00    -0.023 C 
HETATM    2  C2  UNL     1     -34.695  17.137  -1.085  1.00 20.00    -0.081 C 
HETATM    3  C3  UNL     1     -32.621  18.037  -2.175  1.00 20.00     0.034 C 
HETATM    4  C4  UNL     1     -33.639  15.895  -2.976  1.00 20.00     0.018 C 
HETATM    5  C5  UNL     1     -33.927  17.935  -4.375  1.00 20.00     0.173 C 
HETATM    6  C6  UNL     1     -34.969  16.256  -2.297  1.00 20.00     0.043 C 
HETATM    7  C7  UNL     1     -32.974  17.197  -3.422  1.00 20.00     0.014 C 
HETATM    8  C8  UNL     1     -35.881  17.027  -3.278  1.00 20.00     0.133 C 
HETATM    9  C9  UNL     1     -35.674  17.064   0.048  1.00 20.00     0.043 C 
HETATM   10  O13 UNL     1     -35.211  18.182  -3.804  1.00 20.00    -0.384 OA
ENDROOT
BRANCH   8  11
HETATM   11  C12 UNL     1     -36.432  16.160  -4.409  1.00 20.00     0.007 C 
HETATM   12  C10 UNL     1     -36.959  14.835  -3.861  1.00 20.00     0.012 C 
HETATM   13  C11 UNL     1     -37.528  16.903  -5.168  1.00 20.00     0.012 C 
ENDBRANCH   8  11
TORSDOF 1
ENDMDL
MODEL 4
REMARK VINA RESULT:      -4.3      1.089      1.148
REMARK  1 active torsions:
REMARK  status: ('A' for Active; 'I' for Inactive)
REMARK    1  A    between atoms: C8_8  and  C12_12 
ROOT
HETATM    1  C1  UNL     1     -33.136  15.636  -3.417  1.00 20.00    -0.023 C 
HETATM    2  C2  UNL     1     -34.196  16.206  -2.813  1.00 20.00    -0.081 C 
HETATM    3  C3  UNL     1     -33.263  14.641  -4.540  1.00 20.00     0.034 C 
HETATM    4  C4  UNL     1     -35.650  14.442  -3.815  1.00 20.00     0.018 C 
HETATM    5  C5  UNL     1     -35.174  15.429  -6.052  1.00 20.00     0.173 C 
HETATM    6  C6  UNL     1     -35.615  15.871  -3.253  1.00 20.00     0.043 C 
HETATM    7  C7  UNL     1     -34.709  14.389  -5.018  1.00 20.00     0.014 C 
HETATM    8  C8  UNL     1     -36.054  16.884  -4.334  1.00 20.00     0.133 C 
HETATM    9  C9  UNL     1     -34.042  17.193  -1.695  1.00 20.00     0.043 C 
HETATM   10  O13 UNL     1     -35.257  16.750  -5.521  1.00 20.00    -0.384 OA
ENDROOT
BRANCH   8  11
HETATM   11  C12 UNL     1     -37.543  16.811  -4.672  1.00 20.00     0.007 C 
HETATM   12  C10 UNL     1     -38.388  17.014  -3.416  1.00 20.00     0.012 C 
HETATM   13  C11 UNL     1     -37.902  17.845  -5.735  1.00 20.00     0.012 C 
ENDBRANCH   8  11
TORSDOF 1
ENDMDL
MODEL 5
REMARK VINA RESULT:      -4.2      1.567      3.909
REMARK  1 active torsions:
REMARK  status: ('A' for Active; 'I' for Inactive)
REMARK    1  A    between atoms: C8_8  and  C12_12 
ROOT
HETATM    1  C1  UNL     1     -35.462  16.161  -6.670  1.00 20.00    -0.023 C 
HETATM    2  C2  UNL     1     -34.650  16.943  -5.936  1.00 20.00    -0.081 C 
HETATM    3  C3  UNL     1     -35.804  14.743  -6.293  1.00 20.00     0.034 C 
HETATM    4  C4  UNL     1     -33.843  14.902  -4.745  1.00 20.00     0.018 C 
HETATM    5  C5  UNL     1     -36.116  14.678  -3.752  1.00 20.00     0.173 C 
HETATM    6  C6  UNL     1     -34.025  16.424  -4.647  1.00 20.00     0.043 C 
HETATM    7  C7  UNL     1     -35.225  14.278  -4.940  1.00 20.00     0.014 C 
HETATM    8  C8  UNL     1     -34.955  16.778  -3.464  1.00 20.00     0.133 C 
HETATM    9  C9  UNL     1     -34.324  18.352  -6.334  1.00 20.00     0.043 C 
HETATM   10  O13 UNL     1     -36.210  16.089  -3.572  1.00 20.00    -0.384 OA
ENDROOT
BRANCH   8  11
HETATM   11  C12 UNL     1     -34.322  16.537  -2.095  1.00 20.00     0.007 C 
HETATM   12  C10 UNL     1     -33.022  17.328  -1.959  1.00 20.00     0.012 C 
HETATM   13  C11 UNL     1     -35.297  16.908  -0.981  1.00 20.00     0.012 C 
ENDBRANCH   8  11
TORSDOF 1
ENDMDL
MODEL 6
REMARK VINA RESULT:      -4.1      1.479      2.760
REMARK  1 active torsions:
REMARK  status: ('A' for Active; 'I' for Inactive)
REMARK    1  A    between atoms: C8_8  and  C12_12 
ROOT
HETATM    1  C1  UNL     1     -36.073  17.280  -2.040  1.00 20.00    -0.023 C 
HETATM    2  C2  UNL     1     -36.658  16.862  -3.179  1.00 20.00    -0.081 C 
HETATM    3  C3  UNL     1     -34.698  16.842  -1.611  1.00 20.00     0.034 C 
HETATM    4  C4  UNL     1     -34.972  15.025  -3.310  1.00 20.00     0.018 C 
HETATM    5  C5  UNL     1     -33.228  16.760  -3.706  1.00 20.00     0.173 C 
HETATM    6  C6  UNL     1     -35.935  15.906  -4.120  1.00 20.00     0.043 C 
HETATM    7  C7  UNL     1     -33.960  15.944  -2.627  1.00 20.00     0.014 C 
HETATM    8  C8  UNL     1     -35.155  16.734  -5.166  1.00 20.00     0.133 C 
HETATM    9  C9  UNL     1     -38.030  17.311  -3.582  1.00 20.00     0.043 C 
HETATM   10  O13 UNL     1     -34.113  17.501  -4.545  1.00 20.00    -0.384 OA
ENDROOT
BRANCH   8  11
HETATM   11  C12 UNL     1     -34.597  15.895  -6.315  1.00 20.00     0.007 C 
HETATM   12  C10 UNL     1     -35.626  14.867  -6.778  1.00 20.00     0.012 C 
HETATM   13  C11 UNL     1     -34.173  16.791  -7.476  1.00 20.00     0.012 C 
ENDBRANCH   8  11
TORSDOF 1
ENDMDL
MODEL 7
REMARK VINA RESULT:      -4.1      1.843      3.312
REMARK  1 active torsions:
REMARK  status: ('A' for Active; 'I' for Inactive)
REMARK    1  A    between atoms: C8_8  and  C12_12 
ROOT
HETATM    1  C1  UNL     1     -34.115  14.415  -4.112  1.00 20.00    -0.023 C 
HETATM    2  C2  UNL     1     -35.381  14.867  -4.181  1.00 20.00    -0.081 C 
HETATM    3  C3  UNL     1     -32.935  15.306  -3.830  1.00 20.00     0.034 C 
HETATM    4  C4  UNL     1     -34.486  17.188  -4.392  1.00 20.00     0.018 C 
HETATM    5  C5  UNL     1     -33.658  17.000  -2.051  1.00 20.00     0.173 C 
HETATM    6  C6  UNL     1     -35.693  16.342  -3.961  1.00 20.00     0.043 C 
HETATM    7  C7  UNL     1     -33.295  16.777  -3.528  1.00 20.00     0.014 C 
HETATM    8  C8  UNL     1     -36.001  16.569  -2.464  1.00 20.00     0.133 C 
HETATM    9  C9  UNL     1     -36.539  13.959  -4.465  1.00 20.00     0.043 C 
HETATM   10  O13 UNL     1     -34.844  16.311  -1.655  1.00 20.00    -0.384 OA
ENDROOT
BRANCH   8  11
HETATM   11  C12 UNL     1     -36.575  17.953  -2.161  1.00 20.00     0.007 C 
HETATM   12  C10 UNL     1     -37.820  18.214  -3.007  1.00 20.00     0.012 C 
HETATM   13  C11 UNL     1     -36.897  18.085  -0.675  1.00 20.00     0.012 C 
ENDBRANCH   8  11
TORSDOF 1
ENDMDL
MODEL 8
REMARK VINA RESULT:      -4.1      1.894      3.642
REMARK  1 active torsions:
REMARK  status: ('A' for Active; 'I' for Inactive)
REMARK    1  A    between atoms: C8_8  and  C12_12 
ROOT
HETATM    1  C1  UNL     1     -35.606  19.161  -2.570  1.00 20.00    -0.023 C 
HETATM    2  C2  UNL     1     -36.189  18.087  -3.134  1.00 20.00    -0.081 C 
HETATM    3  C3  UNL     1     -34.496  19.061  -1.558  1.00 20.00     0.034 C 
HETATM    4  C4  UNL     1     -35.194  16.668  -1.336  1.00 20.00     0.018 C 
HETATM    5  C5  UNL     1     -32.950  17.158  -2.298  1.00 20.00     0.173 C 
HETATM    6  C6  UNL     1     -35.736  16.677  -2.773  1.00 20.00     0.043 C 
HETATM    7  C7  UNL     1     -34.004  17.624  -1.280  1.00 20.00     0.014 C 
HETATM    8  C8  UNL     1     -34.636  16.238  -3.766  1.00 20.00     0.133 C 
HETATM    9  C9  UNL     1     -37.294  18.214  -4.139  1.00 20.00     0.043 C 
HETATM   10  O13 UNL     1     -33.461  17.051  -3.625  1.00 20.00    -0.384 OA
ENDROOT
BRANCH   8  11
HETATM   11  C12 UNL     1     -34.281  14.755  -3.668  1.00 20.00     0.007 C 
HETATM   12  C10 UNL     1     -35.463  13.891  -4.104  1.00 20.00     0.012 C 
HETATM   13  C11 UNL     1     -33.047  14.442  -4.509  1.00 20.00     0.012 C 
ENDBRANCH   8  11
TORSDOF 1
ENDMDL
MODEL 9
REMARK VINA RESULT:      -4.0      1.676      2.307
REMARK  1 active torsions:
REMARK  status: ('A' for Active; 'I' for Inactive)
REMARK    1  A    between atoms: C8_8  and  C12_12 
ROOT
HETATM    1  C1  UNL     1     -34.348  18.670  -2.745  1.00 20.00    -0.023 C 
HETATM    2  C2  UNL     1     -35.577  18.227  -3.072  1.00 20.00    -0.081 C 
HETATM    3  C3  UNL     1     -33.215  17.753  -2.366  1.00 20.00     0.034 C 
HETATM    4  C4  UNL     1     -34.994  16.019  -2.063  1.00 20.00     0.018 C 
HETATM    5  C5  UNL     1     -33.340  15.705  -3.898  1.00 20.00     0.173 C 
HETATM    6  C6  UNL     1     -35.889  16.736  -3.085  1.00 20.00     0.043 C 
HETATM    7  C7  UNL     1     -33.540  16.247  -2.474  1.00 20.00     0.014 C 
HETATM    8  C8  UNL     1     -35.630  16.186  -4.506  1.00 20.00     0.133 C 
HETATM    9  C9  UNL     1     -36.689  19.162  -3.442  1.00 20.00     0.043 C 
HETATM   10  O13 UNL     1     -34.239  16.276  -4.848  1.00 20.00    -0.384 OA
ENDROOT
BRANCH   8  11
HETATM   11  C12 UNL     1     -36.146  14.763  -4.713  1.00 20.00     0.007 C 
HETATM   12  C10 UNL     1     -37.627  14.672  -4.352  1.00 20.00     0.012 C 
HETATM   13  C11 UNL     1     -35.915  14.314  -6.154  1.00 20.00     0.012 C 
ENDBRANCH   8  11
TORSDOF 1
ENDMDL
