MODEL 1
REMARK VINA RESULT:      -4.8      0.000      0.000
REMARK  5 active torsions:
REMARK  status: ('A' for Active; 'I' for Inactive)
REMARK    1  A    between atoms: C1_1  and  C2_2 
REMARK    2  A    between atoms: C1_1  and  C3_3 
REMARK    3  A    between atoms: C2_2  and  C7_7 
REMARK    4  A    between atoms: C7_7  and  C8_8 
REMARK    5  A    between atoms: C8_8  and  O9_9 
ROOT
HETATM    1  C2  UNL     1     -33.352   4.750   2.589  1.00 20.00     0.070 C 
ENDROOT
BRANCH   1   2
HETATM    2  C1  UNL     1     -32.888   5.963   2.500  1.00 20.00    -0.166 C 
BRANCH   2   3
HETATM    3  C3  UNL     1     -32.421   7.179   2.417  1.00 20.00     0.022 C 
HETATM    4  C4  UNL     1     -31.679   7.832   3.548  1.00 20.00     0.029 C 
HETATM    5  C5  UNL     1     -32.587   8.021   1.184  1.00 20.00     0.029 C 
ENDBRANCH   2   3
ENDBRANCH   1   2
BRANCH   1   6
HETATM    6  C7  UNL     1     -34.169   4.228   3.737  1.00 20.00     0.048 C 
BRANCH   6   7
HETATM    7  C8  UNL     1     -34.861   5.360   4.502  1.00 20.00     0.115 C 
HETATM    8  C6  UNL     1     -34.728   5.164   6.007  1.00 20.00     0.039 C 
BRANCH   7   9
HETATM    9  O9  UNL     1     -36.247   5.361   4.167  1.00 20.00    -0.396 OA
HETATM   10  H23 UNL     1     -36.558   4.449   4.279  1.00 20.00     0.210 HD
ENDBRANCH   7   9
ENDBRANCH   6   7
ENDBRANCH   1   6
TORSDOF 5
ENDMDL
MODEL 2
REMARK VINA RESULT:      -4.5      1.124      1.810
REMARK  5 active torsions:
REMARK  status: ('A' for Active; 'I' for Inactive)
REMARK    1  A    between atoms: C1_1  and  C2_2 
REMARK    2  A    between atoms: C1_1  and  C3_3 
REMARK    3  A    between atoms: C2_2  and  C7_7 
REMARK    4  A    between atoms: C7_7  and  C8_8 
REMARK    5  A    between atoms: C8_8  and  O9_9 
ROOT
HETATM    1  C2  UNL     1     -32.758   6.588   3.100  1.00 20.00     0.070 C 
ENDROOT
BRANCH   1   2
HETATM    2  C1  UNL     1     -32.637   7.366   2.063  1.00 20.00    -0.166 C 
BRANCH   2   3
HETATM    3  C3  UNL     1     -32.522   8.145   1.022  1.00 20.00     0.022 C 
HETATM    4  C4  UNL     1     -33.173   9.497   0.958  1.00 20.00     0.029 C 
HETATM    5  C5  UNL     1     -31.730   7.752  -0.191  1.00 20.00     0.029 C 
ENDBRANCH   2   3
ENDBRANCH   1   2
BRANCH   1   6
HETATM    6  C7  UNL     1     -33.761   5.477   3.226  1.00 20.00     0.048 C 
BRANCH   6   7
HETATM    7  C8  UNL     1     -34.784   5.759   4.331  1.00 20.00     0.115 C 
HETATM    8  C6  UNL     1     -34.113   6.373   5.554  1.00 20.00     0.039 C 
BRANCH   7   9
HETATM    9  O9  UNL     1     -35.392   4.529   4.719  1.00 20.00    -0.396 OA
HETATM   10  H23 UNL     1     -35.850   4.189   3.935  1.00 20.00     0.210 HD
ENDBRANCH   7   9
ENDBRANCH   6   7
ENDBRANCH   1   6
TORSDOF 5
ENDMDL
MODEL 3
REMARK VINA RESULT:      -4.5      1.124      1.872
REMARK  5 active torsions:
REMARK  status: ('A' for Active; 'I' for Inactive)
REMARK    1  A    between atoms: C1_1  and  C2_2 
REMARK    2  A    between atoms: C1_1  and  C3_3 
REMARK    3  A    between atoms: C2_2  and  C7_7 
REMARK    4  A    between atoms: C7_7  and  C8_8 
REMARK    5  A    between atoms: C8_8  and  O9_9 
ROOT
HETATM    1  C2  UNL     1     -32.758   6.590   3.108  1.00 20.00     0.070 C 
ENDROOT
BRANCH   1   2
HETATM    2  C1  UNL     1     -32.635   7.367   2.071  1.00 20.00    -0.166 C 
BRANCH   2   3
HETATM    3  C3  UNL     1     -32.516   8.142   1.028  1.00 20.00     0.022 C 
HETATM    4  C4  UNL     1     -31.724   7.738  -0.184  1.00 20.00     0.029 C 
HETATM    5  C5  UNL     1     -33.162   9.495   0.954  1.00 20.00     0.029 C 
ENDBRANCH   2   3
ENDBRANCH   1   2
BRANCH   1   6
HETATM    6  C7  UNL     1     -33.760   5.478   3.232  1.00 20.00     0.048 C 
BRANCH   6   7
HETATM    7  C8  UNL     1     -34.782   5.755   4.338  1.00 20.00     0.115 C 
HETATM    8  C6  UNL     1     -34.112   6.369   5.560  1.00 20.00     0.039 C 
BRANCH   7   9
HETATM    9  O9  UNL     1     -35.387   4.523   4.726  1.00 20.00    -0.396 OA
HETATM   10  H23 UNL     1     -35.198   3.889   4.016  1.00 20.00     0.210 HD
ENDBRANCH   7   9
ENDBRANCH   6   7
ENDBRANCH   1   6
TORSDOF 5
ENDMDL
MODEL 4
REMARK VINA RESULT:      -4.4      2.414      4.525
REMARK  5 active torsions:
REMARK  status: ('A' for Active; 'I' for Inactive)
REMARK    1  A    between atoms: C1_1  and  C2_2 
REMARK    2  A    between atoms: C1_1  and  C3_3 
REMARK    3  A    between atoms: C2_2  and  C7_7 
REMARK    4  A    between atoms: C7_7  and  C8_8 
REMARK    5  A    between atoms: C8_8  and  O9_9 
ROOT
HETATM    1  C2  UNL     1     -32.550   7.442   2.798  1.00 20.00     0.070 C 
ENDROOT
BRANCH   1   2
HETATM    2  C1  UNL     1     -33.297   6.843   3.679  1.00 20.00    -0.166 C 
BRANCH   2   3
HETATM    3  C3  UNL     1     -34.049   6.248   4.564  1.00 20.00     0.022 C 
HETATM    4  C4  UNL     1     -34.055   6.651   6.012  1.00 20.00     0.029 C 
HETATM    5  C5  UNL     1     -34.970   5.117   4.206  1.00 20.00     0.029 C 
ENDBRANCH   2   3
ENDBRANCH   1   2
BRANCH   1   6
HETATM    6  C7  UNL     1     -32.577   7.167   1.321  1.00 20.00     0.048 C 
BRANCH   6   7
HETATM    7  C8  UNL     1     -32.646   8.460   0.504  1.00 20.00     0.115 C 
HETATM    8  C6  UNL     1     -33.100   9.630   1.368  1.00 20.00     0.039 C 
BRANCH   7   9
HETATM    9  O9  UNL     1     -33.587   8.286  -0.553  1.00 20.00    -0.396 OA
HETATM   10  H23 UNL     1     -33.901   7.371  -0.494  1.00 20.00     0.210 HD
ENDBRANCH   7   9
ENDBRANCH   6   7
ENDBRANCH   1   6
TORSDOF 5
ENDMDL
MODEL 5
REMARK VINA RESULT:      -4.2     11.397     11.844
REMARK  5 active torsions:
REMARK  status: ('A' for Active; 'I' for Inactive)
REMARK    1  A    between atoms: C1_1  and  C2_2 
REMARK    2  A    between atoms: C1_1  and  C3_3 
REMARK    3  A    between atoms: C2_2  and  C7_7 
REMARK    4  A    between atoms: C7_7  and  C8_8 
REMARK    5  A    between atoms: C8_8  and  O9_9 
ROOT
HETATM    1  C2  UNL     1     -34.210  14.602  -3.927  1.00 20.00     0.070 C 
ENDROOT
BRANCH   1   2
HETATM    2  C1  UNL     1     -34.144  15.556  -3.043  1.00 20.00    -0.166 C 
BRANCH   2   3
HETATM    3  C3  UNL     1     -34.081  16.517  -2.163  1.00 20.00     0.022 C 
HETATM    4  C4  UNL     1     -35.174  16.759  -1.161  1.00 20.00     0.029 C 
HETATM    5  C5  UNL     1     -32.910  17.453  -2.079  1.00 20.00     0.029 C 
ENDBRANCH   2   3
ENDBRANCH   1   2
BRANCH   1   6
HETATM    6  C7  UNL     1     -35.072  14.630  -5.157  1.00 20.00     0.048 C 
BRANCH   6   7
HETATM    7  C8  UNL     1     -36.309  13.741  -5.003  1.00 20.00     0.115 C 
HETATM    8  C6  UNL     1     -37.418  14.471  -4.256  1.00 20.00     0.039 C 
BRANCH   7   9
HETATM    9  O9  UNL     1     -35.951  12.579  -4.258  1.00 20.00    -0.396 OA
HETATM   10  H23 UNL     1     -35.395  12.884  -3.524  1.00 20.00     0.210 HD
ENDBRANCH   7   9
ENDBRANCH   6   7
ENDBRANCH   1   6
TORSDOF 5
ENDMDL
MODEL 6
REMARK VINA RESULT:      -4.2     11.399     11.846
REMARK  5 active torsions:
REMARK  status: ('A' for Active; 'I' for Inactive)
REMARK    1  A    between atoms: C1_1  and  C2_2 
REMARK    2  A    between atoms: C1_1  and  C3_3 
REMARK    3  A    between atoms: C2_2  and  C7_7 
REMARK    4  A    between atoms: C7_7  and  C8_8 
REMARK    5  A    between atoms: C8_8  and  O9_9 
ROOT
HETATM    1  C2  UNL     1     -34.242  14.620  -3.904  1.00 20.00     0.070 C 
ENDROOT
BRANCH   1   2
HETATM    2  C1  UNL     1     -34.170  15.570  -3.017  1.00 20.00    -0.166 C 
BRANCH   2   3
HETATM    3  C3  UNL     1     -34.103  16.525  -2.130  1.00 20.00     0.022 C 
HETATM    4  C4  UNL     1     -32.924  17.452  -2.038  1.00 20.00     0.029 C 
HETATM    5  C5  UNL     1     -35.200  16.776  -1.135  1.00 20.00     0.029 C 
ENDBRANCH   2   3
ENDBRANCH   1   2
BRANCH   1   6
HETATM    6  C7  UNL     1     -35.106  14.659  -5.132  1.00 20.00     0.048 C 
BRANCH   6   7
HETATM    7  C8  UNL     1     -36.324  13.740  -4.998  1.00 20.00     0.115 C 
HETATM    8  C6  UNL     1     -37.463  14.445  -4.272  1.00 20.00     0.039 C 
BRANCH   7   9
HETATM    9  O9  UNL     1     -35.951  12.589  -4.244  1.00 20.00    -0.396 OA
HETATM   10  H23 UNL     1     -35.070  12.770  -3.882  1.00 20.00     0.210 HD
ENDBRANCH   7   9
ENDBRANCH   6   7
ENDBRANCH   1   6
TORSDOF 5
ENDMDL
MODEL 7
REMARK VINA RESULT:      -4.1      1.953      4.186
REMARK  5 active torsions:
REMARK  status: ('A' for Active; 'I' for Inactive)
REMARK    1  A    between atoms: C1_1  and  C2_2 
REMARK    2  A    between atoms: C1_1  and  C3_3 
REMARK    3  A    between atoms: C2_2  and  C7_7 
REMARK    4  A    between atoms: C7_7  and  C8_8 
REMARK    5  A    between atoms: C8_8  and  O9_9 
ROOT
HETATM    1  C2  UNL     1     -33.851   5.130   2.913  1.00 20.00     0.070 C 
ENDROOT
BRANCH   1   2
HETATM    2  C1  UNL     1     -34.101   5.465   4.147  1.00 20.00    -0.166 C 
BRANCH   2   3
HETATM    3  C3  UNL     1     -34.343   5.802   5.384  1.00 20.00     0.022 C 
HETATM    4  C4  UNL     1     -35.110   4.912   6.321  1.00 20.00     0.029 C 
HETATM    5  C5  UNL     1     -33.875   7.103   5.969  1.00 20.00     0.029 C 
ENDBRANCH   2   3
ENDBRANCH   1   2
BRANCH   1   6
HETATM    6  C7  UNL     1     -32.851   5.814   2.025  1.00 20.00     0.048 C 
BRANCH   6   7
HETATM    7  C8  UNL     1     -32.726   7.304   2.353  1.00 20.00     0.115 C 
HETATM    8  C6  UNL     1     -32.504   8.126   1.089  1.00 20.00     0.039 C 
BRANCH   7   9
HETATM    9  O9  UNL     1     -31.609   7.494   3.218  1.00 20.00    -0.396 OA
HETATM   10  H23 UNL     1     -30.879   6.976   2.842  1.00 20.00     0.210 HD
ENDBRANCH   7   9
ENDBRANCH   6   7
ENDBRANCH   1   6
TORSDOF 5
ENDMDL
MODEL 8
REMARK VINA RESULT:      -4.1     11.844     12.575
REMARK  5 active torsions:
REMARK  status: ('A' for Active; 'I' for Inactive)
REMARK    1  A    between atoms: C1_1  and  C2_2 
REMARK    2  A    between atoms: C1_1  and  C3_3 
REMARK    3  A    between atoms: C2_2  and  C7_7 
REMARK    4  A    between atoms: C7_7  and  C8_8 
REMARK    5  A    between atoms: C8_8  and  O9_9 
ROOT
HETATM    1  C2  UNL     1     -34.789  14.972  -3.392  1.00 20.00     0.070 C 
ENDROOT
BRANCH   1   2
HETATM    2  C1  UNL     1     -34.577  15.892  -2.496  1.00 20.00    -0.166 C 
BRANCH   2   3
HETATM    3  C3  UNL     1     -34.366  16.810  -1.593  1.00 20.00     0.022 C 
HETATM    4  C4  UNL     1     -35.334  17.071  -0.474  1.00 20.00     0.029 C 
HETATM    5  C5  UNL     1     -33.138  17.675  -1.599  1.00 20.00     0.029 C 
ENDBRANCH   2   3
ENDBRANCH   1   2
BRANCH   1   6
HETATM    6  C7  UNL     1     -33.782  14.521  -4.412  1.00 20.00     0.048 C 
BRANCH   6   7
HETATM    7  C8  UNL     1     -34.113  15.051  -5.810  1.00 20.00     0.115 C 
HETATM    8  C6  UNL     1     -35.510  14.624  -6.241  1.00 20.00     0.039 C 
BRANCH   7   9
HETATM    9  O9  UNL     1     -33.171  14.519  -6.739  1.00 20.00    -0.396 OA
HETATM   10  H23 UNL     1     -32.291  14.692  -6.369  1.00 20.00     0.210 HD
ENDBRANCH   7   9
ENDBRANCH   6   7
ENDBRANCH   1   6
TORSDOF 5
ENDMDL
MODEL 9
REMARK VINA RESULT:      -4.0     11.682     12.709
REMARK  5 active torsions:
REMARK  status: ('A' for Active; 'I' for Inactive)
REMARK    1  A    between atoms: C1_1  and  C2_2 
REMARK    2  A    between atoms: C1_1  and  C3_3 
REMARK    3  A    between atoms: C2_2  and  C7_7 
REMARK    4  A    between atoms: C7_7  and  C8_8 
REMARK    5  A    between atoms: C8_8  and  O9_9 
ROOT
HETATM    1  C2  UNL     1     -35.331  14.354  -3.904  1.00 20.00     0.070 C 
ENDROOT
BRANCH   1   2
HETATM    2  C1  UNL     1     -34.879  15.283  -3.112  1.00 20.00    -0.166 C 
BRANCH   2   3
HETATM    3  C3  UNL     1     -34.419  16.211  -2.318  1.00 20.00     0.022 C 
HETATM    4  C4  UNL     1     -33.078  16.854  -2.529  1.00 20.00     0.029 C 
HETATM    5  C5  UNL     1     -35.195  16.712  -1.134  1.00 20.00     0.029 C 
ENDBRANCH   2   3
ENDBRANCH   1   2
BRANCH   1   6
HETATM    6  C7  UNL     1     -35.398  14.463  -5.401  1.00 20.00     0.048 C 
BRANCH   6   7
HETATM    7  C8  UNL     1     -34.189  15.213  -5.970  1.00 20.00     0.115 C 
HETATM    8  C6  UNL     1     -34.380  15.514  -7.451  1.00 20.00     0.039 C 
BRANCH   7   9
HETATM    9  O9  UNL     1     -33.029  14.397  -5.820  1.00 20.00    -0.396 OA
HETATM   10  H23 UNL     1     -32.267  14.963  -6.020  1.00 20.00     0.210 HD
ENDBRANCH   7   9
ENDBRANCH   6   7
ENDBRANCH   1   6
TORSDOF 5
ENDMDL
