MODEL 1
REMARK VINA RESULT:      -4.7      0.000      0.000
REMARK  1 active torsions:
REMARK  status: ('A' for Active; 'I' for Inactive)
REMARK    1  A    between atoms: C6_6  and  C7_7 
ROOT
HETATM    1  C1  UNL     1     -34.077   6.478   4.744  1.00 20.00     0.051 A 
HETATM    2  C2  UNL     1     -33.882   4.761   2.888  1.00 20.00     0.051 A 
HETATM    3  C3  UNL     1     -33.182   7.244   4.110  1.00 20.00    -0.013 A 
HETATM    4  C4  UNL     1     -32.989   5.546   2.276  1.00 20.00    -0.013 A 
HETATM    5  C5  UNL     1     -34.501   5.184   4.164  1.00 20.00     0.171 A 
HETATM    6  C6  UNL     1     -32.542   6.886   2.795  1.00 20.00     0.044 A 
HETATM    7  O8  UNL     1     -35.334   4.481   4.726  1.00 20.00    -0.289 OA
ENDROOT
BRANCH   6   8
HETATM    8  C7  UNL     1     -32.828   7.974   1.759  1.00 20.00     0.127 C 
HETATM    9 CL9  UNL     1     -31.756   7.778   0.362  1.00 20.00    -0.130 Cl
ENDBRANCH   6   8
TORSDOF 1
ENDMDL
MODEL 2
REMARK VINA RESULT:      -4.5      1.230      2.210
REMARK  1 active torsions:
REMARK  status: ('A' for Active; 'I' for Inactive)
REMARK    1  A    between atoms: C6_6  and  C7_7 
ROOT
HETATM    1  C1  UNL     1     -34.789   4.789   4.361  1.00 20.00     0.051 A 
HETATM    2  C2  UNL     1     -34.014   6.603   5.954  1.00 20.00     0.051 A 
HETATM    3  C3  UNL     1     -34.340   5.519   3.334  1.00 20.00    -0.013 A 
HETATM    4  C4  UNL     1     -33.574   7.313   4.910  1.00 20.00    -0.013 A 
HETATM    5  C5  UNL     1     -34.642   5.278   5.750  1.00 20.00     0.171 A 
HETATM    6  C6  UNL     1     -33.663   6.856   3.477  1.00 20.00     0.044 A 
HETATM    7  O8  UNL     1     -35.034   4.610   6.701  1.00 20.00    -0.289 OA
ENDROOT
BRANCH   6   8
HETATM    8  C7  UNL     1     -32.268   6.809   2.853  1.00 20.00     0.127 C 
HETATM    9 CL9  UNL     1     -32.253   7.715   1.331  1.00 20.00    -0.130 Cl
ENDBRANCH   6   8
TORSDOF 1
ENDMDL
MODEL 3
REMARK VINA RESULT:      -4.4     16.575     17.074
REMARK  1 active torsions:
REMARK  status: ('A' for Active; 'I' for Inactive)
REMARK    1  A    between atoms: C6_6  and  C7_7 
ROOT
HETATM    1  C1  UNL     1     -24.003  19.022   8.661  1.00 20.00     0.051 A 
HETATM    2  C2  UNL     1     -22.888  16.775   9.037  1.00 20.00     0.051 A 
HETATM    3  C3  UNL     1     -24.675  18.864   9.807  1.00 20.00    -0.013 A 
HETATM    4  C4  UNL     1     -23.573  16.643  10.178  1.00 20.00    -0.013 A 
HETATM    5  C5  UNL     1     -23.047  17.988   8.204  1.00 20.00     0.171 A 
HETATM    6  C6  UNL     1     -24.532  17.671  10.715  1.00 20.00     0.044 A 
HETATM    7  O8  UNL     1     -22.413  18.129   7.164  1.00 20.00    -0.289 OA
ENDROOT
BRANCH   6   8
HETATM    8  C7  UNL     1     -24.095  18.121  12.109  1.00 20.00     0.127 C 
HETATM    9 CL9  UNL     1     -22.365  17.814  12.332  1.00 20.00    -0.130 Cl
ENDBRANCH   6   8
TORSDOF 1
ENDMDL
MODEL 4
REMARK VINA RESULT:      -4.4     16.290     16.858
REMARK  1 active torsions:
REMARK  status: ('A' for Active; 'I' for Inactive)
REMARK    1  A    between atoms: C6_6  and  C7_7 
ROOT
HETATM    1  C1  UNL     1     -22.296  17.314   9.424  1.00 20.00     0.051 A 
HETATM    2  C2  UNL     1     -24.155  18.710   8.411  1.00 20.00     0.051 A 
HETATM    3  C3  UNL     1     -22.891  17.412  10.618  1.00 20.00    -0.013 A 
HETATM    4  C4  UNL     1     -24.729  18.793   9.616  1.00 20.00    -0.013 A 
HETATM    5  C5  UNL     1     -22.899  17.948   8.230  1.00 20.00     0.171 A 
HETATM    6  C6  UNL     1     -24.185  18.143  10.861  1.00 20.00     0.044 A 
HETATM    7  O8  UNL     1     -22.372  17.850   7.127  1.00 20.00    -0.289 OA
ENDROOT
BRANCH   6   8
HETATM    8  C7  UNL     1     -25.223  17.191  11.455  1.00 20.00     0.127 C 
HETATM    9 CL9  UNL     1     -24.478  15.624  11.810  1.00 20.00    -0.130 Cl
ENDBRANCH   6   8
TORSDOF 1
ENDMDL
MODEL 5
REMARK VINA RESULT:      -4.4     10.905     11.495
REMARK  1 active torsions:
REMARK  status: ('A' for Active; 'I' for Inactive)
REMARK    1  A    between atoms: C6_6  and  C7_7 
ROOT
HETATM    1  C1  UNL     1     -33.920  14.101  -4.191  1.00 20.00     0.051 A 
HETATM    2  C2  UNL     1     -36.278  14.924  -3.751  1.00 20.00     0.051 A 
HETATM    3  C3  UNL     1     -33.449  15.299  -3.826  1.00 20.00    -0.013 A 
HETATM    4  C4  UNL     1     -35.781  16.113  -3.392  1.00 20.00    -0.013 A 
HETATM    5  C5  UNL     1     -35.375  13.827  -4.164  1.00 20.00     0.171 A 
HETATM    6  C6  UNL     1     -34.312  16.443  -3.365  1.00 20.00     0.044 A 
HETATM    7  O8  UNL     1     -35.817  12.728  -4.480  1.00 20.00    -0.289 OA
ENDROOT
BRANCH   6   8
HETATM    8  C7  UNL     1     -33.897  16.882  -1.960  1.00 20.00     0.127 C 
HETATM    9 CL9  UNL     1     -35.269  16.737  -0.849  1.00 20.00    -0.130 Cl
ENDBRANCH   6   8
TORSDOF 1
ENDMDL
MODEL 6
REMARK VINA RESULT:      -4.2     11.159     11.607
REMARK  1 active torsions:
REMARK  status: ('A' for Active; 'I' for Inactive)
REMARK    1  A    between atoms: C6_6  and  C7_7 
ROOT
HETATM    1  C1  UNL     1     -35.587  14.947  -3.053  1.00 20.00     0.051 A 
HETATM    2  C2  UNL     1     -33.659  14.150  -4.493  1.00 20.00     0.051 A 
HETATM    3  C3  UNL     1     -34.809  15.926  -2.577  1.00 20.00    -0.013 A 
HETATM    4  C4  UNL     1     -32.902  15.137  -4.001  1.00 20.00    -0.013 A 
HETATM    5  C5  UNL     1     -35.066  13.997  -4.060  1.00 20.00     0.171 A 
HETATM    6  C6  UNL     1     -33.383  16.156  -3.002  1.00 20.00     0.044 A 
HETATM    7  O8  UNL     1     -35.775  13.106  -4.517  1.00 20.00    -0.289 OA
ENDROOT
BRANCH   6   8
HETATM    8  C7  UNL     1     -33.224  17.566  -3.570  1.00 20.00     0.127 C 
HETATM    9 CL9  UNL     1     -34.201  17.743  -5.037  1.00 20.00    -0.130 Cl
ENDBRANCH   6   8
TORSDOF 1
ENDMDL
MODEL 7
REMARK VINA RESULT:      -4.2     16.886     17.522
REMARK  1 active torsions:
REMARK  status: ('A' for Active; 'I' for Inactive)
REMARK    1  A    between atoms: C6_6  and  C7_7 
ROOT
HETATM    1  C1  UNL     1     -23.806  18.840   9.119  1.00 20.00     0.051 A 
HETATM    2  C2  UNL     1     -22.270  17.752  10.818  1.00 20.00     0.051 A 
HETATM    3  C3  UNL     1     -24.861  18.437   9.836  1.00 20.00    -0.013 A 
HETATM    4  C4  UNL     1     -23.342  17.361  11.516  1.00 20.00    -0.013 A 
HETATM    5  C5  UNL     1     -22.430  18.536   9.573  1.00 20.00     0.171 A 
HETATM    6  C6  UNL     1     -24.764  17.667  11.127  1.00 20.00     0.044 A 
HETATM    7  O8  UNL     1     -21.455  18.915   8.934  1.00 20.00    -0.289 OA
ENDROOT
BRANCH   6   8
HETATM    8  C7  UNL     1     -25.463  18.434  12.250  1.00 20.00     0.127 C 
HETATM    9 CL9  UNL     1     -26.895  19.263  11.619  1.00 20.00    -0.130 Cl
ENDBRANCH   6   8
TORSDOF 1
ENDMDL
MODEL 8
REMARK VINA RESULT:      -4.2     11.549     11.770
REMARK  1 active torsions:
REMARK  status: ('A' for Active; 'I' for Inactive)
REMARK    1  A    between atoms: C6_6  and  C7_7 
ROOT
HETATM    1  C1  UNL     1     -35.760  15.079  -3.400  1.00 20.00     0.051 A 
HETATM    2  C2  UNL     1     -33.558  14.659  -4.584  1.00 20.00     0.051 A 
HETATM    3  C3  UNL     1     -35.129  15.891  -2.544  1.00 20.00    -0.013 A 
HETATM    4  C4  UNL     1     -32.951  15.475  -3.715  1.00 20.00    -0.013 A 
HETATM    5  C5  UNL     1     -35.015  14.416  -4.493  1.00 20.00     0.171 A 
HETATM    6  C6  UNL     1     -33.658  16.205  -2.604  1.00 20.00     0.044 A 
HETATM    7  O8  UNL     1     -35.586  13.684  -5.294  1.00 20.00    -0.289 OA
ENDROOT
BRANCH   6   8
HETATM    8  C7  UNL     1     -33.447  17.713  -2.748  1.00 20.00     0.127 C 
HETATM    9 CL9  UNL     1     -32.161  18.253  -1.656  1.00 20.00    -0.130 Cl
ENDBRANCH   6   8
TORSDOF 1
ENDMDL
MODEL 9
REMARK VINA RESULT:      -4.1      9.503     10.068
REMARK  1 active torsions:
REMARK  status: ('A' for Active; 'I' for Inactive)
REMARK    1  A    between atoms: C6_6  and  C7_7 
ROOT
HETATM    1  C1  UNL     1     -41.190   7.747  -0.927  1.00 20.00     0.051 A 
HETATM    2  C2  UNL     1     -42.944   7.573   0.896  1.00 20.00     0.051 A 
HETATM    3  C3  UNL     1     -41.270   6.425  -1.111  1.00 20.00    -0.013 A 
HETATM    4  C4  UNL     1     -43.004   6.252   0.692  1.00 20.00    -0.013 A 
HETATM    5  C5  UNL     1     -42.038   8.416   0.086  1.00 20.00     0.171 A 
HETATM    6  C6  UNL     1     -42.194   5.517  -0.343  1.00 20.00     0.044 A 
HETATM    7  O8  UNL     1     -41.987   9.630   0.251  1.00 20.00    -0.289 OA
ENDROOT
BRANCH   6   8
HETATM    8  C7  UNL     1     -43.121   4.775  -1.306  1.00 20.00     0.127 C 
HETATM    9 CL9  UNL     1     -42.168   3.789  -2.427  1.00 20.00    -0.130 Cl
ENDBRANCH   6   8
TORSDOF 1
ENDMDL
