MODEL 1
REMARK VINA RESULT:      -4.8      0.000      0.000
REMARK  0 active torsions:
REMARK  status: ('A' for Active; 'I' for Inactive)
ROOT
HETATM    1  C1  UNL     1     -35.174  14.192  -4.098  1.00 20.00     0.009 C 
HETATM    2  C2  UNL     1     -36.228  16.460  -4.276  1.00 20.00     0.012 C 
HETATM    3  C3  UNL     1     -34.385  15.808  -5.849  1.00 20.00     0.012 C 
HETATM    4  C4  UNL     1     -34.758  15.912  -2.319  1.00 20.00     0.051 C 
HETATM    5  C5  UNL     1     -32.916  15.258  -3.890  1.00 20.00     0.051 C 
HETATM    6  C6  UNL     1     -35.802  15.349  -3.298  1.00 20.00    -0.010 C 
HETATM    7  C7  UNL     1     -33.947  14.692  -4.881  1.00 20.00    -0.010 C 
HETATM    8  C8  UNL     1     -35.005  16.975  -5.061  1.00 20.00     0.024 C 
HETATM    9  C9  UNL     1     -33.962  17.522  -4.074  1.00 20.00     0.213 C 
HETATM   10  C10 UNL     1     -33.539  16.418  -3.100  1.00 20.00     0.135 C 
HETATM   11  F11 UNL     1     -34.513  18.550  -3.371  1.00 20.00    -0.246 F 
HETATM   12  F12 UNL     1     -32.620  16.912  -2.234  1.00 20.00    -0.240 F 
ENDROOT
TORSDOF 0
ENDMDL
MODEL 2
REMARK VINA RESULT:      -4.7      1.717      3.028
REMARK  0 active torsions:
REMARK  status: ('A' for Active; 'I' for Inactive)
ROOT
HETATM    1  C1  UNL     1     -34.660  15.988  -2.344  1.00 20.00     0.009 C 
HETATM    2  C2  UNL     1     -34.928  14.032  -3.891  1.00 20.00     0.012 C 
HETATM    3  C3  UNL     1     -32.765  15.302  -3.841  1.00 20.00     0.012 C 
HETATM    4  C4  UNL     1     -36.174  16.163  -4.337  1.00 20.00     0.051 C 
HETATM    5  C5  UNL     1     -34.012  17.434  -4.286  1.00 20.00     0.051 C 
HETATM    6  C6  UNL     1     -35.655  15.222  -3.237  1.00 20.00    -0.010 C 
HETATM    7  C7  UNL     1     -33.477  16.501  -3.186  1.00 20.00    -0.010 C 
HETATM    8  C8  UNL     1     -33.746  14.534  -4.744  1.00 20.00     0.024 C 
HETATM    9  C9  UNL     1     -34.272  15.485  -5.831  1.00 20.00     0.213 C 
HETATM   10  C10 UNL     1     -34.996  16.668  -5.181  1.00 20.00     0.135 C 
HETATM   11  F11 UNL     1     -35.146  14.808  -6.626  1.00 20.00    -0.246 F 
HETATM   12  F12 UNL     1     -35.457  17.498  -6.149  1.00 20.00    -0.240 F 
ENDROOT
TORSDOF 0
ENDMDL
MODEL 3
REMARK VINA RESULT:      -4.7      1.362      2.092
REMARK  0 active torsions:
REMARK  status: ('A' for Active; 'I' for Inactive)
ROOT
HETATM    1  C1  UNL     1     -36.131  14.395  -5.696  1.00 20.00     0.009 C 
HETATM    2  C2  UNL     1     -36.114  15.594  -3.494  1.00 20.00     0.012 C 
HETATM    3  C3  UNL     1     -35.341  16.774  -5.569  1.00 20.00     0.012 C 
HETATM    4  C4  UNL     1     -34.472  13.748  -3.928  1.00 20.00     0.051 C 
HETATM    5  C5  UNL     1     -33.701  14.926  -6.003  1.00 20.00     0.051 C 
HETATM    6  C6  UNL     1     -35.910  14.231  -4.180  1.00 20.00    -0.010 C 
HETATM    7  C7  UNL     1     -35.134  15.418  -6.270  1.00 20.00    -0.010 C 
HETATM    8  C8  UNL     1     -35.114  16.626  -4.055  1.00 20.00     0.024 C 
HETATM    9  C9  UNL     1     -33.681  16.129  -3.811  1.00 20.00     0.213 C 
HETATM   10  C10 UNL     1     -33.479  14.771  -4.493  1.00 20.00     0.135 C 
HETATM   11  F11 UNL     1     -33.482  15.990  -2.472  1.00 20.00    -0.246 F 
HETATM   12  F12 UNL     1     -32.212  14.342  -4.270  1.00 20.00    -0.240 F 
ENDROOT
TORSDOF 0
ENDMDL
MODEL 4
REMARK VINA RESULT:      -4.7      1.147      2.378
REMARK  0 active torsions:
REMARK  status: ('A' for Active; 'I' for Inactive)
ROOT
HETATM    1  C1  UNL     1     -33.962  15.080  -5.875  1.00 20.00     0.009 C 
HETATM    2  C2  UNL     1     -34.881  13.959  -3.829  1.00 20.00     0.012 C 
HETATM    3  C3  UNL     1     -36.316  15.547  -5.138  1.00 20.00     0.012 C 
HETATM    4  C4  UNL     1     -33.119  15.730  -3.602  1.00 20.00     0.051 C 
HETATM    5  C5  UNL     1     -34.551  17.318  -4.912  1.00 20.00     0.051 C 
HETATM    6  C6  UNL     1     -33.615  14.559  -4.467  1.00 20.00    -0.010 C 
HETATM    7  C7  UNL     1     -35.058  16.157  -5.786  1.00 20.00    -0.010 C 
HETATM    8  C8  UNL     1     -35.984  15.031  -3.727  1.00 20.00     0.024 C 
HETATM    9  C9  UNL     1     -35.476  16.203  -2.874  1.00 20.00     0.213 C 
HETATM   10  C10 UNL     1     -34.215  16.799  -3.507  1.00 20.00     0.135 C 
HETATM   11  F11 UNL     1     -35.175  15.746  -1.627  1.00 20.00    -0.246 F 
HETATM   12  F12 UNL     1     -33.775  17.831  -2.745  1.00 20.00    -0.240 F 
ENDROOT
TORSDOF 0
ENDMDL
MODEL 5
REMARK VINA RESULT:      -4.6     11.842     13.205
REMARK  0 active torsions:
REMARK  status: ('A' for Active; 'I' for Inactive)
ROOT
HETATM    1  C1  UNL     1     -43.417   6.298  -1.969  1.00 20.00     0.009 C 
HETATM    2  C2  UNL     1     -41.413   7.678  -1.363  1.00 20.00     0.012 C 
HETATM    3  C3  UNL     1     -41.286   5.174  -1.264  1.00 20.00     0.012 C 
HETATM    4  C4  UNL     1     -43.414   7.641   0.151  1.00 20.00     0.051 C 
HETATM    5  C5  UNL     1     -43.289   5.138   0.248  1.00 20.00     0.051 C 
HETATM    6  C6  UNL     1     -42.951   7.613  -1.316  1.00 20.00    -0.010 C 
HETATM    7  C7  UNL     1     -42.824   5.092  -1.218  1.00 20.00    -0.010 C 
HETATM    8  C8  UNL     1     -40.807   6.479  -0.606  1.00 20.00     0.024 C 
HETATM    9  C9  UNL     1     -41.286   6.507   0.854  1.00 20.00     0.213 C 
HETATM   10  C10 UNL     1     -42.816   6.444   0.901  1.00 20.00     0.135 C 
HETATM   11  F11 UNL     1     -40.869   7.665   1.436  1.00 20.00    -0.246 F 
HETATM   12  F12 UNL     1     -43.226   6.470   2.194  1.00 20.00    -0.240 F 
ENDROOT
TORSDOF 0
ENDMDL
MODEL 6
REMARK VINA RESULT:      -4.6      1.581      2.744
REMARK  0 active torsions:
REMARK  status: ('A' for Active; 'I' for Inactive)
ROOT
HETATM    1  C1  UNL     1     -32.873  15.447  -3.748  1.00 20.00     0.009 C 
HETATM    2  C2  UNL     1     -34.854  15.938  -2.291  1.00 20.00     0.012 C 
HETATM    3  C3  UNL     1     -34.971  14.089  -3.983  1.00 20.00     0.012 C 
HETATM    4  C4  UNL     1     -34.193  17.552  -4.095  1.00 20.00     0.051 C 
HETATM    5  C5  UNL     1     -34.309  15.704  -5.786  1.00 20.00     0.051 C 
HETATM    6  C6  UNL     1     -33.663  16.564  -3.042  1.00 20.00    -0.010 C 
HETATM    7  C7  UNL     1     -33.780  14.703  -4.745  1.00 20.00    -0.010 C 
HETATM    8  C8  UNL     1     -35.775  15.196  -3.281  1.00 20.00     0.024 C 
HETATM    9  C9  UNL     1     -36.288  16.188  -4.337  1.00 20.00     0.213 C 
HETATM   10  C10 UNL     1     -35.104  16.812  -5.082  1.00 20.00     0.135 C 
HETATM   11  F11 UNL     1     -36.993  17.172  -3.715  1.00 20.00    -0.246 F 
HETATM   12  F12 UNL     1     -35.569  17.685  -6.010  1.00 20.00    -0.240 F 
ENDROOT
TORSDOF 0
ENDMDL
MODEL 7
REMARK VINA RESULT:      -4.6      1.019      2.923
REMARK  0 active torsions:
REMARK  status: ('A' for Active; 'I' for Inactive)
ROOT
HETATM    1  C1  UNL     1     -34.961  14.112  -4.028  1.00 20.00     0.009 C 
HETATM    2  C2  UNL     1     -32.928  15.539  -3.686  1.00 20.00     0.012 C 
HETATM    3  C3  UNL     1     -34.966  15.904  -2.269  1.00 20.00     0.012 C 
HETATM    4  C4  UNL     1     -34.314  15.810  -5.759  1.00 20.00     0.051 C 
HETATM    5  C5  UNL     1     -36.353  16.173  -4.344  1.00 20.00     0.051 C 
HETATM    6  C6  UNL     1     -33.776  14.797  -4.735  1.00 20.00    -0.010 C 
HETATM    7  C7  UNL     1     -35.828  15.162  -3.309  1.00 20.00    -0.010 C 
HETATM    8  C8  UNL     1     -33.784  16.600  -2.965  1.00 20.00     0.024 C 
HETATM    9  C9  UNL     1     -34.329  17.599  -3.996  1.00 20.00     0.213 C 
HETATM   10  C10 UNL     1     -35.171  16.861  -5.041  1.00 20.00     0.135 C 
HETATM   11  F11 UNL     1     -33.283  18.210  -4.618  1.00 20.00    -0.246 F 
HETATM   12  F12 UNL     1     -35.646  17.752  -5.946  1.00 20.00    -0.240 F 
ENDROOT
TORSDOF 0
ENDMDL
MODEL 8
REMARK VINA RESULT:      -4.5     11.806     13.211
REMARK  0 active torsions:
REMARK  status: ('A' for Active; 'I' for Inactive)
ROOT
HETATM    1  C1  UNL     1     -43.400   7.758   0.723  1.00 20.00     0.009 C 
HETATM    2  C2  UNL     1     -41.162   6.661   1.002  1.00 20.00     0.012 C 
HETATM    3  C3  UNL     1     -41.487   8.412  -0.766  1.00 20.00     0.012 C 
HETATM    4  C4  UNL     1     -43.090   5.355   0.069  1.00 20.00     0.051 C 
HETATM    5  C5  UNL     1     -43.417   7.106  -1.697  1.00 20.00     0.051 C 
HETATM    6  C6  UNL     1     -42.684   6.441   1.080  1.00 20.00    -0.010 C 
HETATM    7  C7  UNL     1     -43.013   8.205  -0.699  1.00 20.00    -0.010 C 
HETATM    8  C8  UNL     1     -40.761   7.101  -0.421  1.00 20.00     0.024 C 
HETATM    9  C9  UNL     1     -41.183   6.017  -1.425  1.00 20.00     0.213 C 
HETATM   10  C10 UNL     1     -42.697   5.797  -1.346  1.00 20.00     0.135 C 
HETATM   11  F11 UNL     1     -40.546   4.854  -1.116  1.00 20.00    -0.246 F 
HETATM   12  F12 UNL     1     -43.057   4.838  -2.235  1.00 20.00    -0.240 F 
ENDROOT
TORSDOF 0
ENDMDL
MODEL 9
REMARK VINA RESULT:      -4.5      2.016      3.255
REMARK  0 active torsions:
REMARK  status: ('A' for Active; 'I' for Inactive)
ROOT
HETATM    1  C1  UNL     1     -35.783  17.721  -3.741  1.00 20.00     0.009 C 
HETATM    2  C2  UNL     1     -34.965  15.817  -2.329  1.00 20.00     0.012 C 
HETATM    3  C3  UNL     1     -33.324  17.239  -3.587  1.00 20.00     0.012 C 
HETATM    4  C4  UNL     1     -36.205  15.355  -4.461  1.00 20.00     0.051 C 
HETATM    5  C5  UNL     1     -34.566  16.777  -5.718  1.00 20.00     0.051 C 
HETATM    6  C6  UNL     1     -36.103  16.297  -3.249  1.00 20.00    -0.010 C 
HETATM    7  C7  UNL     1     -34.452  17.729  -4.515  1.00 20.00    -0.010 C 
HETATM    8  C8  UNL     1     -33.628  15.813  -3.096  1.00 20.00     0.024 C 
HETATM    9  C9  UNL     1     -33.743  14.880  -4.313  1.00 20.00     0.213 C 
HETATM   10  C10 UNL     1     -34.876  15.357  -5.227  1.00 20.00     0.135 C 
HETATM   11  F11 UNL     1     -34.019  13.619  -3.880  1.00 20.00    -0.246 F 
HETATM   12  F12 UNL     1     -34.969  14.526  -6.296  1.00 20.00    -0.240 F 
ENDROOT
TORSDOF 0
ENDMDL
