MODEL 1
REMARK VINA RESULT:      -5.7      0.000      0.000
REMARK  1 active torsions:
REMARK  status: ('A' for Active; 'I' for Inactive)
REMARK    1  A    between atoms: C1_1  and  C3_3 
ROOT
HETATM    1  C1  UNL     1     -35.060  14.700  -3.749  1.00 20.00     0.038 A 
HETATM    2  C2  UNL     1     -33.799  14.985  -4.504  1.00 20.00     0.160 A 
HETATM    3  C4  UNL     1     -32.985  15.995  -3.718  1.00 20.00     0.090 A 
HETATM    4  C5  UNL     1     -35.079  15.454  -2.486  1.00 20.00     0.039 A 
HETATM    5  C6  UNL     1     -33.788  16.261  -2.463  1.00 20.00     0.011 A 
HETATM    6  C7  UNL     1     -35.133  16.968  -2.441  1.00 20.00    -0.035 A 
HETATM    7  C9  UNL     1     -35.601  17.753  -3.641  1.00 20.00     0.016 C 
HETATM    8  C10 UNL     1     -35.552  17.592  -1.131  1.00 20.00     0.016 C 
HETATM    9  O12 UNL     1     -33.480  14.496  -5.575  1.00 20.00    -0.293 OA
ENDROOT
BRANCH   1  10
HETATM   10  C3  UNL     1     -35.981  13.868  -4.241  1.00 20.00     0.155 C 
HETATM   11  C8  UNL     1     -37.382  14.410  -4.476  1.00 20.00     0.096 C 
HETATM   12  O11 UNL     1     -35.905  12.645  -4.569  1.00 20.00    -0.293 OA
ENDBRANCH   1  10
TORSDOF 1
ENDMDL
MODEL 2
REMARK VINA RESULT:      -5.3      1.155      1.262
REMARK  1 active torsions:
REMARK  status: ('A' for Active; 'I' for Inactive)
REMARK    1  A    between atoms: C1_1  and  C3_3 
ROOT
HETATM    1  C1  UNL     1     -35.844  15.019  -3.923  1.00 20.00     0.038 A 
HETATM    2  C2  UNL     1     -34.795  14.755  -4.958  1.00 20.00     0.160 A 
HETATM    3  C4  UNL     1     -33.448  15.162  -4.392  1.00 20.00     0.090 A 
HETATM    4  C5  UNL     1     -35.228  15.544  -2.694  1.00 20.00     0.039 A 
HETATM    5  C6  UNL     1     -33.735  15.633  -2.983  1.00 20.00     0.011 A 
HETATM    6  C7  UNL     1     -34.526  16.886  -2.644  1.00 20.00    -0.035 A 
HETATM    7  C9  UNL     1     -34.791  17.929  -3.701  1.00 20.00     0.016 C 
HETATM    8  C10 UNL     1     -34.301  17.481  -1.274  1.00 20.00     0.016 C 
HETATM    9  O12 UNL     1     -34.988  14.297  -6.072  1.00 20.00    -0.293 OA
ENDROOT
BRANCH   1  10
HETATM   10  C3  UNL     1     -37.134  14.785  -4.178  1.00 20.00     0.155 C 
HETATM   11  C8  UNL     1     -38.076  15.976  -4.247  1.00 20.00     0.096 C 
HETATM   12  O11 UNL     1     -37.756  13.699  -4.387  1.00 20.00    -0.293 OA
ENDBRANCH   1  10
TORSDOF 1
ENDMDL
MODEL 3
REMARK VINA RESULT:      -5.0      1.547      2.188
REMARK  1 active torsions:
REMARK  status: ('A' for Active; 'I' for Inactive)
REMARK    1  A    between atoms: C1_1  and  C3_3 
ROOT
HETATM    1  C1  UNL     1     -36.494  14.934  -3.953  1.00 20.00     0.038 A 
HETATM    2  C2  UNL     1     -35.591  13.772  -4.233  1.00 20.00     0.160 A 
HETATM    3  C4  UNL     1     -34.191  14.130  -3.772  1.00 20.00     0.090 A 
HETATM    4  C5  UNL     1     -35.745  16.015  -3.294  1.00 20.00     0.039 A 
HETATM    5  C6  UNL     1     -34.310  15.517  -3.179  1.00 20.00     0.011 A 
HETATM    6  C7  UNL     1     -34.624  16.768  -3.984  1.00 20.00    -0.035 A 
HETATM    7  C9  UNL     1     -34.506  16.756  -5.488  1.00 20.00     0.016 C 
HETATM    8  C10 UNL     1     -34.220  18.088  -3.373  1.00 20.00     0.016 C 
HETATM    9  O12 UNL     1     -35.920  12.718  -4.750  1.00 20.00    -0.293 OA
ENDROOT
BRANCH   1  10
HETATM   10  C3  UNL     1     -37.783  14.899  -4.299  1.00 20.00     0.155 C 
HETATM   11  C8  UNL     1     -38.444  16.200  -4.727  1.00 20.00     0.096 C 
HETATM   12  O11 UNL     1     -38.606  13.935  -4.341  1.00 20.00    -0.293 OA
ENDBRANCH   1  10
TORSDOF 1
ENDMDL
MODEL 4
REMARK VINA RESULT:      -4.8      3.076      4.931
REMARK  1 active torsions:
REMARK  status: ('A' for Active; 'I' for Inactive)
REMARK    1  A    between atoms: C1_1  and  C3_3 
ROOT
HETATM    1  C1  UNL     1     -33.166  17.402  -1.996  1.00 20.00     0.038 A 
HETATM    2  C2  UNL     1     -34.457  17.520  -1.245  1.00 20.00     0.160 A 
HETATM    3  C4  UNL     1     -35.371  16.391  -1.679  1.00 20.00     0.090 A 
HETATM    4  C5  UNL     1     -33.191  16.219  -2.870  1.00 20.00     0.039 A 
HETATM    5  C6  UNL     1     -34.562  15.586  -2.674  1.00 20.00     0.011 A 
HETATM    6  C7  UNL     1     -34.142  16.093  -4.044  1.00 20.00    -0.035 A 
HETATM    7  C9  UNL     1     -34.794  17.317  -4.636  1.00 20.00     0.016 C 
HETATM    8  C10 UNL     1     -33.803  15.048  -5.080  1.00 20.00     0.016 C 
HETATM    9  O12 UNL     1     -34.733  18.382  -0.428  1.00 20.00    -0.293 OA
ENDROOT
BRANCH   1  10
HETATM   10  C3  UNL     1     -32.192  18.301  -1.831  1.00 20.00     0.155 C 
HETATM   11  C8  UNL     1     -31.350  18.217  -0.568  1.00 20.00     0.096 C 
HETATM   12  O11 UNL     1     -31.815  19.261  -2.567  1.00 20.00    -0.293 OA
ENDBRANCH   1  10
TORSDOF 1
ENDMDL
MODEL 5
REMARK VINA RESULT:      -4.7      1.821      2.884
REMARK  1 active torsions:
REMARK  status: ('A' for Active; 'I' for Inactive)
REMARK    1  A    between atoms: C1_1  and  C3_3 
ROOT
HETATM    1  C1  UNL     1     -34.919  16.313  -5.087  1.00 20.00     0.038 A 
HETATM    2  C2  UNL     1     -34.231  15.006  -5.339  1.00 20.00     0.160 A 
HETATM    3  C4  UNL     1     -34.267  14.190  -4.062  1.00 20.00     0.090 A 
HETATM    4  C5  UNL     1     -35.434  16.360  -3.710  1.00 20.00     0.039 A 
HETATM    5  C6  UNL     1     -35.031  15.039  -3.069  1.00 20.00     0.011 A 
HETATM    6  C7  UNL     1     -34.524  16.353  -2.498  1.00 20.00    -0.035 A 
HETATM    7  C9  UNL     1     -33.069  16.731  -2.631  1.00 20.00     0.016 C 
HETATM    8  C10 UNL     1     -35.131  16.806  -1.192  1.00 20.00     0.016 C 
HETATM    9  O12 UNL     1     -33.720  14.658  -6.390  1.00 20.00    -0.293 OA
ENDROOT
BRANCH   1  10
HETATM   10  C3  UNL     1     -34.995  17.243  -6.042  1.00 20.00     0.155 C 
HETATM   11  C8  UNL     1     -34.130  18.485  -5.900  1.00 20.00     0.096 C 
HETATM   12  O11 UNL     1     -35.689  17.290  -7.103  1.00 20.00    -0.293 OA
ENDBRANCH   1  10
TORSDOF 1
ENDMDL
MODEL 6
REMARK VINA RESULT:      -4.5      1.189      3.145
REMARK  1 active torsions:
REMARK  status: ('A' for Active; 'I' for Inactive)
REMARK    1  A    between atoms: C1_1  and  C3_3 
ROOT
HETATM    1  C1  UNL     1     -35.273  15.032  -5.063  1.00 20.00     0.038 A 
HETATM    2  C2  UNL     1     -36.188  13.931  -4.622  1.00 20.00     0.160 A 
HETATM    3  C4  UNL     1     -37.490  14.548  -4.149  1.00 20.00     0.090 A 
HETATM    4  C5  UNL     1     -35.943  16.335  -4.932  1.00 20.00     0.039 A 
HETATM    5  C6  UNL     1     -37.324  16.037  -4.364  1.00 20.00     0.011 A 
HETATM    6  C7  UNL     1     -36.351  16.911  -3.591  1.00 20.00    -0.035 A 
HETATM    7  C9  UNL     1     -35.720  16.406  -2.317  1.00 20.00     0.016 C 
HETATM    8  C10 UNL     1     -36.648  18.391  -3.552  1.00 20.00     0.016 C 
HETATM    9  O12 UNL     1     -35.931  12.739  -4.632  1.00 20.00    -0.293 OA
ENDROOT
BRANCH   1  10
HETATM   10  C3  UNL     1     -34.037  14.765  -5.492  1.00 20.00     0.155 C 
HETATM   11  C8  UNL     1     -32.953  14.535  -4.450  1.00 20.00     0.096 C 
HETATM   12  O11 UNL     1     -33.570  14.661  -6.666  1.00 20.00    -0.293 OA
ENDBRANCH   1  10
TORSDOF 1
ENDMDL
MODEL 7
REMARK VINA RESULT:      -4.5      2.116      3.352
REMARK  1 active torsions:
REMARK  status: ('A' for Active; 'I' for Inactive)
REMARK    1  A    between atoms: C1_1  and  C3_3 
ROOT
HETATM    1  C1  UNL     1     -35.198  15.789  -5.668  1.00 20.00     0.038 A 
HETATM    2  C2  UNL     1     -35.737  14.408  -5.454  1.00 20.00     0.160 A 
HETATM    3  C4  UNL     1     -35.642  14.078  -3.977  1.00 20.00     0.090 A 
HETATM    4  C5  UNL     1     -34.794  16.383  -4.384  1.00 20.00     0.039 A 
HETATM    5  C6  UNL     1     -35.070  15.321  -3.329  1.00 20.00     0.011 A 
HETATM    6  C7  UNL     1     -33.655  15.829  -3.552  1.00 20.00    -0.035 A 
HETATM    7  C9  UNL     1     -32.614  14.934  -4.179  1.00 20.00     0.016 C 
HETATM    8  C10 UNL     1     -33.084  16.740  -2.492  1.00 20.00     0.016 C 
HETATM    9  O12 UNL     1     -36.172  13.668  -6.319  1.00 20.00    -0.293 OA
ENDROOT
BRANCH   1  10
HETATM   10  C3  UNL     1     -35.129  16.316  -6.893  1.00 20.00     0.155 C 
HETATM   11  C8  UNL     1     -33.969  15.902  -7.784  1.00 20.00     0.096 C 
HETATM   12  O11 UNL     1     -35.888  17.139  -7.487  1.00 20.00    -0.293 OA
ENDBRANCH   1  10
TORSDOF 1
ENDMDL
MODEL 8
REMARK VINA RESULT:      -4.5      2.936      4.652
REMARK  1 active torsions:
REMARK  status: ('A' for Active; 'I' for Inactive)
REMARK    1  A    between atoms: C1_1  and  C3_3 
ROOT
HETATM    1  C1  UNL     1     -33.366  17.227  -2.571  1.00 20.00     0.038 A 
HETATM    2  C2  UNL     1     -34.599  17.148  -1.726  1.00 20.00     0.160 A 
HETATM    3  C4  UNL     1     -35.355  15.886  -2.093  1.00 20.00     0.090 A 
HETATM    4  C5  UNL     1     -33.270  16.046  -3.444  1.00 20.00     0.039 A 
HETATM    5  C6  UNL     1     -34.507  15.208  -3.148  1.00 20.00     0.011 A 
HETATM    6  C7  UNL     1     -34.274  15.762  -4.544  1.00 20.00    -0.035 A 
HETATM    7  C9  UNL     1     -35.152  16.865  -5.083  1.00 20.00     0.016 C 
HETATM    8  C10 UNL     1     -33.854  14.775  -5.606  1.00 20.00     0.016 C 
HETATM    9  O12 UNL     1     -34.946  17.963  -0.888  1.00 20.00    -0.293 OA
ENDROOT
BRANCH   1  10
HETATM   10  C3  UNL     1     -32.535  18.268  -2.478  1.00 20.00     0.155 C 
HETATM   11  C8  UNL     1     -32.504  19.263  -3.626  1.00 20.00     0.096 C 
HETATM   12  O11 UNL     1     -31.724  18.603  -1.562  1.00 20.00    -0.293 OA
ENDBRANCH   1  10
TORSDOF 1
ENDMDL
MODEL 9
REMARK VINA RESULT:      -4.4      1.432      1.863
REMARK  1 active torsions:
REMARK  status: ('A' for Active; 'I' for Inactive)
REMARK    1  A    between atoms: C1_1  and  C3_3 
ROOT
HETATM    1  C1  UNL     1     -33.974  15.660  -3.887  1.00 20.00     0.038 A 
HETATM    2  C2  UNL     1     -34.150  16.669  -4.980  1.00 20.00     0.160 A 
HETATM    3  C4  UNL     1     -33.933  18.052  -4.396  1.00 20.00     0.090 A 
HETATM    4  C5  UNL     1     -33.614  16.330  -2.628  1.00 20.00     0.039 A 
HETATM    5  C6  UNL     1     -33.586  17.820  -2.942  1.00 20.00     0.011 A 
HETATM    6  C7  UNL     1     -34.556  17.273  -1.907  1.00 20.00    -0.035 A 
HETATM    7  C9  UNL     1     -36.037  17.242  -2.193  1.00 20.00     0.016 C 
HETATM    8  C10 UNL     1     -34.244  17.568  -0.460  1.00 20.00     0.016 C 
HETATM    9  O12 UNL     1     -34.428  16.425  -6.141  1.00 20.00    -0.293 OA
ENDROOT
BRANCH   1  10
HETATM   10  C3  UNL     1     -34.150  14.358  -4.122  1.00 20.00     0.155 C 
HETATM   11  C8  UNL     1     -35.572  13.820  -4.140  1.00 20.00     0.096 C 
HETATM   12  O11 UNL     1     -33.311  13.434  -4.346  1.00 20.00    -0.293 OA
ENDBRANCH   1  10
TORSDOF 1
ENDMDL
