MODEL 1
REMARK VINA RESULT:      -3.7      0.000      0.000
REMARK  0 active torsions:
REMARK  status: ('A' for Active; 'I' for Inactive)
ROOT
HETATM    1  C1  UNL     1     -34.220   6.621   5.988  1.00 20.00     0.028 C 
HETATM    2  C2  UNL     1     -34.708   5.196   5.939  1.00 20.00     0.028 C 
HETATM    3  C3  UNL     1     -33.476   6.740   4.675  1.00 20.00     0.167 C 
HETATM    4  C4  UNL     1     -35.043   5.031   4.472  1.00 20.00     0.167 C 
HETATM    5  O5  UNL     1     -34.139   5.872   3.744  1.00 20.00    -0.391 OA
ENDROOT
TORSDOF 0
ENDMDL
MODEL 2
REMARK VINA RESULT:      -3.7      0.005      1.754
REMARK  0 active torsions:
REMARK  status: ('A' for Active; 'I' for Inactive)
ROOT
HETATM    1  C1  UNL     1     -34.705   5.197   5.941  1.00 20.00     0.028 C 
HETATM    2  C2  UNL     1     -34.218   6.623   5.984  1.00 20.00     0.028 C 
HETATM    3  C3  UNL     1     -35.043   5.029   4.476  1.00 20.00     0.167 C 
HETATM    4  C4  UNL     1     -33.477   6.739   4.670  1.00 20.00     0.167 C 
HETATM    5  O5  UNL     1     -34.139   5.868   3.743  1.00 20.00    -0.391 OA
ENDROOT
TORSDOF 0
ENDMDL
MODEL 3
REMARK VINA RESULT:      -3.6      1.074      1.812
REMARK  0 active torsions:
REMARK  status: ('A' for Active; 'I' for Inactive)
ROOT
HETATM    1  C1  UNL     1     -33.963   6.380   5.674  1.00 20.00     0.028 C 
HETATM    2  C2  UNL     1     -34.045   6.591   4.184  1.00 20.00     0.028 C 
HETATM    3  C3  UNL     1     -34.923   5.227   5.877  1.00 20.00     0.167 C 
HETATM    4  C4  UNL     1     -34.173   5.172   3.675  1.00 20.00     0.167 C 
HETATM    5  O5  UNL     1     -34.872   4.431   4.685  1.00 20.00    -0.391 OA
ENDROOT
TORSDOF 0
ENDMDL
MODEL 4
REMARK VINA RESULT:      -3.6      1.081      1.737
REMARK  0 active torsions:
REMARK  status: ('A' for Active; 'I' for Inactive)
ROOT
HETATM    1  C1  UNL     1     -34.038   6.580   4.146  1.00 20.00     0.028 C 
HETATM    2  C2  UNL     1     -33.952   6.398   5.640  1.00 20.00     0.028 C 
HETATM    3  C3  UNL     1     -34.174   5.152   3.666  1.00 20.00     0.167 C 
HETATM    4  C4  UNL     1     -34.916   5.253   5.870  1.00 20.00     0.167 C 
HETATM    5  O5  UNL     1     -34.873   4.435   4.694  1.00 20.00    -0.391 OA
ENDROOT
TORSDOF 0
ENDMDL
MODEL 5
REMARK VINA RESULT:      -3.5      1.118      2.219
REMARK  0 active torsions:
REMARK  status: ('A' for Active; 'I' for Inactive)
ROOT
HETATM    1  C1  UNL     1     -35.168   4.933   4.595  1.00 20.00     0.028 C 
HETATM    2  C2  UNL     1     -34.078   5.340   3.636  1.00 20.00     0.028 C 
HETATM    3  C3  UNL     1     -34.665   5.509   5.900  1.00 20.00     0.167 C 
HETATM    4  C4  UNL     1     -33.704   6.712   4.155  1.00 20.00     0.167 C 
HETATM    5  O5  UNL     1     -33.923   6.693   5.572  1.00 20.00    -0.391 OA
ENDROOT
TORSDOF 0
ENDMDL
MODEL 6
REMARK VINA RESULT:      -3.5      1.198      1.788
REMARK  0 active torsions:
REMARK  status: ('A' for Active; 'I' for Inactive)
ROOT
HETATM    1  C1  UNL     1     -34.045   5.609   3.712  1.00 20.00     0.028 C 
HETATM    2  C2  UNL     1     -35.171   5.000   4.507  1.00 20.00     0.028 C 
HETATM    3  C3  UNL     1     -33.748   6.863   4.505  1.00 20.00     0.167 C 
HETATM    4  C4  UNL     1     -34.761   5.325   5.927  1.00 20.00     0.167 C 
HETATM    5  O5  UNL     1     -34.043   6.565   5.877  1.00 20.00    -0.391 OA
ENDROOT
TORSDOF 0
ENDMDL
MODEL 7
REMARK VINA RESULT:      -2.7     12.432     12.668
REMARK  0 active torsions:
REMARK  status: ('A' for Active; 'I' for Inactive)
ROOT
HETATM    1  C1  UNL     1     -33.344  15.817  -3.572  1.00 20.00     0.028 C 
HETATM    2  C2  UNL     1     -34.619  15.461  -2.851  1.00 20.00     0.028 C 
HETATM    3  C3  UNL     1     -33.079  14.560  -4.372  1.00 20.00     0.167 C 
HETATM    4  C4  UNL     1     -35.356  14.656  -3.900  1.00 20.00     0.167 C 
HETATM    5  O5  UNL     1     -34.358  13.993  -4.689  1.00 20.00    -0.391 OA
ENDROOT
TORSDOF 0
ENDMDL
MODEL 8
REMARK VINA RESULT:      -2.7      8.900      9.132
REMARK  0 active torsions:
REMARK  status: ('A' for Active; 'I' for Inactive)
ROOT
HETATM    1  C1  UNL     1     -41.249   7.340  -1.080  1.00 20.00     0.028 C 
HETATM    2  C2  UNL     1     -41.527   7.856   0.309  1.00 20.00     0.028 C 
HETATM    3  C3  UNL     1     -41.093   5.855  -0.834  1.00 20.00     0.167 C 
HETATM    4  C4  UNL     1     -42.378   6.747   0.889  1.00 20.00     0.167 C 
HETATM    5  O5  UNL     1     -41.944   5.527   0.274  1.00 20.00    -0.391 OA
ENDROOT
TORSDOF 0
ENDMDL
MODEL 9
REMARK VINA RESULT:      -2.7      8.905      9.132
REMARK  0 active torsions:
REMARK  status: ('A' for Active; 'I' for Inactive)
ROOT
HETATM    1  C1  UNL     1     -41.533   7.864   0.336  1.00 20.00     0.028 C 
HETATM    2  C2  UNL     1     -41.264   7.383  -1.067  1.00 20.00     0.028 C 
HETATM    3  C3  UNL     1     -42.384   6.744   0.891  1.00 20.00     0.167 C 
HETATM    4  C4  UNL     1     -41.111   5.891  -0.860  1.00 20.00     0.167 C 
HETATM    5  O5  UNL     1     -41.955   5.537   0.243  1.00 20.00    -0.391 OA
ENDROOT
TORSDOF 0
ENDMDL
