MODEL 1
REMARK VINA RESULT:      -3.5      0.000      0.000
REMARK  0 active torsions:
REMARK  status: ('A' for Active; 'I' for Inactive)
ROOT
HETATM    1  C1  UNL     1     -36.011  14.056  -4.685  1.00 20.00     0.201 C 
HETATM    2  C2  UNL     1     -33.562  14.621  -4.673  1.00 20.00     0.099 C 
HETATM    3  C3  UNL     1     -34.797  14.337  -3.811  1.00 20.00     0.074 C 
HETATM    4  C4  UNL     1     -35.116  15.473  -2.838  1.00 20.00     0.020 C 
HETATM    5  O5  UNL     1     -37.035  13.522  -4.279  1.00 20.00    -0.284 OA
HETATM    6  S6  UNL     1     -35.846  14.612  -6.349  1.00 20.00    -0.019 SA
HETATM    7  S7  UNL     1     -34.103  15.635  -6.060  1.00 20.00    -0.089 SA
ENDROOT
TORSDOF 0
ENDMDL
MODEL 2
REMARK VINA RESULT:      -3.4     18.523     18.844
REMARK  0 active torsions:
REMARK  status: ('A' for Active; 'I' for Inactive)
ROOT
HETATM    1  C1  UNL     1     -22.931  18.024   8.367  1.00 20.00     0.201 C 
HETATM    2  C2  UNL     1     -24.125  17.151  10.399  1.00 20.00     0.099 C 
HETATM    3  C3  UNL     1     -24.279  17.880   9.059  1.00 20.00     0.074 C 
HETATM    4  C4  UNL     1     -24.933  19.254   9.202  1.00 20.00     0.020 C 
HETATM    5  O5  UNL     1     -22.798  18.294   7.181  1.00 20.00    -0.284 OA
HETATM    6  S6  UNL     1     -21.545  17.817   9.437  1.00 20.00    -0.019 SA
HETATM    7  S7  UNL     1     -22.620  17.770  11.171  1.00 20.00    -0.089 SA
ENDROOT
TORSDOF 0
ENDMDL
MODEL 3
REMARK VINA RESULT:      -3.4      1.901      2.097
REMARK  0 active torsions:
REMARK  status: ('A' for Active; 'I' for Inactive)
ROOT
HETATM    1  C1  UNL     1     -36.005  13.845  -4.638  1.00 20.00     0.201 C 
HETATM    2  C2  UNL     1     -35.410  16.122  -5.519  1.00 20.00     0.099 C 
HETATM    3  C3  UNL     1     -34.866  14.773  -5.037  1.00 20.00     0.074 C 
HETATM    4  C4  UNL     1     -33.883  14.909  -3.874  1.00 20.00     0.020 C 
HETATM    5  O5  UNL     1     -35.883  12.635  -4.501  1.00 20.00    -0.284 OA
HETATM    6  S6  UNL     1     -37.534  14.668  -4.336  1.00 20.00    -0.019 SA
HETATM    7  S7  UNL     1     -36.779  16.562  -4.434  1.00 20.00    -0.089 SA
ENDROOT
TORSDOF 0
ENDMDL
MODEL 4
REMARK VINA RESULT:      -3.3      1.727      2.038
REMARK  0 active torsions:
REMARK  status: ('A' for Active; 'I' for Inactive)
ROOT
HETATM    1  C1  UNL     1     -34.216  14.738  -4.199  1.00 20.00     0.201 C 
HETATM    2  C2  UNL     1     -33.361  17.048  -3.702  1.00 20.00     0.099 C 
HETATM    3  C3  UNL     1     -33.860  15.730  -3.100  1.00 20.00     0.074 C 
HETATM    4  C4  UNL     1     -35.059  15.918  -2.171  1.00 20.00     0.020 C 
HETATM    5  O5  UNL     1     -34.356  13.536  -4.014  1.00 20.00    -0.284 OA
HETATM    6  S6  UNL     1     -34.462  15.472  -5.782  1.00 20.00    -0.019 SA
HETATM    7  S7  UNL     1     -34.394  17.406  -5.132  1.00 20.00    -0.089 SA
ENDROOT
TORSDOF 0
ENDMDL
MODEL 5
REMARK VINA RESULT:      -3.3     18.797     19.375
REMARK  0 active torsions:
REMARK  status: ('A' for Active; 'I' for Inactive)
ROOT
HETATM    1  C1  UNL     1     -23.608  17.273  10.115  1.00 20.00     0.201 C 
HETATM    2  C2  UNL     1     -24.445  18.110  12.332  1.00 20.00     0.099 C 
HETATM    3  C3  UNL     1     -23.788  16.941  11.589  1.00 20.00     0.074 C 
HETATM    4  C4  UNL     1     -24.570  15.634  11.729  1.00 20.00     0.020 C 
HETATM    5  O5  UNL     1     -22.863  16.659   9.363  1.00 20.00    -0.284 OA
HETATM    6  S6  UNL     1     -24.612  18.607   9.548  1.00 20.00    -0.019 SA
HETATM    7  S7  UNL     1     -25.723  18.776  11.252  1.00 20.00    -0.089 SA
ENDROOT
TORSDOF 0
ENDMDL
MODEL 6
REMARK VINA RESULT:      -3.2     12.227     12.531
REMARK  0 active torsions:
REMARK  status: ('A' for Active; 'I' for Inactive)
ROOT
HETATM    1  C1  UNL     1     -33.212   6.559   3.286  1.00 20.00     0.201 C 
HETATM    2  C2  UNL     1     -35.208   5.554   4.436  1.00 20.00     0.099 C 
HETATM    3  C3  UNL     1     -34.212   6.719   4.422  1.00 20.00     0.074 C 
HETATM    4  C4  UNL     1     -33.466   6.878   5.746  1.00 20.00     0.020 C 
HETATM    5  O5  UNL     1     -32.505   7.466   2.866  1.00 20.00    -0.284 OA
HETATM    6  S6  UNL     1     -33.110   4.922   2.641  1.00 20.00    -0.019 SA
HETATM    7  S7  UNL     1     -34.278   4.055   4.073  1.00 20.00    -0.089 SA
ENDROOT
TORSDOF 0
ENDMDL
MODEL 7
REMARK VINA RESULT:      -3.1      1.744      2.321
REMARK  0 active torsions:
REMARK  status: ('A' for Active; 'I' for Inactive)
ROOT
HETATM    1  C1  UNL     1     -35.508  13.891  -4.243  1.00 20.00     0.201 C 
HETATM    2  C2  UNL     1     -35.773  16.128  -3.129  1.00 20.00     0.099 C 
HETATM    3  C3  UNL     1     -36.500  14.957  -3.799  1.00 20.00     0.074 C 
HETATM    4  C4  UNL     1     -37.354  15.392  -4.990  1.00 20.00     0.020 C 
HETATM    5  O5  UNL     1     -35.823  12.744  -4.532  1.00 20.00    -0.284 OA
HETATM    6  S6  UNL     1     -33.843  14.458  -4.358  1.00 20.00    -0.019 SA
HETATM    7  S7  UNL     1     -34.271  16.434  -4.074  1.00 20.00    -0.089 SA
ENDROOT
TORSDOF 0
ENDMDL
MODEL 8
REMARK VINA RESULT:      -3.0      2.321      2.615
REMARK  0 active torsions:
REMARK  status: ('A' for Active; 'I' for Inactive)
ROOT
HETATM    1  C1  UNL     1     -34.884  15.800  -2.597  1.00 20.00     0.201 C 
HETATM    2  C2  UNL     1     -33.211  14.935  -4.260  1.00 20.00     0.099 C 
HETATM    3  C3  UNL     1     -33.442  15.879  -3.076  1.00 20.00     0.074 C 
HETATM    4  C4  UNL     1     -33.085  17.331  -3.396  1.00 20.00     0.020 C 
HETATM    5  O5  UNL     1     -35.266  16.213  -1.510  1.00 20.00    -0.284 OA
HETATM    6  S6  UNL     1     -35.997  15.099  -3.771  1.00 20.00    -0.019 SA
HETATM    7  S7  UNL     1     -34.665  15.042  -5.317  1.00 20.00    -0.089 SA
ENDROOT
TORSDOF 0
ENDMDL
MODEL 9
REMARK VINA RESULT:      -3.0     11.198     12.010
REMARK  0 active torsions:
REMARK  status: ('A' for Active; 'I' for Inactive)
ROOT
HETATM    1  C1  UNL     1     -41.311   6.114  -0.581  1.00 20.00     0.201 C 
HETATM    2  C2  UNL     1     -42.963   6.618   1.245  1.00 20.00     0.099 C 
HETATM    3  C3  UNL     1     -42.362   5.527   0.351  1.00 20.00     0.074 C 
HETATM    4  C4  UNL     1     -43.417   4.783  -0.468  1.00 20.00     0.020 C 
HETATM    5  O5  UNL     1     -40.481   5.444  -1.181  1.00 20.00    -0.284 OA
HETATM    6  S6  UNL     1     -41.413   7.863  -0.773  1.00 20.00    -0.019 SA
HETATM    7  S7  UNL     1     -43.182   8.084   0.222  1.00 20.00    -0.089 SA
ENDROOT
TORSDOF 0
ENDMDL
