MODEL 1
REMARK VINA RESULT:      -3.9      0.000      0.000
REMARK  0 active torsions:
REMARK  status: ('A' for Active; 'I' for Inactive)
ROOT
HETATM    1  C1  UNL     1     -36.380  13.687  -4.376  1.00 20.00     0.260 C 
HETATM    2  C2  UNL     1     -35.654  14.945  -3.974  1.00 20.00     0.137 C 
HETATM    3  C3  UNL     1     -35.780  16.028  -5.031  1.00 20.00     0.177 C 
HETATM    4  C4  UNL     1     -38.461  14.976  -4.212  1.00 20.00     0.205 C 
HETATM    5  C5  UNL     1     -38.159  16.082  -5.209  1.00 20.00     0.194 C 
HETATM    6  O6  UNL     1     -35.785  12.626  -4.555  1.00 20.00    -0.265 OA
HETATM    7  O7  UNL     1     -37.723  13.776  -4.529  1.00 20.00    -0.319 OA
HETATM    8  O8  UNL     1     -36.972  16.789  -4.860  1.00 20.00    -0.389 OA
ENDROOT
TORSDOF 0
ENDMDL
MODEL 2
REMARK VINA RESULT:      -3.9     12.195     13.350
REMARK  0 active torsions:
REMARK  status: ('A' for Active; 'I' for Inactive)
ROOT
HETATM    1  C1  UNL     1     -33.039   6.663   3.656  1.00 20.00     0.260 C 
HETATM    2  C2  UNL     1     -34.096   5.788   3.035  1.00 20.00     0.137 C 
HETATM    3  C3  UNL     1     -34.159   4.425   3.702  1.00 20.00     0.177 C 
HETATM    4  C4  UNL     1     -34.387   6.639   5.706  1.00 20.00     0.205 C 
HETATM    5  C5  UNL     1     -34.442   5.142   5.961  1.00 20.00     0.194 C 
HETATM    6  O6  UNL     1     -32.071   7.064   3.013  1.00 20.00    -0.265 OA
HETATM    7  O7  UNL     1     -33.204   6.995   4.960  1.00 20.00    -0.319 OA
HETATM    8  O8  UNL     1     -35.001   4.444   4.852  1.00 20.00    -0.389 OA
ENDROOT
TORSDOF 0
ENDMDL
MODEL 3
REMARK VINA RESULT:      -3.9      1.918      3.079
REMARK  0 active torsions:
REMARK  status: ('A' for Active; 'I' for Inactive)
ROOT
HETATM    1  C1  UNL     1     -36.403  14.290  -4.574  1.00 20.00     0.260 C 
HETATM    2  C2  UNL     1     -36.144  15.495  -3.707  1.00 20.00     0.137 C 
HETATM    3  C3  UNL     1     -34.922  15.299  -2.826  1.00 20.00     0.177 C 
HETATM    4  C4  UNL     1     -34.288  14.798  -5.709  1.00 20.00     0.205 C 
HETATM    5  C5  UNL     1     -33.339  14.744  -4.524  1.00 20.00     0.194 C 
HETATM    6  O6  UNL     1     -37.432  13.627  -4.469  1.00 20.00    -0.265 OA
HETATM    7  O7  UNL     1     -35.449  13.971  -5.483  1.00 20.00    -0.319 OA
HETATM    8  O8  UNL     1     -33.724  15.664  -3.506  1.00 20.00    -0.389 OA
ENDROOT
TORSDOF 0
ENDMDL
MODEL 4
REMARK VINA RESULT:      -3.8      2.025      2.396
REMARK  0 active torsions:
REMARK  status: ('A' for Active; 'I' for Inactive)
ROOT
HETATM    1  C1  UNL     1     -35.848  13.645  -4.762  1.00 20.00     0.260 C 
HETATM    2  C2  UNL     1     -35.506  14.811  -3.871  1.00 20.00     0.137 C 
HETATM    3  C3  UNL     1     -34.140  15.387  -4.200  1.00 20.00     0.177 C 
HETATM    4  C4  UNL     1     -35.881  15.234  -6.631  1.00 20.00     0.205 C 
HETATM    5  C5  UNL     1     -34.467  15.780  -6.531  1.00 20.00     0.194 C 
HETATM    6  O6  UNL     1     -36.020  12.514  -4.311  1.00 20.00    -0.265 OA
HETATM    7  O7  UNL     1     -35.962  13.898  -6.088  1.00 20.00    -0.319 OA
HETATM    8  O8  UNL     1     -34.217  16.349  -5.249  1.00 20.00    -0.389 OA
ENDROOT
TORSDOF 0
ENDMDL
MODEL 5
REMARK VINA RESULT:      -3.8     18.848     19.648
REMARK  0 active torsions:
REMARK  status: ('A' for Active; 'I' for Inactive)
ROOT
HETATM    1  C1  UNL     1     -22.816  17.951   8.376  1.00 20.00     0.260 C 
HETATM    2  C2  UNL     1     -23.525  19.195   8.845  1.00 20.00     0.137 C 
HETATM    3  C3  UNL     1     -24.960  18.905   9.250  1.00 20.00     0.177 C 
HETATM    4  C4  UNL     1     -23.033  17.104  10.668  1.00 20.00     0.205 C 
HETATM    5  C5  UNL     1     -24.543  17.157  10.821  1.00 20.00     0.194 C 
HETATM    6  O6  UNL     1     -22.396  17.840   7.226  1.00 20.00    -0.265 OA
HETATM    7  O7  UNL     1     -22.656  16.956   9.282  1.00 20.00    -0.319 OA
HETATM    8  O8  UNL     1     -25.043  18.474  10.605  1.00 20.00    -0.389 OA
ENDROOT
TORSDOF 0
ENDMDL
MODEL 6
REMARK VINA RESULT:      -3.7      2.267      3.421
REMARK  0 active torsions:
REMARK  status: ('A' for Active; 'I' for Inactive)
ROOT
HETATM    1  C1  UNL     1     -34.293  15.118  -3.778  1.00 20.00     0.260 C 
HETATM    2  C2  UNL     1     -34.909  13.748  -3.888  1.00 20.00     0.137 C 
HETATM    3  C3  UNL     1     -36.236  13.786  -4.628  1.00 20.00     0.177 C 
HETATM    4  C4  UNL     1     -34.052  15.078  -6.220  1.00 20.00     0.205 C 
HETATM    5  C5  UNL     1     -35.505  14.881  -6.619  1.00 20.00     0.194 C 
HETATM    6  O6  UNL     1     -34.104  15.657  -2.690  1.00 20.00    -0.265 OA
HETATM    7  O7  UNL     1     -33.951  15.732  -4.937  1.00 20.00    -0.319 OA
HETATM    8  O8  UNL     1     -36.050  13.699  -6.038  1.00 20.00    -0.389 OA
ENDROOT
TORSDOF 0
ENDMDL
MODEL 7
REMARK VINA RESULT:      -3.7     19.023     19.993
REMARK  0 active torsions:
REMARK  status: ('A' for Active; 'I' for Inactive)
ROOT
HETATM    1  C1  UNL     1     -23.405  18.159   8.029  1.00 20.00     0.260 C 
HETATM    2  C2  UNL     1     -22.046  17.565   8.295  1.00 20.00     0.137 C 
HETATM    3  C3  UNL     1     -21.357  18.244   9.466  1.00 20.00     0.177 C 
HETATM    4  C4  UNL     1     -24.090  17.275  10.212  1.00 20.00     0.205 C 
HETATM    5  C5  UNL     1     -23.073  17.967  11.103  1.00 20.00     0.194 C 
HETATM    6  O6  UNL     1     -23.667  18.726   6.970  1.00 20.00    -0.265 OA
HETATM    7  O7  UNL     1     -24.332  18.036   9.010  1.00 20.00    -0.319 OA
HETATM    8  O8  UNL     1     -21.739  17.658  10.708  1.00 20.00    -0.389 OA
ENDROOT
TORSDOF 0
ENDMDL
MODEL 8
REMARK VINA RESULT:      -3.7     18.823     19.701
REMARK  0 active torsions:
REMARK  status: ('A' for Active; 'I' for Inactive)
ROOT
HETATM    1  C1  UNL     1     -23.209  17.776  10.537  1.00 20.00     0.260 C 
HETATM    2  C2  UNL     1     -22.067  18.056   9.594  1.00 20.00     0.137 C 
HETATM    3  C3  UNL     1     -22.337  17.504   8.205  1.00 20.00     0.177 C 
HETATM    4  C4  UNL     1     -24.573  19.263   9.141  1.00 20.00     0.205 C 
HETATM    5  C5  UNL     1     -24.443  18.553   7.804  1.00 20.00     0.194 C 
HETATM    6  O6  UNL     1     -23.066  17.073  11.535  1.00 20.00    -0.265 OA
HETATM    7  O7  UNL     1     -24.405  18.339  10.238  1.00 20.00    -0.319 OA
HETATM    8  O8  UNL     1     -23.079  18.426   7.412  1.00 20.00    -0.389 OA
ENDROOT
TORSDOF 0
ENDMDL
MODEL 9
REMARK VINA RESULT:      -3.7     18.210     19.262
REMARK  0 active torsions:
REMARK  status: ('A' for Active; 'I' for Inactive)
ROOT
HETATM    1  C1  UNL     1     -24.234  18.753   7.607  1.00 20.00     0.260 C 
HETATM    2  C2  UNL     1     -24.570  19.263   8.985  1.00 20.00     0.137 C 
HETATM    3  C3  UNL     1     -24.667  18.132   9.994  1.00 20.00     0.177 C 
HETATM    4  C4  UNL     1     -22.062  18.067   8.518  1.00 20.00     0.205 C 
HETATM    5  C5  UNL     1     -22.528  17.138   9.626  1.00 20.00     0.194 C 
HETATM    6  O6  UNL     1     -25.007  18.890   6.661  1.00 20.00    -0.265 OA
HETATM    7  O7  UNL     1     -23.037  18.138   7.455  1.00 20.00    -0.319 OA
HETATM    8  O8  UNL     1     -23.391  17.809  10.540  1.00 20.00    -0.389 OA
ENDROOT
TORSDOF 0
ENDMDL
