MODEL 1
REMARK VINA RESULT:      -5.0      0.000      0.000
REMARK  3 active torsions:
REMARK  status: ('A' for Active; 'I' for Inactive)
REMARK    1  A    between atoms: C1_1  and  C7_7 
REMARK    2  A    between atoms: C1_1  and  O9_9 
REMARK    3  A    between atoms: C5_5  and  C7_7 
ROOT
HETATM    1  C2  UNL     1     -35.621  17.440  -2.393  1.00 20.00     0.011 A 
HETATM    2  C3  UNL     1     -35.112  16.695  -1.153  1.00 20.00     0.011 A 
HETATM    3  C4  UNL     1     -33.485  15.975  -3.196  1.00 20.00     0.015 A 
HETATM    4  C5  UNL     1     -34.697  15.032  -3.253  1.00 20.00     0.005 A 
HETATM    5  C6  UNL     1     -34.735  16.286  -2.504  1.00 20.00    -0.036 A 
ENDROOT
BRANCH   4   6
HETATM    6  C7  UNL     1     -35.466  14.885  -4.519  1.00 20.00     0.115 C 
BRANCH   6   7
HETATM    7  C1  UNL     1     -36.432  13.713  -4.495  1.00 20.00     0.139 C 
HETATM    8  O8  UNL     1     -37.651  13.806  -4.495  1.00 20.00    -0.650 OA
BRANCH   7   9
HETATM    9  O9  UNL     1     -35.766  12.530  -4.470  1.00 20.00    -0.776 OA
HETATM   10  H19 UNL     1     -35.825  12.059  -5.329  1.00 20.00     0.167 HD
ENDBRANCH   7   9
ENDBRANCH   6   7
ENDBRANCH   4   6
TORSDOF 3
ENDMDL
MODEL 2
REMARK VINA RESULT:      -5.0      1.279      1.384
REMARK  3 active torsions:
REMARK  status: ('A' for Active; 'I' for Inactive)
REMARK    1  A    between atoms: C1_1  and  C7_7 
REMARK    2  A    between atoms: C1_1  and  O9_9 
REMARK    3  A    between atoms: C5_5  and  C7_7 
ROOT
HETATM    1  C2  UNL     1     -33.609  17.435  -3.779  1.00 20.00     0.011 A 
HETATM    2  C3  UNL     1     -33.122  16.857  -2.445  1.00 20.00     0.011 A 
HETATM    3  C4  UNL     1     -32.988  14.837  -4.245  1.00 20.00     0.015 A 
HETATM    4  C5  UNL     1     -34.427  14.843  -3.706  1.00 20.00     0.005 A 
HETATM    5  C6  UNL     1     -33.543  15.996  -3.548  1.00 20.00    -0.036 A 
ENDROOT
BRANCH   4   6
HETATM    6  C7  UNL     1     -35.576  14.896  -4.650  1.00 20.00     0.115 C 
BRANCH   6   7
HETATM    7  C1  UNL     1     -36.505  13.701  -4.523  1.00 20.00     0.139 C 
HETATM    8  O8  UNL     1     -37.724  13.763  -4.452  1.00 20.00    -0.650 OA
BRANCH   7   9
HETATM    9  O9  UNL     1     -35.806  12.538  -4.495  1.00 20.00    -0.776 OA
HETATM   10  H19 UNL     1     -35.061  12.574  -3.859  1.00 20.00     0.167 HD
ENDBRANCH   7   9
ENDBRANCH   6   7
ENDBRANCH   4   6
TORSDOF 3
ENDMDL
MODEL 3
REMARK VINA RESULT:      -4.6     17.789     18.596
REMARK  3 active torsions:
REMARK  status: ('A' for Active; 'I' for Inactive)
REMARK    1  A    between atoms: C1_1  and  C7_7 
REMARK    2  A    between atoms: C1_1  and  O9_9 
REMARK    3  A    between atoms: C5_5  and  C7_7 
ROOT
HETATM    1  C2  UNL     1     -25.541  18.411  11.726  1.00 20.00     0.011 A 
HETATM    2  C3  UNL     1     -25.482  16.968  12.243  1.00 20.00     0.011 A 
HETATM    3  C4  UNL     1     -22.945  17.911  12.331  1.00 20.00     0.015 A 
HETATM    4  C5  UNL     1     -23.162  17.382  10.905  1.00 20.00     0.005 A 
HETATM    5  C6  UNL     1     -24.284  17.673  11.795  1.00 20.00    -0.036 A 
ENDROOT
BRANCH   4   6
HETATM    6  C7  UNL     1     -22.879  18.257   9.735  1.00 20.00     0.115 C 
BRANCH   6   7
HETATM    7  C1  UNL     1     -22.390  17.486   8.521  1.00 20.00     0.139 C 
HETATM    8  O8  UNL     1     -22.440  17.886   7.366  1.00 20.00    -0.650 OA
BRANCH   7   9
HETATM    9  O9  UNL     1     -21.884  16.278   8.879  1.00 20.00    -0.776 OA
HETATM   10  H19 UNL     1     -21.057  16.367   9.399  1.00 20.00     0.167 HD
ENDBRANCH   7   9
ENDBRANCH   6   7
ENDBRANCH   4   6
TORSDOF 3
ENDMDL
MODEL 4
REMARK VINA RESULT:      -4.5     10.502     11.143
REMARK  3 active torsions:
REMARK  status: ('A' for Active; 'I' for Inactive)
REMARK    1  A    between atoms: C1_1  and  C7_7 
REMARK    2  A    between atoms: C1_1  and  O9_9 
REMARK    3  A    between atoms: C5_5  and  C7_7 
ROOT
HETATM    1  C2  UNL     1     -32.197   7.620   0.490  1.00 20.00     0.011 A 
HETATM    2  C3  UNL     1     -32.839   8.873   1.097  1.00 20.00     0.011 A 
HETATM    3  C4  UNL     1     -31.814   7.463   3.170  1.00 20.00     0.015 A 
HETATM    4  C5  UNL     1     -33.213   6.887   2.903  1.00 20.00     0.005 A 
HETATM    5  C6  UNL     1     -32.517   7.704   1.911  1.00 20.00    -0.036 A 
ENDROOT
BRANCH   4   6
HETATM    6  C7  UNL     1     -33.387   5.425   2.690  1.00 20.00     0.115 C 
BRANCH   6   7
HETATM    7  C1  UNL     1     -34.298   4.778   3.720  1.00 20.00     0.139 C 
HETATM    8  O8  UNL     1     -34.226   3.615   4.090  1.00 20.00    -0.650 OA
BRANCH   7   9
HETATM    9  O9  UNL     1     -35.216   5.663   4.185  1.00 20.00    -0.776 OA
HETATM   10  H19 UNL     1     -35.463   5.477   5.116  1.00 20.00     0.167 HD
ENDBRANCH   7   9
ENDBRANCH   6   7
ENDBRANCH   4   6
TORSDOF 3
ENDMDL
MODEL 5
REMARK VINA RESULT:      -4.5     10.517     11.109
REMARK  3 active torsions:
REMARK  status: ('A' for Active; 'I' for Inactive)
REMARK    1  A    between atoms: C1_1  and  C7_7 
REMARK    2  A    between atoms: C1_1  and  O9_9 
REMARK    3  A    between atoms: C5_5  and  C7_7 
ROOT
HETATM    1  C2  UNL     1     -32.295   7.592   0.507  1.00 20.00     0.011 A 
HETATM    2  C3  UNL     1     -32.850   8.875   1.137  1.00 20.00     0.011 A 
HETATM    3  C4  UNL     1     -31.778   7.435   3.165  1.00 20.00     0.015 A 
HETATM    4  C5  UNL     1     -33.213   6.919   2.976  1.00 20.00     0.005 A 
HETATM    5  C6  UNL     1     -32.536   7.698   1.943  1.00 20.00    -0.036 A 
ENDROOT
BRANCH   4   6
HETATM    6  C7  UNL     1     -33.461   5.464   2.785  1.00 20.00     0.115 C 
BRANCH   6   7
HETATM    7  C1  UNL     1     -34.468   4.897   3.771  1.00 20.00     0.139 C 
HETATM    8  O8  UNL     1     -35.405   5.517   4.254  1.00 20.00    -0.650 OA
BRANCH   7   9
HETATM    9  O9  UNL     1     -34.195   3.598   4.057  1.00 20.00    -0.776 OA
HETATM   10  H19 UNL     1     -34.995   3.113   4.353  1.00 20.00     0.167 HD
ENDBRANCH   7   9
ENDBRANCH   6   7
ENDBRANCH   4   6
TORSDOF 3
ENDMDL
MODEL 6
REMARK VINA RESULT:      -4.4      9.805     11.524
REMARK  3 active torsions:
REMARK  status: ('A' for Active; 'I' for Inactive)
REMARK    1  A    between atoms: C1_1  and  C7_7 
REMARK    2  A    between atoms: C1_1  and  O9_9 
REMARK    3  A    between atoms: C5_5  and  C7_7 
ROOT
HETATM    1  C2  UNL     1     -42.815   5.089   0.942  1.00 20.00     0.011 A 
HETATM    2  C3  UNL     1     -43.417   4.907  -0.457  1.00 20.00     0.011 A 
HETATM    3  C4  UNL     1     -40.829   5.617  -0.828  1.00 20.00     0.015 A 
HETATM    4  C5  UNL     1     -41.619   6.925  -0.669  1.00 20.00     0.005 A 
HETATM    5  C6  UNL     1     -42.170   5.639  -0.246  1.00 20.00    -0.036 A 
ENDROOT
BRANCH   4   6
HETATM    6  C7  UNL     1     -41.194   7.933   0.340  1.00 20.00     0.115 C 
BRANCH   6   7
HETATM    7  C1  UNL     1     -42.010   9.213   0.282  1.00 20.00     0.139 C 
HETATM    8  O8  UNL     1     -43.221   9.269   0.120  1.00 20.00    -0.650 OA
BRANCH   7   9
HETATM    9  O9  UNL     1     -41.218  10.305   0.431  1.00 20.00    -0.776 OA
HETATM   10  H19 UNL     1     -41.634  10.983   1.005  1.00 20.00     0.167 HD
ENDBRANCH   7   9
ENDBRANCH   6   7
ENDBRANCH   4   6
TORSDOF 3
ENDMDL
MODEL 7
REMARK VINA RESULT:      -4.4     10.354     11.022
REMARK  3 active torsions:
REMARK  status: ('A' for Active; 'I' for Inactive)
REMARK    1  A    between atoms: C1_1  and  C7_7 
REMARK    2  A    between atoms: C1_1  and  O9_9 
REMARK    3  A    between atoms: C5_5  and  C7_7 
ROOT
HETATM    1  C2  UNL     1     -34.131   5.972   5.018  1.00 20.00     0.011 A 
HETATM    2  C3  UNL     1     -35.338   5.427   4.245  1.00 20.00     0.011 A 
HETATM    3  C4  UNL     1     -33.148   4.788   2.785  1.00 20.00     0.015 A 
HETATM    4  C5  UNL     1     -33.542   6.216   2.375  1.00 20.00     0.005 A 
HETATM    5  C6  UNL     1     -34.036   5.608   3.608  1.00 20.00    -0.036 A 
ENDROOT
BRANCH   4   6
HETATM    6  C7  UNL     1     -32.533   7.309   2.423  1.00 20.00     0.115 C 
BRANCH   6   7
HETATM    7  C1  UNL     1     -32.559   8.197   1.191  1.00 20.00     0.139 C 
HETATM    8  O8  UNL     1     -33.261   9.188   1.053  1.00 20.00    -0.650 OA
BRANCH   7   9
HETATM    9  O9  UNL     1     -31.694   7.748   0.246  1.00 20.00    -0.776 OA
HETATM   10  H19 UNL     1     -31.716   6.771   0.165  1.00 20.00     0.167 HD
ENDBRANCH   7   9
ENDBRANCH   6   7
ENDBRANCH   4   6
TORSDOF 3
ENDMDL
MODEL 8
REMARK VINA RESULT:      -4.3     17.621     18.532
REMARK  3 active torsions:
REMARK  status: ('A' for Active; 'I' for Inactive)
REMARK    1  A    between atoms: C1_1  and  C7_7 
REMARK    2  A    between atoms: C1_1  and  O9_9 
REMARK    3  A    between atoms: C5_5  and  C7_7 
ROOT
HETATM    1  C2  UNL     1     -21.437  18.094   9.314  1.00 20.00     0.011 A 
HETATM    2  C3  UNL     1     -21.932  17.477   8.000  1.00 20.00     0.011 A 
HETATM    3  C4  UNL     1     -23.829  19.250   8.771  1.00 20.00     0.015 A 
HETATM    4  C5  UNL     1     -24.145  17.933   9.497  1.00 20.00     0.005 A 
HETATM    5  C6  UNL     1     -22.834  18.187   8.904  1.00 20.00    -0.036 A 
ENDROOT
BRANCH   4   6
HETATM    6  C7  UNL     1     -24.315  17.920  10.976  1.00 20.00     0.115 C 
BRANCH   6   7
HETATM    7  C1  UNL     1     -23.980  16.577  11.601  1.00 20.00     0.139 C 
HETATM    8  O8  UNL     1     -24.683  15.578  11.540  1.00 20.00    -0.650 OA
BRANCH   7   9
HETATM    9  O9  UNL     1     -22.787  16.622  12.248  1.00 20.00    -0.776 OA
HETATM   10  H19 UNL     1     -22.774  16.035  13.033  1.00 20.00     0.167 HD
ENDBRANCH   7   9
ENDBRANCH   6   7
ENDBRANCH   4   6
TORSDOF 3
ENDMDL
MODEL 9
REMARK VINA RESULT:      -4.3      1.055      1.278
REMARK  3 active torsions:
REMARK  status: ('A' for Active; 'I' for Inactive)
REMARK    1  A    between atoms: C1_1  and  C7_7 
REMARK    2  A    between atoms: C1_1  and  O9_9 
REMARK    3  A    between atoms: C5_5  and  C7_7 
ROOT
HETATM    1  C2  UNL     1     -35.658  16.437  -2.787  1.00 20.00     0.011 A 
HETATM    2  C3  UNL     1     -34.196  16.147  -2.429  1.00 20.00     0.011 A 
HETATM    3  C4  UNL     1     -34.231  16.725  -5.075  1.00 20.00     0.015 A 
HETATM    4  C5  UNL     1     -34.547  15.226  -4.953  1.00 20.00     0.005 A 
HETATM    5  C6  UNL     1     -34.666  16.130  -3.812  1.00 20.00    -0.036 A 
ENDROOT
BRANCH   4   6
HETATM    6  C7  UNL     1     -35.764  14.667  -5.604  1.00 20.00     0.115 C 
BRANCH   6   7
HETATM    7  C1  UNL     1     -36.489  13.653  -4.736  1.00 20.00     0.139 C 
HETATM    8  O8  UNL     1     -37.661  13.729  -4.394  1.00 20.00    -0.650 OA
BRANCH   7   9
HETATM    9  O9  UNL     1     -35.664  12.636  -4.379  1.00 20.00    -0.776 OA
HETATM   10  H19 UNL     1     -35.659  11.917  -5.046  1.00 20.00     0.167 HD
ENDBRANCH   7   9
ENDBRANCH   6   7
ENDBRANCH   4   6
TORSDOF 3
ENDMDL
