MODEL 1
REMARK VINA RESULT:      -5.0      0.000      0.000
REMARK  2 active torsions:
REMARK  status: ('A' for Active; 'I' for Inactive)
REMARK    1  A    between atoms: C1_1  and  C3_3 
REMARK    2  A    between atoms: C3_3  and  O6_6 
ROOT
HETATM    1  C1  UNL     1     -34.213   6.210   4.521  1.00 20.00     0.156 C 
HETATM    2  C2  UNL     1     -34.325   6.086   5.846  1.00 20.00     0.273 C 
HETATM    3  F7  UNL     1     -34.464   7.195   6.602  1.00 20.00    -0.173 F 
HETATM    4  F8  UNL     1     -34.301   4.876   6.444  1.00 20.00    -0.173 F 
ENDROOT
BRANCH   1   5
HETATM    5  C3  UNL     1     -34.058   5.027   3.649  1.00 20.00     0.287 C 
HETATM    6  O5  UNL     1     -34.484   3.908   3.888  1.00 20.00    -0.260 OA
BRANCH   5   7
HETATM    7  O6  UNL     1     -33.363   5.418   2.547  1.00 20.00    -0.323 OA
HETATM    8  C4  UNL     1     -32.698   6.682   2.654  1.00 20.00     0.213 C 
ENDBRANCH   5   7
ENDBRANCH   1   5
TORSDOF 2
ENDMDL
MODEL 2
REMARK VINA RESULT:      -4.7      2.622      3.237
REMARK  2 active torsions:
REMARK  status: ('A' for Active; 'I' for Inactive)
REMARK    1  A    between atoms: C1_1  and  C3_3 
REMARK    2  A    between atoms: C3_3  and  O6_6 
ROOT
HETATM    1  C1  UNL     1     -33.877   6.232   3.670  1.00 20.00     0.156 C 
HETATM    2  C2  UNL     1     -33.050   5.911   2.672  1.00 20.00     0.273 C 
HETATM    3  F7  UNL     1     -32.494   6.896   1.934  1.00 20.00    -0.173 F 
HETATM    4  F8  UNL     1     -32.759   4.625   2.384  1.00 20.00    -0.173 F 
ENDROOT
BRANCH   1   5
HETATM    5  C3  UNL     1     -34.511   5.191   4.506  1.00 20.00     0.287 C 
HETATM    6  O5  UNL     1     -34.755   4.048   4.154  1.00 20.00    -0.260 OA
BRANCH   5   7
HETATM    7  O6  UNL     1     -34.765   5.743   5.724  1.00 20.00    -0.323 OA
HETATM    8  C4  UNL     1     -33.949   6.867   6.073  1.00 20.00     0.213 C 
ENDBRANCH   5   7
ENDBRANCH   1   5
TORSDOF 2
ENDMDL
MODEL 3
REMARK VINA RESULT:      -4.3     12.127     12.666
REMARK  2 active torsions:
REMARK  status: ('A' for Active; 'I' for Inactive)
REMARK    1  A    between atoms: C1_1  and  C3_3 
REMARK    2  A    between atoms: C3_3  and  O6_6 
ROOT
HETATM    1  C1  UNL     1     -35.640  14.802  -3.601  1.00 20.00     0.156 C 
HETATM    2  C2  UNL     1     -34.359  15.069  -3.333  1.00 20.00     0.273 C 
HETATM    3  F7  UNL     1     -34.060  16.007  -2.409  1.00 20.00    -0.173 F 
HETATM    4  F8  UNL     1     -33.358  14.422  -3.966  1.00 20.00    -0.173 F 
ENDROOT
BRANCH   1   5
HETATM    5  C3  UNL     1     -36.019  13.785  -4.603  1.00 20.00     0.287 C 
HETATM    6  O5  UNL     1     -35.854  12.581  -4.492  1.00 20.00    -0.260 OA
BRANCH   5   7
HETATM    7  O6  UNL     1     -36.581  14.439  -5.657  1.00 20.00    -0.323 OA
HETATM    8  C4  UNL     1     -35.685  14.774  -6.722  1.00 20.00     0.213 C 
ENDBRANCH   5   7
ENDBRANCH   1   5
TORSDOF 2
ENDMDL
MODEL 4
REMARK VINA RESULT:      -4.3     12.242     12.719
REMARK  2 active torsions:
REMARK  status: ('A' for Active; 'I' for Inactive)
REMARK    1  A    between atoms: C1_1  and  C3_3 
REMARK    2  A    between atoms: C3_3  and  O6_6 
ROOT
HETATM    1  C1  UNL     1     -35.921  14.980  -3.881  1.00 20.00     0.156 C 
HETATM    2  C2  UNL     1     -34.684  14.743  -3.439  1.00 20.00     0.273 C 
HETATM    3  F7  UNL     1     -34.139  15.574  -2.525  1.00 20.00    -0.173 F 
HETATM    4  F8  UNL     1     -33.965  13.693  -3.889  1.00 20.00    -0.173 F 
ENDROOT
BRANCH   1   5
HETATM    5  C3  UNL     1     -36.561  14.101  -4.882  1.00 20.00     0.287 C 
HETATM    6  O5  UNL     1     -36.074  13.767  -5.949  1.00 20.00    -0.260 OA
BRANCH   5   7
HETATM    7  O6  UNL     1     -37.778  13.740  -4.391  1.00 20.00    -0.323 OA
HETATM    8  C4  UNL     1     -38.716  14.808  -4.222  1.00 20.00     0.213 C 
ENDBRANCH   5   7
ENDBRANCH   1   5
TORSDOF 2
ENDMDL
MODEL 5
REMARK VINA RESULT:      -4.2      2.247      2.881
REMARK  2 active torsions:
REMARK  status: ('A' for Active; 'I' for Inactive)
REMARK    1  A    between atoms: C1_1  and  C3_3 
REMARK    2  A    between atoms: C3_3  and  O6_6 
ROOT
HETATM    1  C1  UNL     1     -33.348   5.795   2.865  1.00 20.00     0.156 C 
HETATM    2  C2  UNL     1     -34.172   5.709   3.912  1.00 20.00     0.273 C 
HETATM    3  F7  UNL     1     -34.962   4.621   4.042  1.00 20.00    -0.173 F 
HETATM    4  F8  UNL     1     -34.235   6.686   4.841  1.00 20.00    -0.173 F 
ENDROOT
BRANCH   1   5
HETATM    5  C3  UNL     1     -32.465   6.965   2.678  1.00 20.00     0.287 C 
HETATM    6  O5  UNL     1     -31.831   7.525   3.558  1.00 20.00    -0.260 OA
BRANCH   5   7
HETATM    7  O6  UNL     1     -32.492   7.291   1.357  1.00 20.00    -0.323 OA
HETATM    8  C4  UNL     1     -32.837   8.650   1.065  1.00 20.00     0.213 C 
ENDBRANCH   5   7
ENDBRANCH   1   5
TORSDOF 2
ENDMDL
MODEL 6
REMARK VINA RESULT:      -4.1      2.843      3.588
REMARK  2 active torsions:
REMARK  status: ('A' for Active; 'I' for Inactive)
REMARK    1  A    between atoms: C1_1  and  C3_3 
REMARK    2  A    between atoms: C3_3  and  O6_6 
ROOT
HETATM    1  C1  UNL     1     -33.531   6.575   3.341  1.00 20.00     0.156 C 
HETATM    2  C2  UNL     1     -32.393   7.177   2.988  1.00 20.00     0.273 C 
HETATM    3  F7  UNL     1     -32.075   7.273   1.679  1.00 20.00    -0.173 F 
HETATM    4  F8  UNL     1     -31.552   7.690   3.912  1.00 20.00    -0.173 F 
ENDROOT
BRANCH   1   5
HETATM    5  C3  UNL     1     -33.923   6.444   4.760  1.00 20.00     0.287 C 
HETATM    6  O5  UNL     1     -33.551   7.167   5.669  1.00 20.00    -0.260 OA
BRANCH   5   7
HETATM    7  O6  UNL     1     -34.767   5.380   4.855  1.00 20.00    -0.323 OA
HETATM    8  C4  UNL     1     -34.413   4.241   4.063  1.00 20.00     0.213 C 
ENDBRANCH   5   7
ENDBRANCH   1   5
TORSDOF 2
ENDMDL
MODEL 7
REMARK VINA RESULT:      -4.1      1.218      2.221
REMARK  2 active torsions:
REMARK  status: ('A' for Active; 'I' for Inactive)
REMARK    1  A    between atoms: C1_1  and  C3_3 
REMARK    2  A    between atoms: C3_3  and  O6_6 
ROOT
HETATM    1  C1  UNL     1     -34.186   6.251   4.386  1.00 20.00     0.156 C 
HETATM    2  C2  UNL     1     -33.751   6.902   5.467  1.00 20.00     0.273 C 
HETATM    3  F7  UNL     1     -34.526   6.935   6.573  1.00 20.00    -0.173 F 
HETATM    4  F8  UNL     1     -32.556   7.529   5.478  1.00 20.00    -0.173 F 
ENDROOT
BRANCH   1   5
HETATM    5  C3  UNL     1     -33.377   6.186   3.151  1.00 20.00     0.287 C 
HETATM    6  O5  UNL     1     -32.801   7.127   2.629  1.00 20.00    -0.260 OA
BRANCH   5   7
HETATM    7  O6  UNL     1     -33.394   4.897   2.717  1.00 20.00    -0.323 OA
HETATM    8  C4  UNL     1     -34.069   3.968   3.572  1.00 20.00     0.213 C 
ENDBRANCH   5   7
ENDBRANCH   1   5
TORSDOF 2
ENDMDL
MODEL 8
REMARK VINA RESULT:      -4.0     11.925     12.623
REMARK  2 active torsions:
REMARK  status: ('A' for Active; 'I' for Inactive)
REMARK    1  A    between atoms: C1_1  and  C3_3 
REMARK    2  A    between atoms: C3_3  and  O6_6 
ROOT
HETATM    1  C1  UNL     1     -33.592  15.147  -3.866  1.00 20.00     0.156 C 
HETATM    2  C2  UNL     1     -33.967  15.805  -2.766  1.00 20.00     0.273 C 
HETATM    3  F7  UNL     1     -33.188  16.804  -2.299  1.00 20.00    -0.173 F 
HETATM    4  F8  UNL     1     -35.105  15.492  -2.112  1.00 20.00    -0.173 F 
ENDROOT
BRANCH   1   5
HETATM    5  C3  UNL     1     -34.409  14.045  -4.417  1.00 20.00     0.287 C 
HETATM    6  O5  UNL     1     -34.555  12.946  -3.908  1.00 20.00    -0.260 OA
BRANCH   5   7
HETATM    7  O6  UNL     1     -34.958  14.486  -5.582  1.00 20.00    -0.323 OA
HETATM    8  C4  UNL     1     -34.035  15.034  -6.530  1.00 20.00     0.213 C 
ENDBRANCH   5   7
ENDBRANCH   1   5
TORSDOF 2
ENDMDL
MODEL 9
REMARK VINA RESULT:      -4.0     16.309     16.932
REMARK  2 active torsions:
REMARK  status: ('A' for Active; 'I' for Inactive)
REMARK    1  A    between atoms: C1_1  and  C3_3 
REMARK    2  A    between atoms: C3_3  and  O6_6 
ROOT
HETATM    1  C1  UNL     1     -23.025  16.980   9.307  1.00 20.00     0.156 C 
HETATM    2  C2  UNL     1     -23.818  17.035  10.380  1.00 20.00     0.273 C 
HETATM    3  F7  UNL     1     -24.184  15.886  10.989  1.00 20.00    -0.173 F 
HETATM    4  F8  UNL     1     -24.262  18.212  10.867  1.00 20.00    -0.173 F 
ENDROOT
BRANCH   1   5
HETATM    5  C3  UNL     1     -22.597  18.207   8.604  1.00 20.00     0.287 C 
HETATM    6  O5  UNL     1     -21.804  19.031   9.031  1.00 20.00    -0.260 OA
BRANCH   5   7
HETATM    7  O6  UNL     1     -23.246  18.242   7.408  1.00 20.00    -0.323 OA
HETATM    8  C4  UNL     1     -24.417  19.065   7.366  1.00 20.00     0.213 C 
ENDBRANCH   5   7
ENDBRANCH   1   5
TORSDOF 2
ENDMDL
