MODEL 1
REMARK VINA RESULT:      -5.7      0.000      0.000
REMARK  3 active torsions:
REMARK  status: ('A' for Active; 'I' for Inactive)
REMARK    1  A    between atoms: C1_1  and  C3_3 
REMARK    2  A    between atoms: C1_1  and  O4_4 
REMARK    3  A    between atoms: C2_2  and  O4_4 
ROOT
HETATM    1  C1  UNL     1     -33.747   6.112   4.709  1.00 20.00     0.330 C 
HETATM    2 CL10 UNL     1     -33.855   7.154   6.151  1.00 20.00    -0.086 Cl
ENDROOT
BRANCH   1   3
HETATM    3  C3  UNL     1     -34.868   5.096   4.731  1.00 20.00     0.427 C 
HETATM    4  F7  UNL     1     -35.967   5.545   4.088  1.00 20.00    -0.167 F 
HETATM    5  F8  UNL     1     -35.228   4.810   6.003  1.00 20.00    -0.167 F 
HETATM    6  F9  UNL     1     -34.490   3.936   4.151  1.00 20.00    -0.167 F 
ENDBRANCH   1   3
BRANCH   1   7
HETATM    7  O4  UNL     1     -33.889   6.903   3.531  1.00 20.00    -0.302 OA
BRANCH   7   8
HETATM    8  C2  UNL     1     -32.797   6.767   2.639  1.00 20.00     0.501 C 
HETATM    9  F5  UNL     1     -31.696   7.260   3.259  1.00 20.00    -0.184 F 
HETATM   10  F6  UNL     1     -32.571   5.448   2.423  1.00 20.00    -0.184 F 
ENDBRANCH   7   8
ENDBRANCH   1   7
TORSDOF 3
ENDMDL
MODEL 2
REMARK VINA RESULT:      -5.7      0.015      1.193
REMARK  3 active torsions:
REMARK  status: ('A' for Active; 'I' for Inactive)
REMARK    1  A    between atoms: C1_1  and  C3_3 
REMARK    2  A    between atoms: C1_1  and  O4_4 
REMARK    3  A    between atoms: C2_2  and  O4_4 
ROOT
HETATM    1  C1  UNL     1     -33.749   6.115   4.716  1.00 20.00     0.330 C 
HETATM    2 CL10 UNL     1     -33.869   7.168   6.149  1.00 20.00    -0.086 Cl
ENDROOT
BRANCH   1   3
HETATM    3  C3  UNL     1     -34.861   5.090   4.743  1.00 20.00     0.427 C 
HETATM    4  F7  UNL     1     -34.497   3.935   4.146  1.00 20.00    -0.167 F 
HETATM    5  F8  UNL     1     -35.955   5.556   4.098  1.00 20.00    -0.167 F 
HETATM    6  F9  UNL     1     -35.235   4.805   6.010  1.00 20.00    -0.167 F 
ENDBRANCH   1   3
BRANCH   1   7
HETATM    7  O4  UNL     1     -33.896   6.896   3.531  1.00 20.00    -0.302 OA
BRANCH   7   8
HETATM    8  C2  UNL     1     -32.795   6.771   2.647  1.00 20.00     0.501 C 
HETATM    9  F5  UNL     1     -31.702   7.264   3.280  1.00 20.00    -0.184 F 
HETATM   10  F6  UNL     1     -32.562   5.455   2.424  1.00 20.00    -0.184 F 
ENDBRANCH   7   8
ENDBRANCH   1   7
TORSDOF 3
ENDMDL
MODEL 3
REMARK VINA RESULT:      -5.2      1.802      2.278
REMARK  3 active torsions:
REMARK  status: ('A' for Active; 'I' for Inactive)
REMARK    1  A    between atoms: C1_1  and  C3_3 
REMARK    2  A    between atoms: C1_1  and  O4_4 
REMARK    3  A    between atoms: C2_2  and  O4_4 
ROOT
HETATM    1  C1  UNL     1     -34.701   5.720   4.407  1.00 20.00     0.330 C 
HETATM    2 CL10 UNL     1     -34.060   4.233   3.662  1.00 20.00    -0.086 Cl
ENDROOT
BRANCH   1   3
HETATM    3  C3  UNL     1     -34.452   5.691   5.899  1.00 20.00     0.427 C 
HETATM    4  F7  UNL     1     -33.663   6.710   6.299  1.00 20.00    -0.167 F 
HETATM    5  F8  UNL     1     -33.843   4.538   6.257  1.00 20.00    -0.167 F 
HETATM    6  F9  UNL     1     -35.611   5.763   6.590  1.00 20.00    -0.167 F 
ENDBRANCH   1   3
BRANCH   1   7
HETATM    7  O4  UNL     1     -34.027   6.856   3.868  1.00 20.00    -0.302 OA
BRANCH   7   8
HETATM    8  C2  UNL     1     -32.842   6.516   3.169  1.00 20.00     0.501 C 
HETATM    9  F5  UNL     1     -33.047   6.789   1.857  1.00 20.00    -0.184 F 
HETATM   10  F6  UNL     1     -31.840   7.326   3.589  1.00 20.00    -0.184 F 
ENDBRANCH   7   8
ENDBRANCH   1   7
TORSDOF 3
ENDMDL
MODEL 4
REMARK VINA RESULT:      -5.2      1.805      2.293
REMARK  3 active torsions:
REMARK  status: ('A' for Active; 'I' for Inactive)
REMARK    1  A    between atoms: C1_1  and  C3_3 
REMARK    2  A    between atoms: C1_1  and  O4_4 
REMARK    3  A    between atoms: C2_2  and  O4_4 
ROOT
HETATM    1  C1  UNL     1     -34.702   5.721   4.417  1.00 20.00     0.330 C 
HETATM    2 CL10 UNL     1     -34.068   4.235   3.663  1.00 20.00    -0.086 Cl
ENDROOT
BRANCH   1   3
HETATM    3  C3  UNL     1     -34.453   5.680   5.909  1.00 20.00     0.427 C 
HETATM    4  F7  UNL     1     -33.832   4.542   6.286  1.00 20.00    -0.167 F 
HETATM    5  F8  UNL     1     -35.620   5.753   6.589  1.00 20.00    -0.167 F 
HETATM    6  F9  UNL     1     -33.692   6.723   6.307  1.00 20.00    -0.167 F 
ENDBRANCH   1   3
BRANCH   1   7
HETATM    7  O4  UNL     1     -34.023   6.857   3.886  1.00 20.00    -0.302 OA
BRANCH   7   8
HETATM    8  C2  UNL     1     -32.847   6.514   3.172  1.00 20.00     0.501 C 
HETATM    9  F5  UNL     1     -33.067   6.789   1.862  1.00 20.00    -0.184 F 
HETATM   10  F6  UNL     1     -31.838   7.322   3.580  1.00 20.00    -0.184 F 
ENDBRANCH   7   8
ENDBRANCH   1   7
TORSDOF 3
ENDMDL
MODEL 5
REMARK VINA RESULT:      -5.2      0.987      3.619
REMARK  3 active torsions:
REMARK  status: ('A' for Active; 'I' for Inactive)
REMARK    1  A    between atoms: C1_1  and  C3_3 
REMARK    2  A    between atoms: C1_1  and  O4_4 
REMARK    3  A    between atoms: C2_2  and  O4_4 
ROOT
HETATM    1  C1  UNL     1     -33.767   6.599   3.903  1.00 20.00     0.330 C 
HETATM    2 CL10 UNL     1     -33.306   7.246   5.498  1.00 20.00    -0.086 Cl
ENDROOT
BRANCH   1   3
HETATM    3  C3  UNL     1     -32.675   6.894   2.898  1.00 20.00     0.427 C 
HETATM    4  F7  UNL     1     -33.076   7.784   1.965  1.00 20.00    -0.167 F 
HETATM    5  F8  UNL     1     -32.303   5.765   2.253  1.00 20.00    -0.167 F 
HETATM    6  F9  UNL     1     -31.574   7.392   3.503  1.00 20.00    -0.167 F 
ENDBRANCH   1   3
BRANCH   1   7
HETATM    7  O4  UNL     1     -33.921   5.183   3.985  1.00 20.00    -0.302 OA
BRANCH   7   8
HETATM    8  C2  UNL     1     -35.173   4.794   4.524  1.00 20.00     0.501 C 
HETATM    9  F5  UNL     1     -35.089   4.894   5.873  1.00 20.00    -0.184 F 
HETATM   10  F6  UNL     1     -36.116   5.680   4.120  1.00 20.00    -0.184 F 
ENDBRANCH   7   8
ENDBRANCH   1   7
TORSDOF 3
ENDMDL
MODEL 6
REMARK VINA RESULT:      -5.1      1.828      2.258
REMARK  3 active torsions:
REMARK  status: ('A' for Active; 'I' for Inactive)
REMARK    1  A    between atoms: C1_1  and  C3_3 
REMARK    2  A    between atoms: C1_1  and  O4_4 
REMARK    3  A    between atoms: C2_2  and  O4_4 
ROOT
HETATM    1  C1  UNL     1     -34.095   5.810   3.291  1.00 20.00     0.330 C 
HETATM    2 CL10 UNL     1     -33.090   4.584   2.475  1.00 20.00    -0.086 Cl
ENDROOT
BRANCH   1   3
HETATM    3  C3  UNL     1     -34.761   5.197   4.503  1.00 20.00     0.427 C 
HETATM    4  F7  UNL     1     -34.350   3.928   4.716  1.00 20.00    -0.167 F 
HETATM    5  F8  UNL     1     -36.104   5.171   4.346  1.00 20.00    -0.167 F 
HETATM    6  F9  UNL     1     -34.501   5.913   5.619  1.00 20.00    -0.167 F 
ENDBRANCH   1   3
BRANCH   1   7
HETATM    7  O4  UNL     1     -33.273   6.887   3.735  1.00 20.00    -0.302 OA
BRANCH   7   8
HETATM    8  C2  UNL     1     -32.164   7.124   2.883  1.00 20.00     0.501 C 
HETATM    9  F5  UNL     1     -32.568   7.981   1.913  1.00 20.00    -0.184 F 
HETATM   10  F6  UNL     1     -31.197   7.757   3.591  1.00 20.00    -0.184 F 
ENDBRANCH   7   8
ENDBRANCH   1   7
TORSDOF 3
ENDMDL
MODEL 7
REMARK VINA RESULT:      -4.6      1.974      3.877
REMARK  3 active torsions:
REMARK  status: ('A' for Active; 'I' for Inactive)
REMARK    1  A    between atoms: C1_1  and  C3_3 
REMARK    2  A    between atoms: C1_1  and  O4_4 
REMARK    3  A    between atoms: C2_2  and  O4_4 
ROOT
HETATM    1  C1  UNL     1     -33.240   5.869   3.671  1.00 20.00     0.330 C 
HETATM    2 CL10 UNL     1     -33.513   4.546   2.508  1.00 20.00    -0.086 Cl
ENDROOT
BRANCH   1   3
HETATM    3  C3  UNL     1     -32.634   7.057   2.957  1.00 20.00     0.427 C 
HETATM    4  F7  UNL     1     -31.665   7.646   3.691  1.00 20.00    -0.167 F 
HETATM    5  F8  UNL     1     -33.577   7.992   2.701  1.00 20.00    -0.167 F 
HETATM    6  F9  UNL     1     -32.097   6.695   1.771  1.00 20.00    -0.167 F 
ENDBRANCH   1   3
BRANCH   1   7
HETATM    7  O4  UNL     1     -34.485   6.280   4.233  1.00 20.00    -0.302 OA
BRANCH   7   8
HETATM    8  C2  UNL     1     -34.551   6.079   5.635  1.00 20.00     0.501 C 
HETATM    9  F5  UNL     1     -34.343   4.760   5.871  1.00 20.00    -0.184 F 
HETATM   10  F6  UNL     1     -33.530   6.751   6.220  1.00 20.00    -0.184 F 
ENDBRANCH   7   8
ENDBRANCH   1   7
TORSDOF 3
ENDMDL
MODEL 8
REMARK VINA RESULT:      -4.6      1.965      3.897
REMARK  3 active torsions:
REMARK  status: ('A' for Active; 'I' for Inactive)
REMARK    1  A    between atoms: C1_1  and  C3_3 
REMARK    2  A    between atoms: C1_1  and  O4_4 
REMARK    3  A    between atoms: C2_2  and  O4_4 
ROOT
HETATM    1  C1  UNL     1     -33.226   5.897   3.670  1.00 20.00     0.330 C 
HETATM    2 CL10 UNL     1     -33.552   4.573   2.522  1.00 20.00    -0.086 Cl
ENDROOT
BRANCH   1   3
HETATM    3  C3  UNL     1     -32.598   7.063   2.938  1.00 20.00     0.427 C 
HETATM    4  F7  UNL     1     -33.518   7.979   2.569  1.00 20.00    -0.167 F 
HETATM    5  F8  UNL     1     -31.970   6.639   1.818  1.00 20.00    -0.167 F 
HETATM    6  F9  UNL     1     -31.675   7.683   3.705  1.00 20.00    -0.167 F 
ENDBRANCH   1   3
BRANCH   1   7
HETATM    7  O4  UNL     1     -34.451   6.345   4.248  1.00 20.00    -0.302 OA
BRANCH   7   8
HETATM    8  C2  UNL     1     -34.501   6.159   5.652  1.00 20.00     0.501 C 
HETATM    9  F5  UNL     1     -34.441   4.825   5.892  1.00 20.00    -0.184 F 
HETATM   10  F6  UNL     1     -33.392   6.709   6.204  1.00 20.00    -0.184 F 
ENDBRANCH   7   8
ENDBRANCH   1   7
TORSDOF 3
ENDMDL
MODEL 9
REMARK VINA RESULT:      -4.5      1.940      3.375
REMARK  3 active torsions:
REMARK  status: ('A' for Active; 'I' for Inactive)
REMARK    1  A    between atoms: C1_1  and  C3_3 
REMARK    2  A    between atoms: C1_1  and  O4_4 
REMARK    3  A    between atoms: C2_2  and  O4_4 
ROOT
HETATM    1  C1  UNL     1     -33.602   6.371   3.448  1.00 20.00     0.330 C 
HETATM    2 CL10 UNL     1     -32.342   7.354   2.659  1.00 20.00    -0.086 Cl
ENDROOT
BRANCH   1   3
HETATM    3  C3  UNL     1     -33.629   4.989   2.831  1.00 20.00     0.427 C 
HETATM    4  F7  UNL     1     -34.266   4.098   3.620  1.00 20.00    -0.167 F 
HETATM    5  F8  UNL     1     -32.371   4.532   2.632  1.00 20.00    -0.167 F 
HETATM    6  F9  UNL     1     -34.246   5.000   1.630  1.00 20.00    -0.167 F 
ENDBRANCH   1   3
BRANCH   1   7
HETATM    7  O4  UNL     1     -33.304   6.230   4.835  1.00 20.00    -0.302 OA
BRANCH   7   8
HETATM    8  C2  UNL     1     -34.463   6.215   5.651  1.00 20.00     0.501 C 
HETATM    9  F5  UNL     1     -34.474   5.040   6.327  1.00 20.00    -0.184 F 
HETATM   10  F6  UNL     1     -34.361   7.202   6.574  1.00 20.00    -0.184 F 
ENDBRANCH   7   8
ENDBRANCH   1   7
TORSDOF 3
ENDMDL
