MODEL 1
REMARK VINA RESULT:      -3.6      0.000      0.000
REMARK  1 active torsions:
REMARK  status: ('A' for Active; 'I' for Inactive)
REMARK    1  A    between atoms: C1_1  and  C2_2 
ROOT
HETATM    1  C2  UNL     1     -35.011  14.911  -4.196  1.00 20.00     0.281 C 
HETATM    2 CL5  UNL     1     -33.359  14.307  -4.411  1.00 20.00    -0.073 Cl
HETATM    3 CL6  UNL     1     -35.384  16.157  -5.400  1.00 20.00    -0.073 Cl
HETATM    4 CL7  UNL     1     -35.225  15.539  -2.553  1.00 20.00    -0.073 Cl
ENDROOT
BRANCH   1   5
HETATM    5  C1  UNL     1     -35.978  13.782  -4.419  1.00 20.00     0.352 C 
HETATM    6  O3  UNL     1     -35.701  12.592  -4.391  1.00 20.00    -0.255 OA
HETATM    7  F4  UNL     1     -37.276  14.082  -4.591  1.00 20.00    -0.160 F 
ENDBRANCH   1   5
TORSDOF 1
ENDMDL
MODEL 2
REMARK VINA RESULT:      -3.5      0.062      1.919
REMARK  1 active torsions:
REMARK  status: ('A' for Active; 'I' for Inactive)
REMARK    1  A    between atoms: C1_1  and  C2_2 
ROOT
HETATM    1  C2  UNL     1     -34.977  14.903  -4.234  1.00 20.00     0.281 C 
HETATM    2 CL5  UNL     1     -35.323  16.203  -5.387  1.00 20.00    -0.073 Cl
HETATM    3 CL6  UNL     1     -35.206  15.464  -2.569  1.00 20.00    -0.073 Cl
HETATM    4 CL7  UNL     1     -33.331  14.294  -4.473  1.00 20.00    -0.073 Cl
ENDROOT
BRANCH   1   5
HETATM    5  C1  UNL     1     -35.952  13.779  -4.456  1.00 20.00     0.352 C 
HETATM    6  O3  UNL     1     -35.684  12.587  -4.412  1.00 20.00    -0.255 OA
HETATM    7  F4  UNL     1     -37.245  14.088  -4.647  1.00 20.00    -0.160 F 
ENDBRANCH   1   5
TORSDOF 1
ENDMDL
MODEL 3
REMARK VINA RESULT:      -3.5     12.560     12.952
REMARK  1 active torsions:
REMARK  status: ('A' for Active; 'I' for Inactive)
REMARK    1  A    between atoms: C1_1  and  C2_2 
ROOT
HETATM    1  C2  UNL     1     -34.490   5.545   4.235  1.00 20.00     0.281 C 
HETATM    2 CL5  UNL     1     -34.030   3.850   4.005  1.00 20.00    -0.073 Cl
HETATM    3 CL6  UNL     1     -36.158   5.820   3.703  1.00 20.00    -0.073 Cl
HETATM    4 CL7  UNL     1     -33.369   6.607   3.367  1.00 20.00    -0.073 Cl
ENDROOT
BRANCH   1   5
HETATM    5  C1  UNL     1     -34.438   5.872   5.702  1.00 20.00     0.352 C 
HETATM    6  O3  UNL     1     -33.922   6.867   6.190  1.00 20.00    -0.255 OA
HETATM    7  F4  UNL     1     -35.070   5.053   6.558  1.00 20.00    -0.160 F 
ENDBRANCH   1   5
TORSDOF 1
ENDMDL
MODEL 4
REMARK VINA RESULT:      -3.5     12.558     13.004
REMARK  1 active torsions:
REMARK  status: ('A' for Active; 'I' for Inactive)
REMARK    1  A    between atoms: C1_1  and  C2_2 
ROOT
HETATM    1  C2  UNL     1     -34.509   5.547   4.240  1.00 20.00     0.281 C 
HETATM    2 CL5  UNL     1     -36.169   5.815   3.682  1.00 20.00    -0.073 Cl
HETATM    3 CL6  UNL     1     -33.384   6.630   3.402  1.00 20.00    -0.073 Cl
HETATM    4 CL7  UNL     1     -34.049   3.853   4.003  1.00 20.00    -0.073 Cl
ENDROOT
BRANCH   1   5
HETATM    5  C1  UNL     1     -34.426   5.877   5.705  1.00 20.00     0.352 C 
HETATM    6  O3  UNL     1     -33.861   6.850   6.183  1.00 20.00    -0.255 OA
HETATM    7  F4  UNL     1     -35.083   5.089   6.572  1.00 20.00    -0.160 F 
ENDBRANCH   1   5
TORSDOF 1
ENDMDL
MODEL 5
REMARK VINA RESULT:      -3.5     12.196     12.691
REMARK  1 active torsions:
REMARK  status: ('A' for Active; 'I' for Inactive)
REMARK    1  A    between atoms: C1_1  and  C2_2 
ROOT
HETATM    1  C2  UNL     1     -34.619   5.366   4.494  1.00 20.00     0.281 C 
HETATM    2 CL5  UNL     1     -33.991   3.895   3.732  1.00 20.00    -0.073 Cl
HETATM    3 CL6  UNL     1     -34.775   5.147   6.246  1.00 20.00    -0.073 Cl
HETATM    4 CL7  UNL     1     -36.175   5.813   3.774  1.00 20.00    -0.073 Cl
ENDROOT
BRANCH   1   5
HETATM    5  C1  UNL     1     -33.640   6.486   4.278  1.00 20.00     0.352 C 
HETATM    6  O3  UNL     1     -33.166   6.819   3.201  1.00 20.00    -0.255 OA
HETATM    7  F4  UNL     1     -33.300   7.246   5.333  1.00 20.00    -0.160 F 
ENDBRANCH   1   5
TORSDOF 1
ENDMDL
MODEL 6
REMARK VINA RESULT:      -3.5      0.925      1.505
REMARK  1 active torsions:
REMARK  status: ('A' for Active; 'I' for Inactive)
REMARK    1  A    between atoms: C1_1  and  C2_2 
ROOT
HETATM    1  C2  UNL     1     -35.411  15.052  -4.562  1.00 20.00     0.281 C 
HETATM    2 CL5  UNL     1     -34.595  15.228  -3.000  1.00 20.00    -0.073 Cl
HETATM    3 CL6  UNL     1     -34.230  14.862  -5.869  1.00 20.00    -0.073 Cl
HETATM    4 CL7  UNL     1     -36.465  16.444  -4.863  1.00 20.00    -0.073 Cl
ENDROOT
BRANCH   1   5
HETATM    5  C1  UNL     1     -36.246  13.801  -4.540  1.00 20.00     0.352 C 
HETATM    6  O3  UNL     1     -35.813  12.658  -4.522  1.00 20.00    -0.255 OA
HETATM    7  F4  UNL     1     -37.580  13.929  -4.457  1.00 20.00    -0.160 F 
ENDBRANCH   1   5
TORSDOF 1
ENDMDL
MODEL 7
REMARK VINA RESULT:      -3.5     12.186     12.685
REMARK  1 active torsions:
REMARK  status: ('A' for Active; 'I' for Inactive)
REMARK    1  A    between atoms: C1_1  and  C2_2 
ROOT
HETATM    1  C2  UNL     1     -34.627   5.369   4.494  1.00 20.00     0.281 C 
HETATM    2 CL5  UNL     1     -36.182   5.818   3.773  1.00 20.00    -0.073 Cl
HETATM    3 CL6  UNL     1     -33.976   3.912   3.723  1.00 20.00    -0.073 Cl
HETATM    4 CL7  UNL     1     -34.808   5.130   6.241  1.00 20.00    -0.073 Cl
ENDROOT
BRANCH   1   5
HETATM    5  C1  UNL     1     -33.637   6.474   4.251  1.00 20.00     0.352 C 
HETATM    6  O3  UNL     1     -33.175   6.788   3.163  1.00 20.00    -0.255 OA
HETATM    7  F4  UNL     1     -33.272   7.241   5.291  1.00 20.00    -0.160 F 
ENDBRANCH   1   5
TORSDOF 1
ENDMDL
MODEL 8
REMARK VINA RESULT:      -3.5     12.198     12.694
REMARK  1 active torsions:
REMARK  status: ('A' for Active; 'I' for Inactive)
REMARK    1  A    between atoms: C1_1  and  C2_2 
ROOT
HETATM    1  C2  UNL     1     -34.616   5.355   4.506  1.00 20.00     0.281 C 
HETATM    2 CL5  UNL     1     -34.806   5.108   6.250  1.00 20.00    -0.073 Cl
HETATM    3 CL6  UNL     1     -36.155   5.836   3.770  1.00 20.00    -0.073 Cl
HETATM    4 CL7  UNL     1     -33.986   3.886   3.744  1.00 20.00    -0.073 Cl
ENDROOT
BRANCH   1   5
HETATM    5  C1  UNL     1     -33.648   6.482   4.274  1.00 20.00     0.352 C 
HETATM    6  O3  UNL     1     -33.189   6.812   3.190  1.00 20.00    -0.255 OA
HETATM    7  F4  UNL     1     -33.304   7.251   5.320  1.00 20.00    -0.160 F 
ENDBRANCH   1   5
TORSDOF 1
ENDMDL
MODEL 9
REMARK VINA RESULT:      -3.4     19.008     19.523
REMARK  1 active torsions:
REMARK  status: ('A' for Active; 'I' for Inactive)
REMARK    1  A    between atoms: C1_1  and  C2_2 
ROOT
HETATM    1  C2  UNL     1     -23.722  17.071  11.214  1.00 20.00     0.281 C 
HETATM    2 CL5  UNL     1     -24.569  15.650  11.849  1.00 20.00    -0.073 Cl
HETATM    3 CL6  UNL     1     -23.059  16.738   9.604  1.00 20.00    -0.073 Cl
HETATM    4 CL7  UNL     1     -22.442  17.572  12.331  1.00 20.00    -0.073 Cl
ENDROOT
BRANCH   1   5
HETATM    5  C1  UNL     1     -24.706  18.198  11.059  1.00 20.00     0.352 C 
HETATM    6  O3  UNL     1     -25.103  18.654   9.996  1.00 20.00    -0.255 OA
HETATM    7  F4  UNL     1     -25.264  18.712  12.167  1.00 20.00    -0.160 F 
ENDBRANCH   1   5
TORSDOF 1
ENDMDL
