MODEL 1
REMARK VINA RESULT:      -2.6      0.000      0.000
REMARK  0 active torsions:
REMARK  status: ('A' for Active; 'I' for Inactive)
ROOT
HETATM    1  C1  UNL     1     -25.823  16.963  12.122  1.00 20.00     0.149 C 
HETATM    2  C2  UNL     1     -23.988  16.622  10.083  1.00 20.00     0.149 C 
HETATM    3  C3  UNL     1     -25.482  18.943  10.224  1.00 20.00     0.149 C 
HETATM    4  S4  UNL     1     -24.188  16.233  11.842  1.00 20.00    -0.149 SA
HETATM    5  S5  UNL     1     -25.822  18.771  11.995  1.00 20.00    -0.149 SA
HETATM    6  S6  UNL     1     -23.815  18.398   9.767  1.00 20.00    -0.149 SA
ENDROOT
TORSDOF 0
ENDMDL
MODEL 2
REMARK VINA RESULT:      -2.6     23.278     23.387
REMARK  0 active torsions:
REMARK  status: ('A' for Active; 'I' for Inactive)
ROOT
HETATM    1  C1  UNL     1     -42.842   5.312  -0.336  1.00 20.00     0.149 C 
HETATM    2  C2  UNL     1     -41.390   7.495  -1.212  1.00 20.00     0.149 C 
HETATM    3  C3  UNL     1     -43.381   7.827   0.675  1.00 20.00     0.149 C 
HETATM    4  S4  UNL     1     -41.154   5.736  -0.843  1.00 20.00    -0.149 SA
HETATM    5  S5  UNL     1     -43.332   6.099   1.221  1.00 20.00    -0.149 SA
HETATM    6  S6  UNL     1     -41.743   8.486   0.263  1.00 20.00    -0.149 SA
ENDROOT
TORSDOF 0
ENDMDL
MODEL 3
REMARK VINA RESULT:      -2.6     23.255     23.365
REMARK  0 active torsions:
REMARK  status: ('A' for Active; 'I' for Inactive)
ROOT
HETATM    1  C1  UNL     1     -43.395   7.883   0.648  1.00 20.00     0.149 C 
HETATM    2  C2  UNL     1     -42.826   5.358  -0.320  1.00 20.00     0.149 C 
HETATM    3  C3  UNL     1     -41.388   7.540  -1.219  1.00 20.00     0.149 C 
HETATM    4  S4  UNL     1     -43.334   6.165   1.221  1.00 20.00    -0.149 SA
HETATM    5  S5  UNL     1     -41.761   8.550   0.238  1.00 20.00    -0.149 SA
HETATM    6  S6  UNL     1     -41.139   5.789  -0.821  1.00 20.00    -0.149 SA
ENDROOT
TORSDOF 0
ENDMDL
MODEL 4
REMARK VINA RESULT:      -2.6      0.042      2.910
REMARK  0 active torsions:
REMARK  status: ('A' for Active; 'I' for Inactive)
ROOT
HETATM    1  C1  UNL     1     -25.454  18.941  10.183  1.00 20.00     0.149 C 
HETATM    2  C2  UNL     1     -25.854  16.974  12.083  1.00 20.00     0.149 C 
HETATM    3  C3  UNL     1     -23.972  16.611  10.093  1.00 20.00     0.149 C 
HETATM    4  S4  UNL     1     -25.838  18.781  11.947  1.00 20.00    -0.149 SA
HETATM    5  S5  UNL     1     -23.780  18.383   9.771  1.00 20.00    -0.149 SA
HETATM    6  S6  UNL     1     -24.217  16.233  11.849  1.00 20.00    -0.149 SA
ENDROOT
TORSDOF 0
ENDMDL
MODEL 5
REMARK VINA RESULT:      -2.6     23.245     23.514
REMARK  0 active torsions:
REMARK  status: ('A' for Active; 'I' for Inactive)
ROOT
HETATM    1  C1  UNL     1     -41.382   7.581  -1.222  1.00 20.00     0.149 C 
HETATM    2  C2  UNL     1     -43.416   7.976   0.606  1.00 20.00     0.149 C 
HETATM    3  C3  UNL     1     -42.860   5.431  -0.313  1.00 20.00     0.149 C 
HETATM    4  S4  UNL     1     -41.768   8.619   0.212  1.00 20.00    -0.149 SA
HETATM    5  S5  UNL     1     -41.160   5.834  -0.792  1.00 20.00    -0.149 SA
HETATM    6  S6  UNL     1     -43.384   6.268   1.207  1.00 20.00    -0.149 SA
ENDROOT
TORSDOF 0
ENDMDL
MODEL 6
REMARK VINA RESULT:      -2.5      1.696      2.706
REMARK  0 active torsions:
REMARK  status: ('A' for Active; 'I' for Inactive)
ROOT
HETATM    1  C1  UNL     1     -23.142  17.537  11.489  1.00 20.00     0.149 C 
HETATM    2  C2  UNL     1     -25.435  18.841  10.666  1.00 20.00     0.149 C 
HETATM    3  C3  UNL     1     -23.143  18.974   9.129  1.00 20.00     0.149 C 
HETATM    4  S4  UNL     1     -24.940  17.313  11.504  1.00 20.00    -0.149 SA
HETATM    5  S5  UNL     1     -22.433  17.458   9.823  1.00 20.00    -0.149 SA
HETATM    6  S6  UNL     1     -24.941  18.884   8.923  1.00 20.00    -0.149 SA
ENDROOT
TORSDOF 0
ENDMDL
MODEL 7
REMARK VINA RESULT:      -2.5      1.650      2.835
REMARK  0 active torsions:
REMARK  status: ('A' for Active; 'I' for Inactive)
ROOT
HETATM    1  C1  UNL     1     -23.167  18.971   9.073  1.00 20.00     0.149 C 
HETATM    2  C2  UNL     1     -23.004  17.284  11.255  1.00 20.00     0.149 C 
HETATM    3  C3  UNL     1     -25.326  18.703  10.776  1.00 20.00     0.149 C 
HETATM    4  S4  UNL     1     -22.438  17.378   9.537  1.00 20.00    -0.149 SA
HETATM    5  S5  UNL     1     -24.978  18.930   9.013  1.00 20.00    -0.149 SA
HETATM    6  S6  UNL     1     -24.799  17.084  11.399  1.00 20.00    -0.149 SA
ENDROOT
TORSDOF 0
ENDMDL
MODEL 8
REMARK VINA RESULT:      -2.5      1.675      2.722
REMARK  0 active torsions:
REMARK  status: ('A' for Active; 'I' for Inactive)
ROOT
HETATM    1  C1  UNL     1     -25.409  18.834  10.704  1.00 20.00     0.149 C 
HETATM    2  C2  UNL     1     -23.184  18.972   9.071  1.00 20.00     0.149 C 
HETATM    3  C3  UNL     1     -23.111  17.457  11.381  1.00 20.00     0.149 C 
HETATM    4  S4  UNL     1     -24.991  18.925   8.943  1.00 20.00    -0.149 SA
HETATM    5  S5  UNL     1     -24.911  17.268  11.469  1.00 20.00    -0.149 SA
HETATM    6  S6  UNL     1     -22.478  17.419   9.683  1.00 20.00    -0.149 SA
ENDROOT
TORSDOF 0
ENDMDL
MODEL 9
REMARK VINA RESULT:      -2.4     23.565     23.719
REMARK  0 active torsions:
REMARK  status: ('A' for Active; 'I' for Inactive)
ROOT
HETATM    1  C1  UNL     1     -41.736   7.598   0.706  1.00 20.00     0.149 C 
HETATM    2  C2  UNL     1     -41.278   5.653  -1.203  1.00 20.00     0.149 C 
HETATM    3  C3  UNL     1     -43.205   5.259   0.737  1.00 20.00     0.149 C 
HETATM    4  S4  UNL     1     -41.308   7.459  -1.050  1.00 20.00    -0.149 SA
HETATM    5  S5  UNL     1     -43.416   7.027   1.072  1.00 20.00    -0.149 SA
HETATM    6  S6  UNL     1     -42.915   4.900  -1.016  1.00 20.00    -0.149 SA
ENDROOT
TORSDOF 0
ENDMDL
