MODEL 1
REMARK VINA RESULT:      -3.6      0.000      0.000
REMARK  3 active torsions:
REMARK  status: ('A' for Active; 'I' for Inactive)
REMARK    1  A    between atoms: C1_1  and  C3_3 
REMARK    2  A    between atoms: C1_1  and  O6_6 
REMARK    3  A    between atoms: C3_3  and  C4_4 
ROOT
HETATM    1  C1  UNL     1     -36.375  13.631  -4.478  1.00 20.00     0.259 C 
HETATM    2  O5  UNL     1     -35.748  12.581  -4.490  1.00 20.00    -0.265 OA
ENDROOT
BRANCH   1   3
HETATM    3  C3  UNL     1     -35.763  15.014  -4.406  1.00 20.00     0.122 C 
BRANCH   3   4
HETATM    4  C4  UNL     1     -34.574  15.060  -3.440  1.00 20.00     0.096 C 
HETATM    5  S7  UNL     1     -34.951  16.216  -2.071  1.00 20.00    -0.097 SA
ENDBRANCH   3   4
ENDBRANCH   1   3
BRANCH   1   6
HETATM    6  O6  UNL     1     -37.735  13.752  -4.528  1.00 20.00    -0.326 OA
HETATM    7  C2  UNL     1     -38.249  15.055  -4.230  1.00 20.00     0.213 C 
ENDBRANCH   1   6
TORSDOF 3
ENDMDL
MODEL 2
REMARK VINA RESULT:      -3.6     11.442     11.904
REMARK  3 active torsions:
REMARK  status: ('A' for Active; 'I' for Inactive)
REMARK    1  A    between atoms: C1_1  and  C3_3 
REMARK    2  A    between atoms: C1_1  and  O6_6 
REMARK    3  A    between atoms: C3_3  and  C4_4 
ROOT
HETATM    1  C1  UNL     1     -34.124   5.055   3.778  1.00 20.00     0.259 C 
HETATM    2  O5  UNL     1     -34.439   3.894   3.995  1.00 20.00    -0.265 OA
ENDROOT
BRANCH   1   3
HETATM    3  C3  UNL     1     -33.293   5.532   2.604  1.00 20.00     0.122 C 
BRANCH   3   4
HETATM    4  C4  UNL     1     -32.603   6.868   2.901  1.00 20.00     0.096 C 
HETATM    5  S7  UNL     1     -32.567   7.882   1.378  1.00 20.00    -0.097 SA
ENDBRANCH   3   4
ENDBRANCH   1   3
BRANCH   1   6
HETATM    6  O6  UNL     1     -34.459   6.134   4.547  1.00 20.00    -0.326 OA
HETATM    7  C2  UNL     1     -34.540   5.886   5.955  1.00 20.00     0.213 C 
ENDBRANCH   1   6
TORSDOF 3
ENDMDL
MODEL 3
REMARK VINA RESULT:      -3.4      1.886      1.886
REMARK  3 active torsions:
REMARK  status: ('A' for Active; 'I' for Inactive)
REMARK    1  A    between atoms: C1_1  and  C3_3 
REMARK    2  A    between atoms: C1_1  and  O6_6 
REMARK    3  A    between atoms: C3_3  and  C4_4 
ROOT
HETATM    1  C1  UNL     1     -36.368  13.646  -4.436  1.00 20.00     0.259 C 
HETATM    2  O5  UNL     1     -35.762  12.586  -4.503  1.00 20.00    -0.265 OA
ENDROOT
BRANCH   1   3
HETATM    3  C3  UNL     1     -35.732  15.008  -4.256  1.00 20.00     0.122 C 
BRANCH   3   4
HETATM    4  C4  UNL     1     -34.336  15.071  -4.886  1.00 20.00     0.096 C 
HETATM    5  S7  UNL     1     -34.498  15.204  -6.705  1.00 20.00    -0.097 SA
ENDBRANCH   3   4
ENDBRANCH   1   3
BRANCH   1   6
HETATM    6  O6  UNL     1     -37.724  13.799  -4.511  1.00 20.00    -0.326 OA
HETATM    7  C2  UNL     1     -38.206  15.132  -4.306  1.00 20.00     0.213 C 
ENDBRANCH   1   6
TORSDOF 3
ENDMDL
MODEL 4
REMARK VINA RESULT:      -3.4      1.458      2.025
REMARK  3 active torsions:
REMARK  status: ('A' for Active; 'I' for Inactive)
REMARK    1  A    between atoms: C1_1  and  C3_3 
REMARK    2  A    between atoms: C1_1  and  O6_6 
REMARK    3  A    between atoms: C3_3  and  C4_4 
ROOT
HETATM    1  C1  UNL     1     -36.335  13.816  -4.832  1.00 20.00     0.259 C 
HETATM    2  O5  UNL     1     -37.475  13.723  -4.399  1.00 20.00    -0.265 OA
ENDROOT
BRANCH   1   3
HETATM    3  C3  UNL     1     -35.095  14.035  -3.991  1.00 20.00     0.122 C 
BRANCH   3   4
HETATM    4  C4  UNL     1     -35.219  15.283  -3.109  1.00 20.00     0.096 C 
HETATM    5  S7  UNL     1     -33.611  16.157  -3.068  1.00 20.00    -0.097 SA
ENDBRANCH   3   4
ENDBRANCH   1   3
BRANCH   1   6
HETATM    6  O6  UNL     1     -35.968  13.739  -6.146  1.00 20.00    -0.326 OA
HETATM    7  C2  UNL     1     -35.564  14.974  -6.747  1.00 20.00     0.213 C 
ENDBRANCH   1   6
TORSDOF 3
ENDMDL
MODEL 5
REMARK VINA RESULT:      -3.3     17.484     18.606
REMARK  3 active torsions:
REMARK  status: ('A' for Active; 'I' for Inactive)
REMARK    1  A    between atoms: C1_1  and  C3_3 
REMARK    2  A    between atoms: C1_1  and  O6_6 
REMARK    3  A    between atoms: C3_3  and  C4_4 
ROOT
HETATM    1  C1  UNL     1     -22.594  17.779   7.996  1.00 20.00     0.259 C 
HETATM    2  O5  UNL     1     -22.025  16.713   7.807  1.00 20.00    -0.265 OA
ENDROOT
BRANCH   1   3
HETATM    3  C3  UNL     1     -22.597  18.551   9.299  1.00 20.00     0.122 C 
BRANCH   3   4
HETATM    4  C4  UNL     1     -22.545  17.616  10.513  1.00 20.00     0.096 C 
HETATM    5  S7  UNL     1     -24.148  16.747  10.676  1.00 20.00    -0.097 SA
ENDBRANCH   3   4
ENDBRANCH   1   3
BRANCH   1   6
HETATM    6  O6  UNL     1     -23.328  18.470   7.073  1.00 20.00    -0.326 OA
HETATM    7  C2  UNL     1     -24.585  18.975   7.537  1.00 20.00     0.213 C 
ENDBRANCH   1   6
TORSDOF 3
ENDMDL
MODEL 6
REMARK VINA RESULT:      -3.1     11.033     11.608
REMARK  3 active torsions:
REMARK  status: ('A' for Active; 'I' for Inactive)
REMARK    1  A    between atoms: C1_1  and  C3_3 
REMARK    2  A    between atoms: C1_1  and  O6_6 
REMARK    3  A    between atoms: C3_3  and  C4_4 
ROOT
HETATM    1  C1  UNL     1     -32.948   6.246   2.811  1.00 20.00     0.259 C 
HETATM    2  O5  UNL     1     -32.919   5.135   2.299  1.00 20.00    -0.265 OA
ENDROOT
BRANCH   1   3
HETATM    3  C3  UNL     1     -33.826   6.649   3.978  1.00 20.00     0.122 C 
BRANCH   3   4
HETATM    4  C4  UNL     1     -34.870   5.574   4.301  1.00 20.00     0.096 C 
HETATM    5  S7  UNL     1     -34.762   5.141   6.077  1.00 20.00    -0.097 SA
ENDBRANCH   3   4
ENDBRANCH   1   3
BRANCH   1   6
HETATM    6  O6  UNL     1     -32.200   7.324   2.429  1.00 20.00    -0.326 OA
HETATM    7  C2  UNL     1     -32.667   8.018   1.267  1.00 20.00     0.213 C 
ENDBRANCH   1   6
TORSDOF 3
ENDMDL
MODEL 7
REMARK VINA RESULT:      -3.0     11.503     12.076
REMARK  3 active torsions:
REMARK  status: ('A' for Active; 'I' for Inactive)
REMARK    1  A    between atoms: C1_1  and  C3_3 
REMARK    2  A    between atoms: C1_1  and  O6_6 
REMARK    3  A    between atoms: C3_3  and  C4_4 
ROOT
HETATM    1  C1  UNL     1     -33.696   5.450   3.129  1.00 20.00     0.259 C 
HETATM    2  O5  UNL     1     -33.153   4.560   2.488  1.00 20.00    -0.265 OA
ENDROOT
BRANCH   1   3
HETATM    3  C3  UNL     1     -34.978   5.300   3.921  1.00 20.00     0.122 C 
BRANCH   3   4
HETATM    4  C4  UNL     1     -34.701   5.052   5.408  1.00 20.00     0.096 C 
HETATM    5  S7  UNL     1     -34.127   6.608   6.184  1.00 20.00    -0.097 SA
ENDBRANCH   3   4
ENDBRANCH   1   3
BRANCH   1   6
HETATM    6  O6  UNL     1     -33.251   6.736   3.250  1.00 20.00    -0.326 OA
HETATM    7  C2  UNL     1     -32.479   7.227   2.148  1.00 20.00     0.213 C 
ENDBRANCH   1   6
TORSDOF 3
ENDMDL
MODEL 8
REMARK VINA RESULT:      -3.0     11.107     11.579
REMARK  3 active torsions:
REMARK  status: ('A' for Active; 'I' for Inactive)
REMARK    1  A    between atoms: C1_1  and  C3_3 
REMARK    2  A    between atoms: C1_1  and  O6_6 
REMARK    3  A    between atoms: C3_3  and  C4_4 
ROOT
HETATM    1  C1  UNL     1     -33.710   6.474   4.256  1.00 20.00     0.259 C 
HETATM    2  O5  UNL     1     -33.173   7.203   5.077  1.00 20.00    -0.265 OA
ENDROOT
BRANCH   1   3
HETATM    3  C3  UNL     1     -33.270   6.301   2.817  1.00 20.00     0.122 C 
BRANCH   3   4
HETATM    4  C4  UNL     1     -32.188   7.316   2.429  1.00 20.00     0.096 C 
HETATM    5  S7  UNL     1     -32.766   8.299   0.997  1.00 20.00    -0.097 SA
ENDBRANCH   3   4
ENDBRANCH   1   3
BRANCH   1   6
HETATM    6  O6  UNL     1     -34.802   5.682   4.480  1.00 20.00    -0.326 OA
HETATM    7  C2  UNL     1     -34.882   5.099   5.785  1.00 20.00     0.213 C 
ENDBRANCH   1   6
TORSDOF 3
ENDMDL
MODEL 9
REMARK VINA RESULT:      -3.0     18.126     18.877
REMARK  3 active torsions:
REMARK  status: ('A' for Active; 'I' for Inactive)
REMARK    1  A    between atoms: C1_1  and  C3_3 
REMARK    2  A    between atoms: C1_1  and  O6_6 
REMARK    3  A    between atoms: C3_3  and  C4_4 
ROOT
HETATM    1  C1  UNL     1     -23.690  18.480   8.117  1.00 20.00     0.259 C 
HETATM    2  O5  UNL     1     -24.879  18.674   7.905  1.00 20.00    -0.265 OA
ENDROOT
BRANCH   1   3
HETATM    3  C3  UNL     1     -22.999  18.651   9.454  1.00 20.00     0.122 C 
BRANCH   3   4
HETATM    4  C4  UNL     1     -23.830  18.065  10.601  1.00 20.00     0.096 C 
HETATM    5  S7  UNL     1     -22.720  17.630  11.991  1.00 20.00    -0.097 SA
ENDBRANCH   3   4
ENDBRANCH   1   3
BRANCH   1   6
HETATM    6  O6  UNL     1     -22.768  18.075   7.193  1.00 20.00    -0.326 OA
HETATM    7  C2  UNL     1     -21.654  17.342   7.714  1.00 20.00     0.213 C 
ENDBRANCH   1   6
TORSDOF 3
ENDMDL
