MODEL 1
REMARK VINA RESULT:      -4.5      0.000      0.000
REMARK  2 active torsions:
REMARK  status: ('A' for Active; 'I' for Inactive)
REMARK    1  A    between atoms: C1_1  and  O10_10 
REMARK    2  A    between atoms: C8_8  and  O10_10 
ROOT
HETATM    1  C2  UNL     1     -33.775  17.412  -1.484  1.00 20.00     0.005 C 
HETATM    2  C3  UNL     1     -35.088  16.632  -1.316  1.00 20.00     0.007 C 
HETATM    3  C4  UNL     1     -34.979  17.479  -3.535  1.00 20.00     0.012 C 
HETATM    4  C5  UNL     1     -33.146  15.963  -3.431  1.00 20.00     0.037 C 
HETATM    5  C6  UNL     1     -33.549  17.387  -3.007  1.00 20.00    -0.012 C 
HETATM    6  C7  UNL     1     -35.444  16.242  -2.760  1.00 20.00     0.015 C 
HETATM    7  C8  UNL     1     -34.450  15.169  -3.240  1.00 20.00     0.135 C 
ENDROOT
BRANCH   7   8
HETATM    8  O10 UNL     1     -34.866  14.627  -4.486  1.00 20.00    -0.323 OA
BRANCH   8   9
HETATM    9  C1  UNL     1     -35.921  13.767  -4.433  1.00 20.00     0.398 C 
HETATM   10  O9  UNL     1     -35.884  12.547  -4.496  1.00 20.00    -0.276 OA
ENDBRANCH   8   9
ENDBRANCH   7   8
TORSDOF 2
ENDMDL
MODEL 2
REMARK VINA RESULT:      -4.5     16.967     17.875
REMARK  2 active torsions:
REMARK  status: ('A' for Active; 'I' for Inactive)
REMARK    1  A    between atoms: C1_1  and  O10_10 
REMARK    2  A    between atoms: C8_8  and  O10_10 
ROOT
HETATM    1  C2  UNL     1     -25.431  16.500  12.316  1.00 20.00     0.005 C 
HETATM    2  C3  UNL     1     -25.544  18.030  12.241  1.00 20.00     0.007 C 
HETATM    3  C4  UNL     1     -23.243  17.433  12.276  1.00 20.00     0.012 C 
HETATM    4  C5  UNL     1     -24.029  16.486  10.238  1.00 20.00     0.037 C 
HETATM    5  C6  UNL     1     -24.023  16.228  11.756  1.00 20.00    -0.012 C 
HETATM    6  C7  UNL     1     -24.195  18.446  11.632  1.00 20.00     0.015 C 
HETATM    7  C8  UNL     1     -24.168  18.016  10.153  1.00 20.00     0.135 C 
ENDROOT
BRANCH   7   8
HETATM    8  O10 UNL     1     -23.034  18.563   9.496  1.00 20.00    -0.323 OA
BRANCH   8   9
HETATM    9  C1  UNL     1     -22.522  17.815   8.479  1.00 20.00     0.398 C 
HETATM   10  O9  UNL     1     -22.638  18.019   7.280  1.00 20.00    -0.276 OA
ENDBRANCH   8   9
ENDBRANCH   7   8
TORSDOF 2
ENDMDL
MODEL 3
REMARK VINA RESULT:      -4.4      1.355      2.101
REMARK  2 active torsions:
REMARK  status: ('A' for Active; 'I' for Inactive)
REMARK    1  A    between atoms: C1_1  and  O10_10 
REMARK    2  A    between atoms: C8_8  and  O10_10 
ROOT
HETATM    1  C2  UNL     1     -33.081  17.213  -2.972  1.00 20.00     0.005 C 
HETATM    2  C3  UNL     1     -33.183  15.756  -3.450  1.00 20.00     0.007 C 
HETATM    3  C4  UNL     1     -34.898  16.161  -1.852  1.00 20.00     0.012 C 
HETATM    4  C5  UNL     1     -35.461  17.619  -3.649  1.00 20.00     0.037 C 
HETATM    5  C6  UNL     1     -34.499  17.508  -2.451  1.00 20.00    -0.012 C 
HETATM    6  C7  UNL     1     -34.651  15.402  -3.160  1.00 20.00     0.015 C 
HETATM    7  C8  UNL     1     -35.548  16.167  -4.150  1.00 20.00     0.135 C 
ENDROOT
BRANCH   7   8
HETATM    8  O10 UNL     1     -36.891  15.711  -4.060  1.00 20.00    -0.323 OA
BRANCH   8   9
HETATM    9  C1  UNL     1     -37.100  14.414  -4.423  1.00 20.00     0.398 C 
HETATM   10  O9  UNL     1     -38.151  13.794  -4.373  1.00 20.00    -0.276 OA
ENDBRANCH   8   9
ENDBRANCH   7   8
TORSDOF 2
ENDMDL
MODEL 4
REMARK VINA RESULT:      -4.4      1.050      1.946
REMARK  2 active torsions:
REMARK  status: ('A' for Active; 'I' for Inactive)
REMARK    1  A    between atoms: C1_1  and  O10_10 
REMARK    2  A    between atoms: C8_8  and  O10_10 
ROOT
HETATM    1  C2  UNL     1     -33.828  17.474  -2.619  1.00 20.00     0.005 C 
HETATM    2  C3  UNL     1     -33.827  17.778  -4.125  1.00 20.00     0.007 C 
HETATM    3  C4  UNL     1     -33.203  15.506  -3.801  1.00 20.00     0.012 C 
HETATM    4  C5  UNL     1     -35.438  15.587  -2.985  1.00 20.00     0.037 C 
HETATM    5  C6  UNL     1     -33.998  15.945  -2.573  1.00 20.00    -0.012 C 
HETATM    6  C7  UNL     1     -34.013  16.388  -4.756  1.00 20.00     0.015 C 
HETATM    7  C8  UNL     1     -35.453  15.913  -4.488  1.00 20.00     0.135 C 
ENDROOT
BRANCH   7   8
HETATM    8  O10 UNL     1     -35.735  14.735  -5.230  1.00 20.00    -0.323 OA
BRANCH   8   9
HETATM    9  C1  UNL     1     -36.231  13.689  -4.511  1.00 20.00     0.398 C 
HETATM   10  O9  UNL     1     -35.801  12.546  -4.476  1.00 20.00    -0.276 OA
ENDBRANCH   8   9
ENDBRANCH   7   8
TORSDOF 2
ENDMDL
MODEL 5
REMARK VINA RESULT:      -4.4      1.305      2.112
REMARK  2 active torsions:
REMARK  status: ('A' for Active; 'I' for Inactive)
REMARK    1  A    between atoms: C1_1  and  O10_10 
REMARK    2  A    between atoms: C8_8  and  O10_10 
ROOT
HETATM    1  C2  UNL     1     -33.425  17.817  -3.292  1.00 20.00     0.005 C 
HETATM    2  C3  UNL     1     -34.076  17.516  -4.651  1.00 20.00     0.007 C 
HETATM    3  C4  UNL     1     -33.127  15.511  -3.795  1.00 20.00     0.012 C 
HETATM    4  C5  UNL     1     -34.825  16.040  -2.211  1.00 20.00     0.037 C 
HETATM    5  C6  UNL     1     -33.392  16.437  -2.610  1.00 20.00    -0.012 C 
HETATM    6  C7  UNL     1     -34.349  16.006  -4.574  1.00 20.00     0.015 C 
HETATM    7  C8  UNL     1     -35.491  15.762  -3.570  1.00 20.00     0.135 C 
ENDROOT
BRANCH   7   8
HETATM    8  O10 UNL     1     -35.921  14.408  -3.623  1.00 20.00    -0.323 OA
BRANCH   8   9
HETATM    9  C1  UNL     1     -36.864  14.125  -4.564  1.00 20.00     0.398 C 
HETATM   10  O9  UNL     1     -38.038  13.844  -4.373  1.00 20.00    -0.276 OA
ENDBRANCH   8   9
ENDBRANCH   7   8
TORSDOF 2
ENDMDL
MODEL 6
REMARK VINA RESULT:      -4.2     10.150     12.372
REMARK  2 active torsions:
REMARK  status: ('A' for Active; 'I' for Inactive)
REMARK    1  A    between atoms: C1_1  and  O10_10 
REMARK    2  A    between atoms: C8_8  and  O10_10 
ROOT
HETATM    1  C2  UNL     1     -41.961   4.843  -1.723  1.00 20.00     0.005 C 
HETATM    2  C3  UNL     1     -43.396   5.187  -1.296  1.00 20.00     0.007 C 
HETATM    3  C4  UNL     1     -41.930   5.617   0.527  1.00 20.00     0.012 C 
HETATM    4  C5  UNL     1     -41.213   7.163  -1.136  1.00 20.00     0.037 C 
HETATM    5  C6  UNL     1     -41.101   5.675  -0.754  1.00 20.00    -0.012 C 
HETATM    6  C7  UNL     1     -43.182   6.186  -0.147  1.00 20.00     0.015 C 
HETATM    7  C8  UNL     1     -42.657   7.509  -0.734  1.00 20.00     0.135 C 
ENDROOT
BRANCH   7   8
HETATM    8  O10 UNL     1     -42.647   8.525   0.258  1.00 20.00    -0.323 OA
BRANCH   8   9
HETATM    9  C1  UNL     1     -41.507   9.268   0.333  1.00 20.00     0.398 C 
HETATM   10  O9  UNL     1     -41.418  10.486   0.353  1.00 20.00    -0.276 OA
ENDBRANCH   8   9
ENDBRANCH   7   8
TORSDOF 2
ENDMDL
MODEL 7
REMARK VINA RESULT:      -4.2      1.443      1.650
REMARK  2 active torsions:
REMARK  status: ('A' for Active; 'I' for Inactive)
REMARK    1  A    between atoms: C1_1  and  O10_10 
REMARK    2  A    between atoms: C8_8  and  O10_10 
ROOT
HETATM    1  C2  UNL     1     -33.161  16.330  -2.623  1.00 20.00     0.005 C 
HETATM    2  C3  UNL     1     -34.588  16.465  -2.070  1.00 20.00     0.007 C 
HETATM    3  C4  UNL     1     -34.645  16.787  -4.426  1.00 20.00     0.012 C 
HETATM    4  C5  UNL     1     -33.923  14.530  -4.194  1.00 20.00     0.037 C 
HETATM    5  C6  UNL     1     -33.394  15.974  -4.103  1.00 20.00    -0.012 C 
HETATM    6  C7  UNL     1     -35.462  16.153  -3.296  1.00 20.00     0.015 C 
HETATM    7  C8  UNL     1     -35.343  14.652  -3.617  1.00 20.00     0.135 C 
ENDROOT
BRANCH   7   8
HETATM    8  O10 UNL     1     -36.294  14.277  -4.605  1.00 20.00    -0.323 OA
BRANCH   8   9
HETATM    9  C1  UNL     1     -37.597  14.531  -4.298  1.00 20.00     0.398 C 
HETATM   10  O9  UNL     1     -38.548  13.776  -4.432  1.00 20.00    -0.276 OA
ENDBRANCH   8   9
ENDBRANCH   7   8
TORSDOF 2
ENDMDL
MODEL 8
REMARK VINA RESULT:      -4.2      2.118      2.918
REMARK  2 active torsions:
REMARK  status: ('A' for Active; 'I' for Inactive)
REMARK    1  A    between atoms: C1_1  and  O10_10 
REMARK    2  A    between atoms: C8_8  and  O10_10 
ROOT
HETATM    1  C2  UNL     1     -34.713  16.010  -2.493  1.00 20.00     0.005 C 
HETATM    2  C3  UNL     1     -33.323  15.908  -3.140  1.00 20.00     0.007 C 
HETATM    3  C4  UNL     1     -34.629  14.045  -3.831  1.00 20.00     0.012 C 
HETATM    4  C5  UNL     1     -35.791  15.907  -4.754  1.00 20.00     0.037 C 
HETATM    5  C6  UNL     1     -35.593  15.157  -3.424  1.00 20.00    -0.012 C 
HETATM    6  C7  UNL     1     -33.581  15.023  -4.371  1.00 20.00     0.015 C 
HETATM    7  C8  UNL     1     -34.396  15.832  -5.398  1.00 20.00     0.135 C 
ENDROOT
BRANCH   7   8
HETATM    8  O10 UNL     1     -34.476  15.132  -6.632  1.00 20.00    -0.323 OA
BRANCH   8   9
HETATM    9  C1  UNL     1     -35.618  15.328  -7.349  1.00 20.00     0.398 C 
HETATM   10  O9  UNL     1     -36.295  14.479  -7.908  1.00 20.00    -0.276 OA
ENDBRANCH   8   9
ENDBRANCH   7   8
TORSDOF 2
ENDMDL
MODEL 9
REMARK VINA RESULT:      -4.1      2.653      4.260
REMARK  2 active torsions:
REMARK  status: ('A' for Active; 'I' for Inactive)
REMARK    1  A    between atoms: C1_1  and  O10_10 
REMARK    2  A    between atoms: C8_8  and  O10_10 
ROOT
HETATM    1  C2  UNL     1     -34.703  14.381  -3.787  1.00 20.00     0.005 C 
HETATM    2  C3  UNL     1     -33.311  14.951  -4.101  1.00 20.00     0.007 C 
HETATM    3  C4  UNL     1     -34.910  16.704  -4.257  1.00 20.00     0.012 C 
HETATM    4  C5  UNL     1     -35.002  16.074  -1.963  1.00 20.00     0.037 C 
HETATM    5  C6  UNL     1     -35.497  15.625  -3.350  1.00 20.00    -0.012 C 
HETATM    6  C7  UNL     1     -33.474  16.447  -3.789  1.00 20.00     0.015 C 
HETATM    7  C8  UNL     1     -33.597  16.623  -2.264  1.00 20.00     0.135 C 
ENDROOT
BRANCH   7   8
HETATM    8  O10 UNL     1     -33.536  17.999  -1.915  1.00 20.00    -0.323 OA
BRANCH   8   9
HETATM    9  C1  UNL     1     -32.374  18.637  -2.229  1.00 20.00     0.398 C 
HETATM   10  O9  UNL     1     -31.437  18.876  -1.482  1.00 20.00    -0.276 OA
ENDBRANCH   8   9
ENDBRANCH   7   8
TORSDOF 2
ENDMDL
