MODEL 1
REMARK VINA RESULT:      -2.9      0.000      0.000
REMARK  0 active torsions:
REMARK  status: ('A' for Active; 'I' for Inactive)
ROOT
HETATM    1  C1  UNL     1     -34.718   5.223   5.912  1.00 20.00     0.177 C 
HETATM    2  C2  UNL     1     -33.261   6.997   5.314  1.00 20.00     0.177 C 
HETATM    3  C3  UNL     1     -35.146   4.859   4.499  1.00 20.00     0.100 C 
HETATM    4  C4  UNL     1     -33.469   6.901   3.812  1.00 20.00     0.100 C 
HETATM    5  O5  UNL     1     -34.435   6.616   6.032  1.00 20.00    -0.390 OA
HETATM    6  S6  UNL     1     -33.801   5.184   3.324  1.00 20.00    -0.165 SA
ENDROOT
TORSDOF 0
ENDMDL
MODEL 2
REMARK VINA RESULT:      -2.9     16.724     17.316
REMARK  0 active torsions:
REMARK  status: ('A' for Active; 'I' for Inactive)
ROOT
HETATM    1  C1  UNL     1     -21.778  18.181   9.455  1.00 20.00     0.177 C 
HETATM    2  C2  UNL     1     -23.825  18.858   8.465  1.00 20.00     0.177 C 
HETATM    3  C3  UNL     1     -22.364  17.715  10.779  1.00 20.00     0.100 C 
HETATM    4  C4  UNL     1     -24.720  18.495   9.639  1.00 20.00     0.100 C 
HETATM    5  O5  UNL     1     -22.526  19.262   8.901  1.00 20.00    -0.390 OA
HETATM    6  S6  UNL     1     -24.043  17.069  10.537  1.00 20.00    -0.165 SA
ENDROOT
TORSDOF 0
ENDMDL
MODEL 3
REMARK VINA RESULT:      -2.9      1.316      2.185
REMARK  0 active torsions:
REMARK  status: ('A' for Active; 'I' for Inactive)
ROOT
HETATM    1  C1  UNL     1     -33.337   6.894   3.675  1.00 20.00     0.177 C 
HETATM    2  C2  UNL     1     -34.051   6.899   5.937  1.00 20.00     0.177 C 
HETATM    3  C3  UNL     1     -33.732   5.459   3.365  1.00 20.00     0.100 C 
HETATM    4  C4  UNL     1     -34.554   5.465   5.970  1.00 20.00     0.100 C 
HETATM    5  O5  UNL     1     -32.951   7.050   5.040  1.00 20.00    -0.390 OA
HETATM    6  S6  UNL     1     -35.187   4.976   4.339  1.00 20.00    -0.165 SA
ENDROOT
TORSDOF 0
ENDMDL
MODEL 4
REMARK VINA RESULT:      -2.8     16.066     16.878
REMARK  0 active torsions:
REMARK  status: ('A' for Active; 'I' for Inactive)
ROOT
HETATM    1  C1  UNL     1     -23.004  16.862   9.708  1.00 20.00     0.177 C 
HETATM    2  C2  UNL     1     -24.644  16.327  11.337  1.00 20.00     0.177 C 
HETATM    3  C3  UNL     1     -22.385  18.034  10.455  1.00 20.00     0.100 C 
HETATM    4  C4  UNL     1     -24.273  17.417  12.330  1.00 20.00     0.100 C 
HETATM    5  O5  UNL     1     -24.397  16.736   9.992  1.00 20.00    -0.390 OA
HETATM    6  S6  UNL     1     -22.494  17.773  12.248  1.00 20.00    -0.165 SA
ENDROOT
TORSDOF 0
ENDMDL
MODEL 5
REMARK VINA RESULT:      -2.8     16.595     16.834
REMARK  0 active torsions:
REMARK  status: ('A' for Active; 'I' for Inactive)
ROOT
HETATM    1  C1  UNL     1     -24.055  19.261   8.081  1.00 20.00     0.177 C 
HETATM    2  C2  UNL     1     -22.255  17.715   8.100  1.00 20.00     0.177 C 
HETATM    3  C3  UNL     1     -24.814  18.667   9.256  1.00 20.00     0.100 C 
HETATM    4  C4  UNL     1     -22.742  16.888   9.278  1.00 20.00     0.100 C 
HETATM    5  O5  UNL     1     -23.344  18.260   7.354  1.00 20.00    -0.390 OA
HETATM    6  S6  UNL     1     -23.661  17.928  10.449  1.00 20.00    -0.165 SA
ENDROOT
TORSDOF 0
ENDMDL
MODEL 6
REMARK VINA RESULT:      -2.8     12.588     13.460
REMARK  0 active torsions:
REMARK  status: ('A' for Active; 'I' for Inactive)
ROOT
HETATM    1  C1  UNL     1     -36.200  13.840  -4.588  1.00 20.00     0.177 C 
HETATM    2  C2  UNL     1     -35.598  14.778  -6.683  1.00 20.00     0.177 C 
HETATM    3  C3  UNL     1     -34.850  14.026  -3.914  1.00 20.00     0.100 C 
HETATM    4  C4  UNL     1     -34.158  15.106  -6.325  1.00 20.00     0.100 C 
HETATM    5  O5  UNL     1     -36.060  13.618  -5.991  1.00 20.00    -0.390 OA
HETATM    6  S6  UNL     1     -34.016  15.504  -4.559  1.00 20.00    -0.165 SA
ENDROOT
TORSDOF 0
ENDMDL
MODEL 7
REMARK VINA RESULT:      -2.7      9.293      9.491
REMARK  0 active torsions:
REMARK  status: ('A' for Active; 'I' for Inactive)
ROOT
HETATM    1  C1  UNL     1     -41.693   5.491  -0.961  1.00 20.00     0.177 C 
HETATM    2  C2  UNL     1     -41.408   7.835  -1.200  1.00 20.00     0.177 C 
HETATM    3  C3  UNL     1     -42.088   5.507   0.507  1.00 20.00     0.100 C 
HETATM    4  C4  UNL     1     -41.760   8.205   0.232  1.00 20.00     0.100 C 
HETATM    5  O5  UNL     1     -40.789   6.550  -1.273  1.00 20.00    -0.390 OA
HETATM    6  S6  UNL     1     -42.977   7.039   0.909  1.00 20.00    -0.165 SA
ENDROOT
TORSDOF 0
ENDMDL
MODEL 8
REMARK VINA RESULT:      -2.7     15.825     16.214
REMARK  0 active torsions:
REMARK  status: ('A' for Active; 'I' for Inactive)
ROOT
HETATM    1  C1  UNL     1     -23.836  17.588  10.130  1.00 20.00     0.177 C 
HETATM    2  C2  UNL     1     -24.493  15.983  11.749  1.00 20.00     0.177 C 
HETATM    3  C3  UNL     1     -24.992  18.551  10.353  1.00 20.00     0.100 C 
HETATM    4  C4  UNL     1     -25.747  16.703  12.217  1.00 20.00     0.100 C 
HETATM    5  O5  UNL     1     -24.225  16.237  10.369  1.00 20.00    -0.390 OA
HETATM    6  S6  UNL     1     -25.534  18.502  12.085  1.00 20.00    -0.165 SA
ENDROOT
TORSDOF 0
ENDMDL
MODEL 9
REMARK VINA RESULT:      -2.7     16.875     17.101
REMARK  0 active torsions:
REMARK  status: ('A' for Active; 'I' for Inactive)
ROOT
HETATM    1  C1  UNL     1     -25.229  18.467  11.169  1.00 20.00     0.177 C 
HETATM    2  C2  UNL     1     -23.401  18.511   9.658  1.00 20.00     0.177 C 
HETATM    3  C3  UNL     1     -24.587  17.554  12.201  1.00 20.00     0.100 C 
HETATM    4  C4  UNL     1     -22.482  17.605  10.461  1.00 20.00     0.100 C 
HETATM    5  O5  UNL     1     -24.774  18.170   9.850  1.00 20.00    -0.390 OA
HETATM    6  S6  UNL     1     -22.789  17.805  12.240  1.00 20.00    -0.165 SA
ENDROOT
TORSDOF 0
ENDMDL
