MODEL 1
REMARK VINA RESULT:      -4.7      0.000      0.000
REMARK  1 active torsions:
REMARK  status: ('A' for Active; 'I' for Inactive)
REMARK    1  A    between atoms: C3_3  and  C8_8 
ROOT
HETATM    1  C1  UNL     1     -34.407  16.737  -5.182  1.00 20.00    -0.026 C 
HETATM    2  C2  UNL     1     -34.065  15.500  -5.571  1.00 20.00    -0.025 C 
HETATM    3  C4  UNL     1     -33.050  15.859  -3.529  1.00 20.00     0.017 C 
HETATM    4  C5  UNL     1     -35.385  15.923  -3.065  1.00 20.00     0.021 C 
HETATM    5  C6  UNL     1     -34.261  16.788  -3.681  1.00 20.00     0.009 C 
HETATM    6  C7  UNL     1     -33.700  14.722  -4.326  1.00 20.00     0.019 C 
HETATM    7  C8  UNL     1     -34.973  14.482  -3.479  1.00 20.00     0.063 C 
ENDROOT
BRANCH   7   8
HETATM    8  C3  UNL     1     -36.053  13.754  -4.220  1.00 20.00     0.128 C 
HETATM    9  C9  UNL     1     -37.358  14.481  -4.400  1.00 20.00     0.091 C 
HETATM   10  O10 UNL     1     -35.880  12.618  -4.660  1.00 20.00    -0.298 OA
ENDBRANCH   7   8
TORSDOF 1
ENDMDL
MODEL 2
REMARK VINA RESULT:      -4.6     18.066     18.997
REMARK  1 active torsions:
REMARK  status: ('A' for Active; 'I' for Inactive)
REMARK    1  A    between atoms: C3_3  and  C8_8 
ROOT
HETATM    1  C1  UNL     1     -23.634  18.317  12.289  1.00 20.00    -0.026 C 
HETATM    2  C2  UNL     1     -22.824  17.357  11.818  1.00 20.00    -0.025 C 
HETATM    3  C4  UNL     1     -24.985  16.690  11.354  1.00 20.00     0.017 C 
HETATM    4  C5  UNL     1     -24.678  18.678  10.080  1.00 20.00     0.021 C 
HETATM    5  C6  UNL     1     -24.935  18.212  11.531  1.00 20.00     0.009 C 
HETATM    6  C7  UNL     1     -23.583  16.619  10.737  1.00 20.00     0.019 C 
HETATM    7  C8  UNL     1     -23.770  17.549   9.514  1.00 20.00     0.063 C 
ENDROOT
BRANCH   7   8
HETATM    8  C3  UNL     1     -22.479  18.060   8.952  1.00 20.00     0.128 C 
HETATM    9  C9  UNL     1     -21.502  17.028   8.456  1.00 20.00     0.091 C 
HETATM   10  O10 UNL     1     -22.231  19.263   8.897  1.00 20.00    -0.298 OA
ENDBRANCH   7   8
TORSDOF 1
ENDMDL
MODEL 3
REMARK VINA RESULT:      -4.6      0.802      1.934
REMARK  1 active torsions:
REMARK  status: ('A' for Active; 'I' for Inactive)
REMARK    1  A    between atoms: C3_3  and  C8_8 
ROOT
HETATM    1  C1  UNL     1     -34.308  15.932  -2.333  1.00 20.00    -0.026 C 
HETATM    2  C2  UNL     1     -35.524  16.201  -2.833  1.00 20.00    -0.025 C 
HETATM    3  C4  UNL     1     -33.987  16.922  -4.398  1.00 20.00     0.017 C 
HETATM    4  C5  UNL     1     -33.682  14.563  -4.291  1.00 20.00     0.021 C 
HETATM    5  C6  UNL     1     -33.356  15.851  -3.501  1.00 20.00     0.009 C 
HETATM    6  C7  UNL     1     -35.382  16.289  -4.337  1.00 20.00     0.019 C 
HETATM    7  C8  UNL     1     -35.074  14.883  -4.906  1.00 20.00     0.063 C 
ENDROOT
BRANCH   7   8
HETATM    8  C3  UNL     1     -36.115  13.861  -4.565  1.00 20.00     0.128 C 
HETATM    9  C9  UNL     1     -37.532  14.352  -4.449  1.00 20.00     0.091 C 
HETATM   10  O10 UNL     1     -35.825  12.679  -4.390  1.00 20.00    -0.298 OA
ENDBRANCH   7   8
TORSDOF 1
ENDMDL
MODEL 4
REMARK VINA RESULT:      -4.6     10.297     11.458
REMARK  1 active torsions:
REMARK  status: ('A' for Active; 'I' for Inactive)
REMARK    1  A    between atoms: C3_3  and  C8_8 
ROOT
HETATM    1  C1  UNL     1     -43.417   8.508  -0.930  1.00 20.00    -0.026 C 
HETATM    2  C2  UNL     1     -42.331   8.208  -1.656  1.00 20.00    -0.025 C 
HETATM    3  C4  UNL     1     -41.575   9.105   0.333  1.00 20.00     0.017 C 
HETATM    4  C5  UNL     1     -42.686   7.093   0.958  1.00 20.00     0.021 C 
HETATM    5  C6  UNL     1     -42.990   8.544   0.517  1.00 20.00     0.009 C 
HETATM    6  C7  UNL     1     -41.179   8.033  -0.690  1.00 20.00     0.019 C 
HETATM    7  C8  UNL     1     -41.402   6.752   0.149  1.00 20.00     0.063 C 
ENDROOT
BRANCH   7   8
HETATM    8  C3  UNL     1     -41.544   5.514  -0.681  1.00 20.00     0.128 C 
HETATM    9  C9  UNL     1     -42.892   4.844  -0.672  1.00 20.00     0.091 C 
HETATM   10  O10 UNL     1     -40.606   5.067  -1.340  1.00 20.00    -0.298 OA
ENDBRANCH   7   8
TORSDOF 1
ENDMDL
MODEL 5
REMARK VINA RESULT:      -4.5      9.981     12.022
REMARK  1 active torsions:
REMARK  status: ('A' for Active; 'I' for Inactive)
REMARK    1  A    between atoms: C3_3  and  C8_8 
ROOT
HETATM    1  C1  UNL     1     -42.964   5.303   0.394  1.00 20.00    -0.026 C 
HETATM    2  C2  UNL     1     -41.922   5.952   0.934  1.00 20.00    -0.025 C 
HETATM    3  C4  UNL     1     -41.285   5.331  -1.196  1.00 20.00     0.017 C 
HETATM    4  C5  UNL     1     -43.084   6.858  -1.521  1.00 20.00     0.021 C 
HETATM    5  C6  UNL     1     -42.815   5.394  -1.105  1.00 20.00     0.009 C 
HETATM    6  C7  UNL     1     -41.083   6.485  -0.207  1.00 20.00     0.019 C 
HETATM    7  C8  UNL     1     -41.858   7.612  -0.931  1.00 20.00     0.063 C 
ENDROOT
BRANCH   7   8
HETATM    8  C3  UNL     1     -42.243   8.744  -0.030  1.00 20.00     0.128 C 
HETATM    9  C9  UNL     1     -41.130   9.631   0.457  1.00 20.00     0.091 C 
HETATM   10  O10 UNL     1     -43.413   8.939   0.296  1.00 20.00    -0.298 OA
ENDBRANCH   7   8
TORSDOF 1
ENDMDL
MODEL 6
REMARK VINA RESULT:      -4.4      1.155      1.653
REMARK  1 active torsions:
REMARK  status: ('A' for Active; 'I' for Inactive)
REMARK    1  A    between atoms: C3_3  and  C8_8 
ROOT
HETATM    1  C1  UNL     1     -33.810  16.721  -4.124  1.00 20.00    -0.026 C 
HETATM    2  C2  UNL     1     -33.660  15.479  -3.638  1.00 20.00    -0.025 C 
HETATM    3  C4  UNL     1     -35.145  16.564  -2.242  1.00 20.00     0.017 C 
HETATM    4  C5  UNL     1     -36.256  16.461  -4.346  1.00 20.00     0.021 C 
HETATM    5  C6  UNL     1     -35.135  17.238  -3.619  1.00 20.00     0.009 C 
HETATM    6  C7  UNL     1     -34.892  15.166  -2.818  1.00 20.00     0.019 C 
HETATM    7  C8  UNL     1     -36.114  15.027  -3.759  1.00 20.00     0.063 C 
ENDROOT
BRANCH   7   8
HETATM    8  C3  UNL     1     -35.939  13.977  -4.811  1.00 20.00     0.128 C 
HETATM    9  C9  UNL     1     -35.827  14.456  -6.233  1.00 20.00     0.091 C 
HETATM   10  O10 UNL     1     -35.888  12.781  -4.527  1.00 20.00    -0.298 OA
ENDBRANCH   7   8
TORSDOF 1
ENDMDL
MODEL 7
REMARK VINA RESULT:      -4.3      1.270      2.287
REMARK  1 active torsions:
REMARK  status: ('A' for Active; 'I' for Inactive)
REMARK    1  A    between atoms: C3_3  and  C8_8 
ROOT
HETATM    1  C1  UNL     1     -32.964  15.478  -3.800  1.00 20.00    -0.026 C 
HETATM    2  C2  UNL     1     -33.660  14.348  -3.994  1.00 20.00    -0.025 C 
HETATM    3  C4  UNL     1     -34.937  15.686  -2.612  1.00 20.00     0.017 C 
HETATM    4  C5  UNL     1     -34.799  16.889  -4.662  1.00 20.00     0.021 C 
HETATM    5  C6  UNL     1     -33.955  16.549  -3.413  1.00 20.00     0.009 C 
HETATM    6  C7  UNL     1     -35.118  14.669  -3.746  1.00 20.00     0.019 C 
HETATM    7  C8  UNL     1     -35.638  15.596  -4.871  1.00 20.00     0.063 C 
ENDROOT
BRANCH   7   8
HETATM    8  C3  UNL     1     -35.485  15.013  -6.241  1.00 20.00     0.128 C 
HETATM    9  C9  UNL     1     -34.662  15.801  -7.224  1.00 20.00     0.091 C 
HETATM   10  O10 UNL     1     -36.006  13.942  -6.548  1.00 20.00    -0.298 OA
ENDBRANCH   7   8
TORSDOF 1
ENDMDL
MODEL 8
REMARK VINA RESULT:      -4.2      1.282      1.646
REMARK  1 active torsions:
REMARK  status: ('A' for Active; 'I' for Inactive)
REMARK    1  A    between atoms: C3_3  and  C8_8 
ROOT
HETATM    1  C1  UNL     1     -34.835  17.974  -3.504  1.00 20.00    -0.026 C 
HETATM    2  C2  UNL     1     -34.069  17.357  -4.416  1.00 20.00    -0.025 C 
HETATM    3  C4  UNL     1     -33.046  17.048  -2.369  1.00 20.00     0.017 C 
HETATM    4  C5  UNL     1     -35.128  15.907  -2.184  1.00 20.00     0.021 C 
HETATM    5  C6  UNL     1     -34.538  17.336  -2.169  1.00 20.00     0.009 C 
HETATM    6  C7  UNL     1     -33.269  16.298  -3.689  1.00 20.00     0.019 C 
HETATM    7  C8  UNL     1     -34.219  15.173  -3.212  1.00 20.00     0.063 C 
ENDROOT
BRANCH   7   8
HETATM    8  C3  UNL     1     -34.990  14.533  -4.325  1.00 20.00     0.128 C 
HETATM    9  C9  UNL     1     -36.483  14.454  -4.155  1.00 20.00     0.091 C 
HETATM   10  O10 UNL     1     -34.430  14.095  -5.329  1.00 20.00    -0.298 OA
ENDBRANCH   7   8
TORSDOF 1
ENDMDL
MODEL 9
REMARK VINA RESULT:      -4.2      1.346      2.381
REMARK  1 active torsions:
REMARK  status: ('A' for Active; 'I' for Inactive)
REMARK    1  A    between atoms: C3_3  and  C8_8 
ROOT
HETATM    1  C1  UNL     1     -35.886  16.311  -3.267  1.00 20.00    -0.026 C 
HETATM    2  C2  UNL     1     -35.394  16.949  -4.339  1.00 20.00    -0.025 C 
HETATM    3  C4  UNL     1     -33.581  16.236  -3.101  1.00 20.00     0.017 C 
HETATM    4  C5  UNL     1     -34.662  14.233  -3.800  1.00 20.00     0.021 C 
HETATM    5  C6  UNL     1     -34.808  15.378  -2.772  1.00 20.00     0.009 C 
HETATM    6  C7  UNL     1     -33.990  16.432  -4.565  1.00 20.00     0.019 C 
HETATM    7  C8  UNL     1     -34.055  14.958  -5.035  1.00 20.00     0.063 C 
ENDROOT
BRANCH   7   8
HETATM    8  C3  UNL     1     -34.861  14.766  -6.283  1.00 20.00     0.128 C 
HETATM    9  C9  UNL     1     -34.371  15.470  -7.519  1.00 20.00     0.091 C 
HETATM   10  O10 UNL     1     -35.871  14.065  -6.296  1.00 20.00    -0.298 OA
ENDBRANCH   7   8
TORSDOF 1
ENDMDL
