MODEL 1
REMARK VINA RESULT:      -2.8      0.000      0.000
REMARK  0 active torsions:
REMARK  status: ('A' for Active; 'I' for Inactive)
ROOT
HETATM    1  C1  UNL     1     -24.241  16.199  11.680  1.00 20.00     0.020 C 
HETATM    2  C2  UNL     1     -23.900  16.484  10.220  1.00 20.00     0.075 C 
HETATM    3  C3  UNL     1     -25.597  16.735  12.129  1.00 20.00     0.075 C 
HETATM    4  C4  UNL     1     -25.344  18.827  10.354  1.00 20.00     0.147 C 
HETATM    5  S5  UNL     1     -23.697  18.256   9.872  1.00 20.00    -0.159 SA
HETATM    6  S6  UNL     1     -25.684  18.550  12.107  1.00 20.00    -0.159 SA
ENDROOT
TORSDOF 0
ENDMDL
MODEL 2
REMARK VINA RESULT:      -2.7      1.844      2.948
REMARK  0 active torsions:
REMARK  status: ('A' for Active; 'I' for Inactive)
ROOT
HETATM    1  C1  UNL     1     -23.070  18.687   9.444  1.00 20.00     0.020 C 
HETATM    2  C2  UNL     1     -24.570  18.409   9.379  1.00 20.00     0.075 C 
HETATM    3  C3  UNL     1     -22.275  17.677  10.265  1.00 20.00     0.075 C 
HETATM    4  C4  UNL     1     -24.461  17.307  11.902  1.00 20.00     0.147 C 
HETATM    5  S5  UNL     1     -25.389  18.565  10.994  1.00 20.00    -0.159 SA
HETATM    6  S6  UNL     1     -22.703  17.706  12.032  1.00 20.00    -0.159 SA
ENDROOT
TORSDOF 0
ENDMDL
MODEL 3
REMARK VINA RESULT:      -2.7     23.203     23.511
REMARK  0 active torsions:
REMARK  status: ('A' for Active; 'I' for Inactive)
ROOT
HETATM    1  C1  UNL     1     -41.739   8.381   0.018  1.00 20.00     0.020 C 
HETATM    2  C2  UNL     1     -43.143   8.072   0.533  1.00 20.00     0.075 C 
HETATM    3  C3  UNL     1     -41.318   7.561  -1.198  1.00 20.00     0.075 C 
HETATM    4  C4  UNL     1     -42.858   5.461  -0.298  1.00 20.00     0.147 C 
HETATM    5  S5  UNL     1     -43.299   6.386   1.192  1.00 20.00    -0.159 SA
HETATM    6  S6  UNL     1     -41.163   5.786  -0.836  1.00 20.00    -0.159 SA
ENDROOT
TORSDOF 0
ENDMDL
MODEL 4
REMARK VINA RESULT:      -2.7     23.122     23.314
REMARK  0 active torsions:
REMARK  status: ('A' for Active; 'I' for Inactive)
ROOT
HETATM    1  C1  UNL     1     -41.178   6.156  -0.891  1.00 20.00     0.020 C 
HETATM    2  C2  UNL     1     -41.350   7.636  -1.223  1.00 20.00     0.075 C 
HETATM    3  C3  UNL     1     -42.458   5.454  -0.448  1.00 20.00     0.075 C 
HETATM    4  C4  UNL     1     -43.349   7.813   0.665  1.00 20.00     0.147 C 
HETATM    5  S5  UNL     1     -41.801   8.637   0.225  1.00 20.00    -0.159 SA
HETATM    6  S6  UNL     1     -43.101   6.084   1.131  1.00 20.00    -0.159 SA
ENDROOT
TORSDOF 0
ENDMDL
MODEL 5
REMARK VINA RESULT:      -2.7     16.027     16.382
REMARK  0 active torsions:
REMARK  status: ('A' for Active; 'I' for Inactive)
ROOT
HETATM    1  C1  UNL     1     -32.927   7.132   4.840  1.00 20.00     0.020 C 
HETATM    2  C2  UNL     1     -34.103   6.936   5.795  1.00 20.00     0.075 C 
HETATM    3  C3  UNL     1     -33.245   6.838   3.377  1.00 20.00     0.075 C 
HETATM    4  C4  UNL     1     -35.068   4.930   4.171  1.00 20.00     0.147 C 
HETATM    5  S5  UNL     1     -34.641   5.204   5.906  1.00 20.00    -0.159 SA
HETATM    6  S6  UNL     1     -33.638   5.089   3.076  1.00 20.00    -0.159 SA
ENDROOT
TORSDOF 0
ENDMDL
MODEL 6
REMARK VINA RESULT:      -2.7      1.335      2.813
REMARK  0 active torsions:
REMARK  status: ('A' for Active; 'I' for Inactive)
ROOT
HETATM    1  C1  UNL     1     -25.712  18.608  11.765  1.00 20.00     0.020 C 
HETATM    2  C2  UNL     1     -25.762  17.116  12.085  1.00 20.00     0.075 C 
HETATM    3  C3  UNL     1     -25.454  18.931  10.297  1.00 20.00     0.075 C 
HETATM    4  C4  UNL     1     -23.945  16.637  10.071  1.00 20.00     0.147 C 
HETATM    5  S5  UNL     1     -24.167  16.284  11.830  1.00 20.00    -0.159 SA
HETATM    6  S6  UNL     1     -23.807  18.408   9.735  1.00 20.00    -0.159 SA
ENDROOT
TORSDOF 0
ENDMDL
MODEL 7
REMARK VINA RESULT:      -2.7     23.111     23.300
REMARK  0 active torsions:
REMARK  status: ('A' for Active; 'I' for Inactive)
ROOT
HETATM    1  C1  UNL     1     -43.049   6.318   1.132  1.00 20.00     0.020 C 
HETATM    2  C2  UNL     1     -42.722   5.419  -0.058  1.00 20.00     0.075 C 
HETATM    3  C3  UNL     1     -43.236   7.790   0.780  1.00 20.00     0.075 C 
HETATM    4  C4  UNL     1     -41.411   7.520  -1.267  1.00 20.00     0.147 C 
HETATM    5  S5  UNL     1     -41.111   5.796  -0.809  1.00 20.00    -0.159 SA
HETATM    6  S6  UNL     1     -41.713   8.573   0.171  1.00 20.00    -0.159 SA
ENDROOT
TORSDOF 0
ENDMDL
MODEL 8
REMARK VINA RESULT:      -2.7      1.940      2.926
REMARK  0 active torsions:
REMARK  status: ('A' for Active; 'I' for Inactive)
ROOT
HETATM    1  C1  UNL     1     -22.110  17.738  10.155  1.00 20.00     0.020 C 
HETATM    2  C2  UNL     1     -22.674  17.705  11.574  1.00 20.00     0.075 C 
HETATM    3  C3  UNL     1     -22.723  18.807   9.256  1.00 20.00     0.075 C 
HETATM    4  C4  UNL     1     -25.110  18.560  10.610  1.00 20.00     0.147 C 
HETATM    5  S5  UNL     1     -24.428  17.229  11.627  1.00 20.00    -0.159 SA
HETATM    6  S6  UNL     1     -24.485  18.522   8.914  1.00 20.00    -0.159 SA
ENDROOT
TORSDOF 0
ENDMDL
MODEL 9
REMARK VINA RESULT:      -2.7      2.025      2.713
REMARK  0 active torsions:
REMARK  status: ('A' for Active; 'I' for Inactive)
ROOT
HETATM    1  C1  UNL     1     -24.573  18.458   9.311  1.00 20.00     0.020 C 
HETATM    2  C2  UNL     1     -23.162  19.001   9.099  1.00 20.00     0.075 C 
HETATM    3  C3  UNL     1     -24.961  18.260  10.774  1.00 20.00     0.075 C 
HETATM    4  C4  UNL     1     -22.332  17.701  11.381  1.00 20.00     0.147 C 
HETATM    5  S5  UNL     1     -21.869  17.845   9.639  1.00 20.00    -0.159 SA
HETATM    6  S6  UNL     1     -23.974  16.978  11.601  1.00 20.00    -0.159 SA
ENDROOT
TORSDOF 0
ENDMDL
