MODEL 1
REMARK VINA RESULT:      -5.2      0.000      0.000
REMARK  0 active torsions:
REMARK  status: ('A' for Active; 'I' for Inactive)
ROOT
HETATM    1  C1  UNL     1     -23.305  18.516   8.487  1.00 20.00     0.008 C 
HETATM    2  C2  UNL     1     -22.559  18.335   9.708  1.00 20.00     0.028 C 
HETATM    3  C3  UNL     1     -25.465  19.263   9.450  1.00 20.00     0.034 C 
HETATM    4  C4  UNL     1     -24.578  18.921   8.354  1.00 20.00    -0.060 C 
HETATM    5  C5  UNL     1     -23.033  17.997  10.912  1.00 20.00     0.085 C 
HETATM    6  C6  UNL     1     -25.454  18.781  10.700  1.00 20.00     0.086 C 
HETATM    7  C7  UNL     1     -24.466  17.827  11.271  1.00 20.00     0.215 C 
HETATM    8  C8  UNL     1     -25.185  19.089   6.985  1.00 20.00     0.048 C 
HETATM    9  O9  UNL     1     -24.812  16.982  12.094  1.00 20.00    -0.285 OA
HETATM   10 CL10 UNL     1     -21.918  17.692  12.208  1.00 20.00    -0.080 Cl
HETATM   11 CL11 UNL     1     -26.710  19.262  11.799  1.00 20.00    -0.080 Cl
ENDROOT
TORSDOF 0
ENDMDL
MODEL 2
REMARK VINA RESULT:      -4.5     16.578     18.181
REMARK  0 active torsions:
REMARK  status: ('A' for Active; 'I' for Inactive)
ROOT
HETATM    1  C1  UNL     1     -34.095  16.185  -2.375  1.00 20.00     0.008 C 
HETATM    2  C2  UNL     1     -35.021  15.208  -2.891  1.00 20.00     0.028 C 
HETATM    3  C3  UNL     1     -33.871  17.621  -4.384  1.00 20.00     0.034 C 
HETATM    4  C4  UNL     1     -33.580  17.248  -3.013  1.00 20.00    -0.060 C 
HETATM    5  C5  UNL     1     -35.155  14.800  -4.158  1.00 20.00     0.085 C 
HETATM    6  C6  UNL     1     -34.206  16.818  -5.403  1.00 20.00     0.086 C 
HETATM    7  C7  UNL     1     -34.430  15.350  -5.334  1.00 20.00     0.215 C 
HETATM    8  C8  UNL     1     -32.647  18.189  -2.295  1.00 20.00     0.048 C 
HETATM    9  O9  UNL     1     -34.109  14.621  -6.271  1.00 20.00    -0.285 OA
HETATM   10 CL10 UNL     1     -36.245  13.498  -4.519  1.00 20.00    -0.080 Cl
HETATM   11 CL11 UNL     1     -34.384  17.501  -6.990  1.00 20.00    -0.080 Cl
ENDROOT
TORSDOF 0
ENDMDL
MODEL 3
REMARK VINA RESULT:      -4.4      1.508      3.172
REMARK  0 active torsions:
REMARK  status: ('A' for Active; 'I' for Inactive)
ROOT
HETATM    1  C1  UNL     1     -23.721  18.592   8.281  1.00 20.00     0.008 C 
HETATM    2  C2  UNL     1     -25.044  18.891   8.768  1.00 20.00     0.028 C 
HETATM    3  C3  UNL     1     -23.193  16.651   9.731  1.00 20.00     0.034 C 
HETATM    4  C4  UNL     1     -22.895  17.616   8.690  1.00 20.00    -0.060 C 
HETATM    5  C5  UNL     1     -25.528  18.683   9.998  1.00 20.00     0.085 C 
HETATM    6  C6  UNL     1     -23.989  16.808  10.796  1.00 20.00     0.086 C 
HETATM    7  C7  UNL     1     -24.817  18.002  11.112  1.00 20.00     0.215 C 
HETATM    8  C8  UNL     1     -21.551  17.430   8.034  1.00 20.00     0.048 C 
HETATM    9  O9  UNL     1     -24.987  18.358  12.277  1.00 20.00    -0.285 OA
HETATM   10 CL10 UNL     1     -27.116  19.263  10.394  1.00 20.00    -0.080 Cl
HETATM   11 CL11 UNL     1     -24.084  15.533  11.973  1.00 20.00    -0.080 Cl
ENDROOT
TORSDOF 0
ENDMDL
MODEL 4
REMARK VINA RESULT:      -4.4     15.669     17.729
REMARK  0 active torsions:
REMARK  status: ('A' for Active; 'I' for Inactive)
ROOT
HETATM    1  C1  UNL     1     -35.553  16.988  -2.243  1.00 20.00     0.008 C 
HETATM    2  C2  UNL     1     -36.345  16.347  -3.263  1.00 20.00     0.028 C 
HETATM    3  C3  UNL     1     -33.300  16.249  -2.966  1.00 20.00     0.034 C 
HETATM    4  C4  UNL     1     -34.219  16.957  -2.096  1.00 20.00    -0.060 C 
HETATM    5  C5  UNL     1     -36.070  15.213  -3.917  1.00 20.00     0.085 C 
HETATM    6  C6  UNL     1     -33.529  15.137  -3.678  1.00 20.00     0.086 C 
HETATM    7  C7  UNL     1     -34.823  14.413  -3.793  1.00 20.00     0.215 C 
HETATM    8  C8  UNL     1     -33.557  17.724  -0.981  1.00 20.00     0.048 C 
HETATM    9  O9  UNL     1     -34.851  13.187  -3.882  1.00 20.00    -0.285 OA
HETATM   10 CL10 UNL     1     -37.252  14.554  -5.005  1.00 20.00    -0.080 Cl
HETATM   11 CL11 UNL     1     -32.215  14.410  -4.551  1.00 20.00    -0.080 Cl
ENDROOT
TORSDOF 0
ENDMDL
MODEL 5
REMARK VINA RESULT:      -4.4     15.463     16.917
REMARK  0 active torsions:
REMARK  status: ('A' for Active; 'I' for Inactive)
ROOT
HETATM    1  C1  UNL     1     -34.058  14.862  -3.810  1.00 20.00     0.008 C 
HETATM    2  C2  UNL     1     -33.224  15.909  -3.274  1.00 20.00     0.028 C 
HETATM    3  C3  UNL     1     -36.280  15.901  -3.452  1.00 20.00     0.034 C 
HETATM    4  C4  UNL     1     -35.397  14.840  -3.896  1.00 20.00    -0.060 C 
HETATM    5  C5  UNL     1     -33.529  16.781  -2.306  1.00 20.00     0.085 C 
HETATM    6  C6  UNL     1     -36.078  16.781  -2.462  1.00 20.00     0.086 C 
HETATM    7  C7  UNL     1     -34.850  16.914  -1.635  1.00 20.00     0.215 C 
HETATM    8  C8  UNL     1     -36.101  13.666  -4.526  1.00 20.00     0.048 C 
HETATM    9  O9  UNL     1     -34.922  17.222  -0.447  1.00 20.00    -0.285 OA
HETATM   10 CL10 UNL     1     -32.304  17.864  -1.723  1.00 20.00    -0.080 Cl
HETATM   11 CL11 UNL     1     -37.353  17.883  -2.041  1.00 20.00    -0.080 Cl
ENDROOT
TORSDOF 0
ENDMDL
MODEL 6
REMARK VINA RESULT:      -4.3     14.494     15.712
REMARK  0 active torsions:
REMARK  status: ('A' for Active; 'I' for Inactive)
ROOT
HETATM    1  C1  UNL     1     -33.296  16.022  -3.166  1.00 20.00     0.008 C 
HETATM    2  C2  UNL     1     -32.680  17.226  -2.666  1.00 20.00     0.028 C 
HETATM    3  C3  UNL     1     -35.597  16.367  -2.310  1.00 20.00     0.034 C 
HETATM    4  C4  UNL     1     -34.571  15.629  -3.021  1.00 20.00    -0.060 C 
HETATM    5  C5  UNL     1     -33.006  17.913  -1.565  1.00 20.00     0.085 C 
HETATM    6  C6  UNL     1     -35.442  17.204  -1.275  1.00 20.00     0.086 C 
HETATM    7  C7  UNL     1     -34.154  17.626  -0.664  1.00 20.00     0.215 C 
HETATM    8  C8  UNL     1     -35.049  14.346  -3.650  1.00 20.00     0.048 C 
HETATM    9  O9  UNL     1     -34.068  17.825   0.546  1.00 20.00    -0.285 OA
HETATM   10 CL10 UNL     1     -32.021  19.259  -1.082  1.00 20.00    -0.080 Cl
HETATM   11 CL11 UNL     1     -36.854  17.873  -0.515  1.00 20.00    -0.080 Cl
ENDROOT
TORSDOF 0
ENDMDL
MODEL 7
REMARK VINA RESULT:      -4.2     14.862     16.588
REMARK  0 active torsions:
REMARK  status: ('A' for Active; 'I' for Inactive)
ROOT
HETATM    1  C1  UNL     1     -33.040  16.646  -2.656  1.00 20.00     0.008 C 
HETATM    2  C2  UNL     1     -34.026  15.706  -3.128  1.00 20.00     0.028 C 
HETATM    3  C3  UNL     1     -34.342  17.702  -0.829  1.00 20.00     0.034 C 
HETATM    4  C4  UNL     1     -33.159  17.528  -1.651  1.00 20.00    -0.060 C 
HETATM    5  C5  UNL     1     -35.357  15.833  -3.094  1.00 20.00     0.085 C 
HETATM    6  C6  UNL     1     -35.620  17.490  -1.169  1.00 20.00     0.086 C 
HETATM    7  C7  UNL     1     -36.112  16.948  -2.463  1.00 20.00     0.215 C 
HETATM    8  C8  UNL     1     -32.000  18.412  -1.271  1.00 20.00     0.048 C 
HETATM    9  O9  UNL     1     -37.170  17.345  -2.949  1.00 20.00    -0.285 OA
HETATM   10 CL10 UNL     1     -36.345  14.627  -3.860  1.00 20.00    -0.080 Cl
HETATM   11 CL11 UNL     1     -36.872  17.895  -0.034  1.00 20.00    -0.080 Cl
ENDROOT
TORSDOF 0
ENDMDL
MODEL 8
REMARK VINA RESULT:      -4.2     16.519     18.582
REMARK  0 active torsions:
REMARK  status: ('A' for Active; 'I' for Inactive)
ROOT
HETATM    1  C1  UNL     1     -36.381  17.076  -2.880  1.00 20.00     0.008 C 
HETATM    2  C2  UNL     1     -36.647  16.989  -4.294  1.00 20.00     0.028 C 
HETATM    3  C3  UNL     1     -34.209  15.882  -2.810  1.00 20.00     0.034 C 
HETATM    4  C4  UNL     1     -35.319  16.598  -2.212  1.00 20.00    -0.060 C 
HETATM    5  C5  UNL     1     -36.260  16.027  -5.140  1.00 20.00     0.085 C 
HETATM    6  C6  UNL     1     -34.220  15.111  -3.906  1.00 20.00     0.086 C 
HETATM    7  C7  UNL     1     -35.377  14.877  -4.810  1.00 20.00     0.215 C 
HETATM    8  C8  UNL     1     -35.191  16.818  -0.727  1.00 20.00     0.048 C 
HETATM    9  O9  UNL     1     -35.544  13.783  -5.346  1.00 20.00    -0.285 OA
HETATM   10 CL10 UNL     1     -36.828  16.060  -6.781  1.00 20.00    -0.080 Cl
HETATM   11 CL11 UNL     1     -32.774  14.257  -4.350  1.00 20.00    -0.080 Cl
ENDROOT
TORSDOF 0
ENDMDL
MODEL 9
REMARK VINA RESULT:      -4.2     16.813     18.865
REMARK  0 active torsions:
REMARK  status: ('A' for Active; 'I' for Inactive)
ROOT
HETATM    1  C1  UNL     1     -36.499  17.579  -2.630  1.00 20.00     0.008 C 
HETATM    2  C2  UNL     1     -37.141  17.418  -3.911  1.00 20.00     0.028 C 
HETATM    3  C3  UNL     1     -35.017  15.592  -2.677  1.00 20.00     0.034 C 
HETATM    4  C4  UNL     1     -35.567  16.790  -2.072  1.00 20.00    -0.060 C 
HETATM    5  C5  UNL     1     -37.390  16.276  -4.562  1.00 20.00     0.085 C 
HETATM    6  C6  UNL     1     -35.611  14.756  -3.539  1.00 20.00     0.086 C 
HETATM    7  C7  UNL     1     -36.963  14.917  -4.135  1.00 20.00     0.215 C 
HETATM    8  C8  UNL     1     -34.978  17.138  -0.730  1.00 20.00     0.048 C 
HETATM    9  O9  UNL     1     -37.672  13.937  -4.359  1.00 20.00    -0.285 OA
HETATM   10 CL10 UNL     1     -38.313  16.321  -6.032  1.00 20.00    -0.080 Cl
HETATM   11 CL11 UNL     1     -34.776  13.312  -4.024  1.00 20.00    -0.080 Cl
ENDROOT
TORSDOF 0
ENDMDL
