MODEL 1
REMARK VINA RESULT:      -4.5      0.000      0.000
REMARK  0 active torsions:
REMARK  status: ('A' for Active; 'I' for Inactive)
ROOT
HETATM    1  C1  UNL     1     -24.289  16.472  11.084  1.00 20.00     0.270 A 
HETATM    2  C2  UNL     1     -23.806  17.878  11.547  1.00 20.00     0.072 A 
HETATM    3  C3  UNL     1     -23.722  18.125   9.991  1.00 20.00     0.079 A 
HETATM    4  C4  UNL     1     -22.494  17.832  12.331  1.00 20.00     0.029 C 
HETATM    5  C5  UNL     1     -24.868  18.648  12.331  1.00 20.00     0.029 C 
HETATM    6  C6  UNL     1     -22.334  18.297   9.373  1.00 20.00     0.047 C 
HETATM    7  C7  UNL     1     -24.711  19.114   9.375  1.00 20.00     0.047 C 
HETATM    8  O8  UNL     1     -24.645  15.437  11.604  1.00 20.00    -0.264 OA
HETATM    9  O9  UNL     1     -24.191  16.758   9.760  1.00 20.00    -0.309 OA
ENDROOT
TORSDOF 0
ENDMDL
MODEL 2
REMARK VINA RESULT:      -4.4     18.574     19.812
REMARK  0 active torsions:
REMARK  status: ('A' for Active; 'I' for Inactive)
ROOT
HETATM    1  C1  UNL     1     -35.670  13.532  -4.836  1.00 20.00     0.270 A 
HETATM    2  C2  UNL     1     -34.800  14.784  -4.516  1.00 20.00     0.072 A 
HETATM    3  C3  UNL     1     -35.243  15.199  -5.972  1.00 20.00     0.079 A 
HETATM    4  C4  UNL     1     -33.326  14.448  -4.291  1.00 20.00     0.029 C 
HETATM    5  C5  UNL     1     -35.342  15.607  -3.348  1.00 20.00     0.029 C 
HETATM    6  C6  UNL     1     -34.169  15.231  -7.060  1.00 20.00     0.047 C 
HETATM    7  C7  UNL     1     -36.188  16.392  -6.114  1.00 20.00     0.047 C 
HETATM    8  O8  UNL     1     -35.996  12.509  -4.276  1.00 20.00    -0.264 OA
HETATM    9  O9  UNL     1     -36.009  13.956  -6.081  1.00 20.00    -0.309 OA
ENDROOT
TORSDOF 0
ENDMDL
MODEL 3
REMARK VINA RESULT:      -4.3     17.720     19.121
REMARK  0 active torsions:
REMARK  status: ('A' for Active; 'I' for Inactive)
ROOT
HETATM    1  C1  UNL     1     -35.584  13.847  -4.340  1.00 20.00     0.270 A 
HETATM    2  C2  UNL     1     -34.474  14.857  -4.757  1.00 20.00     0.072 A 
HETATM    3  C3  UNL     1     -35.249  15.794  -3.753  1.00 20.00     0.079 A 
HETATM    4  C4  UNL     1     -34.517  15.215  -6.243  1.00 20.00     0.029 C 
HETATM    5  C5  UNL     1     -33.070  14.399  -4.362  1.00 20.00     0.029 C 
HETATM    6  C6  UNL     1     -35.994  16.996  -4.335  1.00 20.00     0.047 C 
HETATM    7  C7  UNL     1     -34.544  16.178  -2.452  1.00 20.00     0.047 C 
HETATM    8  O8  UNL     1     -35.891  12.705  -4.599  1.00 20.00    -0.264 OA
HETATM    9  O9  UNL     1     -36.198  14.713  -3.492  1.00 20.00    -0.309 OA
ENDROOT
TORSDOF 0
ENDMDL
MODEL 4
REMARK VINA RESULT:      -4.3     18.591     19.662
REMARK  0 active torsions:
REMARK  status: ('A' for Active; 'I' for Inactive)
ROOT
HETATM    1  C1  UNL     1     -36.483  14.177  -4.649  1.00 20.00     0.270 A 
HETATM    2  C2  UNL     1     -35.730  15.507  -4.349  1.00 20.00     0.072 A 
HETATM    3  C3  UNL     1     -34.599  14.809  -5.196  1.00 20.00     0.079 A 
HETATM    4  C4  UNL     1     -35.470  15.725  -2.858  1.00 20.00     0.029 C 
HETATM    5  C5  UNL     1     -36.416  16.733  -4.953  1.00 20.00     0.029 C 
HETATM    6  C6  UNL     1     -33.320  14.392  -4.468  1.00 20.00     0.047 C 
HETATM    7  C7  UNL     1     -34.268  15.402  -6.566  1.00 20.00     0.047 C 
HETATM    8  O8  UNL     1     -37.562  13.690  -4.397  1.00 20.00    -0.264 OA
HETATM    9  O9  UNL     1     -35.463  13.641  -5.368  1.00 20.00    -0.309 OA
ENDROOT
TORSDOF 0
ENDMDL
MODEL 5
REMARK VINA RESULT:      -4.1     17.975     19.382
REMARK  0 active torsions:
REMARK  status: ('A' for Active; 'I' for Inactive)
ROOT
HETATM    1  C1  UNL     1     -36.256  14.147  -4.381  1.00 20.00     0.270 A 
HETATM    2  C2  UNL     1     -35.565  15.430  -4.929  1.00 20.00     0.072 A 
HETATM    3  C3  UNL     1     -34.435  14.994  -3.920  1.00 20.00     0.079 A 
HETATM    4  C4  UNL     1     -36.342  16.710  -4.618  1.00 20.00     0.029 C 
HETATM    5  C5  UNL     1     -35.252  15.350  -6.424  1.00 20.00     0.029 C 
HETATM    6  C6  UNL     1     -34.197  15.878  -2.695  1.00 20.00     0.047 C 
HETATM    7  C7  UNL     1     -33.105  14.517  -4.505  1.00 20.00     0.047 C 
HETATM    8  O8  UNL     1     -37.295  13.551  -4.560  1.00 20.00    -0.264 OA
HETATM    9  O9  UNL     1     -35.241  13.836  -3.534  1.00 20.00    -0.309 OA
ENDROOT
TORSDOF 0
ENDMDL
MODEL 6
REMARK VINA RESULT:      -4.0     17.728     19.003
REMARK  0 active torsions:
REMARK  status: ('A' for Active; 'I' for Inactive)
ROOT
HETATM    1  C1  UNL     1     -34.852  13.879  -4.265  1.00 20.00     0.270 A 
HETATM    2  C2  UNL     1     -34.529  15.329  -3.796  1.00 20.00     0.072 A 
HETATM    3  C3  UNL     1     -35.291  15.700  -5.125  1.00 20.00     0.079 A 
HETATM    4  C4  UNL     1     -33.029  15.618  -3.732  1.00 20.00     0.029 C 
HETATM    5  C5  UNL     1     -35.197  15.691  -2.469  1.00 20.00     0.029 C 
HETATM    6  C6  UNL     1     -34.477  16.321  -6.261  1.00 20.00     0.047 C 
HETATM    7  C7  UNL     1     -36.648  16.394  -4.995  1.00 20.00     0.047 C 
HETATM    8  O8  UNL     1     -34.659  12.752  -3.868  1.00 20.00    -0.264 OA
HETATM    9  O9  UNL     1     -35.496  14.277  -5.394  1.00 20.00    -0.309 OA
ENDROOT
TORSDOF 0
ENDMDL
MODEL 7
REMARK VINA RESULT:      -3.8     23.422     24.289
REMARK  0 active torsions:
REMARK  status: ('A' for Active; 'I' for Inactive)
ROOT
HETATM    1  C1  UNL     1     -42.722   5.922   0.846  1.00 20.00     0.270 A 
HETATM    2  C2  UNL     1     -42.202   6.019  -0.619  1.00 20.00     0.072 A 
HETATM    3  C3  UNL     1     -42.337   7.565  -0.338  1.00 20.00     0.079 A 
HETATM    4  C4  UNL     1     -43.158   5.395  -1.637  1.00 20.00     0.029 C 
HETATM    5  C5  UNL     1     -40.794   5.449  -0.794  1.00 20.00     0.029 C 
HETATM    6  C6  UNL     1     -43.417   8.334  -1.099  1.00 20.00     0.047 C 
HETATM    7  C7  UNL     1     -41.050   8.386  -0.256  1.00 20.00     0.047 C 
HETATM    8  O8  UNL     1     -42.985   5.046   1.640  1.00 20.00    -0.264 OA
HETATM    9  O9  UNL     1     -42.812   7.267   1.013  1.00 20.00    -0.309 OA
ENDROOT
TORSDOF 0
ENDMDL
MODEL 8
REMARK VINA RESULT:      -3.8     17.625     19.004
REMARK  0 active torsions:
REMARK  status: ('A' for Active; 'I' for Inactive)
ROOT
HETATM    1  C1  UNL     1     -33.439  14.747  -4.484  1.00 20.00     0.270 A 
HETATM    2  C2  UNL     1     -34.531  15.762  -4.033  1.00 20.00     0.072 A 
HETATM    3  C3  UNL     1     -35.429  14.899  -5.001  1.00 20.00     0.079 A 
HETATM    4  C4  UNL     1     -34.220  17.200  -4.446  1.00 20.00     0.029 C 
HETATM    5  C5  UNL     1     -34.832  15.692  -2.536  1.00 20.00     0.029 C 
HETATM    6  C6  UNL     1     -35.922  15.559  -6.289  1.00 20.00     0.047 C 
HETATM    7  C7  UNL     1     -36.535  14.049  -4.375  1.00 20.00     0.047 C 
HETATM    8  O8  UNL     1     -32.265  14.548  -4.264  1.00 20.00    -0.264 OA
HETATM    9  O9  UNL     1     -34.274  14.052  -5.300  1.00 20.00    -0.309 OA
ENDROOT
TORSDOF 0
ENDMDL
MODEL 9
REMARK VINA RESULT:      -3.8     16.809     18.236
REMARK  0 active torsions:
REMARK  status: ('A' for Active; 'I' for Inactive)
ROOT
HETATM    1  C1  UNL     1     -34.517  16.257  -5.019  1.00 20.00     0.270 A 
HETATM    2  C2  UNL     1     -34.011  15.182  -4.012  1.00 20.00     0.072 A 
HETATM    3  C3  UNL     1     -34.163  16.375  -2.992  1.00 20.00     0.079 A 
HETATM    4  C4  UNL     1     -32.597  14.688  -4.323  1.00 20.00     0.029 C 
HETATM    5  C5  UNL     1     -34.968  13.999  -3.869  1.00 20.00     0.029 C 
HETATM    6  C6  UNL     1     -32.886  16.959  -2.386  1.00 20.00     0.047 C 
HETATM    7  C7  UNL     1     -35.259  16.267  -1.932  1.00 20.00     0.047 C 
HETATM    8  O8  UNL     1     -34.762  16.322  -6.203  1.00 20.00    -0.264 OA
HETATM    9  O9  UNL     1     -34.622  17.235  -4.082  1.00 20.00    -0.309 OA
ENDROOT
TORSDOF 0
ENDMDL
