MODEL 1
REMARK VINA RESULT:      -5.1      0.000      0.000
REMARK  2 active torsions:
REMARK  status: ('A' for Active; 'I' for Inactive)
REMARK    1  A    between atoms: C1_1  and  C2_2 
REMARK    2  A    between atoms: C1_1  and  C3_3 
ROOT
HETATM    1  C1  UNL     1     -34.007   6.506   3.996  1.00 20.00     0.374 C 
HETATM    2  O4  UNL     1     -33.089   6.861   4.879  1.00 20.00    -0.216 OA
ENDROOT
BRANCH   1   3
HETATM    3  C2  UNL     1     -34.853   5.387   4.613  1.00 20.00     0.424 C 
HETATM    4  F5  UNL     1     -36.106   5.398   4.098  1.00 20.00    -0.168 F 
HETATM    5  F6  UNL     1     -34.339   4.156   4.386  1.00 20.00    -0.168 F 
HETATM    6  F7  UNL     1     -34.979   5.541   5.952  1.00 20.00    -0.168 F 
ENDBRANCH   1   3
BRANCH   1   7
HETATM    7  C3  UNL     1     -33.288   5.997   2.740  1.00 20.00     0.424 C 
HETATM    8  F8  UNL     1     -32.243   5.196   3.058  1.00 20.00    -0.168 F 
HETATM    9  F9  UNL     1     -32.784   7.031   2.027  1.00 20.00    -0.168 F 
HETATM   10  F10 UNL     1     -34.104   5.302   1.917  1.00 20.00    -0.168 F 
ENDBRANCH   1   7
TORSDOF 2
ENDMDL
MODEL 2
REMARK VINA RESULT:      -5.1      0.059      1.671
REMARK  2 active torsions:
REMARK  status: ('A' for Active; 'I' for Inactive)
REMARK    1  A    between atoms: C1_1  and  C2_2 
REMARK    2  A    between atoms: C1_1  and  C3_3 
ROOT
HETATM    1  C1  UNL     1     -33.994   6.496   3.983  1.00 20.00     0.374 C 
HETATM    2  O4  UNL     1     -33.089   6.834   4.885  1.00 20.00    -0.216 OA
ENDROOT
BRANCH   1   3
HETATM    3  C2  UNL     1     -34.875   5.393   4.582  1.00 20.00     0.424 C 
HETATM    4  F5  UNL     1     -34.983   5.547   5.923  1.00 20.00    -0.168 F 
HETATM    5  F6  UNL     1     -36.129   5.391   4.077  1.00 20.00    -0.168 F 
HETATM    6  F7  UNL     1     -34.344   4.165   4.371  1.00 20.00    -0.168 F 
ENDBRANCH   1   3
BRANCH   1   7
HETATM    7  C3  UNL     1     -33.259   5.972   2.743  1.00 20.00     0.424 C 
HETATM    8  F8  UNL     1     -32.691   6.981   2.040  1.00 20.00    -0.168 F 
HETATM    9  F9  UNL     1     -34.122   5.351   1.905  1.00 20.00    -0.168 F 
HETATM   10  F10 UNL     1     -32.287   5.084   3.048  1.00 20.00    -0.168 F 
ENDBRANCH   1   7
TORSDOF 2
ENDMDL
MODEL 3
REMARK VINA RESULT:      -5.1      1.039      3.149
REMARK  2 active torsions:
REMARK  status: ('A' for Active; 'I' for Inactive)
REMARK    1  A    between atoms: C1_1  and  C2_2 
REMARK    2  A    between atoms: C1_1  and  C3_3 
ROOT
HETATM    1  C1  UNL     1     -33.602   6.104   4.902  1.00 20.00     0.374 C 
HETATM    2  O4  UNL     1     -33.926   7.158   5.632  1.00 20.00    -0.216 OA
ENDROOT
BRANCH   1   3
HETATM    3  C2  UNL     1     -33.300   6.585   3.478  1.00 20.00     0.424 C 
HETATM    4  F5  UNL     1     -32.040   7.077   3.399  1.00 20.00    -0.168 F 
HETATM    5  F6  UNL     1     -33.403   5.599   2.559  1.00 20.00    -0.168 F 
HETATM    6  F7  UNL     1     -34.133   7.585   3.105  1.00 20.00    -0.168 F 
ENDBRANCH   1   3
BRANCH   1   7
HETATM    7  C3  UNL     1     -34.798   5.145   4.894  1.00 20.00     0.424 C 
HETATM    8  F8  UNL     1     -35.274   4.936   6.145  1.00 20.00    -0.168 F 
HETATM    9  F9  UNL     1     -34.435   3.935   4.408  1.00 20.00    -0.168 F 
HETATM   10  F10 UNL     1     -35.822   5.591   4.133  1.00 20.00    -0.168 F 
ENDBRANCH   1   7
TORSDOF 2
ENDMDL
MODEL 4
REMARK VINA RESULT:      -5.1      1.046      3.228
REMARK  2 active torsions:
REMARK  status: ('A' for Active; 'I' for Inactive)
REMARK    1  A    between atoms: C1_1  and  C2_2 
REMARK    2  A    between atoms: C1_1  and  C3_3 
ROOT
HETATM    1  C1  UNL     1     -33.606   6.109   4.901  1.00 20.00     0.374 C 
HETATM    2  O4  UNL     1     -33.958   7.158   5.625  1.00 20.00    -0.216 OA
ENDROOT
BRANCH   1   3
HETATM    3  C2  UNL     1     -33.293   6.594   3.481  1.00 20.00     0.424 C 
HETATM    4  F5  UNL     1     -32.034   7.091   3.414  1.00 20.00    -0.168 F 
HETATM    5  F6  UNL     1     -33.384   5.609   2.559  1.00 20.00    -0.168 F 
HETATM    6  F7  UNL     1     -34.127   7.591   3.102  1.00 20.00    -0.168 F 
ENDBRANCH   1   3
BRANCH   1   7
HETATM    7  C3  UNL     1     -34.785   5.128   4.878  1.00 20.00     0.424 C 
HETATM    8  F8  UNL     1     -35.816   5.610   4.143  1.00 20.00    -0.168 F 
HETATM    9  F9  UNL     1     -35.260   4.926   6.130  1.00 20.00    -0.168 F 
HETATM   10  F10 UNL     1     -34.450   3.919   4.377  1.00 20.00    -0.168 F 
ENDBRANCH   1   7
TORSDOF 2
ENDMDL
MODEL 5
REMARK VINA RESULT:      -5.1      0.036      1.198
REMARK  2 active torsions:
REMARK  status: ('A' for Active; 'I' for Inactive)
REMARK    1  A    between atoms: C1_1  and  C2_2 
REMARK    2  A    between atoms: C1_1  and  C3_3 
ROOT
HETATM    1  C1  UNL     1     -34.006   6.509   4.020  1.00 20.00     0.374 C 
HETATM    2  O4  UNL     1     -33.084   6.831   4.911  1.00 20.00    -0.216 OA
ENDROOT
BRANCH   1   3
HETATM    3  C2  UNL     1     -34.874   5.394   4.613  1.00 20.00     0.424 C 
HETATM    4  F5  UNL     1     -34.323   4.181   4.369  1.00 20.00    -0.168 F 
HETATM    5  F6  UNL     1     -35.024   5.503   5.952  1.00 20.00    -0.168 F 
HETATM    6  F7  UNL     1     -36.110   5.379   4.060  1.00 20.00    -0.168 F 
ENDBRANCH   1   3
BRANCH   1   7
HETATM    7  C3  UNL     1     -33.294   6.011   2.756  1.00 20.00     0.424 C 
HETATM    8  F8  UNL     1     -32.233   5.226   3.062  1.00 20.00    -0.168 F 
HETATM    9  F9  UNL     1     -32.814   7.053   2.038  1.00 20.00    -0.168 F 
HETATM   10  F10 UNL     1     -34.108   5.303   1.942  1.00 20.00    -0.168 F 
ENDBRANCH   1   7
TORSDOF 2
ENDMDL
MODEL 6
REMARK VINA RESULT:      -5.0      1.065      3.217
REMARK  2 active torsions:
REMARK  status: ('A' for Active; 'I' for Inactive)
REMARK    1  A    between atoms: C1_1  and  C2_2 
REMARK    2  A    between atoms: C1_1  and  C3_3 
ROOT
HETATM    1  C1  UNL     1     -33.611   6.114   4.941  1.00 20.00     0.374 C 
HETATM    2  O4  UNL     1     -33.977   7.161   5.659  1.00 20.00    -0.216 OA
ENDROOT
BRANCH   1   3
HETATM    3  C2  UNL     1     -33.280   6.599   3.525  1.00 20.00     0.424 C 
HETATM    4  F5  UNL     1     -34.153   7.559   3.135  1.00 20.00    -0.168 F 
HETATM    5  F6  UNL     1     -32.038   7.123   3.427  1.00 20.00    -0.168 F 
HETATM    6  F7  UNL     1     -33.377   5.595   2.622  1.00 20.00    -0.168 F 
ENDBRANCH   1   3
BRANCH   1   7
HETATM    7  C3  UNL     1     -34.786   5.129   4.903  1.00 20.00     0.424 C 
HETATM    8  F8  UNL     1     -35.812   5.610   4.162  1.00 20.00    -0.168 F 
HETATM    9  F9  UNL     1     -35.270   4.917   6.150  1.00 20.00    -0.168 F 
HETATM   10  F10 UNL     1     -34.442   3.924   4.397  1.00 20.00    -0.168 F 
ENDBRANCH   1   7
TORSDOF 2
ENDMDL
MODEL 7
REMARK VINA RESULT:      -5.0      0.642      3.203
REMARK  2 active torsions:
REMARK  status: ('A' for Active; 'I' for Inactive)
REMARK    1  A    between atoms: C1_1  and  C2_2 
REMARK    2  A    between atoms: C1_1  and  C3_3 
ROOT
HETATM    1  C1  UNL     1     -33.615   5.927   4.111  1.00 20.00     0.374 C 
HETATM    2  O4  UNL     1     -34.019   7.184   4.174  1.00 20.00    -0.216 OA
ENDROOT
BRANCH   1   3
HETATM    3  C2  UNL     1     -33.214   5.627   2.663  1.00 20.00     0.424 C 
HETATM    4  F5  UNL     1     -32.476   4.492   2.598  1.00 20.00    -0.168 F 
HETATM    5  F6  UNL     1     -34.279   5.459   1.848  1.00 20.00    -0.168 F 
HETATM    6  F7  UNL     1     -32.450   6.618   2.144  1.00 20.00    -0.168 F 
ENDBRANCH   1   3
BRANCH   1   7
HETATM    7  C3  UNL     1     -34.785   5.029   4.534  1.00 20.00     0.424 C 
HETATM    8  F8  UNL     1     -34.869   4.926   5.881  1.00 20.00    -0.168 F 
HETATM    9  F9  UNL     1     -34.618   3.774   4.055  1.00 20.00    -0.168 F 
HETATM   10  F10 UNL     1     -35.977   5.476   4.079  1.00 20.00    -0.168 F 
ENDBRANCH   1   7
TORSDOF 2
ENDMDL
MODEL 8
REMARK VINA RESULT:      -5.0      1.547      2.305
REMARK  2 active torsions:
REMARK  status: ('A' for Active; 'I' for Inactive)
REMARK    1  A    between atoms: C1_1  and  C2_2 
REMARK    2  A    between atoms: C1_1  and  C3_3 
ROOT
HETATM    1  C1  UNL     1     -33.773   4.748   4.120  1.00 20.00     0.374 C 
HETATM    2  O4  UNL     1     -34.381   3.583   3.974  1.00 20.00    -0.216 OA
ENDROOT
BRANCH   1   3
HETATM    3  C2  UNL     1     -34.790   5.749   4.680  1.00 20.00     0.424 C 
HETATM    4  F5  UNL     1     -34.937   5.580   6.016  1.00 20.00    -0.168 F 
HETATM    5  F6  UNL     1     -34.425   7.035   4.477  1.00 20.00    -0.168 F 
HETATM    6  F7  UNL     1     -36.014   5.575   4.127  1.00 20.00    -0.168 F 
ENDBRANCH   1   3
BRANCH   1   7
HETATM    7  C3  UNL     1     -33.284   5.206   2.740  1.00 20.00     0.424 C 
HETATM    8  F8  UNL     1     -34.318   5.544   1.935  1.00 20.00    -0.168 F 
HETATM    9  F9  UNL     1     -32.615   4.208   2.117  1.00 20.00    -0.168 F 
HETATM   10  F10 UNL     1     -32.449   6.267   2.807  1.00 20.00    -0.168 F 
ENDBRANCH   1   7
TORSDOF 2
ENDMDL
MODEL 9
REMARK VINA RESULT:      -5.0      1.784      2.989
REMARK  2 active torsions:
REMARK  status: ('A' for Active; 'I' for Inactive)
REMARK    1  A    between atoms: C1_1  and  C2_2 
REMARK    2  A    between atoms: C1_1  and  C3_3 
ROOT
HETATM    1  C1  UNL     1     -34.231   6.456   4.278  1.00 20.00     0.374 C 
HETATM    2  O4  UNL     1     -33.297   6.139   3.398  1.00 20.00    -0.216 OA
ENDROOT
BRANCH   1   3
HETATM    3  C2  UNL     1     -33.536   6.904   5.570  1.00 20.00     0.424 C 
HETATM    4  F5  UNL     1     -34.360   7.687   6.307  1.00 20.00    -0.168 F 
HETATM    5  F6  UNL     1     -33.165   5.865   6.352  1.00 20.00    -0.168 F 
HETATM    6  F7  UNL     1     -32.430   7.639   5.309  1.00 20.00    -0.168 F 
ENDBRANCH   1   3
BRANCH   1   7
HETATM    7  C3  UNL     1     -35.082   5.207   4.540  1.00 20.00     0.424 C 
HETATM    8  F8  UNL     1     -35.323   5.040   5.863  1.00 20.00    -0.168 F 
HETATM    9  F9  UNL     1     -34.436   4.094   4.118  1.00 20.00    -0.168 F 
HETATM   10  F10 UNL     1     -36.274   5.244   3.905  1.00 20.00    -0.168 F 
ENDBRANCH   1   7
TORSDOF 2
ENDMDL
