MODEL 1
REMARK VINA RESULT:      -4.3      0.000      0.000
REMARK  0 active torsions:
REMARK  status: ('A' for Active; 'I' for Inactive)
ROOT
HETATM    1  C1  UNL     1     -35.891  14.122  -4.732  1.00 20.00     0.127 C 
HETATM    2  C2  UNL     1     -36.498  14.978  -3.640  1.00 20.00     0.078 C 
HETATM    3  C3  UNL     1     -35.139  14.833  -5.835  1.00 20.00     0.078 C 
HETATM    4  C4  UNL     1     -35.474  15.511  -2.641  1.00 20.00     0.007 C 
HETATM    5  C5  UNL     1     -33.634  14.624  -5.740  1.00 20.00     0.007 C 
HETATM    6  C6  UNL     1     -34.516  16.553  -3.229  1.00 20.00     0.000 C 
HETATM    7  C7  UNL     1     -33.023  14.694  -4.340  1.00 20.00     0.000 C 
HETATM    8  C8  UNL     1     -33.126  16.036  -3.616  1.00 20.00     0.000 C 
HETATM    9  O9  UNL     1     -35.984  12.894  -4.709  1.00 20.00    -0.298 OA
ENDROOT
TORSDOF 0
ENDMDL
MODEL 2
REMARK VINA RESULT:      -4.3     11.728     12.429
REMARK  0 active torsions:
REMARK  status: ('A' for Active; 'I' for Inactive)
ROOT
HETATM    1  C1  UNL     1     -32.816   6.618   2.930  1.00 20.00     0.127 C 
HETATM    2  C2  UNL     1     -32.343   7.423   4.121  1.00 20.00     0.078 C 
HETATM    3  C3  UNL     1     -32.832   5.112   3.070  1.00 20.00     0.078 C 
HETATM    4  C4  UNL     1     -33.370   7.508   5.248  1.00 20.00     0.007 C 
HETATM    5  C5  UNL     1     -34.243   4.553   3.179  1.00 20.00     0.007 C 
HETATM    6  C6  UNL     1     -33.615   6.178   5.967  1.00 20.00     0.000 C 
HETATM    7  C7  UNL     1     -35.220   5.333   4.061  1.00 20.00     0.000 C 
HETATM    8  C8  UNL     1     -34.878   5.418   5.549  1.00 20.00     0.000 C 
HETATM    9  O9  UNL     1     -33.197   7.168   1.896  1.00 20.00    -0.298 OA
ENDROOT
TORSDOF 0
ENDMDL
MODEL 3
REMARK VINA RESULT:      -4.2      1.323      2.761
REMARK  0 active torsions:
REMARK  status: ('A' for Active; 'I' for Inactive)
ROOT
HETATM    1  C1  UNL     1     -34.072  14.511  -4.838  1.00 20.00     0.127 C 
HETATM    2  C2  UNL     1     -32.900  15.083  -4.069  1.00 20.00     0.078 C 
HETATM    3  C3  UNL     1     -35.174  13.854  -4.037  1.00 20.00     0.078 C 
HETATM    4  C4  UNL     1     -33.215  16.400  -3.364  1.00 20.00     0.007 C 
HETATM    5  C5  UNL     1     -36.446  14.690  -4.005  1.00 20.00     0.007 C 
HETATM    6  C6  UNL     1     -34.196  16.260  -2.194  1.00 20.00     0.000 C 
HETATM    7  C7  UNL     1     -36.268  16.197  -3.814  1.00 20.00     0.000 C 
HETATM    8  C8  UNL     1     -35.647  16.650  -2.493  1.00 20.00     0.000 C 
HETATM    9  O9  UNL     1     -34.138  14.601  -6.064  1.00 20.00    -0.298 OA
ENDROOT
TORSDOF 0
ENDMDL
MODEL 4
REMARK VINA RESULT:      -4.2     12.139     12.737
REMARK  0 active torsions:
REMARK  status: ('A' for Active; 'I' for Inactive)
ROOT
HETATM    1  C1  UNL     1     -34.547   5.613   5.580  1.00 20.00     0.127 C 
HETATM    2  C2  UNL     1     -34.017   7.020   5.755  1.00 20.00     0.078 C 
HETATM    3  C3  UNL     1     -35.357   5.325   4.335  1.00 20.00     0.078 C 
HETATM    4  C4  UNL     1     -32.818   7.337   4.865  1.00 20.00     0.007 C 
HETATM    5  C5  UNL     1     -34.599   4.462   3.336  1.00 20.00     0.007 C 
HETATM    6  C6  UNL     1     -33.155   7.414   3.371  1.00 20.00     0.000 C 
HETATM    7  C7  UNL     1     -33.121   4.795   3.129  1.00 20.00     0.000 C 
HETATM    8  C8  UNL     1     -32.807   6.172   2.545  1.00 20.00     0.000 C 
HETATM    9  O9  UNL     1     -34.308   4.731   6.405  1.00 20.00    -0.298 OA
ENDROOT
TORSDOF 0
ENDMDL
MODEL 5
REMARK VINA RESULT:      -4.2     17.340     18.705
REMARK  0 active torsions:
REMARK  status: ('A' for Active; 'I' for Inactive)
ROOT
HETATM    1  C1  UNL     1     -22.738  17.592   9.599  1.00 20.00     0.127 C 
HETATM    2  C2  UNL     1     -23.506  18.720   8.944  1.00 20.00     0.078 C 
HETATM    3  C3  UNL     1     -22.482  17.697  11.086  1.00 20.00     0.078 C 
HETATM    4  C4  UNL     1     -25.004  18.691   9.235  1.00 20.00     0.007 C 
HETATM    5  C5  UNL     1     -23.323  16.717  11.891  1.00 20.00     0.007 C 
HETATM    6  C6  UNL     1     -25.361  19.002  10.693  1.00 20.00     0.000 C 
HETATM    7  C7  UNL     1     -24.781  16.553  11.458  1.00 20.00     0.000 C 
HETATM    8  C8  UNL     1     -25.672  17.789  11.576  1.00 20.00     0.000 C 
HETATM    9  O9  UNL     1     -22.360  16.615   8.952  1.00 20.00    -0.298 OA
ENDROOT
TORSDOF 0
ENDMDL
MODEL 6
REMARK VINA RESULT:      -4.2      1.150      2.373
REMARK  0 active torsions:
REMARK  status: ('A' for Active; 'I' for Inactive)
ROOT
HETATM    1  C1  UNL     1     -34.816  13.961  -4.410  1.00 20.00     0.127 C 
HETATM    2  C2  UNL     1     -36.200  14.092  -5.009  1.00 20.00     0.078 C 
HETATM    3  C3  UNL     1     -33.917  15.177  -4.465  1.00 20.00     0.078 C 
HETATM    4  C4  UNL     1     -37.170  14.887  -4.138  1.00 20.00     0.007 C 
HETATM    5  C5  UNL     1     -33.733  15.825  -3.100  1.00 20.00     0.007 C 
HETATM    6  C6  UNL     1     -36.835  16.379  -4.035  1.00 20.00     0.000 C 
HETATM    7  C7  UNL     1     -34.981  15.935  -2.223  1.00 20.00     0.000 C 
HETATM    8  C8  UNL     1     -36.114  16.812  -2.755  1.00 20.00     0.000 C 
HETATM    9  O9  UNL     1     -34.445  12.915  -3.877  1.00 20.00    -0.298 OA
ENDROOT
TORSDOF 0
ENDMDL
MODEL 7
REMARK VINA RESULT:      -4.1      1.281      2.098
REMARK  0 active torsions:
REMARK  status: ('A' for Active; 'I' for Inactive)
ROOT
HETATM    1  C1  UNL     1     -35.062  14.085  -3.983  1.00 20.00     0.127 C 
HETATM    2  C2  UNL     1     -34.575  15.201  -3.084  1.00 20.00     0.078 C 
HETATM    3  C3  UNL     1     -36.210  14.395  -4.917  1.00 20.00     0.078 C 
HETATM    4  C4  UNL     1     -33.740  16.252  -3.811  1.00 20.00     0.007 C 
HETATM    5  C5  UNL     1     -35.768  14.488  -6.371  1.00 20.00     0.007 C 
HETATM    6  C6  UNL     1     -34.539  17.103  -4.804  1.00 20.00     0.000 C 
HETATM    7  C7  UNL     1     -34.452  15.220  -6.638  1.00 20.00     0.000 C 
HETATM    8  C8  UNL     1     -34.410  16.705  -6.278  1.00 20.00     0.000 C 
HETATM    9  O9  UNL     1     -34.527  12.975  -3.973  1.00 20.00    -0.298 OA
ENDROOT
TORSDOF 0
ENDMDL
MODEL 8
REMARK VINA RESULT:      -4.1      1.383      3.043
REMARK  0 active torsions:
REMARK  status: ('A' for Active; 'I' for Inactive)
ROOT
HETATM    1  C1  UNL     1     -33.461  14.607  -4.698  1.00 20.00     0.127 C 
HETATM    2  C2  UNL     1     -34.032  14.949  -6.058  1.00 20.00     0.078 C 
HETATM    3  C3  UNL     1     -33.133  15.758  -3.773  1.00 20.00     0.078 C 
HETATM    4  C4  UNL     1     -35.497  15.374  -6.017  1.00 20.00     0.007 C 
HETATM    5  C5  UNL     1     -34.109  15.866  -2.610  1.00 20.00     0.007 C 
HETATM    6  C6  UNL     1     -35.733  16.726  -5.335  1.00 20.00     0.000 C 
HETATM    7  C7  UNL     1     -35.588  15.652  -2.938  1.00 20.00     0.000 C 
HETATM    8  C8  UNL     1     -36.230  16.664  -3.887  1.00 20.00     0.000 C 
HETATM    9  O9  UNL     1     -33.295  13.438  -4.348  1.00 20.00    -0.298 OA
ENDROOT
TORSDOF 0
ENDMDL
MODEL 9
REMARK VINA RESULT:      -4.1      1.441      2.686
REMARK  0 active torsions:
REMARK  status: ('A' for Active; 'I' for Inactive)
ROOT
HETATM    1  C1  UNL     1     -36.070  14.004  -4.897  1.00 20.00     0.127 C 
HETATM    2  C2  UNL     1     -34.889  13.794  -3.975  1.00 20.00     0.078 C 
HETATM    3  C3  UNL     1     -37.381  14.416  -4.265  1.00 20.00     0.078 C 
HETATM    4  C4  UNL     1     -34.271  15.094  -3.467  1.00 20.00     0.007 C 
HETATM    5  C5  UNL     1     -37.734  15.868  -4.553  1.00 20.00     0.007 C 
HETATM    6  C6  UNL     1     -35.168  15.873  -2.498  1.00 20.00     0.000 C 
HETATM    7  C7  UNL     1     -36.589  16.878  -4.471  1.00 20.00     0.000 C 
HETATM    8  C8  UNL     1     -35.931  17.056  -3.103  1.00 20.00     0.000 C 
HETATM    9  O9  UNL     1     -35.962  13.870  -6.117  1.00 20.00    -0.298 OA
ENDROOT
TORSDOF 0
ENDMDL
