MODEL 1
REMARK VINA RESULT:      -3.9      0.000      0.000
REMARK  0 active torsions:
REMARK  status: ('A' for Active; 'I' for Inactive)
ROOT
HETATM    1  C1  UNL     1     -34.541  15.698  -4.261  1.00 20.00     0.016 C 
HETATM    2  C2  UNL     1     -35.207  15.921  -5.618  1.00 20.00     0.016 C 
HETATM    3  C3  UNL     1     -35.552  14.930  -3.416  1.00 20.00     0.140 C 
HETATM    4  C4  UNL     1     -35.754  14.566  -6.049  1.00 20.00     0.140 C 
HETATM    5  O5  UNL     1     -37.781  13.993  -4.461  1.00 20.00    -0.228 OA
HETATM    6  O6  UNL     1     -35.732  12.496  -4.418  1.00 20.00    -0.228 OA
HETATM    7  S7  UNL     1     -36.348  13.801  -4.548  1.00 20.00     0.144 S 
ENDROOT
TORSDOF 0
ENDMDL
MODEL 2
REMARK VINA RESULT:      -3.9      0.054      2.130
REMARK  0 active torsions:
REMARK  status: ('A' for Active; 'I' for Inactive)
ROOT
HETATM    1  C1  UNL     1     -35.144  15.870  -5.636  1.00 20.00     0.016 C 
HETATM    2  C2  UNL     1     -34.489  15.650  -4.274  1.00 20.00     0.016 C 
HETATM    3  C3  UNL     1     -35.713  14.520  -6.055  1.00 20.00     0.140 C 
HETATM    4  C4  UNL     1     -35.516  14.909  -3.426  1.00 20.00     0.140 C 
HETATM    5  O5  UNL     1     -35.732  12.468  -4.403  1.00 20.00    -0.228 OA
HETATM    6  O6  UNL     1     -37.756  13.997  -4.471  1.00 20.00    -0.228 OA
HETATM    7  S7  UNL     1     -36.326  13.781  -4.549  1.00 20.00     0.144 S 
ENDROOT
TORSDOF 0
ENDMDL
MODEL 3
REMARK VINA RESULT:      -3.7      1.694      1.942
REMARK  0 active torsions:
REMARK  status: ('A' for Active; 'I' for Inactive)
ROOT
HETATM    1  C1  UNL     1     -34.985  15.594  -2.628  1.00 20.00     0.016 C 
HETATM    2  C2  UNL     1     -33.709  15.647  -3.466  1.00 20.00     0.016 C 
HETATM    3  C3  UNL     1     -36.119  15.302  -3.604  1.00 20.00     0.140 C 
HETATM    4  C4  UNL     1     -33.723  14.396  -4.337  1.00 20.00     0.140 C 
HETATM    5  O5  UNL     1     -35.640  14.699  -6.124  1.00 20.00    -0.228 OA
HETATM    6  O6  UNL     1     -35.828  12.815  -4.434  1.00 20.00    -0.228 OA
HETATM    7  S7  UNL     1     -35.433  14.161  -4.795  1.00 20.00     0.144 S 
ENDROOT
TORSDOF 0
ENDMDL
MODEL 4
REMARK VINA RESULT:      -3.7      1.691      2.245
REMARK  0 active torsions:
REMARK  status: ('A' for Active; 'I' for Inactive)
ROOT
HETATM    1  C1  UNL     1     -33.741  15.622  -3.457  1.00 20.00     0.016 C 
HETATM    2  C2  UNL     1     -35.021  15.563  -2.625  1.00 20.00     0.016 C 
HETATM    3  C3  UNL     1     -33.749  14.377  -4.335  1.00 20.00     0.140 C 
HETATM    4  C4  UNL     1     -36.150  15.275  -3.607  1.00 20.00     0.140 C 
HETATM    5  O5  UNL     1     -35.852  12.793  -4.448  1.00 20.00    -0.228 OA
HETATM    6  O6  UNL     1     -35.659  14.686  -6.128  1.00 20.00    -0.228 OA
HETATM    7  S7  UNL     1     -35.457  14.141  -4.801  1.00 20.00     0.144 S 
ENDROOT
TORSDOF 0
ENDMDL
MODEL 5
REMARK VINA RESULT:      -3.6     19.255     19.992
REMARK  0 active torsions:
REMARK  status: ('A' for Active; 'I' for Inactive)
ROOT
HETATM    1  C1  UNL     1     -24.638  17.525  10.867  1.00 20.00     0.016 C 
HETATM    2  C2  UNL     1     -23.532  18.030  11.792  1.00 20.00     0.016 C 
HETATM    3  C3  UNL     1     -24.275  18.013   9.469  1.00 20.00     0.140 C 
HETATM    4  C4  UNL     1     -22.216  17.652  11.122  1.00 20.00     0.140 C 
HETATM    5  O5  UNL     1     -21.958  19.168   8.979  1.00 20.00    -0.228 OA
HETATM    6  O6  UNL     1     -22.154  16.655   8.684  1.00 20.00    -0.228 OA
HETATM    7  S7  UNL     1     -22.496  17.882   9.373  1.00 20.00     0.144 S 
ENDROOT
TORSDOF 0
ENDMDL
MODEL 6
REMARK VINA RESULT:      -3.6     19.255     19.970
REMARK  0 active torsions:
REMARK  status: ('A' for Active; 'I' for Inactive)
ROOT
HETATM    1  C1  UNL     1     -23.529  18.046  11.799  1.00 20.00     0.016 C 
HETATM    2  C2  UNL     1     -24.650  17.574  10.874  1.00 20.00     0.016 C 
HETATM    3  C3  UNL     1     -22.225  17.640  11.123  1.00 20.00     0.140 C 
HETATM    4  C4  UNL     1     -24.279  18.060   9.478  1.00 20.00     0.140 C 
HETATM    5  O5  UNL     1     -22.195  16.652   8.680  1.00 20.00    -0.228 OA
HETATM    6  O6  UNL     1     -21.935  19.158   8.986  1.00 20.00    -0.228 OA
HETATM    7  S7  UNL     1     -22.504  17.885   9.376  1.00 20.00     0.144 S 
ENDROOT
TORSDOF 0
ENDMDL
MODEL 7
REMARK VINA RESULT:      -3.5     12.246     13.031
REMARK  0 active torsions:
REMARK  status: ('A' for Active; 'I' for Inactive)
ROOT
HETATM    1  C1  UNL     1     -33.619   6.333   6.281  1.00 20.00     0.016 C 
HETATM    2  C2  UNL     1     -33.539   7.263   5.072  1.00 20.00     0.016 C 
HETATM    3  C3  UNL     1     -34.845   5.456   6.059  1.00 20.00     0.140 C 
HETATM    4  C4  UNL     1     -33.683   6.373   3.843  1.00 20.00     0.140 C 
HETATM    5  O5  UNL     1     -36.174   5.507   3.784  1.00 20.00    -0.228 OA
HETATM    6  O6  UNL     1     -34.298   3.821   4.063  1.00 20.00    -0.228 OA
HETATM    7  S7  UNL     1     -34.877   5.126   4.304  1.00 20.00     0.144 S 
ENDROOT
TORSDOF 0
ENDMDL
MODEL 8
REMARK VINA RESULT:      -3.5     12.245     13.186
REMARK  0 active torsions:
REMARK  status: ('A' for Active; 'I' for Inactive)
ROOT
HETATM    1  C1  UNL     1     -33.577   7.267   5.104  1.00 20.00     0.016 C 
HETATM    2  C2  UNL     1     -33.634   6.312   6.295  1.00 20.00     0.016 C 
HETATM    3  C3  UNL     1     -33.710   6.399   3.859  1.00 20.00     0.140 C 
HETATM    4  C4  UNL     1     -34.844   5.416   6.061  1.00 20.00     0.140 C 
HETATM    5  O5  UNL     1     -34.272   3.831   4.032  1.00 20.00    -0.228 OA
HETATM    6  O6  UNL     1     -36.182   5.484   3.792  1.00 20.00    -0.228 OA
HETATM    7  S7  UNL     1     -34.876   5.120   4.299  1.00 20.00     0.144 S 
ENDROOT
TORSDOF 0
ENDMDL
MODEL 9
REMARK VINA RESULT:      -3.5     18.644     19.353
REMARK  0 active torsions:
REMARK  status: ('A' for Active; 'I' for Inactive)
ROOT
HETATM    1  C1  UNL     1     -24.205  18.134  10.731  1.00 20.00     0.016 C 
HETATM    2  C2  UNL     1     -24.922  18.448   9.420  1.00 20.00     0.016 C 
HETATM    3  C3  UNL     1     -22.991  17.291  10.358  1.00 20.00     0.140 C 
HETATM    4  C4  UNL     1     -23.850  18.957   8.463  1.00 20.00     0.140 C 
HETATM    5  O5  UNL     1     -22.311  16.907   7.841  1.00 20.00    -0.228 OA
HETATM    6  O6  UNL     1     -21.294  18.866   9.094  1.00 20.00    -0.228 OA
HETATM    7  S7  UNL     1     -22.401  17.974   8.817  1.00 20.00     0.144 S 
ENDROOT
TORSDOF 0
ENDMDL
