MODEL 1
REMARK VINA RESULT:      -3.5      0.000      0.000
REMARK  0 active torsions:
REMARK  status: ('A' for Active; 'I' for Inactive)
ROOT
HETATM    1  C1  UNL     1     -33.749   6.720   4.993  1.00 20.00     0.090 A 
HETATM    2  C2  UNL     1     -34.771   4.613   4.432  1.00 20.00     0.167 A 
HETATM    3  C3  UNL     1     -33.538   6.274   3.705  1.00 20.00     0.109 A 
HETATM    4  N4  UNL     1     -34.124   5.065   3.381  1.00 20.00    -0.246 NA
HETATM    5  S5  UNL     1     -34.720   5.589   5.842  1.00 20.00    -0.092 SA
HETATM    6 BR6  UNL     1     -32.515   7.229   2.429  1.00 20.00    -0.029 Br
ENDROOT
TORSDOF 0
ENDMDL
MODEL 2
REMARK VINA RESULT:      -3.0      2.681      2.828
REMARK  0 active torsions:
REMARK  status: ('A' for Active; 'I' for Inactive)
ROOT
HETATM    1  C1  UNL     1     -33.341   6.960   4.066  1.00 20.00     0.090 A 
HETATM    2  C2  UNL     1     -33.227   5.316   2.310  1.00 20.00     0.167 A 
HETATM    3  C3  UNL     1     -33.982   5.765   4.319  1.00 20.00     0.109 A 
HETATM    4  N4  UNL     1     -33.918   4.821   3.312  1.00 20.00    -0.246 NA
HETATM    5  S5  UNL     1     -32.624   6.910   2.509  1.00 20.00    -0.092 SA
HETATM    6 BR6  UNL     1     -34.905   5.402   5.933  1.00 20.00    -0.029 Br
ENDROOT
TORSDOF 0
ENDMDL
MODEL 3
REMARK VINA RESULT:      -3.0     16.707     16.864
REMARK  0 active torsions:
REMARK  status: ('A' for Active; 'I' for Inactive)
ROOT
HETATM    1  C1  UNL     1     -24.114  18.436   9.477  1.00 20.00     0.090 A 
HETATM    2  C2  UNL     1     -22.031  17.697   8.522  1.00 20.00     0.167 A 
HETATM    3  C3  UNL     1     -24.004  18.560   8.107  1.00 20.00     0.109 A 
HETATM    4  N4  UNL     1     -22.809  18.136   7.558  1.00 20.00    -0.246 NA
HETATM    5  S5  UNL     1     -22.671  17.763  10.112  1.00 20.00    -0.092 SA
HETATM    6 BR6  UNL     1     -25.381  19.262   7.013  1.00 20.00    -0.029 Br
ENDROOT
TORSDOF 0
ENDMDL
MODEL 4
REMARK VINA RESULT:      -3.0     16.489     16.991
REMARK  0 active torsions:
REMARK  status: ('A' for Active; 'I' for Inactive)
ROOT
HETATM    1  C1  UNL     1     -24.025  16.583  10.175  1.00 20.00     0.090 A 
HETATM    2  C2  UNL     1     -22.981  17.520  12.133  1.00 20.00     0.167 A 
HETATM    3  C3  UNL     1     -22.842  17.260   9.959  1.00 20.00     0.109 A 
HETATM    4  N4  UNL     1     -22.242  17.798  11.081  1.00 20.00    -0.246 NA
HETATM    5  S5  UNL     1     -24.410  16.614  11.846  1.00 20.00    -0.092 SA
HETATM    6 BR6  UNL     1     -22.057  17.462   8.248  1.00 20.00    -0.029 Br
ENDROOT
TORSDOF 0
ENDMDL
MODEL 5
REMARK VINA RESULT:      -2.9     15.915     16.229
REMARK  0 active torsions:
REMARK  status: ('A' for Active; 'I' for Inactive)
ROOT
HETATM    1  C1  UNL     1     -25.276  18.289  11.242  1.00 20.00     0.090 A 
HETATM    2  C2  UNL     1     -24.590  15.987  11.411  1.00 20.00     0.167 A 
HETATM    3  C3  UNL     1     -24.402  17.849  10.268  1.00 20.00     0.109 A 
HETATM    4  N4  UNL     1     -24.008  16.529  10.364  1.00 20.00    -0.246 NA
HETATM    5  S5  UNL     1     -25.625  17.006  12.325  1.00 20.00    -0.092 SA
HETATM    6 BR6  UNL     1     -23.760  18.955   8.872  1.00 20.00    -0.029 Br
ENDROOT
TORSDOF 0
ENDMDL
MODEL 6
REMARK VINA RESULT:      -2.9     16.415     16.614
REMARK  0 active torsions:
REMARK  status: ('A' for Active; 'I' for Inactive)
ROOT
HETATM    1  C1  UNL     1     -24.650  18.319  10.040  1.00 20.00     0.090 A 
HETATM    2  C2  UNL     1     -22.830  17.755   8.567  1.00 20.00     0.167 A 
HETATM    3  C3  UNL     1     -24.035  17.107  10.281  1.00 20.00     0.109 A 
HETATM    4  N4  UNL     1     -22.991  16.783   9.436  1.00 20.00    -0.246 NA
HETATM    5  S5  UNL     1     -23.898  19.091   8.706  1.00 20.00    -0.092 SA
HETATM    6 BR6  UNL     1     -24.559  15.934  11.672  1.00 20.00    -0.029 Br
ENDROOT
TORSDOF 0
ENDMDL
MODEL 7
REMARK VINA RESULT:      -2.9     17.067     17.408
REMARK  0 active torsions:
REMARK  status: ('A' for Active; 'I' for Inactive)
ROOT
HETATM    1  C1  UNL     1     -24.302  17.991  10.084  1.00 20.00     0.090 A 
HETATM    2  C2  UNL     1     -22.529  17.761  11.697  1.00 20.00     0.167 A 
HETATM    3  C3  UNL     1     -24.669  18.140  11.405  1.00 20.00     0.109 A 
HETATM    4  N4  UNL     1     -23.653  18.008  12.332  1.00 20.00    -0.246 NA
HETATM    5  S5  UNL     1     -22.619  17.674   9.986  1.00 20.00    -0.092 SA
HETATM    6 BR6  UNL     1     -26.445  18.503  11.956  1.00 20.00    -0.029 Br
ENDROOT
TORSDOF 0
ENDMDL
MODEL 8
REMARK VINA RESULT:      -2.9     17.037     17.195
REMARK  0 active torsions:
REMARK  status: ('A' for Active; 'I' for Inactive)
ROOT
HETATM    1  C1  UNL     1     -22.806  18.032  10.458  1.00 20.00     0.090 A 
HETATM    2  C2  UNL     1     -24.476  17.946  12.191  1.00 20.00     0.167 A 
HETATM    3  C3  UNL     1     -24.091  18.354  10.071  1.00 20.00     0.109 A 
HETATM    4  N4  UNL     1     -25.050  18.305  11.064  1.00 20.00    -0.246 NA
HETATM    5  S5  UNL     1     -22.786  17.653  12.130  1.00 20.00    -0.092 SA
HETATM    6 BR6  UNL     1     -24.553  18.836   8.299  1.00 20.00    -0.029 Br
ENDROOT
TORSDOF 0
ENDMDL
MODEL 9
REMARK VINA RESULT:      -2.8     15.491     15.823
REMARK  0 active torsions:
REMARK  status: ('A' for Active; 'I' for Inactive)
ROOT
HETATM    1  C1  UNL     1     -26.741  19.059   5.599  1.00 20.00     0.090 A 
HETATM    2  C2  UNL     1     -25.066  19.241   7.319  1.00 20.00     0.167 A 
HETATM    3  C3  UNL     1     -25.437  19.158   5.160  1.00 20.00     0.109 A 
HETATM    4  N4  UNL     1     -24.475  19.263   6.145  1.00 20.00    -0.246 NA
HETATM    5  S5  UNL     1     -26.776  19.097   7.313  1.00 20.00    -0.092 SA
HETATM    6 BR6  UNL     1     -24.954  19.154   3.328  1.00 20.00    -0.029 Br
ENDROOT
TORSDOF 0
ENDMDL
