MODEL 1
REMARK VINA RESULT:      -4.7      0.000      0.000
REMARK  2 active torsions:
REMARK  status: ('A' for Active; 'I' for Inactive)
REMARK    1  A    between atoms: C1_1  and  C3_3 
REMARK    2  A    between atoms: C2_2  and  C8_8 
ROOT
HETATM    1  C1  UNL     1     -35.360  14.836  -3.692  1.00 20.00     0.052 C 
HETATM    2  C2  UNL     1     -34.100  15.250  -3.461  1.00 20.00    -0.077 C 
HETATM    3  C4  UNL     1     -32.897  14.795  -4.245  1.00 20.00     0.044 C 
ENDROOT
BRANCH   2   4
HETATM    4  C8  UNL     1     -33.849  16.258  -2.340  1.00 20.00     0.006 C 
HETATM    5  C6  UNL     1     -33.156  17.526  -2.848  1.00 20.00     0.014 C 
HETATM    6  C7  UNL     1     -35.136  16.607  -1.586  1.00 20.00     0.014 C 
ENDBRANCH   2   4
BRANCH   1   7
HETATM    7  C3  UNL     1     -35.772  13.870  -4.750  1.00 20.00     0.145 C 
HETATM    8  C5  UNL     1     -36.005  14.441  -6.125  1.00 20.00     0.096 C 
HETATM    9  O9  UNL     1     -35.963  12.680  -4.515  1.00 20.00    -0.294 OA
ENDBRANCH   1   7
TORSDOF 2
ENDMDL
MODEL 2
REMARK VINA RESULT:      -4.7     11.412     11.873
REMARK  2 active torsions:
REMARK  status: ('A' for Active; 'I' for Inactive)
REMARK    1  A    between atoms: C1_1  and  C3_3 
REMARK    2  A    between atoms: C2_2  and  C8_8 
ROOT
HETATM    1  C1  UNL     1     -33.948   6.427   4.063  1.00 20.00     0.052 C 
HETATM    2  C2  UNL     1     -33.176   6.053   3.025  1.00 20.00    -0.077 C 
HETATM    3  C4  UNL     1     -33.263   4.716   2.338  1.00 20.00     0.044 C 
ENDROOT
BRANCH   2   4
HETATM    4  C8  UNL     1     -32.142   7.040   2.483  1.00 20.00     0.006 C 
HETATM    5  C6  UNL     1     -32.722   7.942   1.390  1.00 20.00     0.014 C 
HETATM    6  C7  UNL     1     -31.509   7.876   3.599  1.00 20.00     0.014 C 
ENDBRANCH   2   4
BRANCH   1   7
HETATM    7  C3  UNL     1     -35.006   5.591   4.698  1.00 20.00     0.145 C 
HETATM    8  C5  UNL     1     -34.733   5.116   6.101  1.00 20.00     0.096 C 
HETATM    9  O9  UNL     1     -36.027   5.259   4.102  1.00 20.00    -0.294 OA
ENDBRANCH   1   7
TORSDOF 2
ENDMDL
MODEL 3
REMARK VINA RESULT:      -4.5     11.548     12.086
REMARK  2 active torsions:
REMARK  status: ('A' for Active; 'I' for Inactive)
REMARK    1  A    between atoms: C1_1  and  C3_3 
REMARK    2  A    between atoms: C2_2  and  C8_8 
ROOT
HETATM    1  C1  UNL     1     -33.289   6.437   3.011  1.00 20.00     0.052 C 
HETATM    2  C2  UNL     1     -33.786   6.381   4.261  1.00 20.00    -0.077 C 
HETATM    3  C4  UNL     1     -33.451   7.363   5.354  1.00 20.00     0.044 C 
ENDROOT
BRANCH   2   4
HETATM    4  C8  UNL     1     -34.767   5.264   4.617  1.00 20.00     0.006 C 
HETATM    5  C6  UNL     1     -34.370   3.926   3.987  1.00 20.00     0.014 C 
HETATM    6  C7  UNL     1     -34.945   5.121   6.131  1.00 20.00     0.014 C 
ENDBRANCH   2   4
BRANCH   1   7
HETATM    7  C3  UNL     1     -32.337   7.465   2.504  1.00 20.00     0.145 C 
HETATM    8  C5  UNL     1     -32.697   8.128   1.200  1.00 20.00     0.096 C 
HETATM    9  O9  UNL     1     -31.287   7.730   3.083  1.00 20.00    -0.294 OA
ENDBRANCH   1   7
TORSDOF 2
ENDMDL
MODEL 4
REMARK VINA RESULT:      -4.4     17.929     18.749
REMARK  2 active torsions:
REMARK  status: ('A' for Active; 'I' for Inactive)
REMARK    1  A    between atoms: C1_1  and  C3_3 
REMARK    2  A    between atoms: C2_2  and  C8_8 
ROOT
HETATM    1  C1  UNL     1     -23.646  18.032  10.159  1.00 20.00     0.052 C 
HETATM    2  C2  UNL     1     -23.530  17.873  11.491  1.00 20.00    -0.077 C 
HETATM    3  C4  UNL     1     -22.219  17.831  12.232  1.00 20.00     0.044 C 
ENDROOT
BRANCH   2   4
HETATM    4  C8  UNL     1     -24.799  17.735  12.331  1.00 20.00     0.006 C 
HETATM    5  C6  UNL     1     -25.845  18.796  11.975  1.00 20.00     0.014 C 
HETATM    6  C7  UNL     1     -25.398  16.329  12.236  1.00 20.00     0.014 C 
ENDBRANCH   2   4
BRANCH   1   7
HETATM    7  C3  UNL     1     -22.511  18.191   9.205  1.00 20.00     0.145 C 
HETATM    8  C5  UNL     1     -22.069  16.950   8.477  1.00 20.00     0.096 C 
HETATM    9  O9  UNL     1     -21.928  19.261   9.051  1.00 20.00    -0.294 OA
ENDBRANCH   1   7
TORSDOF 2
ENDMDL
MODEL 5
REMARK VINA RESULT:      -4.3      1.609      2.139
REMARK  2 active torsions:
REMARK  status: ('A' for Active; 'I' for Inactive)
REMARK    1  A    between atoms: C1_1  and  C3_3 
REMARK    2  A    between atoms: C2_2  and  C8_8 
ROOT
HETATM    1  C1  UNL     1     -33.001  15.670  -3.719  1.00 20.00     0.052 C 
HETATM    2  C2  UNL     1     -33.707  16.249  -2.728  1.00 20.00    -0.077 C 
HETATM    3  C4  UNL     1     -35.114  15.867  -2.351  1.00 20.00     0.044 C 
ENDROOT
BRANCH   2   4
HETATM    4  C8  UNL     1     -33.053  17.362  -1.910  1.00 20.00     0.006 C 
HETATM    5  C6  UNL     1     -32.637  18.550  -2.781  1.00 20.00     0.014 C 
HETATM    6  C7  UNL     1     -33.947  17.822  -0.754  1.00 20.00     0.014 C 
ENDBRANCH   2   4
BRANCH   1   7
HETATM    7  C3  UNL     1     -33.487  14.569  -4.597  1.00 20.00     0.145 C 
HETATM    8  C5  UNL     1     -34.119  14.980  -5.901  1.00 20.00     0.096 C 
HETATM    9  O9  UNL     1     -33.427  13.388  -4.264  1.00 20.00    -0.294 OA
ENDBRANCH   1   7
TORSDOF 2
ENDMDL
MODEL 6
REMARK VINA RESULT:      -4.2      0.928      1.496
REMARK  2 active torsions:
REMARK  status: ('A' for Active; 'I' for Inactive)
REMARK    1  A    between atoms: C1_1  and  C3_3 
REMARK    2  A    between atoms: C2_2  and  C8_8 
ROOT
HETATM    1  C1  UNL     1     -35.280  15.105  -3.272  1.00 20.00     0.052 C 
HETATM    2  C2  UNL     1     -34.211  15.900  -3.075  1.00 20.00    -0.077 C 
HETATM    3  C4  UNL     1     -32.878  15.718  -3.754  1.00 20.00     0.044 C 
ENDROOT
BRANCH   2   4
HETATM    4  C8  UNL     1     -34.336  17.079  -2.110  1.00 20.00     0.006 C 
HETATM    5  C6  UNL     1     -35.214  16.745  -0.901  1.00 20.00     0.014 C 
HETATM    6  C7  UNL     1     -32.967  17.598  -1.661  1.00 20.00     0.014 C 
ENDBRANCH   2   4
BRANCH   1   7
HETATM    7  C3  UNL     1     -35.325  13.928  -4.185  1.00 20.00     0.145 C 
HETATM    8  C5  UNL     1     -36.129  14.089  -5.448  1.00 20.00     0.096 C 
HETATM    9  O9  UNL     1     -34.781  12.862  -3.909  1.00 20.00    -0.294 OA
ENDBRANCH   1   7
TORSDOF 2
ENDMDL
MODEL 7
REMARK VINA RESULT:      -4.1      1.151      1.254
REMARK  2 active torsions:
REMARK  status: ('A' for Active; 'I' for Inactive)
REMARK    1  A    between atoms: C1_1  and  C3_3 
REMARK    2  A    between atoms: C2_2  and  C8_8 
ROOT
HETATM    1  C1  UNL     1     -35.001  15.454  -4.762  1.00 20.00     0.052 C 
HETATM    2  C2  UNL     1     -33.902  15.262  -4.007  1.00 20.00    -0.077 C 
HETATM    3  C4  UNL     1     -32.755  14.362  -4.387  1.00 20.00     0.044 C 
ENDROOT
BRANCH   2   4
HETATM    4  C8  UNL     1     -33.782  16.005  -2.677  1.00 20.00     0.006 C 
HETATM    5  C6  UNL     1     -33.065  17.349  -2.829  1.00 20.00     0.014 C 
HETATM    6  C7  UNL     1     -35.143  16.188  -1.999  1.00 20.00     0.014 C 
ENDBRANCH   2   4
BRANCH   1   7
HETATM    7  C3  UNL     1     -35.263  14.817  -6.083  1.00 20.00     0.145 C 
HETATM    8  C5  UNL     1     -34.652  15.488  -7.285  1.00 20.00     0.096 C 
HETATM    9  O9  UNL     1     -35.980  13.826  -6.204  1.00 20.00    -0.294 OA
ENDBRANCH   1   7
TORSDOF 2
ENDMDL
MODEL 8
REMARK VINA RESULT:      -4.0     10.846     11.317
REMARK  2 active torsions:
REMARK  status: ('A' for Active; 'I' for Inactive)
REMARK    1  A    between atoms: C1_1  and  C3_3 
REMARK    2  A    between atoms: C2_2  and  C8_8 
ROOT
HETATM    1  C1  UNL     1     -33.305   7.549   2.880  1.00 20.00     0.052 C 
HETATM    2  C2  UNL     1     -33.669   6.321   3.296  1.00 20.00    -0.077 C 
HETATM    3  C4  UNL     1     -33.370   5.046   2.550  1.00 20.00     0.044 C 
ENDROOT
BRANCH   2   4
HETATM    4  C8  UNL     1     -34.429   6.184   4.615  1.00 20.00     0.006 C 
HETATM    5  C6  UNL     1     -34.760   4.725   4.942  1.00 20.00     0.014 C 
HETATM    6  C7  UNL     1     -33.681   6.845   5.776  1.00 20.00     0.014 C 
ENDBRANCH   2   4
BRANCH   1   7
HETATM    7  C3  UNL     1     -32.554   7.850   1.629  1.00 20.00     0.145 C 
HETATM    8  C5  UNL     1     -33.074   8.988   0.791  1.00 20.00     0.096 C 
HETATM    9  O9  UNL     1     -31.590   7.181   1.264  1.00 20.00    -0.294 OA
ENDBRANCH   1   7
TORSDOF 2
ENDMDL
MODEL 9
REMARK VINA RESULT:      -4.0      2.634      4.803
REMARK  2 active torsions:
REMARK  status: ('A' for Active; 'I' for Inactive)
REMARK    1  A    between atoms: C1_1  and  C3_3 
REMARK    2  A    between atoms: C2_2  and  C8_8 
ROOT
HETATM    1  C1  UNL     1     -33.039  16.886  -2.897  1.00 20.00     0.052 C 
HETATM    2  C2  UNL     1     -34.120  16.141  -2.598  1.00 20.00    -0.077 C 
HETATM    3  C4  UNL     1     -35.155  16.516  -1.570  1.00 20.00     0.044 C 
ENDROOT
BRANCH   2   4
HETATM    4  C8  UNL     1     -34.340  14.827  -3.348  1.00 20.00     0.006 C 
HETATM    5  C6  UNL     1     -35.751  14.724  -3.932  1.00 20.00     0.014 C 
HETATM    6  C7  UNL     1     -33.284  14.606  -4.435  1.00 20.00     0.014 C 
ENDBRANCH   2   4
BRANCH   1   7
HETATM    7  C3  UNL     1     -32.689  18.192  -2.268  1.00 20.00     0.145 C 
HETATM    8  C5  UNL     1     -31.832  18.132  -1.031  1.00 20.00     0.096 C 
HETATM    9  O9  UNL     1     -33.112  19.262  -2.698  1.00 20.00    -0.294 OA
ENDBRANCH   1   7
TORSDOF 2
ENDMDL
