MODEL 1
REMARK VINA RESULT:      -6.2      0.000      0.000
REMARK  1 active torsions:
REMARK  status: ('A' for Active; 'I' for Inactive)
REMARK    1  A    between atoms: C4_4  and  C7_7 
ROOT
HETATM    1  C1  UNL     1     -33.796  14.981  -4.271  1.00 20.00     0.015 A 
HETATM    2  C2  UNL     1     -32.999  15.930  -3.630  1.00 20.00     0.008 A 
HETATM    3  C3  UNL     1     -35.567  15.407  -2.689  1.00 20.00     0.022 A 
HETATM    4  C4  UNL     1     -35.078  14.718  -3.799  1.00 20.00     0.002 A 
HETATM    5  C5  UNL     1     -33.475  16.622  -2.507  1.00 20.00    -0.052 A 
HETATM    6  C6  UNL     1     -34.780  16.371  -2.042  1.00 20.00    -0.051 A 
HETATM    7  C8  UNL     1     -32.596  17.664  -1.863  1.00 20.00     0.039 C 
HETATM    8  C9  UNL     1     -35.331  17.071  -0.825  1.00 20.00     0.039 C 
HETATM    9  C10 UNL     1     -33.058  18.061  -0.461  1.00 20.00     0.005 C 
HETATM   10  C11 UNL     1     -34.556  18.333  -0.453  1.00 20.00     0.005 C 
ENDROOT
BRANCH   4  11
HETATM   11  C7  UNL     1     -35.908  13.725  -4.462  1.00 20.00     0.269 C 
HETATM   12  O12 UNL     1     -35.702  12.511  -4.380  1.00 20.00    -0.301 OA
ENDBRANCH   4  11
TORSDOF 1
ENDMDL
MODEL 2
REMARK VINA RESULT:      -5.6      2.597      5.007
REMARK  1 active torsions:
REMARK  status: ('A' for Active; 'I' for Inactive)
REMARK    1  A    between atoms: C4_4  and  C7_7 
ROOT
HETATM    1  C1  UNL     1     -34.246  17.710  -0.795  1.00 20.00     0.015 A 
HETATM    2  C2  UNL     1     -35.148  16.832  -1.396  1.00 20.00     0.008 A 
HETATM    3  C3  UNL     1     -32.546  17.034  -2.367  1.00 20.00     0.022 A 
HETATM    4  C4  UNL     1     -32.945  17.809  -1.279  1.00 20.00     0.002 A 
HETATM    5  C5  UNL     1     -34.756  16.040  -2.485  1.00 20.00    -0.052 A 
HETATM    6  C6  UNL     1     -33.446  16.155  -2.987  1.00 20.00    -0.051 A 
HETATM    7  C8  UNL     1     -35.770  15.128  -3.129  1.00 20.00     0.039 C 
HETATM    8  C9  UNL     1     -32.968  15.309  -4.141  1.00 20.00     0.039 C 
HETATM    9  C10 UNL     1     -35.141  14.066  -4.029  1.00 20.00     0.005 C 
HETATM   10  C11 UNL     1     -34.107  14.697  -4.953  1.00 20.00     0.005 C 
ENDROOT
BRANCH   4  11
HETATM   11  C7  UNL     1     -32.002  18.719  -0.649  1.00 20.00     0.269 C 
HETATM   12  O12 UNL     1     -30.780  18.552  -0.682  1.00 20.00    -0.301 OA
ENDBRANCH   4  11
TORSDOF 1
ENDMDL
MODEL 3
REMARK VINA RESULT:      -5.5      1.305      2.476
REMARK  1 active torsions:
REMARK  status: ('A' for Active; 'I' for Inactive)
REMARK    1  A    between atoms: C4_4  and  C7_7 
ROOT
HETATM    1  C1  UNL     1     -35.120  15.537  -2.672  1.00 20.00     0.015 A 
HETATM    2  C2  UNL     1     -35.280  16.356  -1.554  1.00 20.00     0.008 A 
HETATM    3  C3  UNL     1     -32.926  16.472  -3.040  1.00 20.00     0.022 A 
HETATM    4  C4  UNL     1     -33.945  15.597  -3.415  1.00 20.00     0.002 A 
HETATM    5  C5  UNL     1     -34.266  17.247  -1.171  1.00 20.00    -0.052 A 
HETATM    6  C6  UNL     1     -33.070  17.293  -1.911  1.00 20.00    -0.051 A 
HETATM    7  C8  UNL     1     -34.463  18.092   0.063  1.00 20.00     0.039 C 
HETATM    8  C9  UNL     1     -31.960  18.250  -1.555  1.00 20.00     0.039 C 
HETATM    9  C10 UNL     1     -33.486  19.263   0.155  1.00 20.00     0.005 C 
HETATM   10  C11 UNL     1     -32.065  18.794  -0.132  1.00 20.00     0.005 C 
ENDROOT
BRANCH   4  11
HETATM   11  C7  UNL     1     -33.780  14.749  -4.585  1.00 20.00     0.269 C 
HETATM   12  O12 UNL     1     -33.231  13.645  -4.545  1.00 20.00    -0.301 OA
ENDBRANCH   4  11
TORSDOF 1
ENDMDL
MODEL 4
REMARK VINA RESULT:      -5.2     11.093     11.766
REMARK  1 active torsions:
REMARK  status: ('A' for Active; 'I' for Inactive)
REMARK    1  A    between atoms: C4_4  and  C7_7 
ROOT
HETATM    1  C1  UNL     1     -32.934   5.931   1.450  1.00 20.00     0.015 A 
HETATM    2  C2  UNL     1     -33.529   5.015   2.317  1.00 20.00     0.008 A 
HETATM    3  C3  UNL     1     -32.960   7.596   3.196  1.00 20.00     0.022 A 
HETATM    4  C4  UNL     1     -32.652   7.221   1.889  1.00 20.00     0.002 A 
HETATM    5  C5  UNL     1     -33.853   5.382   3.632  1.00 20.00    -0.052 A 
HETATM    6  C6  UNL     1     -33.549   6.681   4.081  1.00 20.00    -0.051 A 
HETATM    7  C8  UNL     1     -34.465   4.353   4.549  1.00 20.00     0.039 C 
HETATM    8  C9  UNL     1     -33.899   7.132   5.478  1.00 20.00     0.039 C 
HETATM    9  C10 UNL     1     -35.108   4.961   5.795  1.00 20.00     0.005 C 
HETATM   10  C11 UNL     1     -34.170   5.975   6.436  1.00 20.00     0.005 C 
ENDROOT
BRANCH   4  11
HETATM   11  C7  UNL     1     -32.038   8.180   0.984  1.00 20.00     0.269 C 
HETATM   12  O12 UNL     1     -32.664   9.098   0.449  1.00 20.00    -0.301 OA
ENDBRANCH   4  11
TORSDOF 1
ENDMDL
MODEL 5
REMARK VINA RESULT:      -5.1      2.488      4.503
REMARK  1 active torsions:
REMARK  status: ('A' for Active; 'I' for Inactive)
REMARK    1  A    between atoms: C4_4  and  C7_7 
ROOT
HETATM    1  C1  UNL     1     -33.238  17.974  -1.061  1.00 20.00     0.015 A 
HETATM    2  C2  UNL     1     -32.701  17.279  -2.144  1.00 20.00     0.008 A 
HETATM    3  C3  UNL     1     -35.293  16.730  -1.284  1.00 20.00     0.022 A 
HETATM    4  C4  UNL     1     -34.533  17.701  -0.633  1.00 20.00     0.002 A 
HETATM    5  C5  UNL     1     -33.457  16.305  -2.814  1.00 20.00    -0.052 A 
HETATM    6  C6  UNL     1     -34.761  16.016  -2.369  1.00 20.00    -0.051 A 
HETATM    7  C8  UNL     1     -32.830  15.552  -3.960  1.00 20.00     0.039 C 
HETATM    8  C9  UNL     1     -35.624  14.996  -3.069  1.00 20.00     0.039 C 
HETATM    9  C10 UNL     1     -33.849  14.816  -4.829  1.00 20.00     0.005 C 
HETATM   10  C11 UNL     1     -34.830  14.041  -3.957  1.00 20.00     0.005 C 
ENDROOT
BRANCH   4  11
HETATM   11  C7  UNL     1     -35.096  18.430   0.492  1.00 20.00     0.269 C 
HETATM   12  O12 UNL     1     -34.818  18.177   1.667  1.00 20.00    -0.301 OA
ENDBRANCH   4  11
TORSDOF 1
ENDMDL
MODEL 6
REMARK VINA RESULT:      -5.0      2.211      4.442
REMARK  1 active torsions:
REMARK  status: ('A' for Active; 'I' for Inactive)
REMARK    1  A    between atoms: C4_4  and  C7_7 
ROOT
HETATM    1  C1  UNL     1     -33.186  17.056  -2.194  1.00 20.00     0.015 A 
HETATM    2  C2  UNL     1     -33.058  16.391  -3.414  1.00 20.00     0.008 A 
HETATM    3  C3  UNL     1     -35.459  16.268  -2.007  1.00 20.00     0.022 A 
HETATM    4  C4  UNL     1     -34.386  16.996  -1.492  1.00 20.00     0.002 A 
HETATM    5  C5  UNL     1     -34.132  15.663  -3.947  1.00 20.00    -0.052 A 
HETATM    6  C6  UNL     1     -35.339  15.586  -3.227  1.00 20.00    -0.051 A 
HETATM    7  C8  UNL     1     -33.944  14.931  -5.252  1.00 20.00     0.039 C 
HETATM    8  C9  UNL     1     -36.532  14.836  -3.767  1.00 20.00     0.039 C 
HETATM    9  C10 UNL     1     -35.261  14.507  -5.901  1.00 20.00     0.005 C 
HETATM   10  C11 UNL     1     -36.172  13.848  -4.874  1.00 20.00     0.005 C 
ENDROOT
BRANCH   4  11
HETATM   11  C7  UNL     1     -34.523  17.693  -0.224  1.00 20.00     0.269 C 
HETATM   12  O12 UNL     1     -35.164  17.241   0.728  1.00 20.00    -0.301 OA
ENDBRANCH   4  11
TORSDOF 1
ENDMDL
MODEL 7
REMARK VINA RESULT:      -4.9     13.852     16.024
REMARK  1 active torsions:
REMARK  status: ('A' for Active; 'I' for Inactive)
REMARK    1  A    between atoms: C4_4  and  C7_7 
ROOT
HETATM    1  C1  UNL     1     -23.066  18.445   7.525  1.00 20.00     0.015 A 
HETATM    2  C2  UNL     1     -22.561  18.077   8.772  1.00 20.00     0.008 A 
HETATM    3  C3  UNL     1     -25.194  18.956   8.541  1.00 20.00     0.022 A 
HETATM    4  C4  UNL     1     -24.382  18.882   7.410  1.00 20.00     0.002 A 
HETATM    5  C5  UNL     1     -23.370  18.137   9.917  1.00 20.00    -0.052 A 
HETATM    6  C6  UNL     1     -24.695  18.598   9.803  1.00 20.00    -0.051 A 
HETATM    7  C8  UNL     1     -22.778  17.763  11.252  1.00 20.00     0.039 C 
HETATM    8  C9  UNL     1     -25.613  18.660  10.998  1.00 20.00     0.039 C 
HETATM    9  C10 UNL     1     -23.831  17.506  12.329  1.00 20.00     0.005 C 
HETATM   10  C11 UNL     1     -24.870  18.620  12.332  1.00 20.00     0.005 C 
ENDROOT
BRANCH   4  11
HETATM   11  C7  UNL     1     -24.912  19.260   6.109  1.00 20.00     0.269 C 
HETATM   12  O12 UNL     1     -24.277  19.133   5.059  1.00 20.00    -0.301 OA
ENDBRANCH   4  11
TORSDOF 1
ENDMDL
MODEL 8
REMARK VINA RESULT:      -4.7      1.297      2.227
REMARK  1 active torsions:
REMARK  status: ('A' for Active; 'I' for Inactive)
REMARK    1  A    between atoms: C4_4  and  C7_7 
ROOT
HETATM    1  C1  UNL     1     -37.077  15.826  -3.889  1.00 20.00     0.015 A 
HETATM    2  C2  UNL     1     -36.813  17.046  -3.265  1.00 20.00     0.008 A 
HETATM    3  C3  UNL     1     -34.778  15.168  -3.567  1.00 20.00     0.022 A 
HETATM    4  C4  UNL     1     -36.059  14.889  -4.042  1.00 20.00     0.002 A 
HETATM    5  C5  UNL     1     -35.526  17.342  -2.791  1.00 20.00    -0.052 A 
HETATM    6  C6  UNL     1     -34.502  16.386  -2.928  1.00 20.00    -0.051 A 
HETATM    7  C8  UNL     1     -35.289  18.658  -2.093  1.00 20.00     0.039 C 
HETATM    8  C9  UNL     1     -33.097  16.665  -2.457  1.00 20.00     0.039 C 
HETATM    9  C10 UNL     1     -33.809  19.018  -1.970  1.00 20.00     0.005 C 
HETATM   10  C11 UNL     1     -33.011  17.823  -1.465  1.00 20.00     0.005 C 
ENDROOT
BRANCH   4  11
HETATM   11  C7  UNL     1     -36.331  13.620  -4.698  1.00 20.00     0.269 C 
HETATM   12  O12 UNL     1     -35.741  12.575  -4.414  1.00 20.00    -0.301 OA
ENDBRANCH   4  11
TORSDOF 1
ENDMDL
MODEL 9
REMARK VINA RESULT:      -4.7      2.965      4.981
REMARK  1 active torsions:
REMARK  status: ('A' for Active; 'I' for Inactive)
REMARK    1  A    between atoms: C4_4  and  C7_7 
ROOT
HETATM    1  C1  UNL     1     -32.395  18.740  -0.049  1.00 20.00     0.015 A 
HETATM    2  C2  UNL     1     -32.151  18.150  -1.289  1.00 20.00     0.008 A 
HETATM    3  C3  UNL     1     -34.580  17.718   0.004  1.00 20.00     0.022 A 
HETATM    4  C4  UNL     1     -33.609  18.526   0.596  1.00 20.00     0.002 A 
HETATM    5  C5  UNL     1     -33.123  17.342  -1.899  1.00 20.00    -0.052 A 
HETATM    6  C6  UNL     1     -34.343  17.110  -1.238  1.00 20.00    -0.051 A 
HETATM    7  C8  UNL     1     -32.808  16.695  -3.224  1.00 20.00     0.039 C 
HETATM    8  C9  UNL     1     -35.429  16.270  -1.861  1.00 20.00     0.039 C 
HETATM    9  C10 UNL     1     -34.047  16.171  -3.949  1.00 20.00     0.005 C 
HETATM   10  C11 UNL     1     -34.926  15.376  -2.992  1.00 20.00     0.005 C 
ENDROOT
BRANCH   4  11
HETATM   11  C7  UNL     1     -33.868  19.146   1.886  1.00 20.00     0.269 C 
HETATM   12  O12 UNL     1     -34.353  18.536   2.842  1.00 20.00    -0.301 OA
ENDBRANCH   4  11
TORSDOF 1
ENDMDL
