MODEL 1
REMARK VINA RESULT:      -2.5      0.000      0.000
REMARK  2 active torsions:
REMARK  status: ('A' for Active; 'I' for Inactive)
REMARK    1  A    between atoms: P5_5  and  P6_6 
REMARK    2  A    between atoms: P5_5  and  S8_8 
ROOT
HETATM    1  C1  UNL     1     -36.571  17.076  -3.813  1.00 20.00     0.061 C 
HETATM    2  P5  UNL     1     -34.803  17.037  -4.282  1.00 20.00    -0.021 P 
ENDROOT
BRANCH   2   3
HETATM    3  P6  UNL     1     -34.579  15.064  -5.110  1.00 20.00    -0.027 P 
HETATM    4  C2  UNL     1     -34.217  15.188  -6.863  1.00 20.00     0.060 C 
HETATM    5  C3  UNL     1     -33.042  14.417  -4.434  1.00 20.00     0.060 C 
HETATM    6  S7  UNL     1     -36.142  13.988  -4.673  1.00 20.00    -0.092 SA
ENDBRANCH   2   3
BRANCH   2   7
HETATM    7  S8  UNL     1     -33.854  16.828  -2.411  1.00 20.00    -0.137 SA
HETATM    8  C4  UNL     1     -35.170  16.756  -1.178  1.00 20.00     0.095 C 
ENDBRANCH   2   7
TORSDOF 2
ENDMDL
MODEL 2
REMARK VINA RESULT:      -2.5      1.775      2.015
REMARK  2 active torsions:
REMARK  status: ('A' for Active; 'I' for Inactive)
REMARK    1  A    between atoms: P5_5  and  P6_6 
REMARK    2  A    between atoms: P5_5  and  S8_8 
ROOT
HETATM    1  C1  UNL     1     -37.154  16.598  -3.748  1.00 20.00     0.061 C 
HETATM    2  P5  UNL     1     -35.365  16.837  -4.045  1.00 20.00    -0.021 P 
ENDROOT
BRANCH   2   3
HETATM    3  P6  UNL     1     -34.811  15.024  -5.063  1.00 20.00    -0.027 P 
HETATM    4  C2  UNL     1     -33.218  14.460  -4.460  1.00 20.00     0.060 C 
HETATM    5  C3  UNL     1     -35.935  13.756  -4.456  1.00 20.00     0.060 C 
HETATM    6  S7  UNL     1     -34.905  15.297  -6.989  1.00 20.00    -0.092 SA
ENDBRANCH   2   3
BRANCH   2   7
HETATM    7  S8  UNL     1     -34.551  16.519  -2.127  1.00 20.00    -0.137 SA
HETATM    8  C4  UNL     1     -32.977  17.402  -2.089  1.00 20.00     0.095 C 
ENDBRANCH   2   7
TORSDOF 2
ENDMDL
MODEL 3
REMARK VINA RESULT:      -2.5      1.564      3.755
REMARK  2 active torsions:
REMARK  status: ('A' for Active; 'I' for Inactive)
REMARK    1  A    between atoms: P5_5  and  P6_6 
REMARK    2  A    between atoms: P5_5  and  S8_8 
ROOT
HETATM    1  C1  UNL     1     -34.663  15.101  -6.716  1.00 20.00     0.061 C 
HETATM    2  P5  UNL     1     -35.688  15.874  -5.412  1.00 20.00    -0.021 P 
ENDROOT
BRANCH   2   3
HETATM    3  P6  UNL     1     -34.243  16.322  -3.882  1.00 20.00    -0.027 P 
HETATM    4  C2  UNL     1     -34.937  15.941  -2.272  1.00 20.00     0.060 C 
HETATM    5  C3  UNL     1     -32.945  15.087  -4.055  1.00 20.00     0.060 C 
HETATM    6  S7  UNL     1     -33.614  18.153  -4.088  1.00 20.00    -0.092 SA
ENDBRANCH   2   3
BRANCH   2   7
HETATM    7  S8  UNL     1     -36.685  14.210  -4.588  1.00 20.00    -0.137 SA
HETATM    8  C4  UNL     1     -38.375  14.746  -4.248  1.00 20.00     0.095 C 
ENDBRANCH   2   7
TORSDOF 2
ENDMDL
MODEL 4
REMARK VINA RESULT:      -2.5      1.608      2.206
REMARK  2 active torsions:
REMARK  status: ('A' for Active; 'I' for Inactive)
REMARK    1  A    between atoms: P5_5  and  P6_6 
REMARK    2  A    between atoms: P5_5  and  S8_8 
ROOT
HETATM    1  C1  UNL     1     -33.234  16.955  -2.323  1.00 20.00     0.061 C 
HETATM    2  P5  UNL     1     -34.879  16.170  -2.482  1.00 20.00    -0.021 P 
ENDROOT
BRANCH   2   3
HETATM    3  P6  UNL     1     -34.747  15.183  -4.389  1.00 20.00    -0.027 P 
HETATM    4  C2  UNL     1     -34.702  16.409  -5.697  1.00 20.00     0.060 C 
HETATM    5  C3  UNL     1     -33.097  14.468  -4.460  1.00 20.00     0.060 C 
HETATM    6  S7  UNL     1     -36.177  13.870  -4.548  1.00 20.00    -0.092 SA
ENDBRANCH   2   3
BRANCH   2   7
HETATM    7  S8  UNL     1     -36.113  17.818  -2.935  1.00 20.00    -0.137 SA
HETATM    8  C4  UNL     1     -37.727  17.140  -3.375  1.00 20.00     0.095 C 
ENDBRANCH   2   7
TORSDOF 2
ENDMDL
MODEL 5
REMARK VINA RESULT:      -2.5      1.877      2.719
REMARK  2 active torsions:
REMARK  status: ('A' for Active; 'I' for Inactive)
REMARK    1  A    between atoms: P5_5  and  P6_6 
REMARK    2  A    between atoms: P5_5  and  S8_8 
ROOT
HETATM    1  C1  UNL     1     -33.146  14.676  -4.418  1.00 20.00     0.061 C 
HETATM    2  P5  UNL     1     -34.899  14.676  -3.896  1.00 20.00    -0.021 P 
ENDROOT
BRANCH   2   3
HETATM    3  P6  UNL     1     -35.852  15.820  -5.450  1.00 20.00    -0.027 P 
HETATM    4  C2  UNL     1     -34.908  17.315  -5.757  1.00 20.00     0.060 C 
HETATM    5  C3  UNL     1     -35.615  14.883  -6.967  1.00 20.00     0.060 C 
HETATM    6  S7  UNL     1     -37.723  16.115  -4.995  1.00 20.00    -0.092 SA
ENDBRANCH   2   3
BRANCH   2   7
HETATM    7  S8  UNL     1     -34.885  16.050  -2.297  1.00 20.00    -0.137 SA
HETATM    8  C4  UNL     1     -33.300  16.910  -2.381  1.00 20.00     0.095 C 
ENDBRANCH   2   7
TORSDOF 2
ENDMDL
MODEL 6
REMARK VINA RESULT:      -2.5      1.934      3.001
REMARK  2 active torsions:
REMARK  status: ('A' for Active; 'I' for Inactive)
REMARK    1  A    between atoms: P5_5  and  P6_6 
REMARK    2  A    between atoms: P5_5  and  S8_8 
ROOT
HETATM    1  C1  UNL     1     -33.060  14.737  -4.358  1.00 20.00     0.061 C 
HETATM    2  P5  UNL     1     -34.832  14.686  -3.909  1.00 20.00    -0.021 P 
ENDROOT
BRANCH   2   3
HETATM    3  P6  UNL     1     -35.753  15.798  -5.504  1.00 20.00    -0.027 P 
HETATM    4  C2  UNL     1     -35.669  14.848  -7.023  1.00 20.00     0.060 C 
HETATM    5  C3  UNL     1     -37.516  15.810  -5.142  1.00 20.00     0.060 C 
HETATM    6  S7  UNL     1     -34.963  17.575  -5.607  1.00 20.00    -0.092 SA
ENDBRANCH   2   3
BRANCH   2   7
HETATM    7  S8  UNL     1     -34.925  16.062  -2.315  1.00 20.00    -0.137 SA
HETATM    8  C4  UNL     1     -33.330  16.908  -2.279  1.00 20.00     0.095 C 
ENDBRANCH   2   7
TORSDOF 2
ENDMDL
MODEL 7
REMARK VINA RESULT:      -2.5      1.933      3.040
REMARK  2 active torsions:
REMARK  status: ('A' for Active; 'I' for Inactive)
REMARK    1  A    between atoms: P5_5  and  P6_6 
REMARK    2  A    between atoms: P5_5  and  S8_8 
ROOT
HETATM    1  C1  UNL     1     -33.234  14.692  -4.507  1.00 20.00     0.061 C 
HETATM    2  P5  UNL     1     -34.910  14.700  -3.775  1.00 20.00    -0.021 P 
ENDROOT
BRANCH   2   3
HETATM    3  P6  UNL     1     -36.073  15.716  -5.273  1.00 20.00    -0.027 P 
HETATM    4  C2  UNL     1     -37.814  15.616  -4.851  1.00 20.00     0.060 C 
HETATM    5  C3  UNL     1     -35.716  17.468  -5.069  1.00 20.00     0.060 C 
HETATM    6  S7  UNL     1     -35.620  15.024  -7.037  1.00 20.00    -0.092 SA
ENDBRANCH   2   3
BRANCH   2   7
HETATM    7  S8  UNL     1     -34.736  16.183  -2.287  1.00 20.00    -0.137 SA
HETATM    8  C4  UNL     1     -33.093  16.905  -2.479  1.00 20.00     0.095 C 
ENDBRANCH   2   7
TORSDOF 2
ENDMDL
MODEL 8
REMARK VINA RESULT:      -2.4      2.305      2.535
REMARK  2 active torsions:
REMARK  status: ('A' for Active; 'I' for Inactive)
REMARK    1  A    between atoms: P5_5  and  P6_6 
REMARK    2  A    between atoms: P5_5  and  S8_8 
ROOT
HETATM    1  C1  UNL     1     -36.226  13.666  -4.600  1.00 20.00     0.061 C 
HETATM    2  P5  UNL     1     -36.210  15.453  -4.211  1.00 20.00    -0.021 P 
ENDROOT
BRANCH   2   3
HETATM    3  P6  UNL     1     -35.394  16.317  -6.004  1.00 20.00    -0.027 P 
HETATM    4  C2  UNL     1     -34.399  17.749  -5.581  1.00 20.00     0.060 C 
HETATM    5  C3  UNL     1     -34.167  15.145  -6.601  1.00 20.00     0.060 C 
HETATM    6  S7  UNL     1     -36.827  16.667  -7.276  1.00 20.00    -0.092 SA
ENDBRANCH   2   3
BRANCH   2   7
HETATM    7  S8  UNL     1     -34.580  15.602  -2.882  1.00 20.00    -0.137 SA
HETATM    8  C4  UNL     1     -35.136  16.635  -1.509  1.00 20.00     0.095 C 
ENDBRANCH   2   7
TORSDOF 2
ENDMDL
MODEL 9
REMARK VINA RESULT:      -2.4      2.125      4.033
REMARK  2 active torsions:
REMARK  status: ('A' for Active; 'I' for Inactive)
REMARK    1  A    between atoms: P5_5  and  P6_6 
REMARK    2  A    between atoms: P5_5  and  S8_8 
ROOT
HETATM    1  C1  UNL     1     -36.661  14.453  -4.158  1.00 20.00     0.061 C 
HETATM    2  P5  UNL     1     -34.863  14.703  -3.930  1.00 20.00    -0.021 P 
ENDROOT
BRANCH   2   3
HETATM    3  P6  UNL     1     -34.767  16.680  -3.087  1.00 20.00    -0.027 P 
HETATM    4  C2  UNL     1     -35.218  16.614  -1.352  1.00 20.00     0.060 C 
HETATM    5  C3  UNL     1     -33.019  17.104  -3.025  1.00 20.00     0.060 C 
HETATM    6  S7  UNL     1     -35.833  17.905  -4.162  1.00 20.00    -0.092 SA
ENDBRANCH   2   3
BRANCH   2   7
HETATM    7  S8  UNL     1     -34.209  15.044  -5.904  1.00 20.00    -0.137 SA
HETATM    8  C4  UNL     1     -35.672  14.920  -6.954  1.00 20.00     0.095 C 
ENDBRANCH   2   7
TORSDOF 2
ENDMDL
