MODEL 1
REMARK VINA RESULT:      -3.4      0.000      0.000
REMARK  1 active torsions:
REMARK  status: ('A' for Active; 'I' for Inactive)
REMARK    1  A    between atoms: C2_2  and  O3_3 
ROOT
HETATM    1  C2  UNL     1     -34.636   5.715   4.382  1.00 20.00     0.314 C 
HETATM    2 CL4  UNL     1     -34.181   4.134   3.707  1.00 20.00    -0.078 Cl
HETATM    3 CL5  UNL     1     -34.722   5.609   6.153  1.00 20.00    -0.078 Cl
ENDROOT
BRANCH   1   4
HETATM    4  O3  UNL     1     -33.652   6.668   3.998  1.00 20.00    -0.362 OA
HETATM    5  C1  UNL     1     -32.961   6.295   2.815  1.00 20.00     0.204 C 
ENDBRANCH   1   4
TORSDOF 1
ENDMDL
MODEL 2
REMARK VINA RESULT:      -3.4      1.070      1.070
REMARK  1 active torsions:
REMARK  status: ('A' for Active; 'I' for Inactive)
REMARK    1  A    between atoms: C2_2  and  O3_3 
ROOT
HETATM    1  C2  UNL     1     -34.363   6.301   4.393  1.00 20.00     0.314 C 
HETATM    2 CL4  UNL     1     -34.853   4.594   4.483  1.00 20.00    -0.078 Cl
HETATM    3 CL5  UNL     1     -33.798   6.847   5.986  1.00 20.00    -0.078 Cl
ENDROOT
BRANCH   1   4
HETATM    4  O3  UNL     1     -33.315   6.419   3.439  1.00 20.00    -0.362 OA
HETATM    5  C1  UNL     1     -33.230   5.292   2.578  1.00 20.00     0.204 C 
ENDBRANCH   1   4
TORSDOF 1
ENDMDL
MODEL 3
REMARK VINA RESULT:      -3.3      1.964      3.040
REMARK  1 active torsions:
REMARK  status: ('A' for Active; 'I' for Inactive)
REMARK    1  A    between atoms: C2_2  and  O3_3 
ROOT
HETATM    1  C2  UNL     1     -34.430   5.349   3.604  1.00 20.00     0.314 C 
HETATM    2 CL4  UNL     1     -33.774   6.819   4.361  1.00 20.00    -0.078 Cl
HETATM    3 CL5  UNL     1     -33.213   4.637   2.525  1.00 20.00    -0.078 Cl
ENDROOT
BRANCH   1   4
HETATM    4  O3  UNL     1     -34.769   4.427   4.633  1.00 20.00    -0.362 OA
HETATM    5  C1  UNL     1     -34.784   5.024   5.921  1.00 20.00     0.204 C 
ENDBRANCH   1   4
TORSDOF 1
ENDMDL
MODEL 4
REMARK VINA RESULT:      -3.1      1.397      1.766
REMARK  1 active torsions:
REMARK  status: ('A' for Active; 'I' for Inactive)
REMARK    1  A    between atoms: C2_2  and  O3_3 
ROOT
HETATM    1  C2  UNL     1     -34.330   5.757   3.789  1.00 20.00     0.314 C 
HETATM    2 CL4  UNL     1     -33.295   4.950   2.589  1.00 20.00    -0.078 Cl
HETATM    3 CL5  UNL     1     -34.844   4.586   5.021  1.00 20.00    -0.078 Cl
ENDROOT
BRANCH   1   4
HETATM    4  O3  UNL     1     -33.582   6.805   4.395  1.00 20.00    -0.362 OA
HETATM    5  C1  UNL     1     -33.779   6.875   5.800  1.00 20.00     0.204 C 
ENDBRANCH   1   4
TORSDOF 1
ENDMDL
MODEL 5
REMARK VINA RESULT:      -3.0      2.044      2.855
REMARK  1 active torsions:
REMARK  status: ('A' for Active; 'I' for Inactive)
REMARK    1  A    between atoms: C2_2  and  O3_3 
ROOT
HETATM    1  C2  UNL     1     -32.870   6.360   3.173  1.00 20.00     0.314 C 
HETATM    2 CL4  UNL     1     -33.203   4.781   2.427  1.00 20.00    -0.078 Cl
HETATM    3 CL5  UNL     1     -32.596   7.576   1.907  1.00 20.00    -0.078 Cl
ENDROOT
BRANCH   1   4
HETATM    4  O3  UNL     1     -33.992   6.728   3.967  1.00 20.00    -0.362 OA
HETATM    5  C1  UNL     1     -34.707   5.603   4.459  1.00 20.00     0.204 C 
ENDBRANCH   1   4
TORSDOF 1
ENDMDL
MODEL 6
REMARK VINA RESULT:      -3.0      1.112      1.931
REMARK  1 active torsions:
REMARK  status: ('A' for Active; 'I' for Inactive)
REMARK    1  A    between atoms: C2_2  and  O3_3 
ROOT
HETATM    1  C2  UNL     1     -33.990   5.934   4.635  1.00 20.00     0.314 C 
HETATM    2 CL4  UNL     1     -34.081   6.796   6.187  1.00 20.00    -0.078 Cl
HETATM    3 CL5  UNL     1     -35.591   5.292   4.212  1.00 20.00    -0.078 Cl
ENDROOT
BRANCH   1   4
HETATM    4  O3  UNL     1     -33.554   6.850   3.637  1.00 20.00    -0.362 OA
HETATM    5  C1  UNL     1     -32.848   6.213   2.581  1.00 20.00     0.204 C 
ENDBRANCH   1   4
TORSDOF 1
ENDMDL
MODEL 7
REMARK VINA RESULT:      -2.8      1.316      2.115
REMARK  1 active torsions:
REMARK  status: ('A' for Active; 'I' for Inactive)
REMARK    1  A    between atoms: C2_2  and  O3_3 
ROOT
HETATM    1  C2  UNL     1     -33.729   5.532   3.894  1.00 20.00     0.314 C 
HETATM    2 CL4  UNL     1     -35.451   5.369   4.305  1.00 20.00    -0.078 Cl
HETATM    3 CL5  UNL     1     -33.366   4.578   2.441  1.00 20.00    -0.078 Cl
ENDROOT
BRANCH   1   4
HETATM    4  O3  UNL     1     -33.452   6.907   3.656  1.00 20.00    -0.362 OA
HETATM    5  C1  UNL     1     -32.532   7.104   2.592  1.00 20.00     0.204 C 
ENDBRANCH   1   4
TORSDOF 1
ENDMDL
MODEL 8
REMARK VINA RESULT:      -2.7      8.989      9.041
REMARK  1 active torsions:
REMARK  status: ('A' for Active; 'I' for Inactive)
REMARK    1  A    between atoms: C2_2  and  O3_3 
ROOT
HETATM    1  C2  UNL     1     -41.339   7.535   0.378  1.00 20.00     0.314 C 
HETATM    2 CL4  UNL     1     -41.484   9.304   0.271  1.00 20.00    -0.078 Cl
HETATM    3 CL5  UNL     1     -42.813   6.856   1.099  1.00 20.00    -0.078 Cl
ENDROOT
BRANCH   1   4
HETATM    4  O3  UNL     1     -41.156   7.019  -0.935  1.00 20.00    -0.362 OA
HETATM    5  C1  UNL     1     -40.998   5.608  -0.950  1.00 20.00     0.204 C 
ENDBRANCH   1   4
TORSDOF 1
ENDMDL
MODEL 9
REMARK VINA RESULT:      -2.7     12.519     12.807
REMARK  1 active torsions:
REMARK  status: ('A' for Active; 'I' for Inactive)
REMARK    1  A    between atoms: C2_2  and  O3_3 
ROOT
HETATM    1  C2  UNL     1     -36.169  13.783  -4.583  1.00 20.00     0.314 C 
HETATM    2 CL4  UNL     1     -35.810  14.374  -6.221  1.00 20.00    -0.078 Cl
HETATM    3 CL5  UNL     1     -35.552  14.936  -3.382  1.00 20.00    -0.078 Cl
ENDROOT
BRANCH   1   4
HETATM    4  O3  UNL     1     -37.580  13.652  -4.452  1.00 20.00    -0.362 OA
HETATM    5  C1  UNL     1     -38.231  14.901  -4.266  1.00 20.00     0.204 C 
ENDBRANCH   1   4
TORSDOF 1
ENDMDL
