MODEL 1
REMARK VINA RESULT:      -5.6      0.000      0.000
REMARK  1 active torsions:
REMARK  status: ('A' for Active; 'I' for Inactive)
REMARK    1  A    between atoms: C3_3  and  C6_6 
ROOT
HETATM    1  C1  UNL     1     -34.088   4.789   3.717  1.00 20.00     0.272 C 
HETATM    2  C2  UNL     1     -33.622   7.053   4.094  1.00 20.00     0.055 C 
HETATM    3  C3  UNL     1     -34.584   5.963   4.525  1.00 20.00     0.195 C 
HETATM    4  C4  UNL     1     -33.351   6.679   2.653  1.00 20.00     0.129 C 
HETATM    5  C5  UNL     1     -32.018   7.190   2.140  1.00 20.00     0.040 C 
HETATM    6  O7  UNL     1     -34.318   3.611   3.943  1.00 20.00    -0.265 OA
HETATM    7  O8  UNL     1     -33.354   5.244   2.653  1.00 20.00    -0.316 OA
ENDROOT
BRANCH   3   8
HETATM    8  C6  UNL     1     -34.549   5.705   6.020  1.00 20.00     0.400 C 
HETATM    9  F9  UNL     1     -35.628   4.997   6.400  1.00 20.00    -0.170 F 
HETATM   10  F10 UNL     1     -33.445   5.013   6.352  1.00 20.00    -0.170 F 
HETATM   11  F11 UNL     1     -34.542   6.868   6.696  1.00 20.00    -0.170 F 
ENDBRANCH   3   8
TORSDOF 1
ENDMDL
MODEL 2
REMARK VINA RESULT:      -4.8     12.221     13.291
REMARK  1 active torsions:
REMARK  status: ('A' for Active; 'I' for Inactive)
REMARK    1  A    between atoms: C3_3  and  C6_6 
ROOT
HETATM    1  C1  UNL     1     -36.289  13.628  -4.373  1.00 20.00     0.272 C 
HETATM    2  C2  UNL     1     -36.498  15.959  -4.447  1.00 20.00     0.055 C 
HETATM    3  C3  UNL     1     -35.530  14.879  -4.006  1.00 20.00     0.195 C 
HETATM    4  C4  UNL     1     -37.837  15.305  -4.183  1.00 20.00     0.129 C 
HETATM    5  C5  UNL     1     -38.956  15.857  -5.046  1.00 20.00     0.040 C 
HETATM    6  O7  UNL     1     -35.812  12.513  -4.517  1.00 20.00    -0.265 OA
HETATM    7  O8  UNL     1     -37.622  13.921  -4.492  1.00 20.00    -0.316 OA
ENDROOT
BRANCH   3   8
HETATM    8  C6  UNL     1     -34.185  14.976  -4.701  1.00 20.00     0.400 C 
HETATM    9  F9  UNL     1     -33.685  16.220  -4.586  1.00 20.00    -0.170 F 
HETATM   10  F10 UNL     1     -33.309  14.113  -4.155  1.00 20.00    -0.170 F 
HETATM   11  F11 UNL     1     -34.310  14.686  -6.009  1.00 20.00    -0.170 F 
ENDBRANCH   3   8
TORSDOF 1
ENDMDL
MODEL 3
REMARK VINA RESULT:      -4.8      1.984      2.582
REMARK  1 active torsions:
REMARK  status: ('A' for Active; 'I' for Inactive)
REMARK    1  A    between atoms: C3_3  and  C6_6 
ROOT
HETATM    1  C1  UNL     1     -33.350   6.899   4.681  1.00 20.00     0.272 C 
HETATM    2  C2  UNL     1     -33.299   5.814   2.606  1.00 20.00     0.055 C 
HETATM    3  C3  UNL     1     -33.418   5.513   4.088  1.00 20.00     0.195 C 
HETATM    4  C4  UNL     1     -32.391   7.023   2.604  1.00 20.00     0.129 C 
HETATM    5  C5  UNL     1     -32.561   7.900   1.377  1.00 20.00     0.040 C 
HETATM    6  O7  UNL     1     -33.720   7.222   5.798  1.00 20.00    -0.265 OA
HETATM    7  O8  UNL     1     -32.771   7.753   3.779  1.00 20.00    -0.316 OA
ENDROOT
BRANCH   3   8
HETATM    8  C6  UNL     1     -34.702   4.785   4.439  1.00 20.00     0.400 C 
HETATM    9  F9  UNL     1     -34.799   4.621   5.771  1.00 20.00    -0.170 F 
HETATM   10  F10 UNL     1     -35.770   5.484   4.015  1.00 20.00    -0.170 F 
HETATM   11  F11 UNL     1     -34.728   3.572   3.857  1.00 20.00    -0.170 F 
ENDBRANCH   3   8
TORSDOF 1
ENDMDL
MODEL 4
REMARK VINA RESULT:      -4.6     12.587     13.257
REMARK  1 active torsions:
REMARK  status: ('A' for Active; 'I' for Inactive)
REMARK    1  A    between atoms: C3_3  and  C6_6 
ROOT
HETATM    1  C1  UNL     1     -34.974  14.543  -5.501  1.00 20.00     0.272 C 
HETATM    2  C2  UNL     1     -35.982  14.943  -3.425  1.00 20.00     0.055 C 
HETATM    3  C3  UNL     1     -34.642  14.569  -4.029  1.00 20.00     0.195 C 
HETATM    4  C4  UNL     1     -36.951  14.275  -4.375  1.00 20.00     0.129 C 
HETATM    5  C5  UNL     1     -38.317  14.934  -4.401  1.00 20.00     0.040 C 
HETATM    6  O7  UNL     1     -34.174  14.610  -6.420  1.00 20.00    -0.265 OA
HETATM    7  O8  UNL     1     -36.327  14.397  -5.661  1.00 20.00    -0.316 OA
ENDROOT
BRANCH   3   8
HETATM    8  C6  UNL     1     -33.547  15.561  -3.690  1.00 20.00     0.400 C 
HETATM    9  F9  UNL     1     -32.338  15.038  -3.962  1.00 20.00    -0.170 F 
HETATM   10  F10 UNL     1     -33.695  16.689  -4.408  1.00 20.00    -0.170 F 
HETATM   11  F11 UNL     1     -33.589  15.880  -2.384  1.00 20.00    -0.170 F 
ENDBRANCH   3   8
TORSDOF 1
ENDMDL
MODEL 5
REMARK VINA RESULT:      -4.5     16.652     17.472
REMARK  1 active torsions:
REMARK  status: ('A' for Active; 'I' for Inactive)
REMARK    1  A    between atoms: C3_3  and  C6_6 
ROOT
HETATM    1  C1  UNL     1     -22.424  18.636   9.320  1.00 20.00     0.272 C 
HETATM    2  C2  UNL     1     -24.538  17.727   9.757  1.00 20.00     0.055 C 
HETATM    3  C3  UNL     1     -23.068  17.466  10.023  1.00 20.00     0.195 C 
HETATM    4  C4  UNL     1     -24.499  18.367   8.387  1.00 20.00     0.129 C 
HETATM    5  C5  UNL     1     -25.692  19.262   8.108  1.00 20.00     0.040 C 
HETATM    6  O7  UNL     1     -21.294  19.057   9.511  1.00 20.00    -0.265 OA
HETATM    7  O8  UNL     1     -23.296  19.149   8.395  1.00 20.00    -0.316 OA
ENDROOT
BRANCH   3   8
HETATM    8  C6  UNL     1     -22.738  17.415  11.503  1.00 20.00     0.400 C 
HETATM    9  F9  UNL     1     -23.171  16.260  12.041  1.00 20.00    -0.170 F 
HETATM   10  F10 UNL     1     -21.410  17.502  11.692  1.00 20.00    -0.170 F 
HETATM   11  F11 UNL     1     -23.329  18.435  12.151  1.00 20.00    -0.170 F 
ENDBRANCH   3   8
TORSDOF 1
ENDMDL
MODEL 6
REMARK VINA RESULT:      -4.5     15.928     16.832
REMARK  1 active torsions:
REMARK  status: ('A' for Active; 'I' for Inactive)
REMARK    1  A    between atoms: C3_3  and  C6_6 
ROOT
HETATM    1  C1  UNL     1     -24.902  18.706  10.076  1.00 20.00     0.272 C 
HETATM    2  C2  UNL     1     -23.802  18.373   8.036  1.00 20.00     0.055 C 
HETATM    3  C3  UNL     1     -23.512  18.533   9.516  1.00 20.00     0.195 C 
HETATM    4  C4  UNL     1     -25.012  19.263   7.857  1.00 20.00     0.129 C 
HETATM    5  C5  UNL     1     -25.879  18.867   6.677  1.00 20.00     0.040 C 
HETATM    6  O7  UNL     1     -25.233  18.549  11.241  1.00 20.00    -0.265 OA
HETATM    7  O8  UNL     1     -25.750  19.106   9.077  1.00 20.00    -0.316 OA
ENDROOT
BRANCH   3   8
HETATM    8  C6  UNL     1     -22.785  17.338  10.104  1.00 20.00     0.400 C 
HETATM    9  F9  UNL     1     -23.617  16.285  10.206  1.00 20.00    -0.170 F 
HETATM   10  F10 UNL     1     -21.747  16.988   9.324  1.00 20.00    -0.170 F 
HETATM   11  F11 UNL     1     -22.317  17.631  11.331  1.00 20.00    -0.170 F 
ENDBRANCH   3   8
TORSDOF 1
ENDMDL
MODEL 7
REMARK VINA RESULT:      -4.4     15.877     16.684
REMARK  1 active torsions:
REMARK  status: ('A' for Active; 'I' for Inactive)
REMARK    1  A    between atoms: C3_3  and  C6_6 
ROOT
HETATM    1  C1  UNL     1     -25.051  16.578  11.895  1.00 20.00     0.272 C 
HETATM    2  C2  UNL     1     -25.794  18.716  11.295  1.00 20.00     0.055 C 
HETATM    3  C3  UNL     1     -24.513  17.934  11.513  1.00 20.00     0.195 C 
HETATM    4  C4  UNL     1     -26.719  18.089  12.316  1.00 20.00     0.129 C 
HETATM    5  C5  UNL     1     -28.187  18.220  11.955  1.00 20.00     0.040 C 
HETATM    6  O7  UNL     1     -24.436  15.523  11.856  1.00 20.00    -0.265 OA
HETATM    7  O8  UNL     1     -26.343  16.705  12.332  1.00 20.00    -0.316 OA
ENDROOT
BRANCH   3   8
HETATM    8  C6  UNL     1     -23.633  17.892  10.278  1.00 20.00     0.400 C 
HETATM    9  F9  UNL     1     -24.128  17.023   9.378  1.00 20.00    -0.170 F 
HETATM   10  F10 UNL     1     -23.568  19.108   9.705  1.00 20.00    -0.170 F 
HETATM   11  F11 UNL     1     -22.386  17.507  10.603  1.00 20.00    -0.170 F 
ENDBRANCH   3   8
TORSDOF 1
ENDMDL
MODEL 8
REMARK VINA RESULT:      -4.4     12.194     12.822
REMARK  1 active torsions:
REMARK  status: ('A' for Active; 'I' for Inactive)
REMARK    1  A    between atoms: C3_3  and  C6_6 
ROOT
HETATM    1  C1  UNL     1     -34.009  14.841  -4.013  1.00 20.00     0.272 C 
HETATM    2  C2  UNL     1     -35.991  15.814  -3.230  1.00 20.00     0.055 C 
HETATM    3  C3  UNL     1     -35.421  15.132  -4.459  1.00 20.00     0.195 C 
HETATM    4  C4  UNL     1     -34.781  16.543  -2.689  1.00 20.00     0.129 C 
HETATM    5  C5  UNL     1     -34.861  16.813  -1.198  1.00 20.00     0.040 C 
HETATM    6  O7  UNL     1     -33.250  14.026  -4.512  1.00 20.00    -0.265 OA
HETATM    7  O8  UNL     1     -33.683  15.663  -2.966  1.00 20.00    -0.316 OA
ENDROOT
BRANCH   3   8
HETATM    8  C6  UNL     1     -36.185  13.879  -4.844  1.00 20.00     0.400 C 
HETATM    9  F9  UNL     1     -37.499  14.037  -4.599  1.00 20.00    -0.170 F 
HETATM   10  F10 UNL     1     -36.024  13.613  -6.153  1.00 20.00    -0.170 F 
HETATM   11  F11 UNL     1     -35.744  12.823  -4.137  1.00 20.00    -0.170 F 
ENDBRANCH   3   8
TORSDOF 1
ENDMDL
MODEL 9
REMARK VINA RESULT:      -4.3     12.230     13.386
REMARK  1 active torsions:
REMARK  status: ('A' for Active; 'I' for Inactive)
REMARK    1  A    between atoms: C3_3  and  C6_6 
ROOT
HETATM    1  C1  UNL     1     -34.821  14.380  -4.670  1.00 20.00     0.272 C 
HETATM    2  C2  UNL     1     -34.511  16.571  -5.437  1.00 20.00     0.055 C 
HETATM    3  C3  UNL     1     -35.019  15.809  -4.229  1.00 20.00     0.195 C 
HETATM    4  C4  UNL     1     -34.903  15.653  -6.573  1.00 20.00     0.129 C 
HETATM    5  C5  UNL     1     -34.039  15.822  -7.808  1.00 20.00     0.040 C 
HETATM    6  O7  UNL     1     -34.774  13.402  -3.942  1.00 20.00    -0.265 OA
HETATM    7  O8  UNL     1     -34.732  14.333  -6.037  1.00 20.00    -0.316 OA
ENDROOT
BRANCH   3   8
HETATM    8  C6  UNL     1     -34.257  16.144  -2.960  1.00 20.00     0.400 C 
HETATM    9  F9  UNL     1     -34.195  17.477  -2.787  1.00 20.00    -0.170 F 
HETATM   10  F10 UNL     1     -34.865  15.602  -1.889  1.00 20.00    -0.170 F 
HETATM   11  F11 UNL     1     -33.002  15.664  -3.025  1.00 20.00    -0.170 F 
ENDBRANCH   3   8
TORSDOF 1
ENDMDL
