MODEL 1
REMARK VINA RESULT:      -4.6      0.000      0.000
REMARK  0 active torsions:
REMARK  status: ('A' for Active; 'I' for Inactive)
ROOT
HETATM    1  C1  UNL     1     -24.829  18.234  10.850  1.00 20.00     0.056 C 
HETATM    2  C2  UNL     1     -23.587  18.166   9.024  1.00 20.00     0.264 C 
HETATM    3  C3  UNL     1     -25.878  18.606  11.593  1.00 20.00     0.047 C 
HETATM    4  C4  UNL     1     -23.328  16.872   9.730  1.00 20.00     0.127 C 
HETATM    5  C5  UNL     1     -23.887  17.098  11.125  1.00 20.00     0.010 C 
HETATM    6  C6  UNL     1     -24.560  15.826  11.652  1.00 20.00     0.022 C 
HETATM    7  C7  UNL     1     -22.783  17.546  12.095  1.00 20.00     0.022 C 
HETATM    8  O8  UNL     1     -23.064  18.496   7.968  1.00 20.00    -0.265 OA
HETATM    9  O9  UNL     1     -24.530  18.914   9.670  1.00 20.00    -0.283 OA
ENDROOT
TORSDOF 0
ENDMDL
MODEL 2
REMARK VINA RESULT:      -4.6     17.801     18.727
REMARK  0 active torsions:
REMARK  status: ('A' for Active; 'I' for Inactive)
ROOT
HETATM    1  C1  UNL     1     -34.324  14.620  -4.164  1.00 20.00     0.056 C 
HETATM    2  C2  UNL     1     -36.484  14.187  -4.336  1.00 20.00     0.264 C 
HETATM    3  C3  UNL     1     -33.021  14.405  -4.380  1.00 20.00     0.047 C 
HETATM    4  C4  UNL     1     -36.387  15.672  -4.167  1.00 20.00     0.127 C 
HETATM    5  C5  UNL     1     -34.961  15.893  -3.690  1.00 20.00     0.010 C 
HETATM    6  C6  UNL     1     -34.375  17.168  -4.307  1.00 20.00     0.022 C 
HETATM    7  C7  UNL     1     -34.901  15.979  -2.157  1.00 20.00     0.022 C 
HETATM    8  O8  UNL     1     -37.534  13.571  -4.455  1.00 20.00    -0.265 OA
HETATM    9  O9  UNL     1     -35.250  13.605  -4.404  1.00 20.00    -0.283 OA
ENDROOT
TORSDOF 0
ENDMDL
MODEL 3
REMARK VINA RESULT:      -4.5      1.133      2.216
REMARK  0 active torsions:
REMARK  status: ('A' for Active; 'I' for Inactive)
ROOT
HETATM    1  C1  UNL     1     -22.752  17.853  11.240  1.00 20.00     0.056 C 
HETATM    2  C2  UNL     1     -23.236  18.324   9.136  1.00 20.00     0.264 C 
HETATM    3  C3  UNL     1     -21.979  17.825  12.332  1.00 20.00     0.047 C 
HETATM    4  C4  UNL     1     -24.549  18.317   9.855  1.00 20.00     0.127 C 
HETATM    5  C5  UNL     1     -24.236  17.642  11.181  1.00 20.00     0.010 C 
HETATM    6  C6  UNL     1     -25.020  18.300  12.322  1.00 20.00     0.022 C 
HETATM    7  C7  UNL     1     -24.559  16.141  11.123  1.00 20.00     0.022 C 
HETATM    8  O8  UNL     1     -23.103  18.540   7.939  1.00 20.00    -0.265 OA
HETATM    9  O9  UNL     1     -22.191  18.120   9.991  1.00 20.00    -0.283 OA
ENDROOT
TORSDOF 0
ENDMDL
MODEL 4
REMARK VINA RESULT:      -4.3     17.593     18.430
REMARK  0 active torsions:
REMARK  status: ('A' for Active; 'I' for Inactive)
ROOT
HETATM    1  C1  UNL     1     -35.780  15.896  -3.417  1.00 20.00     0.056 C 
HETATM    2  C2  UNL     1     -35.621  13.825  -4.172  1.00 20.00     0.264 C 
HETATM    3  C3  UNL     1     -36.348  16.903  -2.743  1.00 20.00     0.047 C 
HETATM    4  C4  UNL     1     -34.212  14.321  -4.065  1.00 20.00     0.127 C 
HETATM    5  C5  UNL     1     -34.364  15.824  -3.907  1.00 20.00     0.010 C 
HETATM    6  C6  UNL     1     -33.322  16.374  -2.927  1.00 20.00     0.022 C 
HETATM    7  C7  UNL     1     -34.234  16.536  -5.263  1.00 20.00     0.022 C 
HETATM    8  O8  UNL     1     -35.935  12.711  -4.567  1.00 20.00    -0.265 OA
HETATM    9  O9  UNL     1     -36.516  14.749  -3.714  1.00 20.00    -0.283 OA
ENDROOT
TORSDOF 0
ENDMDL
MODEL 5
REMARK VINA RESULT:      -4.3     18.650     19.622
REMARK  0 active torsions:
REMARK  status: ('A' for Active; 'I' for Inactive)
ROOT
HETATM    1  C1  UNL     1     -34.853  14.915  -6.015  1.00 20.00     0.056 C 
HETATM    2  C2  UNL     1     -36.579  14.225  -4.821  1.00 20.00     0.264 C 
HETATM    3  C3  UNL     1     -34.137  15.077  -7.134  1.00 20.00     0.047 C 
HETATM    4  C4  UNL     1     -36.058  15.433  -4.106  1.00 20.00     0.127 C 
HETATM    5  C5  UNL     1     -34.687  15.658  -4.722  1.00 20.00     0.010 C 
HETATM    6  C6  UNL     1     -34.402  17.156  -4.879  1.00 20.00     0.022 C 
HETATM    7  C7  UNL     1     -33.587  15.004  -3.870  1.00 20.00     0.022 C 
HETATM    8  O8  UNL     1     -37.535  13.559  -4.448  1.00 20.00    -0.265 OA
HETATM    9  O9  UNL     1     -35.896  13.989  -5.979  1.00 20.00    -0.283 OA
ENDROOT
TORSDOF 0
ENDMDL
MODEL 6
REMARK VINA RESULT:      -4.3     23.122     23.694
REMARK  0 active torsions:
REMARK  status: ('A' for Active; 'I' for Inactive)
ROOT
HETATM    1  C1  UNL     1     -42.504   6.400   0.620  1.00 20.00     0.056 C 
HETATM    2  C2  UNL     1     -41.731   8.385   0.032  1.00 20.00     0.264 C 
HETATM    3  C3  UNL     1     -43.112   5.524   1.427  1.00 20.00     0.047 C 
HETATM    4  C4  UNL     1     -42.053   7.687  -1.253  1.00 20.00     0.127 C 
HETATM    5  C5  UNL     1     -42.223   6.233  -0.845  1.00 20.00     0.010 C 
HETATM    6  C6  UNL     1     -43.357   5.576  -1.640  1.00 20.00     0.022 C 
HETATM    7  C7  UNL     1     -40.918   5.448  -1.050  1.00 20.00     0.022 C 
HETATM    8  O8  UNL     1     -41.268   9.515   0.109  1.00 20.00    -0.265 OA
HETATM    9  O9  UNL     1     -42.076   7.631   1.117  1.00 20.00    -0.283 OA
ENDROOT
TORSDOF 0
ENDMDL
MODEL 7
REMARK VINA RESULT:      -4.2     23.273     23.797
REMARK  0 active torsions:
REMARK  status: ('A' for Active; 'I' for Inactive)
ROOT
HETATM    1  C1  UNL     1     -42.631   6.631   0.403  1.00 20.00     0.056 C 
HETATM    2  C2  UNL     1     -41.206   5.616  -0.948  1.00 20.00     0.264 C 
HETATM    3  C3  UNL     1     -43.414   6.740   1.483  1.00 20.00     0.047 C 
HETATM    4  C4  UNL     1     -40.942   7.081  -1.116  1.00 20.00     0.127 C 
HETATM    5  C5  UNL     1     -42.151   7.746  -0.479  1.00 20.00     0.010 C 
HETATM    6  C6  UNL     1     -41.737   9.018   0.270  1.00 20.00     0.022 C 
HETATM    7  C7  UNL     1     -43.214   8.084  -1.536  1.00 20.00     0.022 C 
HETATM    8  O8  UNL     1     -40.611   4.732  -1.548  1.00 20.00    -0.265 OA
HETATM    9  O9  UNL     1     -42.154   5.381   0.007  1.00 20.00    -0.283 OA
ENDROOT
TORSDOF 0
ENDMDL
MODEL 8
REMARK VINA RESULT:      -4.2     17.947     18.845
REMARK  0 active torsions:
REMARK  status: ('A' for Active; 'I' for Inactive)
ROOT
HETATM    1  C1  UNL     1     -34.944  16.007  -5.069  1.00 20.00     0.056 C 
HETATM    2  C2  UNL     1     -36.352  14.412  -4.475  1.00 20.00     0.264 C 
HETATM    3  C3  UNL     1     -34.571  17.122  -5.708  1.00 20.00     0.047 C 
HETATM    4  C4  UNL     1     -35.386  14.535  -3.337  1.00 20.00     0.127 C 
HETATM    5  C5  UNL     1     -34.243  15.352  -3.916  1.00 20.00     0.010 C 
HETATM    6  C6  UNL     1     -33.688  16.325  -2.870  1.00 20.00     0.022 C 
HETATM    7  C7  UNL     1     -33.118  14.438  -4.428  1.00 20.00     0.022 C 
HETATM    8  O8  UNL     1     -37.281  13.616  -4.512  1.00 20.00    -0.265 OA
HETATM    9  O9  UNL     1     -36.111  15.341  -5.445  1.00 20.00    -0.283 OA
ENDROOT
TORSDOF 0
ENDMDL
MODEL 9
REMARK VINA RESULT:      -4.2     19.363     20.126
REMARK  0 active torsions:
REMARK  status: ('A' for Active; 'I' for Inactive)
ROOT
HETATM    1  C1  UNL     1     -38.184  15.103  -4.277  1.00 20.00     0.056 C 
HETATM    2  C2  UNL     1     -36.478  13.706  -4.417  1.00 20.00     0.264 C 
HETATM    3  C3  UNL     1     -39.456  15.447  -4.043  1.00 20.00     0.047 C 
HETATM    4  C4  UNL     1     -35.877  15.039  -4.095  1.00 20.00     0.127 C 
HETATM    5  C5  UNL     1     -37.003  16.023  -4.367  1.00 20.00     0.010 C 
HETATM    6  C6  UNL     1     -36.996  17.154  -3.332  1.00 20.00     0.022 C 
HETATM    7  C7  UNL     1     -36.891  16.609  -5.783  1.00 20.00     0.022 C 
HETATM    8  O8  UNL     1     -35.835  12.679  -4.581  1.00 20.00    -0.265 OA
HETATM    9  O9  UNL     1     -37.842  13.761  -4.445  1.00 20.00    -0.283 OA
ENDROOT
TORSDOF 0
ENDMDL
