MODEL 1
REMARK VINA RESULT:      -4.3      0.000      0.000
REMARK  1 active torsions:
REMARK  status: ('A' for Active; 'I' for Inactive)
REMARK    1  A    between atoms: C1_1  and  C3_3 
ROOT
HETATM    1  C2  UNL     1     -33.223  14.906  -4.209  1.00 20.00     0.065 A 
HETATM    2  C3  UNL     1     -34.679  14.979  -3.791  1.00 20.00     0.070 A 
HETATM    3  C4  UNL     1     -34.172  15.764  -5.001  1.00 20.00     0.130 A 
HETATM    4  C5  UNL     1     -34.981  15.707  -2.501  1.00 20.00     0.028 C 
HETATM    5 CL8  UNL     1     -34.576  15.223  -6.635  1.00 20.00    -0.100 Cl
HETATM    6 CL9  UNL     1     -33.973  17.515  -4.909  1.00 20.00    -0.100 Cl
ENDROOT
BRANCH   2   7
HETATM    7  C1  UNL     1     -35.509  13.776  -4.047  1.00 20.00     0.230 C 
HETATM    8  O6  UNL     1     -35.034  12.644  -4.008  1.00 20.00    -0.279 OA
HETATM    9 CL7  UNL     1     -37.163  14.183  -4.392  1.00 20.00    -0.043 Cl
ENDBRANCH   2   7
TORSDOF 1
ENDMDL
MODEL 2
REMARK VINA RESULT:      -3.7      1.658      2.411
REMARK  1 active torsions:
REMARK  status: ('A' for Active; 'I' for Inactive)
REMARK    1  A    between atoms: C1_1  and  C3_3 
ROOT
HETATM    1  C2  UNL     1     -35.693  16.459  -4.755  1.00 20.00     0.065 A 
HETATM    2  C3  UNL     1     -35.187  15.037  -4.903  1.00 20.00     0.070 A 
HETATM    3  C4  UNL     1     -34.695  15.928  -3.762  1.00 20.00     0.130 A 
HETATM    4  C5  UNL     1     -34.276  14.758  -6.078  1.00 20.00     0.028 C 
HETATM    5 CL8  UNL     1     -35.271  15.645  -2.113  1.00 20.00    -0.100 Cl
HETATM    6 CL9  UNL     1     -33.065  16.601  -3.792  1.00 20.00    -0.100 Cl
ENDROOT
BRANCH   2   7
HETATM    7  C1  UNL     1     -36.139  13.949  -4.570  1.00 20.00     0.230 C 
HETATM    8  O6  UNL     1     -35.777  12.779  -4.481  1.00 20.00    -0.279 OA
HETATM    9 CL7  UNL     1     -37.756  14.543  -4.337  1.00 20.00    -0.043 Cl
ENDBRANCH   2   7
TORSDOF 1
ENDMDL
MODEL 3
REMARK VINA RESULT:      -3.7      1.920      2.828
REMARK  1 active torsions:
REMARK  status: ('A' for Active; 'I' for Inactive)
REMARK    1  A    between atoms: C1_1  and  C3_3 
ROOT
HETATM    1  C2  UNL     1     -33.406  14.735  -4.431  1.00 20.00     0.065 A 
HETATM    2  C3  UNL     1     -34.853  14.612  -4.865  1.00 20.00     0.070 A 
HETATM    3  C4  UNL     1     -34.397  15.775  -3.984  1.00 20.00     0.130 A 
HETATM    4  C5  UNL     1     -35.653  13.483  -4.256  1.00 20.00     0.028 C 
HETATM    5 CL8  UNL     1     -34.234  17.394  -4.678  1.00 20.00    -0.100 Cl
HETATM    6 CL9  UNL     1     -34.828  15.824  -2.275  1.00 20.00    -0.100 Cl
ENDROOT
BRANCH   2   7
HETATM    7  C1  UNL     1     -35.150  14.899  -6.290  1.00 20.00     0.230 C 
HETATM    8  O6  UNL     1     -36.302  15.042  -6.693  1.00 20.00    -0.279 OA
HETATM    9 CL7  UNL     1     -33.707  14.998  -7.253  1.00 20.00    -0.043 Cl
ENDBRANCH   2   7
TORSDOF 1
ENDMDL
MODEL 4
REMARK VINA RESULT:      -3.7      2.010      2.588
REMARK  1 active torsions:
REMARK  status: ('A' for Active; 'I' for Inactive)
REMARK    1  A    between atoms: C1_1  and  C3_3 
ROOT
HETATM    1  C2  UNL     1     -35.091  14.859  -3.451  1.00 20.00     0.065 A 
HETATM    2  C3  UNL     1     -35.005  15.615  -4.763  1.00 20.00     0.070 A 
HETATM    3  C4  UNL     1     -33.759  15.390  -3.906  1.00 20.00     0.130 A 
HETATM    4  C5  UNL     1     -35.647  16.983  -4.803  1.00 20.00     0.028 C 
HETATM    5 CL8  UNL     1     -32.547  14.203  -4.408  1.00 20.00    -0.100 Cl
HETATM    6 CL9  UNL     1     -33.048  16.723  -2.995  1.00 20.00    -0.100 Cl
ENDROOT
BRANCH   2   7
HETATM    7  C1  UNL     1     -35.143  14.816  -6.005  1.00 20.00     0.230 C 
HETATM    8  O6  UNL     1     -35.900  13.851  -6.072  1.00 20.00    -0.279 OA
HETATM    9 CL7  UNL     1     -34.130  15.415  -7.284  1.00 20.00    -0.043 Cl
ENDBRANCH   2   7
TORSDOF 1
ENDMDL
MODEL 5
REMARK VINA RESULT:      -3.6      1.821      3.109
REMARK  1 active torsions:
REMARK  status: ('A' for Active; 'I' for Inactive)
REMARK    1  A    between atoms: C1_1  and  C3_3 
ROOT
HETATM    1  C2  UNL     1     -35.474  14.110  -4.116  1.00 20.00     0.065 A 
HETATM    2  C3  UNL     1     -34.266  15.014  -3.961  1.00 20.00     0.070 A 
HETATM    3  C4  UNL     1     -35.312  15.283  -5.044  1.00 20.00     0.130 A 
HETATM    4  C5  UNL     1     -32.926  14.430  -4.346  1.00 20.00     0.028 C 
HETATM    5 CL8  UNL     1     -36.450  16.624  -4.855  1.00 20.00    -0.100 Cl
HETATM    6 CL9  UNL     1     -34.950  14.950  -6.738  1.00 20.00    -0.100 Cl
ENDROOT
BRANCH   2   7
HETATM    7  C1  UNL     1     -34.248  15.910  -2.780  1.00 20.00     0.230 C 
HETATM    8  O6  UNL     1     -35.082  15.813  -1.883  1.00 20.00    -0.279 OA
HETATM    9 CL7  UNL     1     -32.944  17.057  -2.847  1.00 20.00    -0.043 Cl
ENDBRANCH   2   7
TORSDOF 1
ENDMDL
MODEL 6
REMARK VINA RESULT:      -3.5     11.105     12.192
REMARK  1 active torsions:
REMARK  status: ('A' for Active; 'I' for Inactive)
REMARK    1  A    between atoms: C1_1  and  C3_3 
ROOT
HETATM    1  C2  UNL     1     -41.059   6.905   0.607  1.00 20.00     0.065 A 
HETATM    2  C3  UNL     1     -42.121   5.945   0.108  1.00 20.00     0.070 A 
HETATM    3  C4  UNL     1     -42.243   7.448  -0.146  1.00 20.00     0.130 A 
HETATM    4  C5  UNL     1     -42.994   5.292   1.155  1.00 20.00     0.028 C 
HETATM    5 CL8  UNL     1     -41.941   8.095  -1.764  1.00 20.00    -0.100 Cl
HETATM    6 CL9  UNL     1     -43.417   8.413   0.749  1.00 20.00    -0.100 Cl
ENDROOT
BRANCH   2   7
HETATM    7  C1  UNL     1     -41.754   5.078  -1.038  1.00 20.00     0.230 C 
HETATM    8  O6  UNL     1     -40.586   4.925  -1.384  1.00 20.00    -0.279 OA
HETATM    9 CL7  UNL     1     -43.147   4.351  -1.781  1.00 20.00    -0.043 Cl
ENDBRANCH   2   7
TORSDOF 1
ENDMDL
MODEL 7
REMARK VINA RESULT:      -3.5      1.762      2.767
REMARK  1 active torsions:
REMARK  status: ('A' for Active; 'I' for Inactive)
REMARK    1  A    between atoms: C1_1  and  C3_3 
ROOT
HETATM    1  C2  UNL     1     -35.010  16.825  -4.503  1.00 20.00     0.065 A 
HETATM    2  C3  UNL     1     -33.989  15.832  -3.983  1.00 20.00     0.070 A 
HETATM    3  C4  UNL     1     -35.407  15.868  -3.412  1.00 20.00     0.130 A 
HETATM    4  C5  UNL     1     -32.843  16.395  -3.173  1.00 20.00     0.028 C 
HETATM    5 CL8  UNL     1     -36.560  14.595  -3.837  1.00 20.00    -0.100 Cl
HETATM    6 CL9  UNL     1     -35.706  16.528  -1.804  1.00 20.00    -0.100 Cl
ENDROOT
BRANCH   2   7
HETATM    7  C1  UNL     1     -33.634  14.706  -4.881  1.00 20.00     0.230 C 
HETATM    8  O6  UNL     1     -33.145  13.665  -4.450  1.00 20.00    -0.279 OA
HETATM    9 CL7  UNL     1     -33.992  15.058  -6.545  1.00 20.00    -0.043 Cl
ENDBRANCH   2   7
TORSDOF 1
ENDMDL
MODEL 8
REMARK VINA RESULT:      -3.5      1.575      2.769
REMARK  1 active torsions:
REMARK  status: ('A' for Active; 'I' for Inactive)
REMARK    1  A    between atoms: C1_1  and  C3_3 
ROOT
HETATM    1  C2  UNL     1     -34.636  15.583  -2.689  1.00 20.00     0.065 A 
HETATM    2  C3  UNL     1     -34.807  14.998  -4.078  1.00 20.00     0.070 A 
HETATM    3  C4  UNL     1     -35.211  16.442  -3.782  1.00 20.00     0.130 A 
HETATM    4  C5  UNL     1     -35.876  13.942  -4.244  1.00 20.00     0.028 C 
HETATM    5 CL8  UNL     1     -34.209  17.775  -4.370  1.00 20.00    -0.100 Cl
HETATM    6 CL9  UNL     1     -36.914  16.888  -3.669  1.00 20.00    -0.100 Cl
ENDROOT
BRANCH   2   7
HETATM    7  C1  UNL     1     -33.570  14.774  -4.866  1.00 20.00     0.230 C 
HETATM    8  O6  UNL     1     -32.495  14.531  -4.325  1.00 20.00    -0.279 OA
HETATM    9 CL7  UNL     1     -33.853  14.900  -6.577  1.00 20.00    -0.043 Cl
ENDBRANCH   2   7
TORSDOF 1
ENDMDL
MODEL 9
REMARK VINA RESULT:      -3.5      2.069      2.222
REMARK  1 active torsions:
REMARK  status: ('A' for Active; 'I' for Inactive)
REMARK    1  A    between atoms: C1_1  and  C3_3 
ROOT
HETATM    1  C2  UNL     1     -35.099  13.762  -3.854  1.00 20.00     0.065 A 
HETATM    2  C3  UNL     1     -35.309  15.248  -3.639  1.00 20.00     0.070 A 
HETATM    3  C4  UNL     1     -34.270  14.741  -4.639  1.00 20.00     0.130 A 
HETATM    4  C5  UNL     1     -34.856  15.815  -2.313  1.00 20.00     0.028 C 
HETATM    5 CL8  UNL     1     -34.588  14.857  -6.375  1.00 20.00    -0.100 Cl
HETATM    6 CL9  UNL     1     -32.548  14.847  -4.268  1.00 20.00    -0.100 Cl
ENDROOT
BRANCH   2   7
HETATM    7  C1  UNL     1     -36.561  15.832  -4.180  1.00 20.00     0.230 C 
HETATM    8  O6  UNL     1     -36.645  17.022  -4.472  1.00 20.00    -0.279 OA
HETATM    9 CL7  UNL     1     -37.824  14.648  -4.331  1.00 20.00    -0.043 Cl
ENDBRANCH   2   7
TORSDOF 1
ENDMDL
