MODEL 1
REMARK VINA RESULT:      -3.4      0.000      0.000
REMARK  1 active torsions:
REMARK  status: ('A' for Active; 'I' for Inactive)
REMARK    1  A    between atoms: C2_2  and  C4_4 
ROOT
HETATM    1  C1  UNL     1     -34.790   4.562   4.751  1.00 20.00     0.207 A 
HETATM    2  C2  UNL     1     -34.161   5.867   4.324  1.00 20.00     0.091 A 
HETATM    3  C3  UNL     1     -33.795   6.881   5.359  1.00 20.00     0.049 C 
HETATM    4  O5  UNL     1     -35.572   5.639   4.212  1.00 20.00    -0.374 OA
ENDROOT
BRANCH   2   5
HETATM    5  C4  UNL     1     -33.459   5.950   3.007  1.00 20.00     0.154 C 
HETATM    6 CL6  UNL     1     -32.206   7.220   3.025  1.00 20.00    -0.127 Cl
ENDBRANCH   2   5
TORSDOF 1
ENDMDL
MODEL 2
REMARK VINA RESULT:      -3.2      2.407      3.264
REMARK  1 active torsions:
REMARK  status: ('A' for Active; 'I' for Inactive)
REMARK    1  A    between atoms: C2_2  and  C4_4 
ROOT
HETATM    1  C1  UNL     1     -31.945   7.177   2.968  1.00 20.00     0.207 A 
HETATM    2  C2  UNL     1     -33.149   6.279   3.125  1.00 20.00     0.091 A 
HETATM    3  C3  UNL     1     -33.157   4.936   2.470  1.00 20.00     0.049 C 
HETATM    4  O5  UNL     1     -33.142   7.374   2.199  1.00 20.00    -0.374 OA
ENDROOT
BRANCH   2   5
HETATM    5  C4  UNL     1     -34.069   6.479   4.286  1.00 20.00     0.154 C 
HETATM    6 CL6  UNL     1     -35.082   5.036   4.559  1.00 20.00    -0.127 Cl
ENDBRANCH   2   5
TORSDOF 1
ENDMDL
MODEL 3
REMARK VINA RESULT:      -3.1      1.120      1.760
REMARK  1 active torsions:
REMARK  status: ('A' for Active; 'I' for Inactive)
REMARK    1  A    between atoms: C2_2  and  C4_4 
ROOT
HETATM    1  C1  UNL     1     -35.527   5.222   4.280  1.00 20.00     0.207 A 
HETATM    2  C2  UNL     1     -34.113   5.481   3.817  1.00 20.00     0.091 A 
HETATM    3  C3  UNL     1     -33.572   4.723   2.648  1.00 20.00     0.049 C 
HETATM    4  O5  UNL     1     -34.393   4.659   4.958  1.00 20.00    -0.374 OA
ENDROOT
BRANCH   2   5
HETATM    5  C4  UNL     1     -33.453   6.778   4.156  1.00 20.00     0.154 C 
HETATM    6 CL6  UNL     1     -32.238   7.222   2.927  1.00 20.00    -0.127 Cl
ENDBRANCH   2   5
TORSDOF 1
ENDMDL
MODEL 4
REMARK VINA RESULT:      -3.0     11.741     12.048
REMARK  1 active torsions:
REMARK  status: ('A' for Active; 'I' for Inactive)
REMARK    1  A    between atoms: C2_2  and  C4_4 
ROOT
HETATM    1  C1  UNL     1     -36.168  13.778  -4.584  1.00 20.00     0.207 A 
HETATM    2  C2  UNL     1     -34.890  14.523  -4.279  1.00 20.00     0.091 A 
HETATM    3  C3  UNL     1     -33.970  14.895  -5.397  1.00 20.00     0.049 C 
HETATM    4  O5  UNL     1     -35.005  13.109  -4.073  1.00 20.00    -0.374 OA
ENDROOT
BRANCH   2   5
HETATM    5  C4  UNL     1     -34.781  15.310  -3.013  1.00 20.00     0.154 C 
HETATM    6 CL6  UNL     1     -33.236  16.197  -2.939  1.00 20.00    -0.127 Cl
ENDBRANCH   2   5
TORSDOF 1
ENDMDL
MODEL 5
REMARK VINA RESULT:      -3.0     17.301     17.416
REMARK  1 active torsions:
REMARK  status: ('A' for Active; 'I' for Inactive)
REMARK    1  A    between atoms: C2_2  and  C4_4 
ROOT
HETATM    1  C1  UNL     1     -22.034  17.752   8.264  1.00 20.00     0.207 A 
HETATM    2  C2  UNL     1     -22.948  18.341   9.313  1.00 20.00     0.091 A 
HETATM    3  C3  UNL     1     -24.124  19.159   8.888  1.00 20.00     0.049 C 
HETATM    4  O5  UNL     1     -21.684  18.938   8.993  1.00 20.00    -0.374 OA
ENDROOT
BRANCH   2   5
HETATM    5  C4  UNL     1     -22.997  17.728  10.675  1.00 20.00     0.154 C 
HETATM    6 CL6  UNL     1     -24.207  16.420  10.747  1.00 20.00    -0.127 Cl
ENDBRANCH   2   5
TORSDOF 1
ENDMDL
MODEL 6
REMARK VINA RESULT:      -2.9      9.146      9.358
REMARK  1 active torsions:
REMARK  status: ('A' for Active; 'I' for Inactive)
REMARK    1  A    between atoms: C2_2  and  C4_4 
ROOT
HETATM    1  C1  UNL     1     -41.018   5.613  -0.873  1.00 20.00     0.207 A 
HETATM    2  C2  UNL     1     -41.893   6.819  -0.629  1.00 20.00     0.091 A 
HETATM    3  C3  UNL     1     -43.214   6.922  -1.320  1.00 20.00     0.049 C 
HETATM    4  O5  UNL     1     -40.770   6.872  -1.519  1.00 20.00    -0.374 OA
ENDROOT
BRANCH   2   5
HETATM    5  C4  UNL     1     -41.710   7.620   0.619  1.00 20.00     0.154 C 
HETATM    6 CL6  UNL     1     -41.433   9.342   0.243  1.00 20.00    -0.127 Cl
ENDBRANCH   2   5
TORSDOF 1
ENDMDL
MODEL 7
REMARK VINA RESULT:      -2.9     16.039     16.733
REMARK  1 active torsions:
REMARK  status: ('A' for Active; 'I' for Inactive)
REMARK    1  A    between atoms: C2_2  and  C4_4 
ROOT
HETATM    1  C1  UNL     1     -24.558  15.870  11.609  1.00 20.00     0.207 A 
HETATM    2  C2  UNL     1     -23.587  16.936  11.158  1.00 20.00     0.091 A 
HETATM    3  C3  UNL     1     -22.734  17.630  12.169  1.00 20.00     0.049 C 
HETATM    4  O5  UNL     1     -24.989  17.205  11.301  1.00 20.00    -0.374 OA
ENDROOT
BRANCH   2   5
HETATM    5  C4  UNL     1     -23.114  16.948   9.740  1.00 20.00     0.154 C 
HETATM    6 CL6  UNL     1     -22.251  18.462   9.363  1.00 20.00    -0.127 Cl
ENDBRANCH   2   5
TORSDOF 1
ENDMDL
MODEL 8
REMARK VINA RESULT:      -2.9     11.654     12.343
REMARK  1 active torsions:
REMARK  status: ('A' for Active; 'I' for Inactive)
REMARK    1  A    between atoms: C2_2  and  C4_4 
ROOT
HETATM    1  C1  UNL     1     -37.324  14.923  -4.183  1.00 20.00     0.207 A 
HETATM    2  C2  UNL     1     -36.080  14.298  -4.768  1.00 20.00     0.091 A 
HETATM    3  C3  UNL     1     -35.752  14.522  -6.209  1.00 20.00     0.049 C 
HETATM    4  O5  UNL     1     -37.279  13.539  -4.561  1.00 20.00    -0.374 OA
ENDROOT
BRANCH   2   5
HETATM    5  C4  UNL     1     -34.956  13.908  -3.864  1.00 20.00     0.154 C 
HETATM    6 CL6  UNL     1     -33.767  15.228  -3.712  1.00 20.00    -0.127 Cl
ENDBRANCH   2   5
TORSDOF 1
ENDMDL
MODEL 9
REMARK VINA RESULT:      -2.9      8.738      8.994
REMARK  1 active torsions:
REMARK  status: ('A' for Active; 'I' for Inactive)
REMARK    1  A    between atoms: C2_2  and  C4_4 
ROOT
HETATM    1  C1  UNL     1     -43.286   5.761   0.130  1.00 20.00     0.207 A 
HETATM    2  C2  UNL     1     -41.818   6.114   0.089  1.00 20.00     0.091 A 
HETATM    3  C3  UNL     1     -40.947   5.516  -0.967  1.00 20.00     0.049 C 
HETATM    4  O5  UNL     1     -42.336   5.156   1.022  1.00 20.00    -0.374 OA
ENDROOT
BRANCH   2   5
HETATM    5  C4  UNL     1     -41.348   7.382   0.727  1.00 20.00     0.154 C 
HETATM    6 CL6  UNL     1     -41.186   8.686  -0.479  1.00 20.00    -0.127 Cl
ENDBRANCH   2   5
TORSDOF 1
ENDMDL
