MODEL 1
REMARK VINA RESULT:      -4.6      0.000      0.000
REMARK  1 active torsions:
REMARK  status: ('A' for Active; 'I' for Inactive)
REMARK    1  A    between atoms: C8_8  and  O9_9 
ROOT
HETATM    1  C1  UNL     1     -42.452   7.878  -1.463  1.00 20.00     0.010 C 
HETATM    2  C2  UNL     1     -41.148   5.928  -1.120  1.00 20.00     0.012 C 
HETATM    3  C3  UNL     1     -41.443   7.641   0.670  1.00 20.00     0.012 C 
HETATM    4  C4  UNL     1     -41.136   7.437  -0.823  1.00 20.00    -0.013 C 
HETATM    5  C5  UNL     1     -43.328   6.911  -0.683  1.00 20.00    -0.001 C 
HETATM    6  C6  UNL     1     -42.584   5.537  -0.726  1.00 20.00     0.019 C 
HETATM    7  C7  UNL     1     -42.837   6.996   0.800  1.00 20.00     0.019 C 
HETATM    8  C8  UNL     1     -42.875   5.442   0.799  1.00 20.00     0.127 C 
ENDROOT
BRANCH   8   9
HETATM    9  O9  UNL     1     -41.895   4.763   1.603  1.00 20.00    -0.395 OA
HETATM   10  H21 UNL     1     -41.904   3.843   1.309  1.00 20.00     0.210 HD
ENDBRANCH   8   9
TORSDOF 1
ENDMDL
MODEL 2
REMARK VINA RESULT:      -4.6      1.317      2.518
REMARK  1 active torsions:
REMARK  status: ('A' for Active; 'I' for Inactive)
REMARK    1  A    between atoms: C8_8  and  O9_9 
ROOT
HETATM    1  C1  UNL     1     -42.291   8.913   0.320  1.00 20.00     0.010 C 
HETATM    2  C2  UNL     1     -42.722   6.684   1.004  1.00 20.00     0.012 C 
HETATM    3  C3  UNL     1     -43.250   7.475  -1.303  1.00 20.00     0.012 C 
HETATM    4  C4  UNL     1     -43.357   7.825   0.190  1.00 20.00    -0.013 C 
HETATM    5  C5  UNL     1     -41.151   8.072  -0.230  1.00 20.00    -0.001 C 
HETATM    6  C6  UNL     1     -41.277   6.680   0.472  1.00 20.00     0.019 C 
HETATM    7  C7  UNL     1     -41.726   7.353  -1.494  1.00 20.00     0.019 C 
HETATM    8  C8  UNL     1     -41.068   6.059  -0.938  1.00 20.00     0.127 C 
ENDROOT
BRANCH   8   9
HETATM    9  O9  UNL     1     -41.740   4.817  -1.205  1.00 20.00    -0.395 OA
HETATM   10  H21 UNL     1     -42.290   4.643  -0.430  1.00 20.00     0.210 HD
ENDBRANCH   8   9
TORSDOF 1
ENDMDL
MODEL 3
REMARK VINA RESULT:      -4.6      1.857      2.911
REMARK  1 active torsions:
REMARK  status: ('A' for Active; 'I' for Inactive)
REMARK    1  A    between atoms: C8_8  and  O9_9 
ROOT
HETATM    1  C1  UNL     1     -42.219   5.461  -0.841  1.00 20.00     0.010 C 
HETATM    2  C2  UNL     1     -43.361   7.487  -1.303  1.00 20.00     0.012 C 
HETATM    3  C3  UNL     1     -42.695   6.856   1.017  1.00 20.00     0.012 C 
HETATM    4  C4  UNL     1     -43.338   6.338  -0.280  1.00 20.00    -0.013 C 
HETATM    5  C5  UNL     1     -41.162   6.554  -0.847  1.00 20.00    -0.001 C 
HETATM    6  C6  UNL     1     -41.863   7.817  -1.445  1.00 20.00     0.019 C 
HETATM    7  C7  UNL     1     -41.295   7.279   0.532  1.00 20.00     0.019 C 
HETATM    8  C8  UNL     1     -41.222   8.609  -0.270  1.00 20.00     0.127 C 
ENDROOT
BRANCH   8   9
HETATM    9  O9  UNL     1     -41.970   9.724   0.243  1.00 20.00    -0.395 OA
HETATM   10  H21 UNL     1     -41.430  10.507   0.068  1.00 20.00     0.210 HD
ENDBRANCH   8   9
TORSDOF 1
ENDMDL
MODEL 4
REMARK VINA RESULT:      -4.4      1.342      1.718
REMARK  1 active torsions:
REMARK  status: ('A' for Active; 'I' for Inactive)
REMARK    1  A    between atoms: C8_8  and  O9_9 
ROOT
HETATM    1  C1  UNL     1     -43.288   8.329   0.343  1.00 20.00     0.010 C 
HETATM    2  C2  UNL     1     -41.900   7.893  -1.529  1.00 20.00     0.012 C 
HETATM    3  C3  UNL     1     -41.164   7.376   0.799  1.00 20.00     0.012 C 
HETATM    4  C4  UNL     1     -41.827   8.440  -0.093  1.00 20.00    -0.013 C 
HETATM    5  C5  UNL     1     -43.417   6.842   0.053  1.00 20.00    -0.001 C 
HETATM    6  C6  UNL     1     -42.751   6.624  -1.345  1.00 20.00     0.019 C 
HETATM    7  C7  UNL     1     -42.126   6.182   0.639  1.00 20.00     0.019 C 
HETATM    8  C8  UNL     1     -42.033   5.403  -0.704  1.00 20.00     0.127 C 
ENDROOT
BRANCH   8   9
HETATM    9  O9  UNL     1     -40.716   5.098  -1.192  1.00 20.00    -0.395 OA
HETATM   10  H21 UNL     1     -40.119   5.228  -0.443  1.00 20.00     0.210 HD
ENDBRANCH   8   9
TORSDOF 1
ENDMDL
MODEL 5
REMARK VINA RESULT:      -4.4     22.996     23.857
REMARK  1 active torsions:
REMARK  status: ('A' for Active; 'I' for Inactive)
REMARK    1  A    between atoms: C8_8  and  O9_9 
ROOT
HETATM    1  C1  UNL     1     -22.608  18.145  10.689  1.00 20.00     0.010 C 
HETATM    2  C2  UNL     1     -24.914  18.603  10.382  1.00 20.00     0.012 C 
HETATM    3  C3  UNL     1     -23.983  16.306  10.094  1.00 20.00     0.012 C 
HETATM    4  C4  UNL     1     -23.767  17.791   9.757  1.00 20.00    -0.013 C 
HETATM    5  C5  UNL     1     -23.304  17.702  11.966  1.00 20.00    -0.001 C 
HETATM    6  C6  UNL     1     -24.755  18.279  11.879  1.00 20.00     0.019 C 
HETATM    7  C7  UNL     1     -23.960  16.322  11.635  1.00 20.00     0.019 C 
HETATM    8  C8  UNL     1     -25.237  16.872  12.332  1.00 20.00     0.127 C 
ENDROOT
BRANCH   8   9
HETATM    9  O9  UNL     1     -26.504  16.427  11.821  1.00 20.00    -0.395 OA
HETATM   10  H21 UNL     1     -26.750  15.660  12.354  1.00 20.00     0.210 HD
ENDBRANCH   8   9
TORSDOF 1
ENDMDL
MODEL 6
REMARK VINA RESULT:      -4.4     11.495     12.439
REMARK  1 active torsions:
REMARK  status: ('A' for Active; 'I' for Inactive)
REMARK    1  A    between atoms: C8_8  and  O9_9 
ROOT
HETATM    1  C1  UNL     1     -34.191  15.958  -2.593  1.00 20.00     0.010 C 
HETATM    2  C2  UNL     1     -34.437  16.623  -4.855  1.00 20.00     0.012 C 
HETATM    3  C3  UNL     1     -33.285  14.499  -4.228  1.00 20.00     0.012 C 
HETATM    4  C4  UNL     1     -33.404  15.998  -3.902  1.00 20.00    -0.013 C 
HETATM    5  C5  UNL     1     -35.361  15.161  -3.146  1.00 20.00    -0.001 C 
HETATM    6  C6  UNL     1     -35.706  15.816  -4.523  1.00 20.00     0.019 C 
HETATM    7  C7  UNL     1     -34.726  14.006  -3.988  1.00 20.00     0.019 C 
HETATM    8  C8  UNL     1     -35.765  14.368  -5.087  1.00 20.00     0.127 C 
ENDROOT
BRANCH   8   9
HETATM    9  O9  UNL     1     -35.359  14.190  -6.455  1.00 20.00    -0.395 OA
HETATM   10  H21 UNL     1     -35.056  15.056  -6.756  1.00 20.00     0.210 HD
ENDBRANCH   8   9
TORSDOF 1
ENDMDL
MODEL 7
REMARK VINA RESULT:      -4.3     11.049     12.147
REMARK  1 active torsions:
REMARK  status: ('A' for Active; 'I' for Inactive)
REMARK    1  A    between atoms: C8_8  and  O9_9 
ROOT
HETATM    1  C1  UNL     1     -34.025  16.826  -4.253  1.00 20.00     0.010 C 
HETATM    2  C2  UNL     1     -33.339  14.568  -4.477  1.00 20.00     0.012 C 
HETATM    3  C3  UNL     1     -35.060  15.257  -2.807  1.00 20.00     0.012 C 
HETATM    4  C4  UNL     1     -33.684  15.607  -3.396  1.00 20.00    -0.013 C 
HETATM    5  C5  UNL     1     -35.100  16.134  -5.076  1.00 20.00    -0.001 C 
HETATM    6  C6  UNL     1     -34.501  14.745  -5.472  1.00 20.00     0.019 C 
HETATM    7  C7  UNL     1     -35.968  15.333  -4.050  1.00 20.00     0.019 C 
HETATM    8  C8  UNL     1     -35.868  14.142  -5.044  1.00 20.00     0.127 C 
ENDROOT
BRANCH   8   9
HETATM    9  O9  UNL     1     -35.844  12.820  -4.480  1.00 20.00    -0.395 OA
HETATM   10  H21 UNL     1     -36.234  12.241  -5.148  1.00 20.00     0.210 HD
ENDBRANCH   8   9
TORSDOF 1
ENDMDL
MODEL 8
REMARK VINA RESULT:      -4.3     23.238     24.303
REMARK  1 active torsions:
REMARK  status: ('A' for Active; 'I' for Inactive)
REMARK    1  A    between atoms: C8_8  and  O9_9 
ROOT
HETATM    1  C1  UNL     1     -23.226  18.904   9.323  1.00 20.00     0.010 C 
HETATM    2  C2  UNL     1     -22.951  16.549   9.355  1.00 20.00     0.012 C 
HETATM    3  C3  UNL     1     -21.954  18.011  11.114  1.00 20.00     0.012 C 
HETATM    4  C4  UNL     1     -22.159  17.845   9.599  1.00 20.00    -0.013 C 
HETATM    5  C5  UNL     1     -24.229  18.372  10.334  1.00 20.00    -0.001 C 
HETATM    6  C6  UNL     1     -24.254  16.822  10.129  1.00 20.00     0.019 C 
HETATM    7  C7  UNL     1     -23.405  18.068  11.628  1.00 20.00     0.019 C 
HETATM    8  C8  UNL     1     -24.167  16.713  11.678  1.00 20.00     0.127 C 
ENDROOT
BRANCH   8   9
HETATM    9  O9  UNL     1     -23.456  15.582  12.208  1.00 20.00    -0.395 OA
HETATM   10  H21 UNL     1     -22.524  15.736  12.004  1.00 20.00     0.210 HD
ENDBRANCH   8   9
TORSDOF 1
ENDMDL
MODEL 9
REMARK VINA RESULT:      -4.3     11.879     12.808
REMARK  1 active torsions:
REMARK  status: ('A' for Active; 'I' for Inactive)
REMARK    1  A    between atoms: C8_8  and  O9_9 
ROOT
HETATM    1  C1  UNL     1     -35.586  16.497  -2.699  1.00 20.00     0.010 C 
HETATM    2  C2  UNL     1     -35.830  15.160  -4.641  1.00 20.00     0.012 C 
HETATM    3  C3  UNL     1     -34.257  17.096  -4.569  1.00 20.00     0.012 C 
HETATM    4  C4  UNL     1     -35.681  16.632  -4.218  1.00 20.00    -0.013 C 
HETATM    5  C5  UNL     1     -34.406  15.539  -2.707  1.00 20.00    -0.001 C 
HETATM    6  C6  UNL     1     -34.733  14.475  -3.806  1.00 20.00     0.019 C 
HETATM    7  C7  UNL     1     -33.392  16.125  -3.743  1.00 20.00     0.019 C 
HETATM    8  C8  UNL     1     -33.271  14.677  -4.297  1.00 20.00     0.127 C 
ENDROOT
BRANCH   8   9
HETATM    9  O9  UNL     1     -33.037  14.533  -5.708  1.00 20.00    -0.395 OA
HETATM   10  H21 UNL     1     -33.149  15.416  -6.085  1.00 20.00     0.210 HD
ENDBRANCH   8   9
TORSDOF 1
ENDMDL
