MODEL 1
REMARK VINA RESULT:      -4.8      0.000      0.000
REMARK  0 active torsions:
REMARK  status: ('A' for Active; 'I' for Inactive)
ROOT
HETATM    1  C1  UNL     1     -34.858  15.974  -2.215  1.00 20.00    -0.024 C 
HETATM    2  C2  UNL     1     -33.725  15.871  -2.925  1.00 20.00    -0.024 C 
HETATM    3  C3  UNL     1     -35.633  14.045  -4.439  1.00 20.00     0.164 C 
HETATM    4  C4  UNL     1     -35.278  16.931  -4.290  1.00 20.00     0.021 C 
HETATM    5  C5  UNL     1     -36.017  16.233  -3.145  1.00 20.00     0.034 C 
HETATM    6  C6  UNL     1     -34.028  16.053  -4.392  1.00 20.00     0.034 C 
HETATM    7  C7  UNL     1     -36.609  14.898  -3.620  1.00 20.00     0.161 C 
HETATM    8  C8  UNL     1     -34.372  14.696  -5.022  1.00 20.00     0.161 C 
HETATM    9  O9  UNL     1     -35.891  12.862  -4.681  1.00 20.00    -0.295 OA
HETATM   10 CL10 UNL     1     -38.039  15.166  -4.654  1.00 20.00    -0.116 Cl
HETATM   11 CL11 UNL     1     -34.650  14.859  -6.776  1.00 20.00    -0.116 Cl
ENDROOT
TORSDOF 0
ENDMDL
MODEL 2
REMARK VINA RESULT:      -4.6      1.661      3.071
REMARK  0 active torsions:
REMARK  status: ('A' for Active; 'I' for Inactive)
ROOT
HETATM    1  C1  UNL     1     -33.226  16.043  -3.375  1.00 20.00    -0.024 C 
HETATM    2  C2  UNL     1     -34.212  16.025  -2.468  1.00 20.00    -0.024 C 
HETATM    3  C3  UNL     1     -35.705  16.541  -5.070  1.00 20.00     0.164 C 
HETATM    4  C4  UNL     1     -34.529  14.178  -3.841  1.00 20.00     0.021 C 
HETATM    5  C5  UNL     1     -33.597  15.166  -4.545  1.00 20.00     0.034 C 
HETATM    6  C6  UNL     1     -35.329  15.134  -2.952  1.00 20.00     0.034 C 
HETATM    7  C7  UNL     1     -34.369  15.990  -5.586  1.00 20.00     0.161 C 
HETATM    8  C8  UNL     1     -36.318  15.953  -3.792  1.00 20.00     0.161 C 
HETATM    9  O9  UNL     1     -36.311  17.405  -5.711  1.00 20.00    -0.295 OA
HETATM   10 CL10 UNL     1     -34.750  15.005  -7.024  1.00 20.00    -0.116 Cl
HETATM   11 CL11 UNL     1     -37.700  14.951  -4.308  1.00 20.00    -0.116 Cl
ENDROOT
TORSDOF 0
ENDMDL
MODEL 3
REMARK VINA RESULT:      -4.5      1.064      1.141
REMARK  0 active torsions:
REMARK  status: ('A' for Active; 'I' for Inactive)
ROOT
HETATM    1  C1  UNL     1     -35.102  16.134  -2.392  1.00 20.00    -0.024 C 
HETATM    2  C2  UNL     1     -34.217  15.379  -3.058  1.00 20.00    -0.024 C 
HETATM    3  C3  UNL     1     -36.856  14.635  -4.377  1.00 20.00     0.164 C 
HETATM    4  C4  UNL     1     -35.062  16.919  -4.578  1.00 20.00     0.021 C 
HETATM    5  C5  UNL     1     -36.002  16.842  -3.373  1.00 20.00     0.034 C 
HETATM    6  C6  UNL     1     -34.448  15.517  -4.542  1.00 20.00     0.034 C 
HETATM    7  C7  UNL     1     -37.218  15.959  -3.692  1.00 20.00     0.161 C 
HETATM    8  C8  UNL     1     -35.468  14.468  -5.007  1.00 20.00     0.161 C 
HETATM    9  O9  UNL     1     -37.697  13.735  -4.476  1.00 20.00    -0.295 OA
HETATM   10 CL10 UNL     1     -38.350  16.801  -4.783  1.00 20.00    -0.116 Cl
HETATM   11 CL11 UNL     1     -35.700  14.543  -6.774  1.00 20.00    -0.116 Cl
ENDROOT
TORSDOF 0
ENDMDL
MODEL 4
REMARK VINA RESULT:      -4.4      1.811      2.195
REMARK  0 active torsions:
REMARK  status: ('A' for Active; 'I' for Inactive)
ROOT
HETATM    1  C1  UNL     1     -33.301  16.466  -2.719  1.00 20.00    -0.024 C 
HETATM    2  C2  UNL     1     -33.458  17.550  -3.491  1.00 20.00    -0.024 C 
HETATM    3  C3  UNL     1     -34.128  15.271  -5.393  1.00 20.00     0.164 C 
HETATM    4  C4  UNL     1     -35.562  16.599  -3.235  1.00 20.00     0.021 C 
HETATM    5  C5  UNL     1     -34.499  15.562  -2.866  1.00 20.00     0.034 C 
HETATM    6  C6  UNL     1     -34.775  17.466  -4.222  1.00 20.00     0.034 C 
HETATM    7  C7  UNL     1     -34.271  14.585  -4.029  1.00 20.00     0.161 C 
HETATM    8  C8  UNL     1     -34.581  16.728  -5.554  1.00 20.00     0.161 C 
HETATM    9  O9  UNL     1     -33.711  14.638  -6.369  1.00 20.00    -0.295 OA
HETATM   10 CL10 UNL     1     -35.632  13.441  -4.178  1.00 20.00    -0.116 Cl
HETATM   11 CL11 UNL     1     -36.101  16.686  -6.487  1.00 20.00    -0.116 Cl
ENDROOT
TORSDOF 0
ENDMDL
MODEL 5
REMARK VINA RESULT:      -4.3      1.351      1.871
REMARK  0 active torsions:
REMARK  status: ('A' for Active; 'I' for Inactive)
ROOT
HETATM    1  C1  UNL     1     -36.645  16.712  -3.432  1.00 20.00    -0.024 C 
HETATM    2  C2  UNL     1     -35.651  16.438  -2.576  1.00 20.00    -0.024 C 
HETATM    3  C3  UNL     1     -35.576  14.058  -4.470  1.00 20.00     0.164 C 
HETATM    4  C4  UNL     1     -34.667  16.818  -4.645  1.00 20.00     0.021 C 
HETATM    5  C5  UNL     1     -36.157  16.533  -4.848  1.00 20.00     0.034 C 
HETATM    6  C6  UNL     1     -34.411  16.053  -3.344  1.00 20.00     0.034 C 
HETATM    7  C7  UNL     1     -36.373  15.079  -5.291  1.00 20.00     0.161 C 
HETATM    8  C8  UNL     1     -34.409  14.539  -3.598  1.00 20.00     0.161 C 
HETATM    9  O9  UNL     1     -35.830  12.852  -4.559  1.00 20.00    -0.295 OA
HETATM   10 CL10 UNL     1     -35.887  14.851  -6.993  1.00 20.00    -0.116 Cl
HETATM   11 CL11 UNL     1     -32.914  14.034  -4.429  1.00 20.00    -0.116 Cl
ENDROOT
TORSDOF 0
ENDMDL
MODEL 6
REMARK VINA RESULT:      -4.2      2.573      3.080
REMARK  0 active torsions:
REMARK  status: ('A' for Active; 'I' for Inactive)
ROOT
HETATM    1  C1  UNL     1     -34.123  14.458  -4.070  1.00 20.00    -0.024 C 
HETATM    2  C2  UNL     1     -33.007  15.177  -3.885  1.00 20.00    -0.024 C 
HETATM    3  C3  UNL     1     -34.996  17.266  -4.857  1.00 20.00     0.164 C 
HETATM    4  C4  UNL     1     -34.550  15.919  -2.315  1.00 20.00     0.021 C 
HETATM    5  C5  UNL     1     -35.290  15.157  -3.417  1.00 20.00     0.034 C 
HETATM    6  C6  UNL     1     -33.330  16.419  -3.092  1.00 20.00     0.034 C 
HETATM    7  C7  UNL     1     -35.931  16.134  -4.412  1.00 20.00     0.161 C 
HETATM    8  C8  UNL     1     -33.726  17.554  -4.046  1.00 20.00     0.161 C 
HETATM    9  O9  UNL     1     -35.295  17.979  -5.820  1.00 20.00    -0.295 OA
HETATM   10 CL10 UNL     1     -37.370  16.916  -3.702  1.00 20.00    -0.116 Cl
HETATM   11 CL11 UNL     1     -34.030  19.066  -3.149  1.00 20.00    -0.116 Cl
ENDROOT
TORSDOF 0
ENDMDL
MODEL 7
REMARK VINA RESULT:      -4.2      1.943      2.873
REMARK  0 active torsions:
REMARK  status: ('A' for Active; 'I' for Inactive)
ROOT
HETATM    1  C1  UNL     1     -33.111  15.853  -3.448  1.00 20.00    -0.024 C 
HETATM    2  C2  UNL     1     -33.267  17.149  -3.148  1.00 20.00    -0.024 C 
HETATM    3  C3  UNL     1     -35.687  16.571  -4.901  1.00 20.00     0.164 C 
HETATM    4  C4  UNL     1     -35.013  16.009  -2.125  1.00 20.00     0.021 C 
HETATM    5  C5  UNL     1     -34.407  15.118  -3.211  1.00 20.00     0.034 C 
HETATM    6  C6  UNL     1     -34.681  17.395  -2.683  1.00 20.00     0.034 C 
HETATM    7  C7  UNL     1     -35.265  15.157  -4.484  1.00 20.00     0.161 C 
HETATM    8  C8  UNL     1     -35.574  17.719  -3.890  1.00 20.00     0.161 C 
HETATM    9  O9  UNL     1     -36.173  16.772  -6.018  1.00 20.00    -0.295 OA
HETATM   10 CL10 UNL     1     -36.770  14.222  -4.268  1.00 20.00    -0.116 Cl
HETATM   11 CL11 UNL     1     -37.236  18.102  -3.369  1.00 20.00    -0.116 Cl
ENDROOT
TORSDOF 0
ENDMDL
MODEL 8
REMARK VINA RESULT:      -4.1      2.507      3.274
REMARK  0 active torsions:
REMARK  status: ('A' for Active; 'I' for Inactive)
ROOT
HETATM    1  C1  UNL     1     -35.880  13.755  -4.478  1.00 20.00    -0.024 C 
HETATM    2  C2  UNL     1     -35.941  14.264  -5.716  1.00 20.00    -0.024 C 
HETATM    3  C3  UNL     1     -35.840  16.756  -3.971  1.00 20.00     0.164 C 
HETATM    4  C4  UNL     1     -33.854  14.823  -4.863  1.00 20.00     0.021 C 
HETATM    5  C5  UNL     1     -34.775  14.431  -3.705  1.00 20.00     0.034 C 
HETATM    6  C6  UNL     1     -34.881  15.325  -5.880  1.00 20.00     0.034 C 
HETATM    7  C7  UNL     1     -35.323  15.682  -3.005  1.00 20.00     0.161 C 
HETATM    8  C8  UNL     1     -35.443  16.688  -5.451  1.00 20.00     0.161 C 
HETATM    9  O9  UNL     1     -36.515  17.700  -3.550  1.00 20.00    -0.295 OA
HETATM   10 CL10 UNL     1     -34.063  16.461  -2.010  1.00 20.00    -0.116 Cl
HETATM   11 CL11 UNL     1     -34.245  17.983  -5.715  1.00 20.00    -0.116 Cl
ENDROOT
TORSDOF 0
ENDMDL
MODEL 9
REMARK VINA RESULT:      -4.1      2.460      3.284
REMARK  0 active torsions:
REMARK  status: ('A' for Active; 'I' for Inactive)
ROOT
HETATM    1  C1  UNL     1     -34.898  15.959  -2.208  1.00 20.00    -0.024 C 
HETATM    2  C2  UNL     1     -35.329  15.022  -3.064  1.00 20.00    -0.024 C 
HETATM    3  C3  UNL     1     -35.080  17.483  -4.837  1.00 20.00     0.164 C 
HETATM    4  C4  UNL     1     -33.174  15.587  -3.719  1.00 20.00     0.021 C 
HETATM    5  C5  UNL     1     -33.720  16.687  -2.806  1.00 20.00     0.034 C 
HETATM    6  C6  UNL     1     -34.477  15.041  -4.308  1.00 20.00     0.034 C 
HETATM    7  C7  UNL     1     -34.214  17.881  -3.634  1.00 20.00     0.161 C 
HETATM    8  C8  UNL     1     -35.066  16.029  -5.325  1.00 20.00     0.161 C 
HETATM    9  O9  UNL     1     -35.732  18.338  -5.445  1.00 20.00    -0.295 OA
HETATM   10 CL10 UNL     1     -32.843  18.818  -4.286  1.00 20.00    -0.116 Cl
HETATM   11 CL11 UNL     1     -34.133  16.013  -6.845  1.00 20.00    -0.116 Cl
ENDROOT
TORSDOF 0
ENDMDL
