MODEL 1
REMARK VINA RESULT:      -4.3      0.000      0.000
REMARK  3 active torsions:
REMARK  status: ('A' for Active; 'I' for Inactive)
REMARK    1  A    between atoms: C7_7  and  C8_8 
REMARK    2  A    between atoms: C7_7  and  N9_9 
REMARK    3  A    between atoms: C8_8  and  N10_10 
ROOT
HETATM    1  C1  UNL     1     -39.274  14.852  -4.100  1.00 20.00     0.157 C 
HETATM    2  N9  UNL     1     -38.458  14.066  -4.408  1.00 20.00    -0.274 NA
HETATM    3  S11 UNL     1     -40.401  15.896  -3.678  1.00 20.00    -0.055 SA
ENDROOT
BRANCH   2   4
HETATM    4  C7  UNL     1     -37.168  14.639  -4.798  1.00 20.00     0.178 C 
BRANCH   4   5
HETATM    5  C8  UNL     1     -36.053  13.665  -4.468  1.00 20.00     0.256 C 
BRANCH   5   6
HETATM    6  N10 UNL     1     -34.952  14.384  -3.738  1.00 20.00    -0.070 N 
HETATM    7  C5  UNL     1     -33.807  14.734  -4.659  1.00 20.00     0.235 C 
HETATM    8  C3  UNL     1     -32.675  15.346  -3.848  1.00 20.00     0.028 C 
HETATM    9  C2  UNL     1     -33.145  16.554  -3.046  1.00 20.00     0.003 C 
HETATM   10  C4  UNL     1     -34.348  16.206  -2.176  1.00 20.00     0.028 C 
HETATM   11  C6  UNL     1     -35.474  15.590  -2.992  1.00 20.00     0.235 C 
HETATM   12  H26 UNL     1     -34.590  13.724  -3.036  1.00 20.00     0.279 HD
ENDBRANCH   5   6
ENDBRANCH   4   5
ENDBRANCH   2   4
TORSDOF 3
ENDMDL
MODEL 2
REMARK VINA RESULT:      -4.1      2.674      3.033
REMARK  3 active torsions:
REMARK  status: ('A' for Active; 'I' for Inactive)
REMARK    1  A    between atoms: C7_7  and  C8_8 
REMARK    2  A    between atoms: C7_7  and  N9_9 
REMARK    3  A    between atoms: C8_8  and  N10_10 
ROOT
HETATM    1  C1  UNL     1     -35.309  14.785  -6.634  1.00 20.00     0.157 C 
HETATM    2  N9  UNL     1     -35.982  14.023  -6.046  1.00 20.00    -0.274 NA
HETATM    3  S11 UNL     1     -34.404  15.804  -7.458  1.00 20.00    -0.055 SA
ENDROOT
BRANCH   2   4
HETATM    4  C7  UNL     1     -35.982  14.198  -4.592  1.00 20.00     0.178 C 
BRANCH   4   5
HETATM    5  C8  UNL     1     -34.570  14.052  -4.058  1.00 20.00     0.256 C 
BRANCH   5   6
HETATM    6  N10 UNL     1     -34.301  15.126  -3.039  1.00 20.00    -0.070 N 
HETATM    7  C5  UNL     1     -33.232  16.084  -3.506  1.00 20.00     0.235 C 
HETATM    8  C3  UNL     1     -32.914  17.070  -2.392  1.00 20.00     0.028 C 
HETATM    9  C2  UNL     1     -34.163  17.805  -1.916  1.00 20.00     0.003 C 
HETATM   10  C4  UNL     1     -35.262  16.826  -1.517  1.00 20.00     0.028 C 
HETATM   11  C6  UNL     1     -35.570  15.839  -2.634  1.00 20.00     0.235 C 
HETATM   12  H26 UNL     1     -33.940  14.647  -2.202  1.00 20.00     0.279 HD
ENDBRANCH   5   6
ENDBRANCH   4   5
ENDBRANCH   2   4
TORSDOF 3
ENDMDL
MODEL 3
REMARK VINA RESULT:      -4.1      1.097      1.972
REMARK  3 active torsions:
REMARK  status: ('A' for Active; 'I' for Inactive)
REMARK    1  A    between atoms: C7_7  and  C8_8 
REMARK    2  A    between atoms: C7_7  and  N9_9 
REMARK    3  A    between atoms: C8_8  and  N10_10 
ROOT
HETATM    1  C1  UNL     1     -38.197  14.615  -4.280  1.00 20.00     0.157 C 
HETATM    2  N9  UNL     1     -37.401  13.775  -4.477  1.00 20.00    -0.274 NA
HETATM    3  S11 UNL     1     -39.296  15.734  -4.002  1.00 20.00    -0.055 SA
ENDROOT
BRANCH   2   4
HETATM    4  C7  UNL     1     -36.142  14.244  -5.060  1.00 20.00     0.178 C 
BRANCH   4   5
HETATM    5  C8  UNL     1     -35.031  14.136  -4.034  1.00 20.00     0.256 C 
BRANCH   5   6
HETATM    6  N10 UNL     1     -34.669  15.508  -3.534  1.00 20.00    -0.070 N 
HETATM    7  C5  UNL     1     -35.285  15.790  -2.184  1.00 20.00     0.235 C 
HETATM    8  C3  UNL     1     -34.990  17.229  -1.784  1.00 20.00     0.028 C 
HETATM    9  C2  UNL     1     -33.494  17.522  -1.796  1.00 20.00     0.003 C 
HETATM   10  C4  UNL     1     -32.871  17.163  -3.141  1.00 20.00     0.028 C 
HETATM   11  C6  UNL     1     -33.174  15.725  -3.536  1.00 20.00     0.235 C 
HETATM   12  H26 UNL     1     -35.076  16.177  -4.202  1.00 20.00     0.279 HD
ENDBRANCH   5   6
ENDBRANCH   4   5
ENDBRANCH   2   4
TORSDOF 3
ENDMDL
MODEL 4
REMARK VINA RESULT:      -4.0      1.518      1.752
REMARK  3 active torsions:
REMARK  status: ('A' for Active; 'I' for Inactive)
REMARK    1  A    between atoms: C7_7  and  C8_8 
REMARK    2  A    between atoms: C7_7  and  N9_9 
REMARK    3  A    between atoms: C8_8  and  N10_10 
ROOT
HETATM    1  C1  UNL     1     -38.152  14.885  -4.265  1.00 20.00     0.157 C 
HETATM    2  N9  UNL     1     -37.727  13.807  -4.458  1.00 20.00    -0.274 NA
HETATM    3  S11 UNL     1     -38.757  16.335  -4.006  1.00 20.00    -0.055 SA
ENDROOT
BRANCH   2   4
HETATM    4  C7  UNL     1     -36.266  13.719  -4.494  1.00 20.00     0.178 C 
BRANCH   4   5
HETATM    5  C8  UNL     1     -35.727  14.587  -5.615  1.00 20.00     0.256 C 
BRANCH   5   6
HETATM    6  N10 UNL     1     -34.687  15.528  -5.071  1.00 20.00    -0.070 N 
HETATM    7  C5  UNL     1     -35.127  16.968  -5.179  1.00 20.00     0.235 C 
HETATM    8  C3  UNL     1     -33.993  17.879  -4.731  1.00 20.00     0.028 C 
HETATM    9  C2  UNL     1     -33.518  17.537  -3.324  1.00 20.00     0.003 C 
HETATM   10  C4  UNL     1     -33.147  16.062  -3.208  1.00 20.00     0.028 C 
HETATM   11  C6  UNL     1     -34.284  15.158  -3.663  1.00 20.00     0.235 C 
HETATM   12  H26 UNL     1     -33.855  15.416  -5.667  1.00 20.00     0.279 HD
ENDBRANCH   5   6
ENDBRANCH   4   5
ENDBRANCH   2   4
TORSDOF 3
ENDMDL
MODEL 5
REMARK VINA RESULT:      -3.9     17.486     18.311
REMARK  3 active torsions:
REMARK  status: ('A' for Active; 'I' for Inactive)
REMARK    1  A    between atoms: C7_7  and  C8_8 
REMARK    2  A    between atoms: C7_7  and  N9_9 
REMARK    3  A    between atoms: C8_8  and  N10_10 
ROOT
HETATM    1  C1  UNL     1     -28.614  18.562  11.607  1.00 20.00     0.157 C 
HETATM    2  N9  UNL     1     -27.626  18.132  12.074  1.00 20.00    -0.274 NA
HETATM    3  S11 UNL     1     -29.970  19.119  10.983  1.00 20.00    -0.055 SA
ENDROOT
BRANCH   2   4
HETATM    4  C7  UNL     1     -26.465  19.020  11.980  1.00 20.00     0.178 C 
BRANCH   4   5
HETATM    5  C8  UNL     1     -26.123  19.263  10.522  1.00 20.00     0.256 C 
BRANCH   5   6
HETATM    6  N10 UNL     1     -24.677  18.924  10.278  1.00 20.00    -0.070 N 
HETATM    7  C5  UNL     1     -24.172  17.895  11.262  1.00 20.00     0.235 C 
HETATM    8  C3  UNL     1     -22.680  17.682  11.049  1.00 20.00     0.028 C 
HETATM    9  C2  UNL     1     -22.366  17.291   9.609  1.00 20.00     0.003 C 
HETATM   10  C4  UNL     1     -22.946  18.299   8.623  1.00 20.00     0.028 C 
HETATM   11  C6  UNL     1     -24.436  18.511   8.845  1.00 20.00     0.235 C 
HETATM   12  H26 UNL     1     -24.145  19.790  10.440  1.00 20.00     0.279 HD
ENDBRANCH   5   6
ENDBRANCH   4   5
ENDBRANCH   2   4
TORSDOF 3
ENDMDL
MODEL 6
REMARK VINA RESULT:      -3.8      1.747      1.816
REMARK  3 active torsions:
REMARK  status: ('A' for Active; 'I' for Inactive)
REMARK    1  A    between atoms: C7_7  and  C8_8 
REMARK    2  A    between atoms: C7_7  and  N9_9 
REMARK    3  A    between atoms: C8_8  and  N10_10 
ROOT
HETATM    1  C1  UNL     1     -37.966  16.421  -5.975  1.00 20.00     0.157 C 
HETATM    2  N9  UNL     1     -38.537  15.544  -5.443  1.00 20.00    -0.274 NA
HETATM    3  S11 UNL     1     -37.214  17.612  -6.719  1.00 20.00    -0.055 SA
ENDROOT
BRANCH   2   4
HETATM    4  C7  UNL     1     -37.879  15.020  -4.244  1.00 20.00     0.178 C 
BRANCH   4   5
HETATM    5  C8  UNL     1     -36.742  14.100  -4.645  1.00 20.00     0.256 C 
BRANCH   5   6
HETATM    6  N10 UNL     1     -35.480  14.519  -3.941  1.00 20.00    -0.070 N 
HETATM    7  C5  UNL     1     -34.331  14.688  -4.906  1.00 20.00     0.235 C 
HETATM    8  C3  UNL     1     -33.058  14.990  -4.130  1.00 20.00     0.028 C 
HETATM    9  C2  UNL     1     -33.223  16.209  -3.229  1.00 20.00     0.003 C 
HETATM   10  C4  UNL     1     -34.431  16.057  -2.310  1.00 20.00     0.028 C 
HETATM   11  C6  UNL     1     -35.699  15.750  -3.092  1.00 20.00     0.235 C 
HETATM   12  H26 UNL     1     -35.234  13.749  -3.303  1.00 20.00     0.279 HD
ENDBRANCH   5   6
ENDBRANCH   4   5
ENDBRANCH   2   4
TORSDOF 3
ENDMDL
MODEL 7
REMARK VINA RESULT:      -3.8      4.373      6.262
REMARK  3 active torsions:
REMARK  status: ('A' for Active; 'I' for Inactive)
REMARK    1  A    between atoms: C7_7  and  C8_8 
REMARK    2  A    between atoms: C7_7  and  N9_9 
REMARK    3  A    between atoms: C8_8  and  N10_10 
ROOT
HETATM    1  C1  UNL     1     -31.107  18.564   0.358  1.00 20.00     0.157 C 
HETATM    2  N9  UNL     1     -30.880  18.436  -0.787  1.00 20.00    -0.274 NA
HETATM    3  S11 UNL     1     -31.385  18.729   1.917  1.00 20.00    -0.055 SA
ENDROOT
BRANCH   2   4
HETATM    4  C7  UNL     1     -32.013  18.713  -1.673  1.00 20.00     0.178 C 
BRANCH   4   5
HETATM    5  C8  UNL     1     -33.261  18.039  -1.135  1.00 20.00     0.256 C 
BRANCH   5   6
HETATM    6  N10 UNL     1     -33.893  17.207  -2.218  1.00 20.00    -0.070 N 
HETATM    7  C5  UNL     1     -32.871  16.367  -2.945  1.00 20.00     0.235 C 
HETATM    8  C3  UNL     1     -33.542  15.643  -4.103  1.00 20.00     0.028 C 
HETATM    9  C2  UNL     1     -34.729  14.809  -3.635  1.00 20.00     0.003 C 
HETATM   10  C4  UNL     1     -35.718  15.653  -2.837  1.00 20.00     0.028 C 
HETATM   11  C6  UNL     1     -35.039  16.378  -1.685  1.00 20.00     0.235 C 
HETATM   12  H26 UNL     1     -34.287  17.869  -2.900  1.00 20.00     0.279 HD
ENDBRANCH   5   6
ENDBRANCH   4   5
ENDBRANCH   2   4
TORSDOF 3
ENDMDL
MODEL 8
REMARK VINA RESULT:      -3.8     17.710     18.813
REMARK  3 active torsions:
REMARK  status: ('A' for Active; 'I' for Inactive)
REMARK    1  A    between atoms: C7_7  and  C8_8 
REMARK    2  A    between atoms: C7_7  and  N9_9 
REMARK    3  A    between atoms: C8_8  and  N10_10 
ROOT
HETATM    1  C1  UNL     1     -22.595  17.872   7.662  1.00 20.00     0.157 C 
HETATM    2  N9  UNL     1     -23.549  18.487   7.363  1.00 20.00    -0.274 NA
HETATM    3  S11 UNL     1     -21.293  17.035   8.038  1.00 20.00    -0.055 SA
ENDROOT
BRANCH   2   4
HETATM    4  C7  UNL     1     -24.401  18.887   8.486  1.00 20.00     0.178 C 
BRANCH   4   5
HETATM    5  C8  UNL     1     -23.605  18.835   9.776  1.00 20.00     0.256 C 
BRANCH   5   6
HETATM    6  N10 UNL     1     -24.508  18.434  10.911  1.00 20.00    -0.070 N 
HETATM    7  C5  UNL     1     -25.877  19.057  10.783  1.00 20.00     0.235 C 
HETATM    8  C3  UNL     1     -26.704  18.720  12.014  1.00 20.00     0.028 C 
HETATM    9  C2  UNL     1     -26.787  17.215  12.243  1.00 20.00     0.003 C 
HETATM   10  C4  UNL     1     -25.398  16.586  12.297  1.00 20.00     0.028 C 
HETATM   11  C6  UNL     1     -24.575  16.932  11.065  1.00 20.00     0.235 C 
HETATM   12  H26 UNL     1     -24.079  18.810  11.769  1.00 20.00     0.279 HD
ENDBRANCH   5   6
ENDBRANCH   4   5
ENDBRANCH   2   4
TORSDOF 3
ENDMDL
MODEL 9
REMARK VINA RESULT:      -3.8      4.442      6.179
REMARK  3 active torsions:
REMARK  status: ('A' for Active; 'I' for Inactive)
REMARK    1  A    between atoms: C7_7  and  C8_8 
REMARK    2  A    between atoms: C7_7  and  N9_9 
REMARK    3  A    between atoms: C8_8  and  N10_10 
ROOT
HETATM    1  C1  UNL     1     -31.208  18.665  -0.318  1.00 20.00     0.157 C 
HETATM    2  N9  UNL     1     -31.502  18.898  -1.430  1.00 20.00    -0.274 NA
HETATM    3  S11 UNL     1     -30.789  18.372   1.191  1.00 20.00    -0.055 SA
ENDROOT
BRANCH   2   4
HETATM    4  C7  UNL     1     -32.564  18.051  -1.977  1.00 20.00     0.178 C 
BRANCH   4   5
HETATM    5  C8  UNL     1     -32.847  18.447  -3.413  1.00 20.00     0.256 C 
BRANCH   5   6
HETATM    6  N10 UNL     1     -33.128  17.215  -4.231  1.00 20.00    -0.070 N 
HETATM    7  C5  UNL     1     -33.138  15.969  -3.379  1.00 20.00     0.235 C 
HETATM    8  C3  UNL     1     -33.303  14.748  -4.270  1.00 20.00     0.028 C 
HETATM    9  C2  UNL     1     -34.551  14.848  -5.141  1.00 20.00     0.003 C 
HETATM   10  C4  UNL     1     -34.563  16.147  -5.941  1.00 20.00     0.028 C 
HETATM   11  C6  UNL     1     -34.393  17.363  -5.044  1.00 20.00     0.235 C 
HETATM   12  H26 UNL     1     -32.347  17.125  -4.896  1.00 20.00     0.279 HD
ENDBRANCH   5   6
ENDBRANCH   4   5
ENDBRANCH   2   4
TORSDOF 3
ENDMDL
