MODEL 1
REMARK VINA RESULT:      -4.4      0.000      0.000
REMARK  0 active torsions:
REMARK  status: ('A' for Active; 'I' for Inactive)
ROOT
HETATM    1  C1  UNL     1     -35.161  16.399  -4.718  1.00 20.00     0.142 C 
HETATM    2  C2  UNL     1     -35.865  13.523  -4.228  1.00 20.00     0.002 C 
HETATM    3  C3  UNL     1     -36.852  14.525  -4.824  1.00 20.00     0.016 C 
HETATM    4  C4  UNL     1     -34.491  14.103  -3.903  1.00 20.00     0.016 C 
HETATM    5  C5  UNL     1     -36.207  15.688  -5.593  1.00 20.00     0.014 C 
HETATM    6  C6  UNL     1     -34.483  15.607  -3.587  1.00 20.00     0.014 C 
HETATM    7  C7  UNL     1     -35.535  15.210  -6.887  1.00 20.00     0.023 C 
HETATM    8  C8  UNL     1     -37.313  16.696  -5.958  1.00 20.00     0.023 C 
HETATM    9  C9  UNL     1     -35.197  15.914  -2.263  1.00 20.00     0.023 C 
HETATM   10  C10 UNL     1     -33.016  16.065  -3.470  1.00 20.00     0.023 C 
HETATM   11  O11 UNL     1     -34.870  17.582  -4.919  1.00 20.00    -0.296 OA
ENDROOT
TORSDOF 0
ENDMDL
MODEL 2
REMARK VINA RESULT:      -4.4      0.040      3.321
REMARK  0 active torsions:
REMARK  status: ('A' for Active; 'I' for Inactive)
ROOT
HETATM    1  C1  UNL     1     -35.144  16.407  -4.726  1.00 20.00     0.142 C 
HETATM    2  C2  UNL     1     -35.909  13.546  -4.246  1.00 20.00     0.002 C 
HETATM    3  C3  UNL     1     -34.527  14.099  -3.905  1.00 20.00     0.016 C 
HETATM    4  C4  UNL     1     -36.870  14.567  -4.849  1.00 20.00     0.016 C 
HETATM    5  C5  UNL     1     -34.493  15.602  -3.589  1.00 20.00     0.014 C 
HETATM    6  C6  UNL     1     -36.195  15.717  -5.612  1.00 20.00     0.014 C 
HETATM    7  C7  UNL     1     -35.214  15.923  -2.272  1.00 20.00     0.023 C 
HETATM    8  C8  UNL     1     -33.020  16.034  -3.458  1.00 20.00     0.023 C 
HETATM    9  C9  UNL     1     -35.520  15.227  -6.900  1.00 20.00     0.023 C 
HETATM   10  C10 UNL     1     -37.279  16.746  -5.989  1.00 20.00     0.023 C 
HETATM   11  O11 UNL     1     -34.830  17.585  -4.924  1.00 20.00    -0.296 OA
ENDROOT
TORSDOF 0
ENDMDL
MODEL 3
REMARK VINA RESULT:      -4.2      1.468      3.434
REMARK  0 active torsions:
REMARK  status: ('A' for Active; 'I' for Inactive)
ROOT
HETATM    1  C1  UNL     1     -35.954  16.001  -3.836  1.00 20.00     0.142 C 
HETATM    2  C2  UNL     1     -33.005  15.444  -3.778  1.00 20.00     0.002 C 
HETATM    3  C3  UNL     1     -33.585  16.845  -3.590  1.00 20.00     0.016 C 
HETATM    4  C4  UNL     1     -34.048  14.350  -3.996  1.00 20.00     0.016 C 
HETATM    5  C5  UNL     1     -35.006  16.883  -3.006  1.00 20.00     0.014 C 
HETATM    6  C6  UNL     1     -35.361  14.828  -4.635  1.00 20.00     0.014 C 
HETATM    7  C7  UNL     1     -35.033  16.412  -1.546  1.00 20.00     0.023 C 
HETATM    8  C8  UNL     1     -35.510  18.338  -3.060  1.00 20.00     0.023 C 
HETATM    9  C9  UNL     1     -35.159  15.266  -6.092  1.00 20.00     0.023 C 
HETATM   10  C10 UNL     1     -36.361  13.656  -4.611  1.00 20.00     0.023 C 
HETATM   11  O11 UNL     1     -37.167  16.229  -3.860  1.00 20.00    -0.296 OA
ENDROOT
TORSDOF 0
ENDMDL
MODEL 4
REMARK VINA RESULT:      -4.2      1.470      2.497
REMARK  0 active torsions:
REMARK  status: ('A' for Active; 'I' for Inactive)
ROOT
HETATM    1  C1  UNL     1     -35.956  16.000  -3.840  1.00 20.00     0.142 C 
HETATM    2  C2  UNL     1     -33.008  15.443  -3.768  1.00 20.00     0.002 C 
HETATM    3  C3  UNL     1     -34.050  14.349  -3.987  1.00 20.00     0.016 C 
HETATM    4  C4  UNL     1     -33.588  16.844  -3.590  1.00 20.00     0.016 C 
HETATM    5  C5  UNL     1     -35.360  14.824  -4.632  1.00 20.00     0.014 C 
HETATM    6  C6  UNL     1     -35.010  16.886  -3.011  1.00 20.00     0.014 C 
HETATM    7  C7  UNL     1     -35.152  15.257  -6.090  1.00 20.00     0.023 C 
HETATM    8  C8  UNL     1     -36.362  13.654  -4.607  1.00 20.00     0.023 C 
HETATM    9  C9  UNL     1     -35.043  16.421  -1.548  1.00 20.00     0.023 C 
HETATM   10  C10 UNL     1     -35.512  18.342  -3.073  1.00 20.00     0.023 C 
HETATM   11  O11 UNL     1     -37.168  16.231  -3.870  1.00 20.00    -0.296 OA
ENDROOT
TORSDOF 0
ENDMDL
MODEL 5
REMARK VINA RESULT:      -4.2      1.562      3.161
REMARK  0 active torsions:
REMARK  status: ('A' for Active; 'I' for Inactive)
ROOT
HETATM    1  C1  UNL     1     -34.816  16.235  -5.007  1.00 20.00     0.142 C 
HETATM    2  C2  UNL     1     -33.624  16.852  -2.323  1.00 20.00     0.002 C 
HETATM    3  C3  UNL     1     -34.494  15.623  -2.577  1.00 20.00     0.016 C 
HETATM    4  C4  UNL     1     -33.408  17.741  -3.546  1.00 20.00     0.016 C 
HETATM    5  C5  UNL     1     -34.472  15.104  -4.023  1.00 20.00     0.014 C 
HETATM    6  C6  UNL     1     -34.536  17.688  -4.589  1.00 20.00     0.014 C 
HETATM    7  C7  UNL     1     -33.105  14.514  -4.395  1.00 20.00     0.023 C 
HETATM    8  C8  UNL     1     -35.535  13.996  -4.153  1.00 20.00     0.023 C 
HETATM    9  C9  UNL     1     -35.833  18.315  -4.057  1.00 20.00     0.023 C 
HETATM   10  C10 UNL     1     -34.081  18.483  -5.828  1.00 20.00     0.023 C 
HETATM   11  O11 UNL     1     -35.306  15.981  -6.112  1.00 20.00    -0.296 OA
ENDROOT
TORSDOF 0
ENDMDL
MODEL 6
REMARK VINA RESULT:      -4.2      1.562      3.215
REMARK  0 active torsions:
REMARK  status: ('A' for Active; 'I' for Inactive)
ROOT
HETATM    1  C1  UNL     1     -34.816  16.239  -5.004  1.00 20.00     0.142 C 
HETATM    2  C2  UNL     1     -33.622  16.849  -2.319  1.00 20.00     0.002 C 
HETATM    3  C3  UNL     1     -33.409  17.742  -3.540  1.00 20.00     0.016 C 
HETATM    4  C4  UNL     1     -34.493  15.622  -2.575  1.00 20.00     0.016 C 
HETATM    5  C5  UNL     1     -34.537  17.691  -4.582  1.00 20.00     0.014 C 
HETATM    6  C6  UNL     1     -34.472  15.106  -4.022  1.00 20.00     0.014 C 
HETATM    7  C7  UNL     1     -35.833  18.316  -4.048  1.00 20.00     0.023 C 
HETATM    8  C8  UNL     1     -34.084  18.487  -5.821  1.00 20.00     0.023 C 
HETATM    9  C9  UNL     1     -33.105  14.517  -4.397  1.00 20.00     0.023 C 
HETATM   10  C10 UNL     1     -35.535  13.997  -4.152  1.00 20.00     0.023 C 
HETATM   11  O11 UNL     1     -35.308  15.987  -6.108  1.00 20.00    -0.296 OA
ENDROOT
TORSDOF 0
ENDMDL
MODEL 7
REMARK VINA RESULT:      -4.0      1.596      2.839
REMARK  0 active torsions:
REMARK  status: ('A' for Active; 'I' for Inactive)
ROOT
HETATM    1  C1  UNL     1     -35.838  15.129  -5.854  1.00 20.00     0.142 C 
HETATM    2  C2  UNL     1     -34.007  15.312  -3.482  1.00 20.00     0.002 C 
HETATM    3  C3  UNL     1     -35.529  15.362  -3.357  1.00 20.00     0.016 C 
HETATM    4  C4  UNL     1     -33.493  15.159  -4.912  1.00 20.00     0.016 C 
HETATM    5  C5  UNL     1     -36.293  14.632  -4.472  1.00 20.00     0.014 C 
HETATM    6  C6  UNL     1     -34.425  15.721  -5.996  1.00 20.00     0.014 C 
HETATM    7  C7  UNL     1     -36.094  13.112  -4.396  1.00 20.00     0.023 C 
HETATM    8  C8  UNL     1     -37.794  14.938  -4.306  1.00 20.00     0.023 C 
HETATM    9  C9  UNL     1     -34.515  17.252  -5.932  1.00 20.00     0.023 C 
HETATM   10  C10 UNL     1     -33.856  15.322  -7.372  1.00 20.00     0.023 C 
HETATM   11  O11 UNL     1     -36.590  15.053  -6.830  1.00 20.00    -0.296 OA
ENDROOT
TORSDOF 0
ENDMDL
MODEL 8
REMARK VINA RESULT:      -4.0      1.595      3.108
REMARK  0 active torsions:
REMARK  status: ('A' for Active; 'I' for Inactive)
ROOT
HETATM    1  C1  UNL     1     -35.844  15.152  -5.869  1.00 20.00     0.142 C 
HETATM    2  C2  UNL     1     -33.996  15.306  -3.509  1.00 20.00     0.002 C 
HETATM    3  C3  UNL     1     -33.494  15.151  -4.944  1.00 20.00     0.016 C 
HETATM    4  C4  UNL     1     -35.515  15.377  -3.374  1.00 20.00     0.016 C 
HETATM    5  C5  UNL     1     -34.426  15.727  -6.020  1.00 20.00     0.014 C 
HETATM    6  C6  UNL     1     -36.297  14.658  -4.484  1.00 20.00     0.014 C 
HETATM    7  C7  UNL     1     -34.497  17.259  -5.952  1.00 20.00     0.023 C 
HETATM    8  C8  UNL     1     -33.874  15.323  -7.401  1.00 20.00     0.023 C 
HETATM    9  C9  UNL     1     -36.117  13.135  -4.412  1.00 20.00     0.023 C 
HETATM   10  C10 UNL     1     -37.793  14.983  -4.305  1.00 20.00     0.023 C 
HETATM   11  O11 UNL     1     -36.606  15.089  -6.839  1.00 20.00    -0.296 OA
ENDROOT
TORSDOF 0
ENDMDL
MODEL 9
REMARK VINA RESULT:      -3.9      1.753      3.763
REMARK  0 active torsions:
REMARK  status: ('A' for Active; 'I' for Inactive)
ROOT
HETATM    1  C1  UNL     1     -34.364  15.315  -4.905  1.00 20.00     0.142 C 
HETATM    2  C2  UNL     1     -35.223  18.149  -5.395  1.00 20.00     0.002 C 
HETATM    3  C3  UNL     1     -35.491  17.420  -4.080  1.00 20.00     0.016 C 
HETATM    4  C4  UNL     1     -34.481  17.319  -6.440  1.00 20.00     0.016 C 
HETATM    5  C5  UNL     1     -34.484  16.311  -3.739  1.00 20.00     0.014 C 
HETATM    6  C6  UNL     1     -34.691  15.801  -6.327  1.00 20.00     0.014 C 
HETATM    7  C7  UNL     1     -33.095  16.881  -3.422  1.00 20.00     0.023 C 
HETATM    8  C8  UNL     1     -35.000  15.558  -2.498  1.00 20.00     0.023 C 
HETATM    9  C9  UNL     1     -36.132  15.398  -6.674  1.00 20.00     0.023 C 
HETATM   10  C10 UNL     1     -33.738  15.109  -7.320  1.00 20.00     0.023 C 
HETATM   11  O11 UNL     1     -34.009  14.150  -4.704  1.00 20.00    -0.296 OA
ENDROOT
TORSDOF 0
ENDMDL
