MODEL 1
REMARK VINA RESULT:      -4.1      0.000      0.000
REMARK  3 active torsions:
REMARK  status: ('A' for Active; 'I' for Inactive)
REMARK    1  A    between atoms: C4_4  and  C5_5 
REMARK    2  A    between atoms: C5_5  and  C6_6 
REMARK    3  A    between atoms: C6_6  and  N7_7 
ROOT
HETATM    1  C1  UNL     1     -32.461   7.707   1.945  1.00 20.00     0.158 C 
HETATM    2  N7  UNL     1     -32.088   7.150   2.908  1.00 20.00    -0.271 NA
HETATM    3  S8  UNL     1     -32.941   8.483   0.640  1.00 20.00    -0.055 SA
ENDROOT
BRANCH   2   4
HETATM    4  C6  UNL     1     -32.935   6.031   3.339  1.00 20.00     0.105 C 
HETATM    5  C3  UNL     1     -33.217   5.162   2.120  1.00 20.00     0.034 C 
BRANCH   4   6
HETATM    6  C5  UNL     1     -34.232   6.581   3.940  1.00 20.00     0.026 C 
BRANCH   6   7
HETATM    7  C4  UNL     1     -35.096   5.481   4.565  1.00 20.00    -0.002 C 
HETATM    8  C2  UNL     1     -34.727   5.245   6.022  1.00 20.00     0.005 C 
ENDBRANCH   6   7
ENDBRANCH   4   6
ENDBRANCH   2   4
TORSDOF 3
ENDMDL
MODEL 2
REMARK VINA RESULT:      -3.8      0.887      1.387
REMARK  3 active torsions:
REMARK  status: ('A' for Active; 'I' for Inactive)
REMARK    1  A    between atoms: C4_4  and  C5_5 
REMARK    2  A    between atoms: C5_5  and  C6_6 
REMARK    3  A    between atoms: C6_6  and  N7_7 
ROOT
HETATM    1  C1  UNL     1     -32.633   7.743   1.598  1.00 20.00     0.158 C 
HETATM    2  N7  UNL     1     -32.439   6.920   2.412  1.00 20.00    -0.271 NA
HETATM    3  S8  UNL     1     -32.868   8.851   0.479  1.00 20.00    -0.055 SA
ENDROOT
BRANCH   2   4
HETATM    4  C6  UNL     1     -33.477   6.820   3.445  1.00 20.00     0.105 C 
HETATM    5  C3  UNL     1     -32.896   7.356   4.746  1.00 20.00     0.034 C 
BRANCH   4   6
HETATM    6  C5  UNL     1     -33.906   5.357   3.591  1.00 20.00     0.026 C 
BRANCH   6   7
HETATM    7  C4  UNL     1     -35.178   5.204   4.431  1.00 20.00    -0.002 C 
HETATM    8  C2  UNL     1     -34.850   5.020   5.905  1.00 20.00     0.005 C 
ENDBRANCH   6   7
ENDBRANCH   4   6
ENDBRANCH   2   4
TORSDOF 3
ENDMDL
MODEL 3
REMARK VINA RESULT:      -3.8      2.543      4.212
REMARK  3 active torsions:
REMARK  status: ('A' for Active; 'I' for Inactive)
REMARK    1  A    between atoms: C4_4  and  C5_5 
REMARK    2  A    between atoms: C5_5  and  C6_6 
REMARK    3  A    between atoms: C6_6  and  N7_7 
ROOT
HETATM    1  C1  UNL     1     -33.943   6.281   4.778  1.00 20.00     0.158 C 
HETATM    2  N7  UNL     1     -33.285   6.930   4.055  1.00 20.00    -0.271 NA
HETATM    3  S8  UNL     1     -34.826   5.420   5.786  1.00 20.00    -0.055 SA
ENDROOT
BRANCH   2   4
HETATM    4  C6  UNL     1     -33.378   6.557   2.639  1.00 20.00     0.105 C 
HETATM    5  C3  UNL     1     -33.132   5.057   2.532  1.00 20.00     0.034 C 
BRANCH   4   6
HETATM    6  C5  UNL     1     -32.339   7.347   1.837  1.00 20.00     0.026 C 
BRANCH   6   7
HETATM    7  C4  UNL     1     -32.888   8.686   1.333  1.00 20.00    -0.002 C 
HETATM    8  C2  UNL     1     -33.180   8.640  -0.159  1.00 20.00     0.005 C 
ENDBRANCH   6   7
ENDBRANCH   4   6
ENDBRANCH   2   4
TORSDOF 3
ENDMDL
MODEL 4
REMARK VINA RESULT:      -3.7     11.289     11.972
REMARK  3 active torsions:
REMARK  status: ('A' for Active; 'I' for Inactive)
REMARK    1  A    between atoms: C4_4  and  C5_5 
REMARK    2  A    between atoms: C5_5  and  C6_6 
REMARK    3  A    between atoms: C6_6  and  N7_7 
ROOT
HETATM    1  C1  UNL     1     -35.341  14.728  -6.459  1.00 20.00     0.158 C 
HETATM    2  N7  UNL     1     -35.934  13.829  -5.993  1.00 20.00    -0.271 NA
HETATM    3  S8  UNL     1     -34.542  15.935  -7.122  1.00 20.00    -0.055 SA
ENDROOT
BRANCH   2   4
HETATM    4  C6  UNL     1     -36.094  13.888  -4.535  1.00 20.00     0.105 C 
HETATM    5  C3  UNL     1     -37.068  15.015  -4.217  1.00 20.00     0.034 C 
BRANCH   4   6
HETATM    6  C5  UNL     1     -34.729  14.135  -3.885  1.00 20.00     0.026 C 
BRANCH   6   7
HETATM    7  C4  UNL     1     -34.746  15.335  -2.933  1.00 20.00    -0.002 C 
HETATM    8  C2  UNL     1     -33.483  16.172  -3.071  1.00 20.00     0.005 C 
ENDBRANCH   6   7
ENDBRANCH   4   6
ENDBRANCH   2   4
TORSDOF 3
ENDMDL
MODEL 5
REMARK VINA RESULT:      -3.6     11.302     12.047
REMARK  3 active torsions:
REMARK  status: ('A' for Active; 'I' for Inactive)
REMARK    1  A    between atoms: C4_4  and  C5_5 
REMARK    2  A    between atoms: C5_5  and  C6_6 
REMARK    3  A    between atoms: C6_6  and  N7_7 
ROOT
HETATM    1  C1  UNL     1     -38.412  14.615  -4.275  1.00 20.00     0.158 C 
HETATM    2  N7  UNL     1     -37.457  13.965  -4.482  1.00 20.00    -0.271 NA
HETATM    3  S8  UNL     1     -39.725  15.469  -3.987  1.00 20.00    -0.055 SA
ENDROOT
BRANCH   2   4
HETATM    4  C6  UNL     1     -36.238  14.734  -4.756  1.00 20.00     0.105 C 
HETATM    5  C3  UNL     1     -35.820  14.453  -6.194  1.00 20.00     0.034 C 
BRANCH   4   6
HETATM    6  C5  UNL     1     -35.144  14.317  -3.769  1.00 20.00     0.026 C 
BRANCH   6   7
HETATM    7  C4  UNL     1     -34.714  15.469  -2.854  1.00 20.00    -0.002 C 
HETATM    8  C2  UNL     1     -33.346  16.007  -3.243  1.00 20.00     0.005 C 
ENDBRANCH   6   7
ENDBRANCH   4   6
ENDBRANCH   2   4
TORSDOF 3
ENDMDL
MODEL 6
REMARK VINA RESULT:      -3.5     15.919     16.590
REMARK  3 active torsions:
REMARK  status: ('A' for Active; 'I' for Inactive)
REMARK    1  A    between atoms: C4_4  and  C5_5 
REMARK    2  A    between atoms: C5_5  and  C6_6 
REMARK    3  A    between atoms: C6_6  and  N7_7 
ROOT
HETATM    1  C1  UNL     1     -22.756  17.259   9.655  1.00 20.00     0.158 C 
HETATM    2  N7  UNL     1     -23.689  16.705  10.103  1.00 20.00    -0.271 NA
HETATM    3  S8  UNL     1     -21.502  18.006   9.018  1.00 20.00    -0.055 SA
ENDROOT
BRANCH   2   4
HETATM    4  C6  UNL     1     -23.743  16.678  11.569  1.00 20.00     0.105 C 
HETATM    5  C3  UNL     1     -24.753  15.615  11.981  1.00 20.00     0.034 C 
BRANCH   4   6
HETATM    6  C5  UNL     1     -24.150  18.061  12.087  1.00 20.00     0.026 C 
BRANCH   6   7
HETATM    7  C4  UNL     1     -25.659  18.170  12.331  1.00 20.00    -0.002 C 
HETATM    8  C2  UNL     1     -26.282  19.263  11.476  1.00 20.00     0.005 C 
ENDBRANCH   6   7
ENDBRANCH   4   6
ENDBRANCH   2   4
TORSDOF 3
ENDMDL
MODEL 7
REMARK VINA RESULT:      -3.5     11.390     11.772
REMARK  3 active torsions:
REMARK  status: ('A' for Active; 'I' for Inactive)
REMARK    1  A    between atoms: C4_4  and  C5_5 
REMARK    2  A    between atoms: C5_5  and  C6_6 
REMARK    3  A    between atoms: C6_6  and  N7_7 
ROOT
HETATM    1  C1  UNL     1     -34.203  15.270  -6.134  1.00 20.00     0.158 C 
HETATM    2  N7  UNL     1     -33.716  14.395  -5.521  1.00 20.00    -0.271 NA
HETATM    3  S8  UNL     1     -34.845  16.447  -6.992  1.00 20.00    -0.055 SA
ENDROOT
BRANCH   2   4
HETATM    4  C6  UNL     1     -34.219  14.252  -4.149  1.00 20.00     0.105 C 
HETATM    5  C3  UNL     1     -35.713  13.966  -4.226  1.00 20.00     0.034 C 
BRANCH   4   6
HETATM    6  C5  UNL     1     -33.940  15.541  -3.370  1.00 20.00     0.026 C 
BRANCH   6   7
HETATM    7  C4  UNL     1     -35.022  15.838  -2.328  1.00 20.00    -0.002 C 
HETATM    8  C2  UNL     1     -34.627  17.002  -1.433  1.00 20.00     0.005 C 
ENDBRANCH   6   7
ENDBRANCH   4   6
ENDBRANCH   2   4
TORSDOF 3
ENDMDL
MODEL 8
REMARK VINA RESULT:      -3.4      1.827      2.486
REMARK  3 active torsions:
REMARK  status: ('A' for Active; 'I' for Inactive)
REMARK    1  A    between atoms: C4_4  and  C5_5 
REMARK    2  A    between atoms: C5_5  and  C6_6 
REMARK    3  A    between atoms: C6_6  and  N7_7 
ROOT
HETATM    1  C1  UNL     1     -33.218   5.577   2.799  1.00 20.00     0.158 C 
HETATM    2  N7  UNL     1     -33.672   4.521   3.035  1.00 20.00    -0.271 NA
HETATM    3  S8  UNL     1     -32.582   6.995   2.454  1.00 20.00    -0.055 SA
ENDROOT
BRANCH   2   4
HETATM    4  C6  UNL     1     -34.709   4.517   4.074  1.00 20.00     0.105 C 
HETATM    5  C3  UNL     1     -35.688   5.641   3.762  1.00 20.00     0.034 C 
BRANCH   4   6
HETATM    6  C5  UNL     1     -34.055   4.715   5.444  1.00 20.00     0.026 C 
BRANCH   6   7
HETATM    7  C4  UNL     1     -34.603   5.941   6.180  1.00 20.00    -0.002 C 
HETATM    8  C2  UNL     1     -33.631   7.110   6.114  1.00 20.00     0.005 C 
ENDBRANCH   6   7
ENDBRANCH   4   6
ENDBRANCH   2   4
TORSDOF 3
ENDMDL
MODEL 9
REMARK VINA RESULT:      -3.3     11.310     12.666
REMARK  3 active torsions:
REMARK  status: ('A' for Active; 'I' for Inactive)
REMARK    1  A    between atoms: C4_4  and  C5_5 
REMARK    2  A    between atoms: C5_5  and  C6_6 
REMARK    3  A    between atoms: C6_6  and  N7_7 
ROOT
HETATM    1  C1  UNL     1     -37.922  14.865  -4.318  1.00 20.00     0.158 C 
HETATM    2  N7  UNL     1     -37.466  13.792  -4.445  1.00 20.00    -0.271 NA
HETATM    3  S8  UNL     1     -38.571  16.308  -4.139  1.00 20.00    -0.055 SA
ENDROOT
BRANCH   2   4
HETATM    4  C6  UNL     1     -36.033  13.766  -4.760  1.00 20.00     0.105 C 
HETATM    5  C3  UNL     1     -35.292  14.463  -3.626  1.00 20.00     0.034 C 
BRANCH   4   6
HETATM    6  C5  UNL     1     -35.795  14.476  -6.097  1.00 20.00     0.026 C 
BRANCH   6   7
HETATM    7  C4  UNL     1     -34.406  15.117  -6.177  1.00 20.00    -0.002 C 
HETATM    8  C2  UNL     1     -33.948  15.268  -7.620  1.00 20.00     0.005 C 
ENDBRANCH   6   7
ENDBRANCH   4   6
ENDBRANCH   2   4
TORSDOF 3
ENDMDL
