MODEL 1
REMARK VINA RESULT:      -5.2      0.000      0.000
REMARK  0 active torsions:
REMARK  status: ('A' for Active; 'I' for Inactive)
ROOT
HETATM    1  C1  UNL     1     -32.823  16.248  -3.367  1.00 20.00     0.009 A 
HETATM    2  C2  UNL     1     -33.693  15.361  -4.001  1.00 20.00     0.019 A 
HETATM    3  C3  UNL     1     -35.402  15.870  -2.371  1.00 20.00     0.034 A 
HETATM    4  C4  UNL     1     -34.529  16.759  -1.735  1.00 20.00     0.017 A 
HETATM    5  C5  UNL     1     -33.234  16.965  -2.235  1.00 20.00    -0.044 A 
HETATM    6  C6  UNL     1     -34.982  15.174  -3.505  1.00 20.00     0.011 A 
HETATM    7  C7  UNL     1     -34.979  17.477  -0.514  1.00 20.00     0.160 C 
HETATM    8  C8  UNL     1     -32.268  17.901  -1.560  1.00 20.00     0.040 C 
HETATM    9  C9  UNL     1     -34.004  18.410   0.170  1.00 20.00     0.084 C 
HETATM   10  C10 UNL     1     -33.005  19.003  -0.811  1.00 20.00     0.012 C 
HETATM   11  O11 UNL     1     -36.097  17.272  -0.048  1.00 20.00    -0.292 OA
HETATM   12 BR12 UNL     1     -36.159  13.970  -4.364  1.00 20.00    -0.051 Br
ENDROOT
TORSDOF 0
ENDMDL
MODEL 2
REMARK VINA RESULT:      -5.0      1.860      2.709
REMARK  0 active torsions:
REMARK  status: ('A' for Active; 'I' for Inactive)
ROOT
HETATM    1  C1  UNL     1     -35.533  16.274  -1.591  1.00 20.00     0.009 A 
HETATM    2  C2  UNL     1     -35.118  15.542  -2.703  1.00 20.00     0.019 A 
HETATM    3  C3  UNL     1     -32.999  16.703  -2.680  1.00 20.00     0.034 A 
HETATM    4  C4  UNL     1     -33.416  17.438  -1.565  1.00 20.00     0.017 A 
HETATM    5  C5  UNL     1     -34.683  17.221  -1.002  1.00 20.00    -0.044 A 
HETATM    6  C6  UNL     1     -33.852  15.754  -3.245  1.00 20.00     0.011 A 
HETATM    7  C7  UNL     1     -32.509  18.463  -0.986  1.00 20.00     0.160 C 
HETATM    8  C8  UNL     1     -35.164  18.011   0.185  1.00 20.00     0.040 C 
HETATM    9  C9  UNL     1     -32.997  19.263   0.202  1.00 20.00     0.084 C 
HETATM   10  C10 UNL     1     -33.995  18.481   1.041  1.00 20.00     0.012 C 
HETATM   11  O11 UNL     1     -31.414  18.685  -1.496  1.00 20.00    -0.292 OA
HETATM   12 BR12 UNL     1     -33.292  14.762  -4.754  1.00 20.00    -0.051 Br
ENDROOT
TORSDOF 0
ENDMDL
MODEL 3
REMARK VINA RESULT:      -5.0      2.095      3.122
REMARK  0 active torsions:
REMARK  status: ('A' for Active; 'I' for Inactive)
ROOT
HETATM    1  C1  UNL     1     -35.331  17.011  -0.630  1.00 20.00     0.009 A 
HETATM    2  C2  UNL     1     -35.234  16.358  -1.859  1.00 20.00     0.019 A 
HETATM    3  C3  UNL     1     -32.950  17.112  -2.082  1.00 20.00     0.034 A 
HETATM    4  C4  UNL     1     -33.047  17.769  -0.850  1.00 20.00     0.017 A 
HETATM    5  C5  UNL     1     -34.236  17.713  -0.107  1.00 20.00    -0.044 A 
HETATM    6  C6  UNL     1     -34.044  16.406  -2.582  1.00 20.00     0.011 A 
HETATM    7  C7  UNL     1     -31.882  18.537  -0.338  1.00 20.00     0.160 C 
HETATM    8  C8  UNL     1     -34.374  18.426   1.212  1.00 20.00     0.040 C 
HETATM    9  C9  UNL     1     -32.026  19.260   0.983  1.00 20.00     0.084 C 
HETATM   10  C10 UNL     1     -33.024  18.572   1.900  1.00 20.00     0.012 C 
HETATM   11  O11 UNL     1     -30.852  18.621  -1.001  1.00 20.00    -0.292 OA
HETATM   12 BR12 UNL     1     -33.916  15.522  -4.248  1.00 20.00    -0.051 Br
ENDROOT
TORSDOF 0
ENDMDL
MODEL 4
REMARK VINA RESULT:      -4.9     14.656     16.061
REMARK  0 active torsions:
REMARK  status: ('A' for Active; 'I' for Inactive)
ROOT
HETATM    1  C1  UNL     1     -25.797  19.050  10.048  1.00 20.00     0.009 A 
HETATM    2  C2  UNL     1     -25.973  19.256   8.680  1.00 20.00     0.019 A 
HETATM    3  C3  UNL     1     -23.713  18.504   8.273  1.00 20.00     0.034 A 
HETATM    4  C4  UNL     1     -23.536  18.298   9.646  1.00 20.00     0.017 A 
HETATM    5  C5  UNL     1     -24.582  18.558  10.545  1.00 20.00    -0.044 A 
HETATM    6  C6  UNL     1     -24.933  18.981   7.793  1.00 20.00     0.011 A 
HETATM    7  C7  UNL     1     -22.224  17.813  10.148  1.00 20.00     0.160 C 
HETATM    8  C8  UNL     1     -24.412  18.363  12.028  1.00 20.00     0.040 C 
HETATM    9  C9  UNL     1     -22.052  17.627  11.639  1.00 20.00     0.084 C 
HETATM   10  C10 UNL     1     -23.368  17.295  12.325  1.00 20.00     0.012 C 
HETATM   11  O11 UNL     1     -21.293  17.620   9.371  1.00 20.00    -0.292 OA
HETATM   12 BR12 UNL     1     -25.174  19.263   5.940  1.00 20.00    -0.051 Br
ENDROOT
TORSDOF 0
ENDMDL
MODEL 5
REMARK VINA RESULT:      -4.8      3.338      4.696
REMARK  0 active torsions:
REMARK  status: ('A' for Active; 'I' for Inactive)
ROOT
HETATM    1  C1  UNL     1     -37.440  17.186  -3.694  1.00 20.00     0.009 A 
HETATM    2  C2  UNL     1     -38.764  16.830  -3.955  1.00 20.00     0.019 A 
HETATM    3  C3  UNL     1     -38.071  14.554  -4.375  1.00 20.00     0.034 A 
HETATM    4  C4  UNL     1     -36.743  14.911  -4.115  1.00 20.00     0.017 A 
HETATM    5  C5  UNL     1     -36.418  16.229  -3.759  1.00 20.00    -0.044 A 
HETATM    6  C6  UNL     1     -39.079  15.515  -4.292  1.00 20.00     0.011 A 
HETATM    7  C7  UNL     1     -35.675  13.884  -4.229  1.00 20.00     0.160 C 
HETATM    8  C8  UNL     1     -34.996  16.645  -3.493  1.00 20.00     0.040 C 
HETATM    9  C9  UNL     1     -34.245  14.306  -3.970  1.00 20.00     0.084 C 
HETATM   10  C10 UNL     1     -34.165  15.470  -2.995  1.00 20.00     0.012 C 
HETATM   11  O11 UNL     1     -35.948  12.739  -4.576  1.00 20.00    -0.292 OA
HETATM   12 BR12 UNL     1     -40.872  15.036  -4.647  1.00 20.00    -0.051 Br
ENDROOT
TORSDOF 0
ENDMDL
MODEL 6
REMARK VINA RESULT:      -4.7      2.433      4.083
REMARK  0 active torsions:
REMARK  status: ('A' for Active; 'I' for Inactive)
ROOT
HETATM    1  C1  UNL     1     -32.944  17.142  -2.060  1.00 20.00     0.009 A 
HETATM    2  C2  UNL     1     -33.660  17.757  -1.033  1.00 20.00     0.019 A 
HETATM    3  C3  UNL     1     -35.640  16.532  -1.678  1.00 20.00     0.034 A 
HETATM    4  C4  UNL     1     -34.921  15.915  -2.709  1.00 20.00     0.017 A 
HETATM    5  C5  UNL     1     -33.562  16.206  -2.901  1.00 20.00    -0.044 A 
HETATM    6  C6  UNL     1     -35.006  17.450  -0.841  1.00 20.00     0.011 A 
HETATM    7  C7  UNL     1     -35.613  14.957  -3.609  1.00 20.00     0.160 C 
HETATM    8  C8  UNL     1     -32.770  15.573  -4.013  1.00 20.00     0.040 C 
HETATM    9  C9  UNL     1     -34.819  14.327  -4.732  1.00 20.00     0.084 C 
HETATM   10  C10 UNL     1     -33.343  14.212  -4.387  1.00 20.00     0.012 C 
HETATM   11  O11 UNL     1     -36.811  14.726  -3.470  1.00 20.00    -0.292 OA
HETATM   12 BR12 UNL     1     -35.975  18.286   0.550  1.00 20.00    -0.051 Br
ENDROOT
TORSDOF 0
ENDMDL
MODEL 7
REMARK VINA RESULT:      -4.7      4.315      6.013
REMARK  0 active torsions:
REMARK  status: ('A' for Active; 'I' for Inactive)
ROOT
HETATM    1  C1  UNL     1     -34.299  18.323   2.197  1.00 20.00     0.009 A 
HETATM    2  C2  UNL     1     -33.556  18.601   3.345  1.00 20.00     0.019 A 
HETATM    3  C3  UNL     1     -31.537  18.685   2.020  1.00 20.00     0.034 A 
HETATM    4  C4  UNL     1     -32.282  18.404   0.869  1.00 20.00     0.017 A 
HETATM    5  C5  UNL     1     -33.673  18.233   0.946  1.00 20.00    -0.044 A 
HETATM    6  C6  UNL     1     -32.177  18.785   3.255  1.00 20.00     0.011 A 
HETATM    7  C7  UNL     1     -31.587  18.277  -0.438  1.00 20.00     0.160 C 
HETATM    8  C8  UNL     1     -34.496  17.912  -0.273  1.00 20.00     0.040 C 
HETATM    9  C9  UNL     1     -32.414  17.945  -1.661  1.00 20.00     0.084 C 
HETATM   10  C10 UNL     1     -33.840  18.455  -1.535  1.00 20.00     0.012 C 
HETATM   11  O11 UNL     1     -30.366  18.387  -0.507  1.00 20.00    -0.292 OA
HETATM   12 BR12 UNL     1     -31.172  19.160   4.812  1.00 20.00    -0.051 Br
ENDROOT
TORSDOF 0
ENDMDL
MODEL 8
REMARK VINA RESULT:      -4.7      3.172      4.550
REMARK  0 active torsions:
REMARK  status: ('A' for Active; 'I' for Inactive)
ROOT
HETATM    1  C1  UNL     1     -31.495  18.187  -0.866  1.00 20.00     0.009 A 
HETATM    2  C2  UNL     1     -31.161  18.638   0.412  1.00 20.00     0.019 A 
HETATM    3  C3  UNL     1     -33.423  18.220   1.152  1.00 20.00     0.034 A 
HETATM    4  C4  UNL     1     -33.758  17.770  -0.130  1.00 20.00     0.017 A 
HETATM    5  C5  UNL     1     -32.792  17.738  -1.148  1.00 20.00    -0.044 A 
HETATM    6  C6  UNL     1     -32.123  18.651   1.420  1.00 20.00     0.011 A 
HETATM    7  C7  UNL     1     -35.152  17.336  -0.411  1.00 20.00     0.160 C 
HETATM    8  C8  UNL     1     -33.130  17.276  -2.540  1.00 20.00     0.040 C 
HETATM    9  C9  UNL     1     -35.492  16.881  -1.813  1.00 20.00     0.084 C 
HETATM   10  C10 UNL     1     -34.287  16.286  -2.524  1.00 20.00     0.012 C 
HETATM   11  O11 UNL     1     -36.011  17.397   0.465  1.00 20.00    -0.292 OA
HETATM   12 BR12 UNL     1     -31.670  19.263   3.149  1.00 20.00    -0.051 Br
ENDROOT
TORSDOF 0
ENDMDL
MODEL 9
REMARK VINA RESULT:      -4.6      2.927      4.885
REMARK  0 active torsions:
REMARK  status: ('A' for Active; 'I' for Inactive)
ROOT
HETATM    1  C1  UNL     1     -35.938  17.177  -2.142  1.00 20.00     0.009 A 
HETATM    2  C2  UNL     1     -34.806  17.815  -1.635  1.00 20.00     0.019 A 
HETATM    3  C3  UNL     1     -33.394  16.219  -2.774  1.00 20.00     0.034 A 
HETATM    4  C4  UNL     1     -34.530  15.578  -3.281  1.00 20.00     0.017 A 
HETATM    5  C5  UNL     1     -35.813  16.059  -2.980  1.00 20.00    -0.044 A 
HETATM    6  C6  UNL     1     -33.536  17.339  -1.953  1.00 20.00     0.011 A 
HETATM    7  C7  UNL     1     -34.367  14.372  -4.135  1.00 20.00     0.160 C 
HETATM    8  C8  UNL     1     -37.052  15.378  -3.496  1.00 20.00     0.040 C 
HETATM    9  C9  UNL     1     -35.613  13.683  -4.646  1.00 20.00     0.084 C 
HETATM   10  C10 UNL     1     -36.773  14.653  -4.806  1.00 20.00     0.012 C 
HETATM   11  O11 UNL     1     -33.249  13.923  -4.371  1.00 20.00    -0.292 OA
HETATM   12 BR12 UNL     1     -32.004  18.204  -1.264  1.00 20.00    -0.051 Br
ENDROOT
TORSDOF 0
ENDMDL
