MODEL 1
REMARK VINA RESULT:      -5.0      0.000      0.000
REMARK  1 active torsions:
REMARK  status: ('A' for Active; 'I' for Inactive)
REMARK    1  A    between atoms: C7_7  and  C11_11 
ROOT
HETATM    1  C1  UNL     1     -35.756  14.799  -4.378  1.00 20.00    -0.018 C 
HETATM    2  C2  UNL     1     -35.799  15.856  -3.324  1.00 20.00     0.159 C 
HETATM    3  C3  UNL     1     -36.859  14.063  -4.568  1.00 20.00     0.023 C 
HETATM    4  C4  UNL     1     -33.263  14.665  -4.176  1.00 20.00     0.010 C 
HETATM    5  C5  UNL     1     -33.279  15.905  -3.283  1.00 20.00     0.013 C 
HETATM    6  C6  UNL     1     -34.466  14.606  -5.130  1.00 20.00     0.017 C 
HETATM    7  C7  UNL     1     -34.558  15.981  -2.445  1.00 20.00     0.063 C 
HETATM    8  C8  UNL     1     -34.349  15.634  -6.260  1.00 20.00     0.015 C 
HETATM    9  O12 UNL     1     -36.812  16.530  -3.147  1.00 20.00    -0.292 OA
ENDROOT
BRANCH   7  10
HETATM   10  C11 UNL     1     -34.584  17.271  -1.629  1.00 20.00    -0.011 C 
HETATM   11  C9  UNL     1     -35.249  17.038  -0.275  1.00 20.00     0.010 C 
HETATM   12  C10 UNL     1     -33.169  17.817  -1.446  1.00 20.00     0.010 C 
ENDBRANCH   7  10
TORSDOF 1
ENDMDL
MODEL 2
REMARK VINA RESULT:      -5.0      1.123      1.309
REMARK  1 active torsions:
REMARK  status: ('A' for Active; 'I' for Inactive)
REMARK    1  A    between atoms: C7_7  and  C11_11 
ROOT
HETATM    1  C1  UNL     1     -37.066  14.914  -4.249  1.00 20.00    -0.018 C 
HETATM    2  C2  UNL     1     -36.493  16.062  -3.483  1.00 20.00     0.159 C 
HETATM    3  C3  UNL     1     -38.398  14.768  -4.248  1.00 20.00     0.023 C 
HETATM    4  C4  UNL     1     -34.909  13.660  -4.032  1.00 20.00     0.010 C 
HETATM    5  C5  UNL     1     -34.246  14.917  -3.468  1.00 20.00     0.013 C 
HETATM    6  C6  UNL     1     -36.109  13.978  -4.937  1.00 20.00     0.017 C 
HETATM    7  C7  UNL     1     -35.238  15.766  -2.667  1.00 20.00     0.063 C 
HETATM    8  C8  UNL     1     -35.669  14.562  -6.284  1.00 20.00     0.015 C 
HETATM    9  O12 UNL     1     -37.053  17.155  -3.470  1.00 20.00    -0.292 OA
ENDROOT
BRANCH   7  10
HETATM   10  C11 UNL     1     -34.570  17.053  -2.190  1.00 20.00    -0.011 C 
HETATM   11  C9  UNL     1     -34.829  17.272  -0.701  1.00 20.00     0.010 C 
HETATM   12  C10 UNL     1     -33.070  17.017  -2.475  1.00 20.00     0.010 C 
ENDBRANCH   7  10
TORSDOF 1
ENDMDL
MODEL 3
REMARK VINA RESULT:      -4.6      1.673      3.780
REMARK  1 active torsions:
REMARK  status: ('A' for Active; 'I' for Inactive)
REMARK    1  A    between atoms: C7_7  and  C11_11 
ROOT
HETATM    1  C1  UNL     1     -33.572  15.205  -4.032  1.00 20.00    -0.018 C 
HETATM    2  C2  UNL     1     -34.862  15.130  -4.782  1.00 20.00     0.159 C 
HETATM    3  C3  UNL     1     -32.595  14.359  -4.387  1.00 20.00     0.023 C 
HETATM    4  C4  UNL     1     -34.750  16.197  -2.058  1.00 20.00     0.010 C 
HETATM    5  C5  UNL     1     -36.016  16.348  -2.900  1.00 20.00     0.013 C 
HETATM    6  C6  UNL     1     -33.469  16.198  -2.906  1.00 20.00     0.017 C 
HETATM    7  C7  UNL     1     -36.133  15.235  -3.945  1.00 20.00     0.063 C 
HETATM    8  C8  UNL     1     -33.148  17.592  -3.453  1.00 20.00     0.015 C 
HETATM    9  O12 UNL     1     -34.877  14.926  -5.994  1.00 20.00    -0.292 OA
ENDROOT
BRANCH   7  10
HETATM   10  C11 UNL     1     -37.360  15.460  -4.826  1.00 20.00    -0.011 C 
HETATM   11  C9  UNL     1     -38.584  14.772  -4.228  1.00 20.00     0.010 C 
HETATM   12  C10 UNL     1     -37.620  16.954  -5.012  1.00 20.00     0.010 C 
ENDBRANCH   7  10
TORSDOF 1
ENDMDL
MODEL 4
REMARK VINA RESULT:      -4.6      1.689      4.797
REMARK  1 active torsions:
REMARK  status: ('A' for Active; 'I' for Inactive)
REMARK    1  A    between atoms: C7_7  and  C11_11 
ROOT
HETATM    1  C1  UNL     1     -33.150  18.049  -1.268  1.00 20.00    -0.018 C 
HETATM    2  C2  UNL     1     -33.201  17.307  -2.563  1.00 20.00     0.159 C 
HETATM    3  C3  UNL     1     -31.972  18.566  -0.891  1.00 20.00     0.023 C 
HETATM    4  C4  UNL     1     -35.146  16.786  -0.438  1.00 20.00     0.010 C 
HETATM    5  C5  UNL     1     -35.349  16.205  -1.837  1.00 20.00     0.013 C 
HETATM    6  C6  UNL     1     -34.415  18.136  -0.456  1.00 20.00     0.017 C 
HETATM    7  C7  UNL     1     -34.016  16.018  -2.568  1.00 20.00     0.063 C 
HETATM    8  C8  UNL     1     -35.310  19.263  -0.983  1.00 20.00     0.015 C 
HETATM    9  O12 UNL     1     -32.559  17.693  -3.538  1.00 20.00    -0.292 OA
ENDROOT
BRANCH   7  10
HETATM   10  C11 UNL     1     -34.257  15.518  -3.991  1.00 20.00    -0.011 C 
HETATM   11  C9  UNL     1     -33.318  14.360  -4.319  1.00 20.00     0.010 C 
HETATM   12  C10 UNL     1     -35.714  15.098  -4.173  1.00 20.00     0.010 C 
ENDBRANCH   7  10
TORSDOF 1
ENDMDL
MODEL 5
REMARK VINA RESULT:      -4.4      1.357      1.480
REMARK  1 active torsions:
REMARK  status: ('A' for Active; 'I' for Inactive)
REMARK    1  A    between atoms: C7_7  and  C11_11 
ROOT
HETATM    1  C1  UNL     1     -36.258  15.956  -5.360  1.00 20.00    -0.018 C 
HETATM    2  C2  UNL     1     -35.880  16.883  -4.252  1.00 20.00     0.159 C 
HETATM    3  C3  UNL     1     -37.336  16.268  -6.092  1.00 20.00     0.023 C 
HETATM    4  C4  UNL     1     -35.094  14.062  -4.207  1.00 20.00     0.010 C 
HETATM    5  C5  UNL     1     -34.502  15.050  -3.202  1.00 20.00     0.013 C 
HETATM    6  C6  UNL     1     -35.427  14.717  -5.556  1.00 20.00     0.017 C 
HETATM    7  C7  UNL     1     -35.448  16.226  -2.944  1.00 20.00     0.063 C 
HETATM    8  C8  UNL     1     -34.164  15.044  -6.359  1.00 20.00     0.015 C 
HETATM    9  O12 UNL     1     -35.983  18.100  -4.383  1.00 20.00    -0.292 OA
ENDROOT
BRANCH   7  10
HETATM   10  C11 UNL     1     -34.795  17.238  -2.004  1.00 20.00    -0.011 C 
HETATM   11  C9  UNL     1     -35.244  17.002  -0.565  1.00 20.00     0.010 C 
HETATM   12  C10 UNL     1     -33.272  17.163  -2.111  1.00 20.00     0.010 C 
ENDBRANCH   7  10
TORSDOF 1
ENDMDL
MODEL 6
REMARK VINA RESULT:      -4.4      1.567      2.766
REMARK  1 active torsions:
REMARK  status: ('A' for Active; 'I' for Inactive)
REMARK    1  A    between atoms: C7_7  and  C11_11 
ROOT
HETATM    1  C1  UNL     1     -34.587  15.175  -5.457  1.00 20.00    -0.018 C 
HETATM    2  C2  UNL     1     -33.836  15.607  -4.240  1.00 20.00     0.159 C 
HETATM    3  C3  UNL     1     -33.889  14.985  -6.585  1.00 20.00     0.023 C 
HETATM    4  C4  UNL     1     -36.692  16.178  -4.544  1.00 20.00     0.010 C 
HETATM    5  C5  UNL     1     -35.992  16.404  -3.205  1.00 20.00     0.013 C 
HETATM    6  C6  UNL     1     -36.080  15.019  -5.345  1.00 20.00     0.017 C 
HETATM    7  C7  UNL     1     -34.499  16.686  -3.389  1.00 20.00     0.063 C 
HETATM    8  C8  UNL     1     -36.429  13.657  -4.736  1.00 20.00     0.015 C 
HETATM    9  O12 UNL     1     -32.720  15.157  -3.994  1.00 20.00    -0.292 OA
ENDROOT
BRANCH   7  10
HETATM   10  C11 UNL     1     -33.812  16.823  -2.032  1.00 20.00    -0.011 C 
HETATM   11  C9  UNL     1     -32.784  17.951  -2.061  1.00 20.00     0.010 C 
HETATM   12  C10 UNL     1     -34.843  17.062  -0.931  1.00 20.00     0.010 C 
ENDBRANCH   7  10
TORSDOF 1
ENDMDL
MODEL 7
REMARK VINA RESULT:      -4.3      1.999      3.182
REMARK  1 active torsions:
REMARK  status: ('A' for Active; 'I' for Inactive)
REMARK    1  A    between atoms: C7_7  and  C11_11 
ROOT
HETATM    1  C1  UNL     1     -34.544  15.762  -6.723  1.00 20.00    -0.018 C 
HETATM    2  C2  UNL     1     -34.051  15.447  -5.349  1.00 20.00     0.159 C 
HETATM    3  C3  UNL     1     -33.933  15.167  -7.757  1.00 20.00     0.023 C 
HETATM    4  C4  UNL     1     -35.455  17.952  -5.921  1.00 20.00     0.010 C 
HETATM    5  C5  UNL     1     -35.173  17.531  -4.479  1.00 20.00     0.013 C 
HETATM    6  C6  UNL     1     -35.668  16.754  -6.858  1.00 20.00     0.017 C 
HETATM    7  C7  UNL     1     -33.941  16.626  -4.388  1.00 20.00     0.063 C 
HETATM    8  C8  UNL     1     -37.016  16.068  -6.612  1.00 20.00     0.015 C 
HETATM    9  O12 UNL     1     -33.696  14.309  -5.051  1.00 20.00    -0.292 OA
ENDROOT
BRANCH   7  10
HETATM   10  C11 UNL     1     -33.735  16.153  -2.950  1.00 20.00    -0.011 C 
HETATM   11  C9  UNL     1     -32.926  17.177  -2.158  1.00 20.00     0.010 C 
HETATM   12  C10 UNL     1     -35.080  15.890  -2.275  1.00 20.00     0.010 C 
ENDBRANCH   7  10
TORSDOF 1
ENDMDL
MODEL 8
REMARK VINA RESULT:      -4.2      1.441      4.220
REMARK  1 active torsions:
REMARK  status: ('A' for Active; 'I' for Inactive)
REMARK    1  A    between atoms: C7_7  and  C11_11 
ROOT
HETATM    1  C1  UNL     1     -35.145  17.931  -3.194  1.00 20.00    -0.018 C 
HETATM    2  C2  UNL     1     -35.911  17.095  -4.166  1.00 20.00     0.159 C 
HETATM    3  C3  UNL     1     -35.250  19.262  -3.298  1.00 20.00     0.023 C 
HETATM    4  C4  UNL     1     -33.508  16.068  -2.843  1.00 20.00     0.010 C 
HETATM    5  C5  UNL     1     -34.415  15.133  -3.642  1.00 20.00     0.013 C 
HETATM    6  C6  UNL     1     -34.278  17.224  -2.187  1.00 20.00     0.017 C 
HETATM    7  C7  UNL     1     -35.176  15.886  -4.738  1.00 20.00     0.063 C 
HETATM    8  C8  UNL     1     -35.121  16.746  -1.000  1.00 20.00     0.015 C 
HETATM    9  O12 UNL     1     -37.041  17.418  -4.524  1.00 20.00    -0.292 OA
ENDROOT
BRANCH   7  10
HETATM   10  C11 UNL     1     -36.136  14.944  -5.461  1.00 20.00    -0.011 C 
HETATM   11  C9  UNL     1     -35.609  14.604  -6.853  1.00 20.00     0.010 C 
HETATM   12  C10 UNL     1     -36.357  13.672  -4.644  1.00 20.00     0.010 C 
ENDBRANCH   7  10
TORSDOF 1
ENDMDL
MODEL 9
REMARK VINA RESULT:      -4.2      1.902      2.543
REMARK  1 active torsions:
REMARK  status: ('A' for Active; 'I' for Inactive)
REMARK    1  A    between atoms: C7_7  and  C11_11 
ROOT
HETATM    1  C1  UNL     1     -34.349  16.640  -4.963  1.00 20.00    -0.018 C 
HETATM    2  C2  UNL     1     -33.842  17.757  -4.111  1.00 20.00     0.159 C 
HETATM    3  C3  UNL     1     -34.740  16.935  -6.210  1.00 20.00     0.023 C 
HETATM    4  C4  UNL     1     -34.971  15.331  -2.921  1.00 20.00     0.010 C 
HETATM    5  C5  UNL     1     -34.239  16.355  -2.054  1.00 20.00     0.013 C 
HETATM    6  C6  UNL     1     -34.421  15.266  -4.353  1.00 20.00     0.017 C 
HETATM    7  C7  UNL     1     -34.309  17.760  -2.659  1.00 20.00     0.063 C 
HETATM    8  C8  UNL     1     -33.048  14.586  -4.407  1.00 20.00     0.015 C 
HETATM    9  O12 UNL     1     -33.146  18.650  -4.589  1.00 20.00    -0.292 OA
ENDROOT
BRANCH   7  10
HETATM   10  C11 UNL     1     -33.497  18.742  -1.817  1.00 20.00    -0.011 C 
HETATM   11  C9  UNL     1     -34.325  19.253  -0.641  1.00 20.00     0.010 C 
HETATM   12  C10 UNL     1     -32.208  18.088  -1.324  1.00 20.00     0.010 C 
ENDBRANCH   7  10
TORSDOF 1
ENDMDL
