MODEL 1
REMARK VINA RESULT:      -5.0      0.000      0.000
REMARK  1 active torsions:
REMARK  status: ('A' for Active; 'I' for Inactive)
REMARK    1  A    between atoms: C5_5  and  C6_6 
ROOT
HETATM    1  C1  UNL     1     -32.782   6.663   2.216  1.00 20.00     0.061 C 
HETATM    2  C6  UNL     1     -33.300   5.389   2.703  1.00 20.00     0.155 C 
HETATM    3  N7  UNL     1     -32.357   7.665   1.812  1.00 20.00    -0.197 NA
ENDROOT
BRANCH   2   4
HETATM    4  C5  UNL     1     -34.275   5.767   3.802  1.00 20.00     0.134 C 
HETATM    5  C3  UNL     1     -34.592   4.624   4.750  1.00 20.00     0.035 C 
HETATM    6  C2  UNL     1     -34.981   5.370   6.001  1.00 20.00     0.029 C 
HETATM    7  C4  UNL     1     -34.009   6.531   5.987  1.00 20.00     0.168 C 
HETATM    8  O8  UNL     1     -33.715   6.814   4.611  1.00 20.00    -0.385 OA
ENDBRANCH   2   4
TORSDOF 1
ENDMDL
MODEL 2
REMARK VINA RESULT:      -4.1     11.861     12.303
REMARK  1 active torsions:
REMARK  status: ('A' for Active; 'I' for Inactive)
REMARK    1  A    between atoms: C5_5  and  C6_6 
ROOT
HETATM    1  C1  UNL     1     -36.623  14.023  -4.316  1.00 20.00     0.061 C 
HETATM    2  C6  UNL     1     -35.173  14.068  -4.163  1.00 20.00     0.155 C 
HETATM    3  N7  UNL     1     -37.776  13.963  -4.442  1.00 20.00    -0.197 NA
ENDROOT
BRANCH   2   4
HETATM    4  C5  UNL     1     -34.875  15.501  -3.767  1.00 20.00     0.134 C 
HETATM    5  C3  UNL     1     -35.051  15.768  -2.282  1.00 20.00     0.035 C 
HETATM    6  C2  UNL     1     -34.123  16.938  -2.076  1.00 20.00     0.029 C 
HETATM    7  C4  UNL     1     -32.965  16.584  -2.985  1.00 20.00     0.168 C 
HETATM    8  O8  UNL     1     -33.507  15.817  -4.071  1.00 20.00    -0.385 OA
ENDBRANCH   2   4
TORSDOF 1
ENDMDL
MODEL 3
REMARK VINA RESULT:      -4.0     16.614     17.056
REMARK  1 active torsions:
REMARK  status: ('A' for Active; 'I' for Inactive)
REMARK    1  A    between atoms: C5_5  and  C6_6 
ROOT
HETATM    1  C1  UNL     1     -21.719  17.436   8.291  1.00 20.00     0.061 C 
HETATM    2  C6  UNL     1     -21.680  18.138   9.570  1.00 20.00     0.155 C 
HETATM    3  N7  UNL     1     -21.731  16.890   7.267  1.00 20.00    -0.197 NA
ENDROOT
BRANCH   2   4
HETATM    4  C5  UNL     1     -22.774  17.488  10.396  1.00 20.00     0.134 C 
HETATM    5  C3  UNL     1     -22.689  17.814  11.877  1.00 20.00     0.035 C 
HETATM    6  C2  UNL     1     -24.124  17.642  12.305  1.00 20.00     0.029 C 
HETATM    7  C4  UNL     1     -24.875  18.197  11.114  1.00 20.00     0.168 C 
HETATM    8  O8  UNL     1     -24.060  17.957   9.957  1.00 20.00    -0.385 OA
ENDBRANCH   2   4
TORSDOF 1
ENDMDL
MODEL 4
REMARK VINA RESULT:      -4.0     11.925     12.423
REMARK  1 active torsions:
REMARK  status: ('A' for Active; 'I' for Inactive)
REMARK    1  A    between atoms: C5_5  and  C6_6 
ROOT
HETATM    1  C1  UNL     1     -36.236  13.815  -4.499  1.00 20.00     0.061 C 
HETATM    2  C6  UNL     1     -36.765  15.175  -4.494  1.00 20.00     0.155 C 
HETATM    3  N7  UNL     1     -35.836  12.725  -4.512  1.00 20.00    -0.197 NA
ENDROOT
BRANCH   2   4
HETATM    4  C5  UNL     1     -35.612  16.031  -4.006  1.00 20.00     0.134 C 
HETATM    5  C3  UNL     1     -35.227  15.762  -2.562  1.00 20.00     0.035 C 
HETATM    6  C2  UNL     1     -33.780  16.186  -2.553  1.00 20.00     0.029 C 
HETATM    7  C4  UNL     1     -33.306  15.709  -3.909  1.00 20.00     0.168 C 
HETATM    8  O8  UNL     1     -34.438  15.761  -4.790  1.00 20.00    -0.385 OA
ENDBRANCH   2   4
TORSDOF 1
ENDMDL
MODEL 5
REMARK VINA RESULT:      -3.9     11.918     12.326
REMARK  1 active torsions:
REMARK  status: ('A' for Active; 'I' for Inactive)
REMARK    1  A    between atoms: C5_5  and  C6_6 
ROOT
HETATM    1  C1  UNL     1     -36.457  14.121  -4.458  1.00 20.00     0.061 C 
HETATM    2  C6  UNL     1     -35.051  14.507  -4.503  1.00 20.00     0.155 C 
HETATM    3  N7  UNL     1     -37.574  13.804  -4.444  1.00 20.00    -0.197 NA
ENDROOT
BRANCH   2   4
HETATM    4  C5  UNL     1     -34.790  15.158  -3.158  1.00 20.00     0.134 C 
HETATM    5  C3  UNL     1     -33.492  15.946  -3.108  1.00 20.00     0.035 C 
HETATM    6  C2  UNL     1     -33.790  16.948  -2.022  1.00 20.00     0.029 C 
HETATM    7  C4  UNL     1     -35.246  17.270  -2.284  1.00 20.00     0.168 C 
HETATM    8  O8  UNL     1     -35.838  16.094  -2.858  1.00 20.00    -0.385 OA
ENDBRANCH   2   4
TORSDOF 1
ENDMDL
MODEL 6
REMARK VINA RESULT:      -3.9      1.118      1.467
REMARK  1 active torsions:
REMARK  status: ('A' for Active; 'I' for Inactive)
REMARK    1  A    between atoms: C5_5  and  C6_6 
ROOT
HETATM    1  C1  UNL     1     -32.870   6.612   2.174  1.00 20.00     0.061 C 
HETATM    2  C6  UNL     1     -33.562   5.367   2.490  1.00 20.00     0.155 C 
HETATM    3  N7  UNL     1     -32.323   7.599   1.899  1.00 20.00    -0.197 NA
ENDROOT
BRANCH   2   4
HETATM    4  C5  UNL     1     -33.542   5.293   4.005  1.00 20.00     0.134 C 
HETATM    5  C3  UNL     1     -33.858   6.617   4.680  1.00 20.00     0.035 C 
HETATM    6  C2  UNL     1     -34.400   6.154   6.009  1.00 20.00     0.029 C 
HETATM    7  C4  UNL     1     -35.186   4.922   5.614  1.00 20.00     0.168 C 
HETATM    8  O8  UNL     1     -34.537   4.364   4.462  1.00 20.00    -0.385 OA
ENDBRANCH   2   4
TORSDOF 1
ENDMDL
MODEL 7
REMARK VINA RESULT:      -3.8     15.911     16.723
REMARK  1 active torsions:
REMARK  status: ('A' for Active; 'I' for Inactive)
REMARK    1  A    between atoms: C5_5  and  C6_6 
ROOT
HETATM    1  C1  UNL     1     -25.294  18.968   6.949  1.00 20.00     0.061 C 
HETATM    2  C6  UNL     1     -25.029  18.820   8.376  1.00 20.00     0.155 C 
HETATM    3  N7  UNL     1     -25.529  19.084   5.818  1.00 20.00    -0.197 NA
ENDROOT
BRANCH   2   4
HETATM    4  C5  UNL     1     -23.519  18.903   8.495  1.00 20.00     0.134 C 
HETATM    5  C3  UNL     1     -22.983  18.351   9.804  1.00 20.00     0.035 C 
HETATM    6  C2  UNL     1     -21.582  17.954   9.412  1.00 20.00     0.029 C 
HETATM    7  C4  UNL     1     -21.789  17.418   8.012  1.00 20.00     0.168 C 
HETATM    8  O8  UNL     1     -22.905  18.128   7.453  1.00 20.00    -0.385 OA
ENDBRANCH   2   4
TORSDOF 1
ENDMDL
MODEL 8
REMARK VINA RESULT:      -3.8      2.345      3.875
REMARK  1 active torsions:
REMARK  status: ('A' for Active; 'I' for Inactive)
REMARK    1  A    between atoms: C5_5  and  C6_6 
ROOT
HETATM    1  C1  UNL     1     -34.454   5.775   5.984  1.00 20.00     0.061 C 
HETATM    2  C6  UNL     1     -33.661   6.929   5.571  1.00 20.00     0.155 C 
HETATM    3  N7  UNL     1     -35.082   4.864   6.335  1.00 20.00    -0.197 NA
ENDROOT
BRANCH   2   4
HETATM    4  C5  UNL     1     -33.720   6.910   4.056  1.00 20.00     0.134 C 
HETATM    5  C3  UNL     1     -32.413   7.310   3.394  1.00 20.00     0.035 C 
HETATM    6  C2  UNL     1     -32.522   6.609   2.064  1.00 20.00     0.029 C 
HETATM    7  C4  UNL     1     -33.187   5.305   2.451  1.00 20.00     0.168 C 
HETATM    8  O8  UNL     1     -34.010   5.580   3.596  1.00 20.00    -0.385 OA
ENDBRANCH   2   4
TORSDOF 1
ENDMDL
MODEL 9
REMARK VINA RESULT:      -3.7     16.302     16.960
REMARK  1 active torsions:
REMARK  status: ('A' for Active; 'I' for Inactive)
REMARK    1  A    between atoms: C5_5  and  C6_6 
ROOT
HETATM    1  C1  UNL     1     -23.864  16.422  11.736  1.00 20.00     0.061 C 
HETATM    2  C6  UNL     1     -22.799  17.406  11.901  1.00 20.00     0.155 C 
HETATM    3  N7  UNL     1     -24.708  15.632  11.628  1.00 20.00    -0.197 NA
ENDROOT
BRANCH   2   4
HETATM    4  C5  UNL     1     -22.698  18.089  10.551  1.00 20.00     0.134 C 
HETATM    5  C3  UNL     1     -22.285  17.152   9.428  1.00 20.00     0.035 C 
HETATM    6  C2  UNL     1     -22.877  17.844   8.226  1.00 20.00     0.029 C 
HETATM    7  C4  UNL     1     -24.187  18.364   8.778  1.00 20.00     0.168 C 
HETATM    8  O8  UNL     1     -23.979  18.621  10.176  1.00 20.00    -0.385 OA
ENDBRANCH   2   4
TORSDOF 1
ENDMDL
