MODEL 1
REMARK VINA RESULT:      -3.2      0.000      0.000
REMARK  0 active torsions:
REMARK  status: ('A' for Active; 'I' for Inactive)
ROOT
HETATM    1  C1  UNL     1     -34.269   4.969   4.010  1.00 20.00     0.086 C 
HETATM    2  C2  UNL     1     -34.075   6.414   4.074  1.00 20.00     0.235 C 
HETATM    3  N3  UNL     1     -34.428   3.820   3.957  1.00 20.00    -0.195 NA
HETATM    4 BR4  UNL     1     -32.618   6.959   2.902  1.00 20.00    -0.063 Br
HETATM    5 BR5  UNL     1     -33.770   6.979   5.913  1.00 20.00    -0.063 Br
ENDROOT
TORSDOF 0
ENDMDL
MODEL 2
REMARK VINA RESULT:      -3.1     12.121     12.550
REMARK  0 active torsions:
REMARK  status: ('A' for Active; 'I' for Inactive)
ROOT
HETATM    1  C1  UNL     1     -36.413  14.071  -4.335  1.00 20.00     0.086 C 
HETATM    2  C2  UNL     1     -35.003  14.417  -4.185  1.00 20.00     0.235 C 
HETATM    3  N3  UNL     1     -37.533  13.791  -4.454  1.00 20.00    -0.195 NA
HETATM    4 BR4  UNL     1     -34.767  15.700  -2.739  1.00 20.00    -0.063 Br
HETATM    5 BR5  UNL     1     -34.283  15.084  -5.867  1.00 20.00    -0.063 Br
ENDROOT
TORSDOF 0
ENDMDL
MODEL 3
REMARK VINA RESULT:      -3.0      2.498      3.025
REMARK  0 active torsions:
REMARK  status: ('A' for Active; 'I' for Inactive)
ROOT
HETATM    1  C1  UNL     1     -33.017   6.890   3.222  1.00 20.00     0.086 C 
HETATM    2  C2  UNL     1     -34.088   6.447   4.108  1.00 20.00     0.235 C 
HETATM    3  N3  UNL     1     -32.167   7.245   2.514  1.00 20.00    -0.195 NA
HETATM    4 BR4  UNL     1     -33.668   6.888   5.958  1.00 20.00    -0.063 Br
HETATM    5 BR5  UNL     1     -34.417   4.541   3.878  1.00 20.00    -0.063 Br
ENDROOT
TORSDOF 0
ENDMDL
MODEL 4
REMARK VINA RESULT:      -2.9     11.962     12.453
REMARK  0 active torsions:
REMARK  status: ('A' for Active; 'I' for Inactive)
ROOT
HETATM    1  C1  UNL     1     -35.794  13.921  -4.390  1.00 20.00     0.086 C 
HETATM    2  C2  UNL     1     -35.722  15.371  -4.237  1.00 20.00     0.235 C 
HETATM    3  N3  UNL     1     -35.856  12.768  -4.511  1.00 20.00    -0.195 NA
HETATM    4 BR4  UNL     1     -34.833  16.174  -5.772  1.00 20.00    -0.063 Br
HETATM    5 BR5  UNL     1     -34.838  15.836  -2.565  1.00 20.00    -0.063 Br
ENDROOT
TORSDOF 0
ENDMDL
MODEL 5
REMARK VINA RESULT:      -2.8     16.569     16.813
REMARK  0 active torsions:
REMARK  status: ('A' for Active; 'I' for Inactive)
ROOT
HETATM    1  C1  UNL     1     -22.342  17.412   8.257  1.00 20.00     0.086 C 
HETATM    2  C2  UNL     1     -23.128  18.035   9.316  1.00 20.00     0.235 C 
HETATM    3  N3  UNL     1     -21.713  16.918   7.415  1.00 20.00    -0.195 NA
HETATM    4 BR4  UNL     1     -23.971  16.676  10.427  1.00 20.00    -0.063 Br
HETATM    5 BR5  UNL     1     -24.437  19.263   8.560  1.00 20.00    -0.063 Br
ENDROOT
TORSDOF 0
ENDMDL
MODEL 6
REMARK VINA RESULT:      -2.8     16.665     16.900
REMARK  0 active torsions:
REMARK  status: ('A' for Active; 'I' for Inactive)
ROOT
HETATM    1  C1  UNL     1     -22.602  16.919   9.184  1.00 20.00     0.086 C 
HETATM    2  C2  UNL     1     -23.632  17.260  10.160  1.00 20.00     0.235 C 
HETATM    3  N3  UNL     1     -21.785  16.644   8.407  1.00 20.00    -0.195 NA
HETATM    4 BR4  UNL     1     -24.712  18.749   9.520  1.00 20.00    -0.063 Br
HETATM    5 BR5  UNL     1     -22.828  17.644  11.892  1.00 20.00    -0.063 Br
ENDROOT
TORSDOF 0
ENDMDL
MODEL 7
REMARK VINA RESULT:      -2.7     17.209     17.420
REMARK  0 active torsions:
REMARK  status: ('A' for Active; 'I' for Inactive)
ROOT
HETATM    1  C1  UNL     1     -23.193  17.791  11.730  1.00 20.00     0.086 C 
HETATM    2  C2  UNL     1     -24.441  17.818  10.974  1.00 20.00     0.235 C 
HETATM    3  N3  UNL     1     -22.200  17.765  12.332  1.00 20.00    -0.195 NA
HETATM    4 BR4  UNL     1     -24.168  18.659   9.239  1.00 20.00    -0.063 Br
HETATM    5 BR5  UNL     1     -25.837  18.711  11.997  1.00 20.00    -0.063 Br
ENDROOT
TORSDOF 0
ENDMDL
MODEL 8
REMARK VINA RESULT:      -2.7      2.406      2.883
REMARK  0 active torsions:
REMARK  status: ('A' for Active; 'I' for Inactive)
ROOT
HETATM    1  C1  UNL     1     -33.993   6.644   5.142  1.00 20.00     0.086 C 
HETATM    2  C2  UNL     1     -34.060   6.203   3.752  1.00 20.00     0.235 C 
HETATM    3  N3  UNL     1     -33.943   6.998   6.246  1.00 20.00    -0.195 NA
HETATM    4 BR4  UNL     1     -34.117   4.258   3.658  1.00 20.00    -0.063 Br
HETATM    5 BR5  UNL     1     -32.568   6.931   2.733  1.00 20.00    -0.063 Br
ENDROOT
TORSDOF 0
ENDMDL
MODEL 9
REMARK VINA RESULT:      -2.7      9.419      9.420
REMARK  0 active torsions:
REMARK  status: ('A' for Active; 'I' for Inactive)
ROOT
HETATM    1  C1  UNL     1     -41.529   6.059  -0.750  1.00 20.00     0.086 C 
HETATM    2  C2  UNL     1     -42.536   6.979  -0.232  1.00 20.00     0.235 C 
HETATM    3  N3  UNL     1     -40.730   5.327  -1.166  1.00 20.00    -0.195 NA
HETATM    4 BR4  UNL     1     -41.737   8.710   0.166  1.00 20.00    -0.063 Br
HETATM    5 BR5  UNL     1     -43.417   6.216   1.329  1.00 20.00    -0.063 Br
ENDROOT
TORSDOF 0
ENDMDL
