MODEL 1
REMARK VINA RESULT:      -4.7      0.000      0.000
REMARK  1 active torsions:
REMARK  status: ('A' for Active; 'I' for Inactive)
REMARK    1  A    between atoms: C1_1  and  C2_2 
ROOT
HETATM    1  C2  UNL     1     -34.884   5.320   4.700  1.00 20.00     0.391 C 
HETATM    2  F4  UNL     1     -35.175   4.985   5.985  1.00 20.00    -0.178 F 
HETATM    3  F5  UNL     1     -36.064   5.644   4.111  1.00 20.00    -0.178 F 
HETATM    4 CL6  UNL     1     -34.172   3.924   3.880  1.00 20.00    -0.039 Cl
ENDROOT
BRANCH   1   5
HETATM    5  C1  UNL     1     -33.891   6.438   4.646  1.00 20.00     0.282 C 
HETATM    6  O3  UNL     1     -33.623   7.170   5.590  1.00 20.00    -0.277 OA
HETATM    7 BR7  UNL     1     -32.914   6.737   3.036  1.00 20.00    -0.001 Br
ENDBRANCH   1   5
TORSDOF 1
ENDMDL
MODEL 2
REMARK VINA RESULT:      -4.6      1.372      1.606
REMARK  1 active torsions:
REMARK  status: ('A' for Active; 'I' for Inactive)
REMARK    1  A    between atoms: C1_1  and  C2_2 
ROOT
HETATM    1  C2  UNL     1     -34.760   5.266   4.514  1.00 20.00     0.391 C 
HETATM    2  F4  UNL     1     -35.983   5.590   4.015  1.00 20.00    -0.178 F 
HETATM    3  F5  UNL     1     -34.387   4.114   3.899  1.00 20.00    -0.178 F 
HETATM    4 CL6  UNL     1     -34.894   4.996   6.257  1.00 20.00    -0.039 Cl
ENDROOT
BRANCH   1   5
HETATM    5  C1  UNL     1     -33.778   6.374   4.297  1.00 20.00     0.282 C 
HETATM    6  O3  UNL     1     -33.460   7.191   5.151  1.00 20.00    -0.277 OA
HETATM    7 BR7  UNL     1     -32.899   6.522   2.612  1.00 20.00    -0.001 Br
ENDBRANCH   1   5
TORSDOF 1
ENDMDL
MODEL 3
REMARK VINA RESULT:      -4.6      2.147      2.400
REMARK  1 active torsions:
REMARK  status: ('A' for Active; 'I' for Inactive)
REMARK    1  A    between atoms: C1_1  and  C2_2 
ROOT
HETATM    1  C2  UNL     1     -34.548   5.408   4.474  1.00 20.00     0.391 C 
HETATM    2  F4  UNL     1     -35.839   5.615   4.101  1.00 20.00    -0.178 F 
HETATM    3  F5  UNL     1     -34.524   4.219   5.129  1.00 20.00    -0.178 F 
HETATM    4 CL6  UNL     1     -34.041   6.702   5.567  1.00 20.00    -0.039 Cl
ENDROOT
BRANCH   1   5
HETATM    5  C1  UNL     1     -33.635   5.428   3.288  1.00 20.00     0.282 C 
HETATM    6  O3  UNL     1     -33.481   4.487   2.520  1.00 20.00    -0.277 OA
HETATM    7 BR7  UNL     1     -32.676   7.023   2.879  1.00 20.00    -0.001 Br
ENDBRANCH   1   5
TORSDOF 1
ENDMDL
MODEL 4
REMARK VINA RESULT:      -4.3      2.135      2.476
REMARK  1 active torsions:
REMARK  status: ('A' for Active; 'I' for Inactive)
REMARK    1  A    between atoms: C1_1  and  C2_2 
ROOT
HETATM    1  C2  UNL     1     -34.888   5.481   4.892  1.00 20.00     0.391 C 
HETATM    2  F4  UNL     1     -36.076   5.892   4.373  1.00 20.00    -0.178 F 
HETATM    3  F5  UNL     1     -35.182   4.788   6.023  1.00 20.00    -0.178 F 
HETATM    4 CL6  UNL     1     -33.909   6.897   5.300  1.00 20.00    -0.039 Cl
ENDROOT
BRANCH   1   5
HETATM    5  C1  UNL     1     -34.120   4.664   3.903  1.00 20.00     0.282 C 
HETATM    6  O3  UNL     1     -34.117   3.441   3.871  1.00 20.00    -0.277 OA
HETATM    7 BR7  UNL     1     -33.112   5.549   2.548  1.00 20.00    -0.001 Br
ENDBRANCH   1   5
TORSDOF 1
ENDMDL
MODEL 5
REMARK VINA RESULT:      -4.2      2.222      2.368
REMARK  1 active torsions:
REMARK  status: ('A' for Active; 'I' for Inactive)
REMARK    1  A    between atoms: C1_1  and  C2_2 
ROOT
HETATM    1  C2  UNL     1     -34.905   5.671   4.499  1.00 20.00     0.391 C 
HETATM    2  F4  UNL     1     -34.393   6.911   4.275  1.00 20.00    -0.178 F 
HETATM    3  F5  UNL     1     -36.210   5.721   4.127  1.00 20.00    -0.178 F 
HETATM    4 CL6  UNL     1     -34.791   5.295   6.224  1.00 20.00    -0.039 Cl
ENDROOT
BRANCH   1   5
HETATM    5  C1  UNL     1     -34.136   4.627   3.752  1.00 20.00     0.282 C 
HETATM    6  O3  UNL     1     -34.147   3.434   4.024  1.00 20.00    -0.277 OA
HETATM    7 BR7  UNL     1     -33.105   5.141   2.233  1.00 20.00    -0.001 Br
ENDBRANCH   1   5
TORSDOF 1
ENDMDL
MODEL 6
REMARK VINA RESULT:      -4.1      2.977      3.082
REMARK  1 active torsions:
REMARK  status: ('A' for Active; 'I' for Inactive)
REMARK    1  A    between atoms: C1_1  and  C2_2 
ROOT
HETATM    1  C2  UNL     1     -33.426   5.438   2.818  1.00 20.00     0.391 C 
HETATM    2  F4  UNL     1     -32.569   4.396   2.648  1.00 20.00    -0.178 F 
HETATM    3  F5  UNL     1     -34.204   5.481   1.706  1.00 20.00    -0.178 F 
HETATM    4 CL6  UNL     1     -32.500   6.939   2.956  1.00 20.00    -0.039 Cl
ENDROOT
BRANCH   1   5
HETATM    5  C1  UNL     1     -34.227   5.279   4.071  1.00 20.00     0.282 C 
HETATM    6  O3  UNL     1     -34.982   4.342   4.293  1.00 20.00    -0.277 OA
HETATM    7 BR7  UNL     1     -34.042   6.568   5.464  1.00 20.00    -0.001 Br
ENDBRANCH   1   5
TORSDOF 1
ENDMDL
MODEL 7
REMARK VINA RESULT:      -4.1      1.982      1.997
REMARK  1 active torsions:
REMARK  status: ('A' for Active; 'I' for Inactive)
REMARK    1  A    between atoms: C1_1  and  C2_2 
ROOT
HETATM    1  C2  UNL     1     -34.683   5.779   4.509  1.00 20.00     0.391 C 
HETATM    2  F4  UNL     1     -34.492   7.030   5.008  1.00 20.00    -0.178 F 
HETATM    3  F5  UNL     1     -35.978   5.721   4.105  1.00 20.00    -0.178 F 
HETATM    4 CL6  UNL     1     -34.405   4.591   5.789  1.00 20.00    -0.039 Cl
ENDROOT
BRANCH   1   5
HETATM    5  C1  UNL     1     -33.723   5.488   3.399  1.00 20.00     0.282 C 
HETATM    6  O3  UNL     1     -33.612   4.401   2.849  1.00 20.00    -0.277 OA
HETATM    7 BR7  UNL     1     -32.623   6.894   2.729  1.00 20.00    -0.001 Br
ENDBRANCH   1   5
TORSDOF 1
ENDMDL
MODEL 8
REMARK VINA RESULT:      -4.1      2.755      3.090
REMARK  1 active torsions:
REMARK  status: ('A' for Active; 'I' for Inactive)
REMARK    1  A    between atoms: C1_1  and  C2_2 
ROOT
HETATM    1  C2  UNL     1     -32.969   6.663   3.166  1.00 20.00     0.391 C 
HETATM    2  F4  UNL     1     -33.566   7.589   2.368  1.00 20.00    -0.178 F 
HETATM    3  F5  UNL     1     -31.688   7.079   3.343  1.00 20.00    -0.178 F 
HETATM    4 CL6  UNL     1     -32.978   5.095   2.347  1.00 20.00    -0.039 Cl
ENDROOT
BRANCH   1   5
HETATM    5  C1  UNL     1     -33.705   6.509   4.458  1.00 20.00     0.282 C 
HETATM    6  O3  UNL     1     -33.508   7.195   5.452  1.00 20.00    -0.277 OA
HETATM    7 BR7  UNL     1     -35.092   5.207   4.589  1.00 20.00    -0.001 Br
ENDBRANCH   1   5
TORSDOF 1
ENDMDL
MODEL 9
REMARK VINA RESULT:      -3.7     12.355     12.672
REMARK  1 active torsions:
REMARK  status: ('A' for Active; 'I' for Inactive)
REMARK    1  A    between atoms: C1_1  and  C2_2 
ROOT
HETATM    1  C2  UNL     1     -34.541  14.617  -4.158  1.00 20.00     0.391 C 
HETATM    2  F4  UNL     1     -33.445  13.814  -4.089  1.00 20.00    -0.178 F 
HETATM    3  F5  UNL     1     -34.317  15.484  -5.178  1.00 20.00    -0.178 F 
HETATM    4 CL6  UNL     1     -34.705  15.511  -2.641  1.00 20.00    -0.039 Cl
ENDROOT
BRANCH   1   5
HETATM    5  C1  UNL     1     -35.787  13.813  -4.352  1.00 20.00     0.282 C 
HETATM    6  O3  UNL     1     -35.811  12.597  -4.485  1.00 20.00    -0.277 OA
HETATM    7 BR7  UNL     1     -37.476  14.698  -4.339  1.00 20.00    -0.001 Br
ENDBRANCH   1   5
TORSDOF 1
ENDMDL
