MODEL 1
REMARK VINA RESULT:      -4.7      0.000      0.000
REMARK  1 active torsions:
REMARK  status: ('A' for Active; 'I' for Inactive)
REMARK    1  A    between atoms: C1_1  and  C2_2 
ROOT
HETATM    1  C2  UNL     1     -34.907   5.320   4.727  1.00 20.00     0.395 C 
HETATM    2  F4  UNL     1     -36.086   5.638   4.131  1.00 20.00    -0.178 F 
HETATM    3  F5  UNL     1     -35.215   4.921   5.990  1.00 20.00    -0.178 F 
HETATM    4 CL7  UNL     1     -34.147   3.973   3.863  1.00 20.00    -0.038 Cl
ENDROOT
BRANCH   1   5
HETATM    5  C1  UNL     1     -33.931   6.466   4.744  1.00 20.00     0.307 C 
HETATM    6  O3  UNL     1     -33.740   7.124   5.763  1.00 20.00    -0.272 OA
HETATM    7 CL6  UNL     1     -33.117   6.696   3.223  1.00 20.00    -0.036 Cl
ENDBRANCH   1   5
TORSDOF 1
ENDMDL
MODEL 2
REMARK VINA RESULT:      -4.7      1.830      2.135
REMARK  1 active torsions:
REMARK  status: ('A' for Active; 'I' for Inactive)
REMARK    1  A    between atoms: C1_1  and  C2_2 
ROOT
HETATM    1  C2  UNL     1     -34.637   5.345   4.539  1.00 20.00     0.395 C 
HETATM    2  F4  UNL     1     -34.500   4.014   4.770  1.00 20.00    -0.178 F 
HETATM    3  F5  UNL     1     -35.922   5.531   4.134  1.00 20.00    -0.178 F 
HETATM    4 CL7  UNL     1     -34.368   6.241   6.044  1.00 20.00    -0.038 Cl
ENDROOT
BRANCH   1   5
HETATM    5  C1  UNL     1     -33.666   5.865   3.513  1.00 20.00     0.307 C 
HETATM    6  O3  UNL     1     -33.258   7.023   3.553  1.00 20.00    -0.272 OA
HETATM    7 CL6  UNL     1     -33.185   4.662   2.353  1.00 20.00    -0.036 Cl
ENDBRANCH   1   5
TORSDOF 1
ENDMDL
MODEL 3
REMARK VINA RESULT:      -4.7      1.970      2.145
REMARK  1 active torsions:
REMARK  status: ('A' for Active; 'I' for Inactive)
REMARK    1  A    between atoms: C1_1  and  C2_2 
ROOT
HETATM    1  C2  UNL     1     -34.771   5.183   4.443  1.00 20.00     0.395 C 
HETATM    2  F4  UNL     1     -34.463   3.976   3.900  1.00 20.00    -0.178 F 
HETATM    3  F5  UNL     1     -35.998   5.516   3.961  1.00 20.00    -0.178 F 
HETATM    4 CL7  UNL     1     -34.860   5.036   6.206  1.00 20.00    -0.038 Cl
ENDROOT
BRANCH   1   5
HETATM    5  C1  UNL     1     -33.755   6.246   4.121  1.00 20.00     0.307 C 
HETATM    6  O3  UNL     1     -33.294   6.362   2.988  1.00 20.00    -0.272 OA
HETATM    7 CL6  UNL     1     -33.374   7.266   5.478  1.00 20.00    -0.036 Cl
ENDBRANCH   1   5
TORSDOF 1
ENDMDL
MODEL 4
REMARK VINA RESULT:      -4.6      2.202      2.368
REMARK  1 active torsions:
REMARK  status: ('A' for Active; 'I' for Inactive)
REMARK    1  A    between atoms: C1_1  and  C2_2 
ROOT
HETATM    1  C2  UNL     1     -34.847   5.665   4.453  1.00 20.00     0.395 C 
HETATM    2  F4  UNL     1     -36.159   5.696   4.097  1.00 20.00    -0.178 F 
HETATM    3  F5  UNL     1     -34.367   6.919   4.245  1.00 20.00    -0.178 F 
HETATM    4 CL7  UNL     1     -34.707   5.267   6.173  1.00 20.00    -0.038 Cl
ENDROOT
BRANCH   1   5
HETATM    5  C1  UNL     1     -34.055   4.646   3.678  1.00 20.00     0.307 C 
HETATM    6  O3  UNL     1     -34.137   3.447   3.935  1.00 20.00    -0.272 OA
HETATM    7 CL6  UNL     1     -33.092   5.345   2.409  1.00 20.00    -0.036 Cl
ENDBRANCH   1   5
TORSDOF 1
ENDMDL
MODEL 5
REMARK VINA RESULT:      -4.5      2.132      2.434
REMARK  1 active torsions:
REMARK  status: ('A' for Active; 'I' for Inactive)
REMARK    1  A    between atoms: C1_1  and  C2_2 
ROOT
HETATM    1  C2  UNL     1     -34.548   5.387   4.440  1.00 20.00     0.395 C 
HETATM    2  F4  UNL     1     -34.506   4.175   5.053  1.00 20.00    -0.178 F 
HETATM    3  F5  UNL     1     -35.842   5.583   4.071  1.00 20.00    -0.178 F 
HETATM    4 CL7  UNL     1     -34.074   6.650   5.588  1.00 20.00    -0.038 Cl
ENDROOT
BRANCH   1   5
HETATM    5  C1  UNL     1     -33.626   5.474   3.253  1.00 20.00     0.307 C 
HETATM    6  O3  UNL     1     -33.512   4.537   2.466  1.00 20.00    -0.272 OA
HETATM    7 CL6  UNL     1     -32.821   7.010   3.121  1.00 20.00    -0.036 Cl
ENDBRANCH   1   5
TORSDOF 1
ENDMDL
MODEL 6
REMARK VINA RESULT:      -4.4      1.762      1.985
REMARK  1 active torsions:
REMARK  status: ('A' for Active; 'I' for Inactive)
REMARK    1  A    between atoms: C1_1  and  C2_2 
ROOT
HETATM    1  C2  UNL     1     -34.704   5.227   4.182  1.00 20.00     0.395 C 
HETATM    2  F4  UNL     1     -35.958   5.453   3.712  1.00 20.00    -0.178 F 
HETATM    3  F5  UNL     1     -34.466   3.899   4.014  1.00 20.00    -0.178 F 
HETATM    4 CL7  UNL     1     -33.535   6.151   3.224  1.00 20.00    -0.038 Cl
ENDROOT
BRANCH   1   5
HETATM    5  C1  UNL     1     -34.538   5.629   5.624  1.00 20.00     0.307 C 
HETATM    6  O3  UNL     1     -34.987   4.936   6.533  1.00 20.00    -0.272 OA
HETATM    7 CL6  UNL     1     -33.635   7.103   5.825  1.00 20.00    -0.036 Cl
ENDBRANCH   1   5
TORSDOF 1
ENDMDL
MODEL 7
REMARK VINA RESULT:      -4.1      2.728      3.041
REMARK  1 active torsions:
REMARK  status: ('A' for Active; 'I' for Inactive)
REMARK    1  A    between atoms: C1_1  and  C2_2 
ROOT
HETATM    1  C2  UNL     1     -33.416   5.440   2.782  1.00 20.00     0.395 C 
HETATM    2  F4  UNL     1     -34.191   5.470   1.666  1.00 20.00    -0.178 F 
HETATM    3  F5  UNL     1     -32.565   4.391   2.627  1.00 20.00    -0.178 F 
HETATM    4 CL7  UNL     1     -32.476   6.937   2.893  1.00 20.00    -0.038 Cl
ENDROOT
BRANCH   1   5
HETATM    5  C1  UNL     1     -34.219   5.305   4.048  1.00 20.00     0.307 C 
HETATM    6  O3  UNL     1     -34.893   4.302   4.269  1.00 20.00    -0.272 OA
HETATM    7 CL6  UNL     1     -34.040   6.662   5.122  1.00 20.00    -0.036 Cl
ENDBRANCH   1   5
TORSDOF 1
ENDMDL
MODEL 8
REMARK VINA RESULT:      -4.0      2.522      2.985
REMARK  1 active torsions:
REMARK  status: ('A' for Active; 'I' for Inactive)
REMARK    1  A    between atoms: C1_1  and  C2_2 
ROOT
HETATM    1  C2  UNL     1     -33.068   6.610   3.220  1.00 20.00     0.395 C 
HETATM    2  F4  UNL     1     -31.793   7.026   3.443  1.00 20.00    -0.178 F 
HETATM    3  F5  UNL     1     -33.626   7.525   2.382  1.00 20.00    -0.178 F 
HETATM    4 CL7  UNL     1     -33.046   5.029   2.422  1.00 20.00    -0.038 Cl
ENDROOT
BRANCH   1   5
HETATM    5  C1  UNL     1     -33.870   6.476   4.487  1.00 20.00     0.307 C 
HETATM    6  O3  UNL     1     -33.565   7.098   5.501  1.00 20.00    -0.272 OA
HETATM    7 CL6  UNL     1     -35.239   5.416   4.323  1.00 20.00    -0.036 Cl
ENDBRANCH   1   5
TORSDOF 1
ENDMDL
MODEL 9
REMARK VINA RESULT:      -3.9      2.345      2.984
REMARK  1 active torsions:
REMARK  status: ('A' for Active; 'I' for Inactive)
REMARK    1  A    between atoms: C1_1  and  C2_2 
ROOT
HETATM    1  C2  UNL     1     -33.803   6.356   4.035  1.00 20.00     0.395 C 
HETATM    2  F4  UNL     1     -32.942   6.976   4.884  1.00 20.00    -0.178 F 
HETATM    3  F5  UNL     1     -34.757   7.273   3.723  1.00 20.00    -0.178 F 
HETATM    4 CL7  UNL     1     -32.945   5.886   2.558  1.00 20.00    -0.038 Cl
ENDROOT
BRANCH   1   5
HETATM    5  C1  UNL     1     -34.417   5.115   4.627  1.00 20.00     0.307 C 
HETATM    6  O3  UNL     1     -34.491   4.073   3.981  1.00 20.00    -0.272 OA
HETATM    7 CL6  UNL     1     -34.938   5.326   6.273  1.00 20.00    -0.036 Cl
ENDBRANCH   1   5
TORSDOF 1
ENDMDL
