MODEL 1
REMARK VINA RESULT:      -4.8      0.000      0.000
REMARK  1 active torsions:
REMARK  status: ('A' for Active; 'I' for Inactive)
REMARK    1  A    between atoms: C5_5  and  C8_8 
ROOT
HETATM    1  C1  UNL     1     -33.231   6.941   4.960  1.00 20.00     0.010 C 
HETATM    2  C2  UNL     1     -34.388   6.423   5.812  1.00 20.00     0.035 C 
HETATM    3  C3  UNL     1     -33.552   5.207   3.155  1.00 20.00     0.041 C 
HETATM    4  C5  UNL     1     -33.486   6.713   3.461  1.00 20.00     0.019 C 
HETATM    5  C6  UNL     1     -34.795   5.034   5.437  1.00 20.00     0.151 A 
HETATM    6  C7  UNL     1     -34.415   4.443   4.106  1.00 20.00     0.151 A 
HETATM    7  O10 UNL     1     -35.717   4.985   4.331  1.00 20.00    -0.375 OA
ENDROOT
BRANCH   4   8
HETATM    8  C8  UNL     1     -32.425   7.381   2.625  1.00 20.00     0.149 A 
HETATM    9  C4  UNL     1     -32.807   8.295   1.510  1.00 20.00     0.200 A 
HETATM   10  O9  UNL     1     -32.399   6.938   1.275  1.00 20.00    -0.381 OA
ENDBRANCH   4   8
TORSDOF 1
ENDMDL
MODEL 2
REMARK VINA RESULT:      -4.4     16.363     16.879
REMARK  1 active torsions:
REMARK  status: ('A' for Active; 'I' for Inactive)
REMARK    1  A    between atoms: C5_5  and  C8_8 
ROOT
HETATM    1  C1  UNL     1     -24.185  16.721  10.795  1.00 20.00     0.010 C 
HETATM    2  C2  UNL     1     -24.991  16.790  12.092  1.00 20.00     0.035 C 
HETATM    3  C3  UNL     1     -25.020  18.949   9.953  1.00 20.00     0.041 C 
HETATM    4  C5  UNL     1     -23.774  18.122  10.311  1.00 20.00     0.019 C 
HETATM    5  C6  UNL     1     -26.098  17.793  12.024  1.00 20.00     0.151 A 
HETATM    6  C7  UNL     1     -26.095  18.886  10.990  1.00 20.00     0.151 A 
HETATM    7  O10 UNL     1     -25.675  19.136  12.332  1.00 20.00    -0.375 OA
ENDROOT
BRANCH   4   8
HETATM    8  C8  UNL     1     -22.837  18.032   9.134  1.00 20.00     0.149 A 
HETATM    9  C4  UNL     1     -21.361  18.059   9.341  1.00 20.00     0.200 A 
HETATM   10  O9  UNL     1     -22.089  19.220   8.909  1.00 20.00    -0.381 OA
ENDBRANCH   4   8
TORSDOF 1
ENDMDL
MODEL 3
REMARK VINA RESULT:      -4.4     15.967     16.574
REMARK  1 active torsions:
REMARK  status: ('A' for Active; 'I' for Inactive)
REMARK    1  A    between atoms: C5_5  and  C8_8 
ROOT
HETATM    1  C1  UNL     1     -25.345  18.960  10.583  1.00 20.00     0.010 C 
HETATM    2  C2  UNL     1     -25.580  17.989  11.739  1.00 20.00     0.035 C 
HETATM    3  C3  UNL     1     -22.989  18.162  10.160  1.00 20.00     0.041 C 
HETATM    4  C5  UNL     1     -24.380  18.374   9.539  1.00 20.00     0.019 C 
HETATM    5  C6  UNL     1     -24.304  17.435  12.288  1.00 20.00     0.151 A 
HETATM    6  C7  UNL     1     -23.028  17.486  11.493  1.00 20.00     0.151 A 
HETATM    7  O10 UNL     1     -23.812  16.294  11.559  1.00 20.00    -0.375 OA
ENDROOT
BRANCH   4   8
HETATM    8  C8  UNL     1     -24.292  19.263   8.326  1.00 20.00     0.149 A 
HETATM    9  C4  UNL     1     -25.128  18.982   7.123  1.00 20.00     0.200 A 
HETATM   10  O9  UNL     1     -23.740  18.619   7.185  1.00 20.00    -0.381 OA
ENDBRANCH   4   8
TORSDOF 1
ENDMDL
MODEL 4
REMARK VINA RESULT:      -4.0     11.384     12.049
REMARK  1 active torsions:
REMARK  status: ('A' for Active; 'I' for Inactive)
REMARK    1  A    between atoms: C5_5  and  C8_8 
ROOT
HETATM    1  C1  UNL     1     -33.265  16.306  -3.239  1.00 20.00     0.010 C 
HETATM    2  C2  UNL     1     -32.846  15.063  -4.021  1.00 20.00     0.035 C 
HETATM    3  C3  UNL     1     -35.716  15.707  -3.259  1.00 20.00     0.041 C 
HETATM    4  C5  UNL     1     -34.505  16.036  -2.370  1.00 20.00     0.019 C 
HETATM    5  C6  UNL     1     -33.995  14.419  -4.730  1.00 20.00     0.151 A 
HETATM    6  C7  UNL     1     -35.416  14.708  -4.329  1.00 20.00     0.151 A 
HETATM    7  O10 UNL     1     -34.752  13.520  -3.897  1.00 20.00    -0.375 OA
ENDROOT
BRANCH   4   8
HETATM    8  C8  UNL     1     -34.803  17.211  -1.475  1.00 20.00     0.149 A 
HETATM    9  C4  UNL     1     -35.371  16.998  -0.113  1.00 20.00     0.200 A 
HETATM   10  O9  UNL     1     -36.190  17.399  -1.223  1.00 20.00    -0.381 OA
ENDBRANCH   4   8
TORSDOF 1
ENDMDL
MODEL 5
REMARK VINA RESULT:      -4.0     11.718     12.383
REMARK  1 active torsions:
REMARK  status: ('A' for Active; 'I' for Inactive)
REMARK    1  A    between atoms: C5_5  and  C8_8 
ROOT
HETATM    1  C1  UNL     1     -32.796  16.236  -3.241  1.00 20.00     0.010 C 
HETATM    2  C2  UNL     1     -33.010  17.440  -2.326  1.00 20.00     0.035 C 
HETATM    3  C3  UNL     1     -35.148  15.373  -2.948  1.00 20.00     0.041 C 
HETATM    4  C5  UNL     1     -34.093  15.838  -3.965  1.00 20.00     0.019 C 
HETATM    5  C6  UNL     1     -34.209  17.283  -1.447  1.00 20.00     0.151 A 
HETATM    6  C7  UNL     1     -35.288  16.286  -1.774  1.00 20.00     0.151 A 
HETATM    7  O10 UNL     1     -35.442  17.672  -2.083  1.00 20.00    -0.375 OA
ENDROOT
BRANCH   4   8
HETATM    8  C8  UNL     1     -33.831  14.767  -4.991  1.00 20.00     0.149 A 
HETATM    9  C4  UNL     1     -34.103  15.022  -6.435  1.00 20.00     0.200 A 
HETATM   10  O9  UNL     1     -35.010  14.271  -5.612  1.00 20.00    -0.381 OA
ENDBRANCH   4   8
TORSDOF 1
ENDMDL
MODEL 6
REMARK VINA RESULT:      -3.9     11.146     12.130
REMARK  1 active torsions:
REMARK  status: ('A' for Active; 'I' for Inactive)
REMARK    1  A    between atoms: C5_5  and  C8_8 
ROOT
HETATM    1  C1  UNL     1     -34.484  14.918  -3.472  1.00 20.00     0.010 C 
HETATM    2  C2  UNL     1     -35.016  13.631  -4.099  1.00 20.00     0.035 C 
HETATM    3  C3  UNL     1     -36.653  16.171  -3.778  1.00 20.00     0.041 C 
HETATM    4  C5  UNL     1     -35.599  15.702  -2.760  1.00 20.00     0.019 C 
HETATM    5  C6  UNL     1     -36.252  13.859  -4.909  1.00 20.00     0.151 A 
HETATM    6  C7  UNL     1     -37.086  15.098  -4.725  1.00 20.00     0.151 A 
HETATM    7  O10 UNL     1     -37.461  13.858  -4.124  1.00 20.00    -0.375 OA
ENDROOT
BRANCH   4   8
HETATM    8  C8  UNL     1     -35.035  16.874  -2.000  1.00 20.00     0.149 A 
HETATM    9  C4  UNL     1     -35.307  17.030  -0.542  1.00 20.00     0.200 A 
HETATM   10  O9  UNL     1     -36.024  17.782  -1.534  1.00 20.00    -0.381 OA
ENDBRANCH   4   8
TORSDOF 1
ENDMDL
MODEL 7
REMARK VINA RESULT:      -3.8     11.797     12.445
REMARK  1 active torsions:
REMARK  status: ('A' for Active; 'I' for Inactive)
REMARK    1  A    between atoms: C5_5  and  C8_8 
ROOT
HETATM    1  C1  UNL     1     -35.085  15.831  -2.259  1.00 20.00     0.010 C 
HETATM    2  C2  UNL     1     -35.787  15.086  -3.392  1.00 20.00     0.035 C 
HETATM    3  C3  UNL     1     -32.848  15.856  -3.426  1.00 20.00     0.041 C 
HETATM    4  C5  UNL     1     -33.948  16.721  -2.788  1.00 20.00     0.019 C 
HETATM    5  C6  UNL     1     -34.823  14.409  -4.314  1.00 20.00     0.151 A 
HETATM    6  C7  UNL     1     -33.375  14.815  -4.360  1.00 20.00     0.151 A 
HETATM    7  O10 UNL     1     -34.305  15.278  -5.340  1.00 20.00    -0.375 OA
ENDROOT
BRANCH   4   8
HETATM    8  C8  UNL     1     -33.380  17.581  -1.688  1.00 20.00     0.149 A 
HETATM    9  C4  UNL     1     -33.395  19.067  -1.808  1.00 20.00     0.200 A 
HETATM   10  O9  UNL     1     -32.211  18.296  -2.069  1.00 20.00    -0.381 OA
ENDBRANCH   4   8
TORSDOF 1
ENDMDL
MODEL 8
REMARK VINA RESULT:      -3.8     11.564     12.423
REMARK  1 active torsions:
REMARK  status: ('A' for Active; 'I' for Inactive)
REMARK    1  A    between atoms: C5_5  and  C8_8 
ROOT
HETATM    1  C1  UNL     1     -35.673  15.926  -3.436  1.00 20.00     0.010 C 
HETATM    2  C2  UNL     1     -34.277  15.622  -2.896  1.00 20.00     0.035 C 
HETATM    3  C3  UNL     1     -35.262  14.777  -5.644  1.00 20.00     0.041 C 
HETATM    4  C5  UNL     1     -36.160  14.829  -4.396  1.00 20.00     0.019 C 
HETATM    5  C6  UNL     1     -33.315  15.249  -3.979  1.00 20.00     0.151 A 
HETATM    6  C7  UNL     1     -33.801  14.794  -5.329  1.00 20.00     0.151 A 
HETATM    7  O10 UNL     1     -33.372  13.855  -4.342  1.00 20.00    -0.375 OA
ENDROOT
BRANCH   4   8
HETATM    8  C8  UNL     1     -37.599  15.050  -4.783  1.00 20.00     0.149 A 
HETATM    9  C4  UNL     1     -38.659  15.125  -3.737  1.00 20.00     0.200 A 
HETATM   10  O9  UNL     1     -38.440  13.936  -4.513  1.00 20.00    -0.381 OA
ENDBRANCH   4   8
TORSDOF 1
ENDMDL
MODEL 9
REMARK VINA RESULT:      -3.7     15.900     16.857
REMARK  1 active torsions:
REMARK  status: ('A' for Active; 'I' for Inactive)
REMARK    1  A    between atoms: C5_5  and  C8_8 
ROOT
HETATM    1  C1  UNL     1     -21.792  17.717  11.199  1.00 20.00     0.010 C 
HETATM    2  C2  UNL     1     -22.723  18.146  12.331  1.00 20.00     0.035 C 
HETATM    3  C3  UNL     1     -23.627  16.594   9.879  1.00 20.00     0.041 C 
HETATM    4  C5  UNL     1     -22.528  17.670   9.849  1.00 20.00     0.019 C 
HETATM    5  C6  UNL     1     -24.010  17.384  12.332  1.00 20.00     0.151 A 
HETATM    6  C7  UNL     1     -24.478  16.646  11.107  1.00 20.00     0.151 A 
HETATM    7  O10 UNL     1     -25.002  17.932  11.442  1.00 20.00    -0.375 OA
ENDROOT
BRANCH   4   8
HETATM    8  C8  UNL     1     -21.565  17.417   8.718  1.00 20.00     0.149 A 
HETATM    9  C4  UNL     1     -21.917  17.814   7.324  1.00 20.00     0.200 A 
HETATM   10  O9  UNL     1     -22.027  16.455   7.779  1.00 20.00    -0.381 OA
ENDBRANCH   4   8
TORSDOF 1
ENDMDL
