MODEL 1
REMARK VINA RESULT:      -4.8      0.000      0.000
REMARK  1 active torsions:
REMARK  status: ('A' for Active; 'I' for Inactive)
REMARK    1  A    between atoms: C1_1  and  C6_6 
ROOT
HETATM    1  C2  UNL     1     -22.830  17.891  11.685  1.00 20.00     0.005 C 
HETATM    2  C3  UNL     1     -24.330  18.154  11.484  1.00 20.00     0.006 C 
HETATM    3  C4  UNL     1     -22.361  18.600   9.325  1.00 20.00     0.017 C 
HETATM    4  C5  UNL     1     -23.596  16.628   9.822  1.00 20.00     0.010 C 
HETATM    5  C6  UNL     1     -23.856  18.920   9.155  1.00 20.00     0.059 C 
HETATM    6  C7  UNL     1     -22.373  17.406  10.297  1.00 20.00    -0.013 C 
HETATM    7  C8  UNL     1     -24.540  17.821   9.997  1.00 20.00    -0.003 C 
ENDROOT
BRANCH   5   8
HETATM    8  C1  UNL     1     -24.273  18.858   7.718  1.00 20.00     0.127 C 
HETATM    9  C9  UNL     1     -25.734  19.073   7.427  1.00 20.00     0.091 C 
HETATM   10  O10 UNL     1     -23.461  18.644   6.819  1.00 20.00    -0.298 OA
ENDBRANCH   5   8
TORSDOF 1
ENDMDL
MODEL 2
REMARK VINA RESULT:      -4.7     16.489     17.890
REMARK  1 active torsions:
REMARK  status: ('A' for Active; 'I' for Inactive)
REMARK    1  A    between atoms: C1_1  and  C6_6 
ROOT
HETATM    1  C2  UNL     1     -33.420  17.138  -3.653  1.00 20.00     0.005 C 
HETATM    2  C3  UNL     1     -34.847  17.524  -4.072  1.00 20.00     0.006 C 
HETATM    3  C4  UNL     1     -33.904  14.722  -4.127  1.00 20.00     0.017 C 
HETATM    4  C5  UNL     1     -34.974  15.893  -2.352  1.00 20.00     0.010 C 
HETATM    5  C6  UNL     1     -35.310  15.128  -4.603  1.00 20.00     0.059 C 
HETATM    6  C7  UNL     1     -33.608  15.748  -3.017  1.00 20.00    -0.013 C 
HETATM    7  C8  UNL     1     -35.671  16.292  -3.656  1.00 20.00    -0.003 C 
ENDROOT
BRANCH   5   8
HETATM    8  C1  UNL     1     -36.280  13.994  -4.484  1.00 20.00     0.127 C 
HETATM    9  C9  UNL     1     -37.733  14.359  -4.331  1.00 20.00     0.091 C 
HETATM   10  O10 UNL     1     -35.910  12.821  -4.511  1.00 20.00    -0.298 OA
ENDBRANCH   5   8
TORSDOF 1
ENDMDL
MODEL 3
REMARK VINA RESULT:      -4.5     16.218     17.874
REMARK  1 active torsions:
REMARK  status: ('A' for Active; 'I' for Inactive)
REMARK    1  A    between atoms: C1_1  and  C6_6 
ROOT
HETATM    1  C2  UNL     1     -33.452  16.942  -2.896  1.00 20.00     0.005 C 
HETATM    2  C3  UNL     1     -32.865  15.675  -3.538  1.00 20.00     0.006 C 
HETATM    3  C4  UNL     1     -35.744  15.919  -2.905  1.00 20.00     0.017 C 
HETATM    4  C5  UNL     1     -34.614  16.489  -4.920  1.00 20.00     0.010 C 
HETATM    5  C6  UNL     1     -35.134  14.633  -3.489  1.00 20.00     0.059 C 
HETATM    6  C7  UNL     1     -34.860  17.025  -3.513  1.00 20.00    -0.013 C 
HETATM    7  C8  UNL     1     -34.023  15.169  -4.417  1.00 20.00    -0.003 C 
ENDROOT
BRANCH   5   8
HETATM    8  C1  UNL     1     -36.152  13.836  -4.245  1.00 20.00     0.127 C 
HETATM    9  C9  UNL     1     -37.507  14.465  -4.425  1.00 20.00     0.091 C 
HETATM   10  O10 UNL     1     -35.893  12.722  -4.699  1.00 20.00    -0.298 OA
ENDBRANCH   5   8
TORSDOF 1
ENDMDL
MODEL 4
REMARK VINA RESULT:      -4.5     16.470     17.898
REMARK  1 active torsions:
REMARK  status: ('A' for Active; 'I' for Inactive)
REMARK    1  A    between atoms: C1_1  and  C6_6 
ROOT
HETATM    1  C2  UNL     1     -34.397  17.409  -2.663  1.00 20.00     0.005 C 
HETATM    2  C3  UNL     1     -34.860  16.123  -1.961  1.00 20.00     0.006 C 
HETATM    3  C4  UNL     1     -35.251  16.550  -4.861  1.00 20.00     0.017 C 
HETATM    4  C5  UNL     1     -33.410  15.536  -3.745  1.00 20.00     0.010 C 
HETATM    5  C6  UNL     1     -35.766  15.295  -4.136  1.00 20.00     0.059 C 
HETATM    6  C7  UNL     1     -33.985  16.913  -4.061  1.00 20.00    -0.013 C 
HETATM    7  C8  UNL     1     -34.690  15.055  -3.056  1.00 20.00    -0.003 C 
ENDROOT
BRANCH   5   8
HETATM    8  C1  UNL     1     -35.885  14.130  -5.070  1.00 20.00     0.127 C 
HETATM    9  C9  UNL     1     -35.785  14.429  -6.542  1.00 20.00     0.091 C 
HETATM   10  O10 UNL     1     -36.054  12.984  -4.655  1.00 20.00    -0.298 OA
ENDBRANCH   5   8
TORSDOF 1
ENDMDL
MODEL 5
REMARK VINA RESULT:      -4.4     22.180     23.959
REMARK  1 active torsions:
REMARK  status: ('A' for Active; 'I' for Inactive)
REMARK    1  A    between atoms: C1_1  and  C6_6 
ROOT
HETATM    1  C2  UNL     1     -42.153   4.678  -1.543  1.00 20.00     0.005 C 
HETATM    2  C3  UNL     1     -40.837   5.378  -1.170  1.00 20.00     0.006 C 
HETATM    3  C4  UNL     1     -43.417   6.822  -1.219  1.00 20.00     0.017 C 
HETATM    4  C5  UNL     1     -42.389   5.683   0.600  1.00 20.00     0.010 C 
HETATM    5  C6  UNL     1     -42.085   7.526  -0.909  1.00 20.00     0.059 C 
HETATM    6  C7  UNL     1     -43.192   5.402  -0.667  1.00 20.00    -0.013 C 
HETATM    7  C8  UNL     1     -41.290   6.440  -0.152  1.00 20.00    -0.003 C 
ENDROOT
BRANCH   5   8
HETATM    8  C1  UNL     1     -42.291   8.749  -0.070  1.00 20.00     0.127 C 
HETATM    9  C9  UNL     1     -41.055   9.496   0.353  1.00 20.00     0.091 C 
HETATM   10  O10 UNL     1     -43.416   9.126   0.257  1.00 20.00    -0.298 OA
ENDBRANCH   5   8
TORSDOF 1
ENDMDL
MODEL 6
REMARK VINA RESULT:      -4.4     16.176     17.123
REMARK  1 active torsions:
REMARK  status: ('A' for Active; 'I' for Inactive)
REMARK    1  A    between atoms: C1_1  and  C6_6 
ROOT
HETATM    1  C2  UNL     1     -34.749   5.153   6.218  1.00 20.00     0.005 C 
HETATM    2  C3  UNL     1     -34.074   6.514   5.983  1.00 20.00     0.006 C 
HETATM    3  C4  UNL     1     -33.949   4.338   3.984  1.00 20.00     0.017 C 
HETATM    4  C5  UNL     1     -35.558   6.080   4.183  1.00 20.00     0.010 C 
HETATM    5  C6  UNL     1     -33.224   5.681   3.787  1.00 20.00     0.059 C 
HETATM    6  C7  UNL     1     -35.191   4.735   4.804  1.00 20.00    -0.013 C 
HETATM    7  C8  UNL     1     -34.181   6.690   4.458  1.00 20.00    -0.003 C 
ENDROOT
BRANCH   5   8
HETATM    8  C1  UNL     1     -33.021   5.989   2.336  1.00 20.00     0.127 C 
HETATM    9  C9  UNL     1     -32.496   7.360   2.001  1.00 20.00     0.091 C 
HETATM   10  O10 UNL     1     -33.270   5.163   1.459  1.00 20.00    -0.298 OA
ENDBRANCH   5   8
TORSDOF 1
ENDMDL
MODEL 7
REMARK VINA RESULT:      -4.3     16.231     18.079
REMARK  1 active torsions:
REMARK  status: ('A' for Active; 'I' for Inactive)
REMARK    1  A    between atoms: C1_1  and  C6_6 
ROOT
HETATM    1  C2  UNL     1     -33.929  16.251  -2.332  1.00 20.00     0.005 C 
HETATM    2  C3  UNL     1     -33.344  16.981  -3.552  1.00 20.00     0.006 C 
HETATM    3  C4  UNL     1     -34.798  14.419  -3.811  1.00 20.00     0.017 C 
HETATM    4  C5  UNL     1     -35.663  16.634  -3.913  1.00 20.00     0.010 C 
HETATM    5  C6  UNL     1     -34.154  15.127  -5.015  1.00 20.00     0.059 C 
HETATM    6  C7  UNL     1     -35.200  15.593  -2.898  1.00 20.00    -0.013 C 
HETATM    7  C8  UNL     1     -34.334  16.622  -4.673  1.00 20.00    -0.003 C 
ENDROOT
BRANCH   5   8
HETATM    8  C1  UNL     1     -34.839  14.764  -6.297  1.00 20.00     0.127 C 
HETATM    9  C9  UNL     1     -34.255  15.336  -7.561  1.00 20.00     0.091 C 
HETATM   10  O10 UNL     1     -35.829  14.034  -6.316  1.00 20.00    -0.298 OA
ENDBRANCH   5   8
TORSDOF 1
ENDMDL
MODEL 8
REMARK VINA RESULT:      -4.3     16.466     18.171
REMARK  1 active torsions:
REMARK  status: ('A' for Active; 'I' for Inactive)
REMARK    1  A    between atoms: C1_1  and  C6_6 
ROOT
HETATM    1  C2  UNL     1     -33.278  16.196  -3.088  1.00 20.00     0.005 C 
HETATM    2  C3  UNL     1     -34.564  16.062  -2.259  1.00 20.00     0.006 C 
HETATM    3  C4  UNL     1     -34.609  16.136  -5.214  1.00 20.00     0.017 C 
HETATM    4  C5  UNL     1     -34.447  14.244  -3.780  1.00 20.00     0.010 C 
HETATM    5  C6  UNL     1     -35.895  16.065  -4.372  1.00 20.00     0.059 C 
HETATM    6  C7  UNL     1     -33.590  15.371  -4.350  1.00 20.00    -0.013 C 
HETATM    7  C8  UNL     1     -35.468  15.205  -3.163  1.00 20.00    -0.003 C 
ENDROOT
BRANCH   5   8
HETATM    8  C1  UNL     1     -37.018  15.433  -5.134  1.00 20.00     0.127 C 
HETATM    9  C9  UNL     1     -38.115  14.799  -4.322  1.00 20.00     0.091 C 
HETATM   10  O10 UNL     1     -37.044  15.432  -6.364  1.00 20.00    -0.298 OA
ENDBRANCH   5   8
TORSDOF 1
ENDMDL
MODEL 9
REMARK VINA RESULT:      -4.3     15.178     16.739
REMARK  1 active torsions:
REMARK  status: ('A' for Active; 'I' for Inactive)
REMARK    1  A    between atoms: C1_1  and  C6_6 
ROOT
HETATM    1  C2  UNL     1     -33.882  17.775  -1.394  1.00 20.00     0.005 C 
HETATM    2  C3  UNL     1     -32.694  17.441  -2.309  1.00 20.00     0.006 C 
HETATM    3  C4  UNL     1     -35.147  15.790  -2.264  1.00 20.00     0.017 C 
HETATM    4  C5  UNL     1     -34.645  17.663  -3.643  1.00 20.00     0.010 C 
HETATM    5  C6  UNL     1     -33.927  15.430  -3.129  1.00 20.00     0.059 C 
HETATM    6  C7  UNL     1     -35.099  17.329  -2.225  1.00 20.00    -0.013 C 
HETATM    7  C8  UNL     1     -33.375  16.813  -3.538  1.00 20.00    -0.003 C 
ENDROOT
BRANCH   5   8
HETATM    8  C1  UNL     1     -34.320  14.615  -4.323  1.00 20.00     0.127 C 
HETATM    9  C9  UNL     1     -35.698  14.009  -4.304  1.00 20.00     0.091 C 
HETATM   10  O10 UNL     1     -33.555  14.449  -5.272  1.00 20.00    -0.298 OA
ENDBRANCH   5   8
TORSDOF 1
ENDMDL
