MODEL 1
REMARK VINA RESULT:      -4.7      0.000      0.000
REMARK  1 active torsions:
REMARK  status: ('A' for Active; 'I' for Inactive)
REMARK    1  A    between atoms: C2_2  and  C5_5 
ROOT
HETATM    1  C3  UNL     1     -22.883  17.810   8.623  1.00 20.00     0.039 C 
HETATM    2  C4  UNL     1     -22.258  17.383   9.930  1.00 20.00     0.040 C 
HETATM    3  C5  UNL     1     -23.823  18.916   9.075  1.00 20.00     0.151 C 
HETATM    4  C6  UNL     1     -23.421  17.513  10.913  1.00 20.00     0.054 C 
HETATM    5  C9  UNL     1     -22.945  17.901  12.309  1.00 20.00     0.045 C 
HETATM    6  C10 UNL     1     -24.266  16.239  10.976  1.00 20.00     0.045 C 
HETATM    7  O11 UNL     1     -24.258  18.570  10.401  1.00 20.00    -0.371 OA
ENDROOT
BRANCH   3   8
HETATM    8  C2  UNL     1     -25.010  19.094   8.195  1.00 20.00    -0.059 C 
HETATM    9  C1  UNL     1     -24.887  19.098   6.853  1.00 20.00    -0.026 C 
HETATM   10  C7  UNL     1     -25.957  19.263   5.851  1.00 20.00     0.036 C 
HETATM   11  C8  UNL     1     -26.317  19.262   8.915  1.00 20.00     0.046 C 
ENDBRANCH   3   8
TORSDOF 1
ENDMDL
MODEL 2
REMARK VINA RESULT:      -4.7      1.492      2.683
REMARK  1 active torsions:
REMARK  status: ('A' for Active; 'I' for Inactive)
REMARK    1  A    between atoms: C2_2  and  C5_5 
ROOT
HETATM    1  C3  UNL     1     -22.325  17.924  10.970  1.00 20.00     0.039 C 
HETATM    2  C4  UNL     1     -23.231  17.787  12.170  1.00 20.00     0.040 C 
HETATM    3  C5  UNL     1     -23.267  18.517   9.935  1.00 20.00     0.151 C 
HETATM    4  C6  UNL     1     -24.566  17.397  11.536  1.00 20.00     0.054 C 
HETATM    5  C9  UNL     1     -25.752  17.932  12.331  1.00 20.00     0.045 C 
HETATM    6  C10 UNL     1     -24.693  15.883  11.351  1.00 20.00     0.045 C 
HETATM    7  O11 UNL     1     -24.577  18.002  10.227  1.00 20.00    -0.371 OA
ENDROOT
BRANCH   3   8
HETATM    8  C2  UNL     1     -22.905  18.183   8.531  1.00 20.00    -0.059 C 
HETATM    9  C1  UNL     1     -21.790  17.484   8.246  1.00 20.00    -0.026 C 
HETATM   10  C7  UNL     1     -21.295  17.076   6.918  1.00 20.00     0.036 C 
HETATM   11  C8  UNL     1     -23.868  18.680   7.490  1.00 20.00     0.046 C 
ENDBRANCH   3   8
TORSDOF 1
ENDMDL
MODEL 3
REMARK VINA RESULT:      -4.5     14.568     17.773
REMARK  1 active torsions:
REMARK  status: ('A' for Active; 'I' for Inactive)
REMARK    1  A    between atoms: C2_2  and  C5_5 
ROOT
HETATM    1  C3  UNL     1     -34.924  13.998  -4.033  1.00 20.00     0.039 C 
HETATM    2  C4  UNL     1     -36.282  13.654  -4.598  1.00 20.00     0.040 C 
HETATM    3  C5  UNL     1     -35.283  15.014  -2.961  1.00 20.00     0.151 C 
HETATM    4  C6  UNL     1     -37.015  14.994  -4.543  1.00 20.00     0.054 C 
HETATM    5  C9  UNL     1     -38.511  14.815  -4.303  1.00 20.00     0.045 C 
HETATM    6  C10 UNL     1     -36.777  15.831  -5.803  1.00 20.00     0.045 C 
HETATM    7  O11 UNL     1     -36.451  15.711  -3.427  1.00 20.00    -0.371 OA
ENDROOT
BRANCH   3   8
HETATM    8  C2  UNL     1     -34.201  15.995  -2.676  1.00 20.00    -0.059 C 
HETATM    9  C1  UNL     1     -34.310  16.879  -1.665  1.00 20.00    -0.026 C 
HETATM   10  C7  UNL     1     -33.335  17.908  -1.257  1.00 20.00     0.036 C 
HETATM   11  C8  UNL     1     -33.010  15.913  -3.588  1.00 20.00     0.046 C 
ENDBRANCH   3   8
TORSDOF 1
ENDMDL
MODEL 4
REMARK VINA RESULT:      -4.4     13.448     16.124
REMARK  1 active torsions:
REMARK  status: ('A' for Active; 'I' for Inactive)
REMARK    1  A    between atoms: C2_2  and  C5_5 
ROOT
HETATM    1  C3  UNL     1     -35.241  17.067  -2.186  1.00 20.00     0.039 C 
HETATM    2  C4  UNL     1     -34.389  18.121  -1.520  1.00 20.00     0.040 C 
HETATM    3  C5  UNL     1     -34.245  15.932  -2.367  1.00 20.00     0.151 C 
HETATM    4  C6  UNL     1     -33.034  17.935  -2.203  1.00 20.00     0.054 C 
HETATM    5  C9  UNL     1     -31.875  18.263  -1.268  1.00 20.00     0.045 C 
HETATM    6  C10 UNL     1     -32.923  18.755  -3.492  1.00 20.00     0.045 C 
HETATM    7  O11 UNL     1     -32.957  16.540  -2.562  1.00 20.00    -0.371 OA
ENDROOT
BRANCH   3   8
HETATM    8  C2  UNL     1     -34.552  15.041  -3.519  1.00 20.00    -0.059 C 
HETATM    9  C1  UNL     1     -35.813  14.641  -3.773  1.00 20.00    -0.026 C 
HETATM   10  C7  UNL     1     -36.278  13.765  -4.865  1.00 20.00     0.036 C 
HETATM   11  C8  UNL     1     -33.365  14.642  -4.348  1.00 20.00     0.046 C 
ENDBRANCH   3   8
TORSDOF 1
ENDMDL
MODEL 5
REMARK VINA RESULT:      -4.4     14.971     17.272
REMARK  1 active torsions:
REMARK  status: ('A' for Active; 'I' for Inactive)
REMARK    1  A    between atoms: C2_2  and  C5_5 
ROOT
HETATM    1  C3  UNL     1     -33.143  15.111  -4.047  1.00 20.00     0.039 C 
HETATM    2  C4  UNL     1     -33.678  14.692  -5.396  1.00 20.00     0.040 C 
HETATM    3  C5  UNL     1     -34.424  15.388  -3.277  1.00 20.00     0.151 C 
HETATM    4  C6  UNL     1     -34.897  15.598  -5.565  1.00 20.00     0.054 C 
HETATM    5  C9  UNL     1     -36.004  14.920  -6.366  1.00 20.00     0.045 C 
HETATM    6  C10 UNL     1     -34.531  16.942  -6.201  1.00 20.00     0.045 C 
HETATM    7  O11 UNL     1     -35.386  15.862  -4.234  1.00 20.00    -0.371 OA
ENDROOT
BRANCH   3   8
HETATM    8  C2  UNL     1     -34.267  16.395  -2.192  1.00 20.00    -0.059 C 
HETATM    9  C1  UNL     1     -35.206  16.543  -1.238  1.00 20.00    -0.026 C 
HETATM   10  C7  UNL     1     -35.200  17.488  -0.105  1.00 20.00     0.036 C 
HETATM   11  C8  UNL     1     -33.004  17.206  -2.254  1.00 20.00     0.046 C 
ENDBRANCH   3   8
TORSDOF 1
ENDMDL
MODEL 6
REMARK VINA RESULT:      -4.3     14.058     17.121
REMARK  1 active torsions:
REMARK  status: ('A' for Active; 'I' for Inactive)
REMARK    1  A    between atoms: C2_2  and  C5_5 
ROOT
HETATM    1  C3  UNL     1     -33.128  15.116  -4.081  1.00 20.00     0.039 C 
HETATM    2  C4  UNL     1     -33.759  14.696  -5.387  1.00 20.00     0.040 C 
HETATM    3  C5  UNL     1     -34.347  15.479  -3.249  1.00 20.00     0.151 C 
HETATM    4  C6  UNL     1     -34.937  15.662  -5.512  1.00 20.00     0.054 C 
HETATM    5  C9  UNL     1     -36.121  15.025  -6.233  1.00 20.00     0.045 C 
HETATM    6  C10 UNL     1     -34.538  16.969  -6.202  1.00 20.00     0.045 C 
HETATM    7  O11 UNL     1     -35.336  15.981  -4.164  1.00 20.00    -0.371 OA
ENDROOT
BRANCH   3   8
HETATM    8  C2  UNL     1     -34.078  16.501  -2.201  1.00 20.00    -0.059 C 
HETATM    9  C1  UNL     1     -32.921  17.192  -2.183  1.00 20.00    -0.026 C 
HETATM   10  C7  UNL     1     -32.506  18.229  -1.219  1.00 20.00     0.036 C 
HETATM   11  C8  UNL     1     -35.179  16.689  -1.197  1.00 20.00     0.046 C 
ENDBRANCH   3   8
TORSDOF 1
ENDMDL
MODEL 7
REMARK VINA RESULT:      -4.3     14.138     16.885
REMARK  1 active torsions:
REMARK  status: ('A' for Active; 'I' for Inactive)
REMARK    1  A    between atoms: C2_2  and  C5_5 
ROOT
HETATM    1  C3  UNL     1     -33.629  15.276  -3.858  1.00 20.00     0.039 C 
HETATM    2  C4  UNL     1     -34.642  14.537  -4.699  1.00 20.00     0.040 C 
HETATM    3  C5  UNL     1     -34.438  15.603  -2.613  1.00 20.00     0.151 C 
HETATM    4  C6  UNL     1     -35.940  15.280  -4.387  1.00 20.00     0.054 C 
HETATM    5  C9  UNL     1     -37.153  14.356  -4.440  1.00 20.00     0.045 C 
HETATM    6  C10 UNL     1     -36.151  16.483  -5.310  1.00 20.00     0.045 C 
HETATM    7  O11 UNL     1     -35.800  15.779  -3.041  1.00 20.00    -0.371 OA
ENDROOT
BRANCH   3   8
HETATM    8  C2  UNL     1     -33.980  16.827  -1.902  1.00 20.00    -0.059 C 
HETATM    9  C1  UNL     1     -32.825  17.435  -2.235  1.00 20.00    -0.026 C 
HETATM   10  C7  UNL     1     -32.236  18.645  -1.631  1.00 20.00     0.036 C 
HETATM   11  C8  UNL     1     -34.896  17.311  -0.814  1.00 20.00     0.046 C 
ENDBRANCH   3   8
TORSDOF 1
ENDMDL
MODEL 8
REMARK VINA RESULT:      -4.3     13.103     16.294
REMARK  1 active torsions:
REMARK  status: ('A' for Active; 'I' for Inactive)
REMARK    1  A    between atoms: C2_2  and  C5_5 
ROOT
HETATM    1  C3  UNL     1     -34.608  16.054  -2.279  1.00 20.00     0.039 C 
HETATM    2  C4  UNL     1     -35.154  15.076  -3.291  1.00 20.00     0.040 C 
HETATM    3  C5  UNL     1     -34.221  17.230  -3.161  1.00 20.00     0.151 C 
HETATM    4  C6  UNL     1     -34.243  15.302  -4.497  1.00 20.00     0.054 C 
HETATM    5  C9  UNL     1     -34.977  15.076  -5.815  1.00 20.00     0.045 C 
HETATM    6  C10 UNL     1     -32.984  14.434  -4.437  1.00 20.00     0.045 C 
HETATM    7  O11 UNL     1     -33.829  16.682  -4.431  1.00 20.00    -0.371 OA
ENDROOT
BRANCH   3   8
HETATM    8  C2  UNL     1     -33.109  18.053  -2.612  1.00 20.00    -0.059 C 
HETATM    9  C1  UNL     1     -32.605  17.814  -1.386  1.00 20.00    -0.026 C 
HETATM   10  C7  UNL     1     -31.513  18.534  -0.704  1.00 20.00     0.036 C 
HETATM   11  C8  UNL     1     -32.613  19.140  -3.522  1.00 20.00     0.046 C 
ENDBRANCH   3   8
TORSDOF 1
ENDMDL
MODEL 9
REMARK VINA RESULT:      -4.2     12.894     16.017
REMARK  1 active torsions:
REMARK  status: ('A' for Active; 'I' for Inactive)
REMARK    1  A    between atoms: C2_2  and  C5_5 
ROOT
HETATM    1  C3  UNL     1     -35.212  15.858  -2.232  1.00 20.00     0.039 C 
HETATM    2  C4  UNL     1     -35.411  15.324  -3.630  1.00 20.00     0.040 C 
HETATM    3  C5  UNL     1     -34.561  17.205  -2.504  1.00 20.00     0.151 C 
HETATM    4  C6  UNL     1     -34.164  15.823  -4.358  1.00 20.00     0.054 C 
HETATM    5  C9  UNL     1     -34.442  16.116  -5.829  1.00 20.00     0.045 C 
HETATM    6  C10 UNL     1     -32.991  14.848  -4.225  1.00 20.00     0.045 C 
HETATM    7  O11 UNL     1     -33.788  17.054  -3.706  1.00 20.00    -0.371 OA
ENDROOT
BRANCH   3   8
HETATM    8  C2  UNL     1     -33.678  17.679  -1.403  1.00 20.00    -0.059 C 
HETATM    9  C1  UNL     1     -32.365  17.899  -1.610  1.00 20.00    -0.026 C 
HETATM   10  C7  UNL     1     -31.364  18.364  -0.632  1.00 20.00     0.036 C 
HETATM   11  C8  UNL     1     -34.362  17.886  -0.082  1.00 20.00     0.046 C 
ENDBRANCH   3   8
TORSDOF 1
ENDMDL
