MODEL 1
REMARK VINA RESULT:      -4.2      0.000      0.000
REMARK  2 active torsions:
REMARK  status: ('A' for Active; 'I' for Inactive)
REMARK    1  A    between atoms: C1_1  and  O5_5 
REMARK    2  A    between atoms: C3_3  and  O5_5 
ROOT
HETATM    1  O5  UNL     1     -34.241   6.443   3.652  1.00 20.00    -0.288 OA
ENDROOT
BRANCH   1   2
HETATM    2  C1  UNL     1     -34.629   5.699   4.736  1.00 20.00     0.359 C 
HETATM    3  O4  UNL     1     -35.197   4.615   4.642  1.00 20.00    -0.245 OA
HETATM    4 CL6  UNL     1     -34.224   6.468   6.247  1.00 20.00    -0.012 Cl
ENDBRANCH   1   2
BRANCH   1   5
HETATM    5  C3  UNL     1     -32.939   6.192   3.097  1.00 20.00     0.224 C 
HETATM    6  C2  UNL     1     -32.555   7.305   2.137  1.00 20.00     0.057 C 
HETATM    7 CL7  UNL     1     -33.011   4.641   2.216  1.00 20.00    -0.095 Cl
ENDBRANCH   1   5
TORSDOF 2
ENDMDL
MODEL 2
REMARK VINA RESULT:      -4.0      1.200      3.659
REMARK  2 active torsions:
REMARK  status: ('A' for Active; 'I' for Inactive)
REMARK    1  A    between atoms: C1_1  and  O5_5 
REMARK    2  A    between atoms: C3_3  and  O5_5 
ROOT
HETATM    1  O5  UNL     1     -33.783   6.832   3.650  1.00 20.00    -0.288 OA
ENDROOT
BRANCH   1   2
HETATM    2  C1  UNL     1     -32.936   6.457   2.640  1.00 20.00     0.359 C 
HETATM    3  O4  UNL     1     -32.241   7.249   2.011  1.00 20.00    -0.245 OA
HETATM    4 CL6  UNL     1     -32.963   4.736   2.359  1.00 20.00    -0.012 Cl
ENDBRANCH   1   2
BRANCH   1   5
HETATM    5  C3  UNL     1     -34.096   5.858   4.660  1.00 20.00     0.224 C 
HETATM    6  C2  UNL     1     -35.479   5.277   4.417  1.00 20.00     0.057 C 
HETATM    7 CL7  UNL     1     -34.064   6.682   6.242  1.00 20.00    -0.095 Cl
ENDBRANCH   1   5
TORSDOF 2
ENDMDL
MODEL 3
REMARK VINA RESULT:      -3.9      1.647      3.540
REMARK  2 active torsions:
REMARK  status: ('A' for Active; 'I' for Inactive)
REMARK    1  A    between atoms: C1_1  and  O5_5 
REMARK    2  A    between atoms: C3_3  and  O5_5 
ROOT
HETATM    1  O5  UNL     1     -33.688   6.690   3.719  1.00 20.00    -0.288 OA
ENDROOT
BRANCH   1   2
HETATM    2  C1  UNL     1     -33.000   6.235   2.624  1.00 20.00     0.359 C 
HETATM    3  O4  UNL     1     -32.864   5.045   2.359  1.00 20.00    -0.245 OA
HETATM    4 CL6  UNL     1     -32.348   7.537   1.664  1.00 20.00    -0.012 Cl
ENDBRANCH   1   2
BRANCH   1   5
HETATM    5  C3  UNL     1     -34.144   5.719   4.676  1.00 20.00     0.224 C 
HETATM    6  C2  UNL     1     -35.532   5.228   4.303  1.00 20.00     0.057 C 
HETATM    7 CL7  UNL     1     -34.200   6.512   6.274  1.00 20.00    -0.095 Cl
ENDBRANCH   1   5
TORSDOF 2
ENDMDL
MODEL 4
REMARK VINA RESULT:      -3.8      1.994      3.296
REMARK  2 active torsions:
REMARK  status: ('A' for Active; 'I' for Inactive)
REMARK    1  A    between atoms: C1_1  and  O5_5 
REMARK    2  A    between atoms: C3_3  and  O5_5 
ROOT
HETATM    1  O5  UNL     1     -32.996   6.526   3.982  1.00 20.00    -0.288 OA
ENDROOT
BRANCH   1   2
HETATM    2  C1  UNL     1     -32.900   6.245   2.644  1.00 20.00     0.359 C 
HETATM    3  O4  UNL     1     -33.006   5.113   2.182  1.00 20.00    -0.245 OA
HETATM    4 CL6  UNL     1     -32.609   7.673   1.687  1.00 20.00    -0.012 Cl
ENDBRANCH   1   2
BRANCH   1   5
HETATM    5  C3  UNL     1     -34.285   6.387   4.605  1.00 20.00     0.224 C 
HETATM    6  C2  UNL     1     -34.188   6.714   6.086  1.00 20.00     0.057 C 
HETATM    7 CL7  UNL     1     -34.810   4.694   4.400  1.00 20.00    -0.095 Cl
ENDBRANCH   1   5
TORSDOF 2
ENDMDL
MODEL 5
REMARK VINA RESULT:      -3.8      1.452      1.650
REMARK  2 active torsions:
REMARK  status: ('A' for Active; 'I' for Inactive)
REMARK    1  A    between atoms: C1_1  and  O5_5 
REMARK    2  A    between atoms: C3_3  and  O5_5 
ROOT
HETATM    1  O5  UNL     1     -33.826   6.368   4.110  1.00 20.00    -0.288 OA
ENDROOT
BRANCH   1   2
HETATM    2  C1  UNL     1     -34.866   5.652   4.644  1.00 20.00     0.359 C 
HETATM    3  O4  UNL     1     -35.906   5.418   4.037  1.00 20.00    -0.245 OA
HETATM    4 CL6  UNL     1     -34.538   5.121   6.272  1.00 20.00    -0.012 Cl
ENDBRANCH   1   2
BRANCH   1   5
HETATM    5  C3  UNL     1     -33.520   6.171   2.719  1.00 20.00     0.224 C 
HETATM    6  C2  UNL     1     -33.022   4.754   2.489  1.00 20.00     0.057 C 
HETATM    7 CL7  UNL     1     -32.242   7.334   2.272  1.00 20.00    -0.095 Cl
ENDBRANCH   1   5
TORSDOF 2
ENDMDL
MODEL 6
REMARK VINA RESULT:      -3.6     11.743     12.017
REMARK  2 active torsions:
REMARK  status: ('A' for Active; 'I' for Inactive)
REMARK    1  A    between atoms: C1_1  and  O5_5 
REMARK    2  A    between atoms: C3_3  and  O5_5 
ROOT
HETATM    1  O5  UNL     1     -35.464  14.984  -4.339  1.00 20.00    -0.288 OA
ENDROOT
BRANCH   1   2
HETATM    2  C1  UNL     1     -36.335  13.930  -4.424  1.00 20.00     0.359 C 
HETATM    3  O4  UNL     1     -35.976  12.767  -4.575  1.00 20.00    -0.245 OA
HETATM    4 CL6  UNL     1     -38.000  14.434  -4.292  1.00 20.00    -0.012 Cl
ENDBRANCH   1   2
BRANCH   1   5
HETATM    5  C3  UNL     1     -34.588  15.040  -3.199  1.00 20.00     0.224 C 
HETATM    6  C2  UNL     1     -35.107  16.050  -2.190  1.00 20.00     0.057 C 
HETATM    7 CL7  UNL     1     -32.976  15.545  -3.775  1.00 20.00    -0.095 Cl
ENDBRANCH   1   5
TORSDOF 2
ENDMDL
MODEL 7
REMARK VINA RESULT:      -3.6     11.764     12.230
REMARK  2 active torsions:
REMARK  status: ('A' for Active; 'I' for Inactive)
REMARK    1  A    between atoms: C1_1  and  O5_5 
REMARK    2  A    between atoms: C3_3  and  O5_5 
ROOT
HETATM    1  O5  UNL     1     -35.267  13.917  -3.970  1.00 20.00    -0.288 OA
ENDROOT
BRANCH   1   2
HETATM    2  C1  UNL     1     -36.341  13.911  -4.822  1.00 20.00     0.359 C 
HETATM    3  O4  UNL     1     -37.481  13.627  -4.469  1.00 20.00    -0.245 OA
HETATM    4 CL6  UNL     1     -35.897  14.352  -6.450  1.00 20.00    -0.012 Cl
ENDBRANCH   1   2
BRANCH   1   5
HETATM    5  C3  UNL     1     -34.409  15.071  -3.980  1.00 20.00     0.224 C 
HETATM    6  C2  UNL     1     -32.979  14.658  -4.286  1.00 20.00     0.057 C 
HETATM    7 CL7  UNL     1     -34.481  15.819  -2.361  1.00 20.00    -0.095 Cl
ENDBRANCH   1   5
TORSDOF 2
ENDMDL
MODEL 8
REMARK VINA RESULT:      -3.6      1.827      3.789
REMARK  2 active torsions:
REMARK  status: ('A' for Active; 'I' for Inactive)
REMARK    1  A    between atoms: C1_1  and  O5_5 
REMARK    2  A    between atoms: C3_3  and  O5_5 
ROOT
HETATM    1  O5  UNL     1     -33.786   6.908   3.376  1.00 20.00    -0.288 OA
ENDROOT
BRANCH   1   2
HETATM    2  C1  UNL     1     -32.559   7.334   2.937  1.00 20.00     0.359 C 
HETATM    3  O4  UNL     1     -31.571   7.408   3.660  1.00 20.00    -0.245 OA
HETATM    4 CL6  UNL     1     -32.571   7.753   1.244  1.00 20.00    -0.012 Cl
ENDBRANCH   1   2
BRANCH   1   5
HETATM    5  C3  UNL     1     -33.819   5.949   4.446  1.00 20.00     0.224 C 
HETATM    6  C2  UNL     1     -35.011   5.021   4.281  1.00 20.00     0.057 C 
HETATM    7 CL7  UNL     1     -33.970   6.848   5.980  1.00 20.00    -0.095 Cl
ENDBRANCH   1   5
TORSDOF 2
ENDMDL
MODEL 9
REMARK VINA RESULT:      -3.6     12.169     13.086
REMARK  2 active torsions:
REMARK  status: ('A' for Active; 'I' for Inactive)
REMARK    1  A    between atoms: C1_1  and  O5_5 
REMARK    2  A    between atoms: C3_3  and  O5_5 
ROOT
HETATM    1  O5  UNL     1     -35.932  13.878  -6.183  1.00 20.00    -0.288 OA
ENDROOT
BRANCH   1   2
HETATM    2  C1  UNL     1     -36.284  13.799  -4.860  1.00 20.00     0.359 C 
HETATM    3  O4  UNL     1     -37.437  13.624  -4.477  1.00 20.00    -0.245 OA
HETATM    4 CL6  UNL     1     -34.912  13.977  -3.798  1.00 20.00    -0.012 Cl
ENDBRANCH   1   2
BRANCH   1   5
HETATM    5  C3  UNL     1     -35.431  15.135  -6.670  1.00 20.00     0.224 C 
HETATM    6  C2  UNL     1     -36.199  15.560  -7.910  1.00 20.00     0.057 C 
HETATM    7 CL7  UNL     1     -33.709  14.912  -7.081  1.00 20.00    -0.095 Cl
ENDBRANCH   1   5
TORSDOF 2
ENDMDL
