MODEL 1
REMARK VINA RESULT:      -5.5      0.000      0.000
REMARK  1 active torsions:
REMARK  status: ('A' for Active; 'I' for Inactive)
REMARK    1  A    between atoms: C1_1  and  C5_5 
ROOT
HETATM    1  C2  UNL     1     -36.023  16.795  -3.455  1.00 20.00     0.006 C 
HETATM    2  C3  UNL     1     -34.895  17.457  -4.255  1.00 20.00     0.006 C 
HETATM    3  C4  UNL     1     -33.942  16.348  -2.412  1.00 20.00     0.011 C 
HETATM    4  C5  UNL     1     -34.869  14.507  -3.574  1.00 20.00     0.067 C 
HETATM    5  C6  UNL     1     -35.298  15.685  -2.669  1.00 20.00    -0.002 C 
HETATM    6  C7  UNL     1     -33.675  16.586  -3.907  1.00 20.00    -0.006 C 
HETATM    7  C8  UNL     1     -33.800  15.146  -4.514  1.00 20.00    -0.033 C 
HETATM    8  C10 UNL     1     -32.458  14.397  -4.378  1.00 20.00     0.016 C 
HETATM    9  C11 UNL     1     -34.165  15.154  -6.006  1.00 20.00     0.016 C 
ENDROOT
BRANCH   4  10
HETATM   10  C1  UNL     1     -36.029  13.825  -4.232  1.00 20.00     0.128 C 
HETATM   11  C9  UNL     1     -37.321  14.595  -4.293  1.00 20.00     0.091 C 
HETATM   12  O12 UNL     1     -35.931  12.693  -4.703  1.00 20.00    -0.298 OA
ENDBRANCH   4  10
TORSDOF 1
ENDMDL
MODEL 2
REMARK VINA RESULT:      -5.0      1.755      3.603
REMARK  1 active torsions:
REMARK  status: ('A' for Active; 'I' for Inactive)
REMARK    1  A    between atoms: C1_1  and  C5_5 
ROOT
HETATM    1  C2  UNL     1     -33.671  14.557  -4.780  1.00 20.00     0.006 C 
HETATM    2  C3  UNL     1     -34.459  15.135  -5.962  1.00 20.00     0.006 C 
HETATM    3  C4  UNL     1     -35.902  13.759  -4.714  1.00 20.00     0.011 C 
HETATM    4  C5  UNL     1     -35.410  15.419  -3.102  1.00 20.00     0.067 C 
HETATM    5  C6  UNL     1     -34.772  14.180  -3.770  1.00 20.00    -0.002 C 
HETATM    6  C7  UNL     1     -35.910  15.108  -5.449  1.00 20.00    -0.006 C 
HETATM    7  C8  UNL     1     -36.131  16.135  -4.286  1.00 20.00    -0.033 C 
HETATM    8  C10 UNL     1     -37.638  16.273  -3.983  1.00 20.00     0.016 C 
HETATM    9  C11 UNL     1     -35.605  17.540  -4.617  1.00 20.00     0.016 C 
ENDROOT
BRANCH   4  10
HETATM   10  C1  UNL     1     -34.424  16.231  -2.319  1.00 20.00     0.128 C 
HETATM   11  C9  UNL     1     -34.951  16.953  -1.108  1.00 20.00     0.091 C 
HETATM   12  O12 UNL     1     -33.240  16.304  -2.648  1.00 20.00    -0.298 OA
ENDBRANCH   4  10
TORSDOF 1
ENDMDL
MODEL 3
REMARK VINA RESULT:      -5.0      1.302      2.808
REMARK  1 active torsions:
REMARK  status: ('A' for Active; 'I' for Inactive)
REMARK    1  A    between atoms: C1_1  and  C5_5 
ROOT
HETATM    1  C2  UNL     1     -34.726  14.063  -3.750  1.00 20.00     0.006 C 
HETATM    2  C3  UNL     1     -35.109  15.226  -2.827  1.00 20.00     0.006 C 
HETATM    3  C4  UNL     1     -33.031  15.718  -3.815  1.00 20.00     0.011 C 
HETATM    4  C5  UNL     1     -34.404  15.648  -5.741  1.00 20.00     0.067 C 
HETATM    5  C6  UNL     1     -33.721  14.701  -4.728  1.00 20.00    -0.002 C 
HETATM    6  C7  UNL     1     -34.351  16.414  -3.446  1.00 20.00    -0.006 C 
HETATM    7  C8  UNL     1     -34.937  16.808  -4.845  1.00 20.00    -0.033 C 
HETATM    8  C10 UNL     1     -34.339  18.154  -5.308  1.00 20.00     0.016 C 
HETATM    9  C11 UNL     1     -36.464  16.973  -4.831  1.00 20.00     0.016 C 
ENDROOT
BRANCH   4  10
HETATM   10  C1  UNL     1     -35.404  14.949  -6.610  1.00 20.00     0.128 C 
HETATM   11  C9  UNL     1     -35.748  15.613  -7.916  1.00 20.00     0.091 C 
HETATM   12  O12 UNL     1     -35.917  13.882  -6.275  1.00 20.00    -0.298 OA
ENDBRANCH   4  10
TORSDOF 1
ENDMDL
MODEL 4
REMARK VINA RESULT:      -4.7      1.381      3.125
REMARK  1 active torsions:
REMARK  status: ('A' for Active; 'I' for Inactive)
REMARK    1  A    between atoms: C1_1  and  C5_5 
ROOT
HETATM    1  C2  UNL     1     -33.646  16.144  -3.079  1.00 20.00     0.006 C 
HETATM    2  C3  UNL     1     -34.923  15.805  -2.301  1.00 20.00     0.006 C 
HETATM    3  C4  UNL     1     -35.332  17.729  -3.591  1.00 20.00     0.011 C 
HETATM    4  C5  UNL     1     -34.916  16.154  -5.308  1.00 20.00     0.067 C 
HETATM    5  C6  UNL     1     -34.162  16.997  -4.254  1.00 20.00    -0.002 C 
HETATM    6  C7  UNL     1     -36.028  16.423  -3.175  1.00 20.00    -0.006 C 
HETATM    7  C8  UNL     1     -36.181  15.663  -4.537  1.00 20.00    -0.033 C 
HETATM    8  C10 UNL     1     -37.460  16.131  -5.263  1.00 20.00     0.016 C 
HETATM    9  C11 UNL     1     -36.290  14.140  -4.366  1.00 20.00     0.016 C 
ENDROOT
BRANCH   4  10
HETATM   10  C1  UNL     1     -34.056  15.102  -5.937  1.00 20.00     0.128 C 
HETATM   11  C9  UNL     1     -33.928  15.140  -7.437  1.00 20.00     0.091 C 
HETATM   12  O12 UNL     1     -33.479  14.250  -5.263  1.00 20.00    -0.298 OA
ENDBRANCH   4  10
TORSDOF 1
ENDMDL
MODEL 5
REMARK VINA RESULT:      -4.7      1.663      3.337
REMARK  1 active torsions:
REMARK  status: ('A' for Active; 'I' for Inactive)
REMARK    1  A    between atoms: C1_1  and  C5_5 
ROOT
HETATM    1  C2  UNL     1     -36.068  14.564  -5.208  1.00 20.00     0.006 C 
HETATM    2  C3  UNL     1     -35.373  13.800  -4.076  1.00 20.00     0.006 C 
HETATM    3  C4  UNL     1     -33.721  14.832  -5.394  1.00 20.00     0.011 C 
HETATM    4  C5  UNL     1     -34.861  16.740  -4.583  1.00 20.00     0.067 C 
HETATM    5  C6  UNL     1     -35.018  15.612  -5.627  1.00 20.00    -0.002 C 
HETATM    6  C7  UNL     1     -34.045  14.561  -3.917  1.00 20.00    -0.006 C 
HETATM    7  C8  UNL     1     -34.270  16.001  -3.342  1.00 20.00    -0.033 C 
HETATM    8  C10 UNL     1     -32.917  16.629  -2.945  1.00 20.00     0.016 C 
HETATM    9  C11 UNL     1     -35.160  16.016  -2.089  1.00 20.00     0.016 C 
ENDROOT
BRANCH   4  10
HETATM   10  C1  UNL     1     -36.124  17.517  -4.370  1.00 20.00     0.128 C 
HETATM   11  C9  UNL     1     -35.971  18.957  -3.957  1.00 20.00     0.091 C 
HETATM   12  O12 UNL     1     -37.232  17.006  -4.528  1.00 20.00    -0.298 OA
ENDBRANCH   4  10
TORSDOF 1
ENDMDL
MODEL 6
REMARK VINA RESULT:      -4.7      1.297      2.543
REMARK  1 active torsions:
REMARK  status: ('A' for Active; 'I' for Inactive)
REMARK    1  A    between atoms: C1_1  and  C5_5 
ROOT
HETATM    1  C2  UNL     1     -35.889  15.538  -6.725  1.00 20.00     0.006 C 
HETATM    2  C3  UNL     1     -34.431  15.219  -6.372  1.00 20.00     0.006 C 
HETATM    3  C4  UNL     1     -35.035  17.218  -5.288  1.00 20.00     0.011 C 
HETATM    4  C5  UNL     1     -36.531  15.709  -4.247  1.00 20.00     0.067 C 
HETATM    5  C6  UNL     1     -36.337  16.467  -5.580  1.00 20.00    -0.002 C 
HETATM    6  C7  UNL     1     -34.247  15.926  -5.017  1.00 20.00    -0.006 C 
HETATM    7  C8  UNL     1     -35.088  15.239  -3.888  1.00 20.00    -0.033 C 
HETATM    8  C10 UNL     1     -34.676  15.797  -2.509  1.00 20.00     0.016 C 
HETATM    9  C11 UNL     1     -34.892  13.716  -3.836  1.00 20.00     0.016 C 
ENDROOT
BRANCH   4  10
HETATM   10  C1  UNL     1     -37.589  14.651  -4.327  1.00 20.00     0.128 C 
HETATM   11  C9  UNL     1     -39.013  15.102  -4.144  1.00 20.00     0.091 C 
HETATM   12  O12 UNL     1     -37.308  13.471  -4.535  1.00 20.00    -0.298 OA
ENDBRANCH   4  10
TORSDOF 1
ENDMDL
MODEL 7
REMARK VINA RESULT:      -4.7      1.911      2.634
REMARK  1 active torsions:
REMARK  status: ('A' for Active; 'I' for Inactive)
REMARK    1  A    between atoms: C1_1  and  C5_5 
ROOT
HETATM    1  C2  UNL     1     -34.968  15.847  -2.378  1.00 20.00     0.006 C 
HETATM    2  C3  UNL     1     -33.557  16.095  -2.923  1.00 20.00     0.006 C 
HETATM    3  C4  UNL     1     -34.373  14.102  -3.868  1.00 20.00     0.011 C 
HETATM    4  C5  UNL     1     -35.930  15.650  -4.748  1.00 20.00     0.067 C 
HETATM    5  C6  UNL     1     -35.596  14.913  -3.431  1.00 20.00    -0.002 C 
HETATM    6  C7  UNL     1     -33.576  15.353  -4.270  1.00 20.00    -0.006 C 
HETATM    7  C8  UNL     1     -34.528  16.052  -5.301  1.00 20.00    -0.033 C 
HETATM    8  C10 UNL     1     -34.319  15.447  -6.706  1.00 20.00     0.016 C 
HETATM    9  C11 UNL     1     -34.281  17.563  -5.418  1.00 20.00     0.016 C 
ENDROOT
BRANCH   4  10
HETATM   10  C1  UNL     1     -36.926  16.754  -4.561  1.00 20.00     0.128 C 
HETATM   11  C9  UNL     1     -37.828  17.056  -5.728  1.00 20.00     0.091 C 
HETATM   12  O12 UNL     1     -37.005  17.381  -3.506  1.00 20.00    -0.298 OA
ENDBRANCH   4  10
TORSDOF 1
ENDMDL
MODEL 8
REMARK VINA RESULT:      -4.7     17.112     18.363
REMARK  1 active torsions:
REMARK  status: ('A' for Active; 'I' for Inactive)
REMARK    1  A    between atoms: C1_1  and  C5_5 
ROOT
HETATM    1  C2  UNL     1     -22.969  18.010   7.899  1.00 20.00     0.006 C 
HETATM    2  C3  UNL     1     -22.369  16.733   8.500  1.00 20.00     0.006 C 
HETATM    3  C4  UNL     1     -21.451  18.583   9.627  1.00 20.00     0.011 C 
HETATM    4  C5  UNL     1     -23.731  18.827  10.209  1.00 20.00     0.067 C 
HETATM    5  C6  UNL     1     -22.774  19.054   9.016  1.00 20.00    -0.002 C 
HETATM    6  C7  UNL     1     -21.987  17.173   9.924  1.00 20.00    -0.006 C 
HETATM    7  C8  UNL     1     -23.255  17.463  10.798  1.00 20.00    -0.033 C 
HETATM    8  C10 UNL     1     -22.849  17.638  12.277  1.00 20.00     0.016 C 
HETATM    9  C11 UNL     1     -24.293  16.332  10.744  1.00 20.00     0.016 C 
ENDROOT
BRANCH   4  10
HETATM   10  C1  UNL     1     -25.175  18.933   9.825  1.00 20.00     0.128 C 
HETATM   11  C9  UNL     1     -26.155  19.185  10.939  1.00 20.00     0.091 C 
HETATM   12  O12 UNL     1     -25.543  18.821   8.656  1.00 20.00    -0.298 OA
ENDBRANCH   4  10
TORSDOF 1
ENDMDL
MODEL 9
REMARK VINA RESULT:      -4.6      1.899      2.853
REMARK  1 active torsions:
REMARK  status: ('A' for Active; 'I' for Inactive)
REMARK    1  A    between atoms: C1_1  and  C5_5 
ROOT
HETATM    1  C2  UNL     1     -33.936  17.857  -3.604  1.00 20.00     0.006 C 
HETATM    2  C3  UNL     1     -33.315  16.838  -2.642  1.00 20.00     0.006 C 
HETATM    3  C4  UNL     1     -35.645  16.515  -2.657  1.00 20.00     0.011 C 
HETATM    4  C5  UNL     1     -35.137  16.004  -4.911  1.00 20.00     0.067 C 
HETATM    5  C6  UNL     1     -35.291  17.221  -3.970  1.00 20.00    -0.002 C 
HETATM    6  C7  UNL     1     -34.345  15.695  -2.645  1.00 20.00    -0.006 C 
HETATM    7  C8  UNL     1     -34.387  14.959  -4.028  1.00 20.00    -0.033 C 
HETATM    8  C10 UNL     1     -35.222  13.666  -3.913  1.00 20.00     0.016 C 
HETATM    9  C11 UNL     1     -32.995  14.555  -4.535  1.00 20.00     0.016 C 
ENDROOT
BRANCH   4  10
HETATM   10  C1  UNL     1     -34.506  16.359  -6.223  1.00 20.00     0.128 C 
HETATM   11  C9  UNL     1     -34.421  15.264  -7.251  1.00 20.00     0.091 C 
HETATM   12  O12 UNL     1     -34.080  17.491  -6.450  1.00 20.00    -0.298 OA
ENDBRANCH   4  10
TORSDOF 1
ENDMDL
