MODEL 1
REMARK VINA RESULT:      -5.0      0.000      0.000
REMARK  1 active torsions:
REMARK  status: ('A' for Active; 'I' for Inactive)
REMARK    1  A    between atoms: C3_3  and  C7_7 
ROOT
HETATM    1  C1  UNL     1     -33.073  15.748  -3.755  1.00 20.00    -0.019 C 
HETATM    2  C2  UNL     1     -33.516  16.503  -2.734  1.00 20.00    -0.087 C 
HETATM    3  C4  UNL     1     -34.936  16.415  -2.235  1.00 20.00     0.034 C 
HETATM    4  C5  UNL     1     -35.671  15.169  -2.728  1.00 20.00     0.016 C 
HETATM    5  C6  UNL     1     -33.933  14.779  -4.531  1.00 20.00     0.015 C 
HETATM    6  C7  UNL     1     -35.435  14.944  -4.222  1.00 20.00     0.054 C 
HETATM    7  C8  UNL     1     -32.626  17.479  -2.024  1.00 20.00     0.043 C 
HETATM    8  C9  UNL     1     -33.675  14.945  -6.033  1.00 20.00     0.015 C 
ENDROOT
BRANCH   6   9
HETATM    9  C3  UNL     1     -36.198  13.721  -4.642  1.00 20.00     0.236 C 
HETATM   10  O10 UNL     1     -35.802  12.577  -4.445  1.00 20.00    -0.306 OA
ENDBRANCH   6   9
TORSDOF 1
ENDMDL
MODEL 2
REMARK VINA RESULT:      -4.8     11.289     12.050
REMARK  1 active torsions:
REMARK  status: ('A' for Active; 'I' for Inactive)
REMARK    1  A    between atoms: C3_3  and  C7_7 
ROOT
HETATM    1  C1  UNL     1     -34.474   5.044   3.973  1.00 20.00    -0.019 C 
HETATM    2  C2  UNL     1     -34.412   5.652   5.171  1.00 20.00    -0.087 C 
HETATM    3  C4  UNL     1     -33.616   6.913   5.385  1.00 20.00     0.034 C 
HETATM    4  C5  UNL     1     -33.223   7.606   4.080  1.00 20.00     0.016 C 
HETATM    5  C6  UNL     1     -33.736   5.516   2.742  1.00 20.00     0.015 C 
HETATM    6  C7  UNL     1     -32.687   6.600   3.061  1.00 20.00     0.054 C 
HETATM    7  C8  UNL     1     -35.135   5.115   6.371  1.00 20.00     0.043 C 
HETATM    8  C9  UNL     1     -33.076   4.322   2.043  1.00 20.00     0.015 C 
ENDROOT
BRANCH   6   9
HETATM    9  C3  UNL     1     -32.304   7.347   1.817  1.00 20.00     0.236 C 
HETATM   10  O10 UNL     1     -32.919   8.321   1.397  1.00 20.00    -0.306 OA
ENDBRANCH   6   9
TORSDOF 1
ENDMDL
MODEL 3
REMARK VINA RESULT:      -4.7     15.596     17.345
REMARK  1 active torsions:
REMARK  status: ('A' for Active; 'I' for Inactive)
REMARK    1  A    between atoms: C3_3  and  C7_7 
ROOT
HETATM    1  C1  UNL     1     -25.017  19.180   9.741  1.00 20.00    -0.019 C 
HETATM    2  C2  UNL     1     -25.161  18.428  10.847  1.00 20.00    -0.087 C 
HETATM    3  C4  UNL     1     -24.236  17.278  11.156  1.00 20.00     0.034 C 
HETATM    4  C5  UNL     1     -22.953  17.298  10.326  1.00 20.00     0.016 C 
HETATM    5  C6  UNL     1     -23.965  18.941   8.683  1.00 20.00     0.015 C 
HETATM    6  C7  UNL     1     -23.252  17.584   8.854  1.00 20.00     0.054 C 
HETATM    7  C8  UNL     1     -26.249  18.687  11.846  1.00 20.00     0.043 C 
HETATM    8  C9  UNL     1     -24.599  19.040   7.290  1.00 20.00     0.015 C 
ENDROOT
BRANCH   6   9
HETATM    9  C3  UNL     1     -21.957  17.569   8.096  1.00 20.00     0.236 C 
HETATM   10  O10 UNL     1     -21.709  16.775   7.195  1.00 20.00    -0.306 OA
ENDBRANCH   6   9
TORSDOF 1
ENDMDL
MODEL 4
REMARK VINA RESULT:      -4.5      1.148      1.340
REMARK  1 active torsions:
REMARK  status: ('A' for Active; 'I' for Inactive)
REMARK    1  A    between atoms: C3_3  and  C7_7 
ROOT
HETATM    1  C1  UNL     1     -34.043  15.912  -2.576  1.00 20.00    -0.019 C 
HETATM    2  C2  UNL     1     -34.887  16.921  -2.294  1.00 20.00    -0.087 C 
HETATM    3  C4  UNL     1     -36.261  17.006  -2.906  1.00 20.00     0.034 C 
HETATM    4  C5  UNL     1     -36.719  15.694  -3.545  1.00 20.00     0.016 C 
HETATM    5  C6  UNL     1     -34.349  14.797  -3.548  1.00 20.00     0.015 C 
HETATM    6  C7  UNL     1     -35.607  15.078  -4.394  1.00 20.00     0.054 C 
HETATM    7  C8  UNL     1     -34.515  18.025  -1.349  1.00 20.00     0.043 C 
HETATM    8  C9  UNL     1     -33.137  14.554  -4.456  1.00 20.00     0.015 C 
ENDROOT
BRANCH   6   9
HETATM    9  C3  UNL     1     -36.127  13.809  -5.005  1.00 20.00     0.236 C 
HETATM   10  O10 UNL     1     -36.123  12.729  -4.424  1.00 20.00    -0.306 OA
ENDBRANCH   6   9
TORSDOF 1
ENDMDL
MODEL 5
REMARK VINA RESULT:      -4.4      3.080      4.712
REMARK  1 active torsions:
REMARK  status: ('A' for Active; 'I' for Inactive)
REMARK    1  A    between atoms: C3_3  and  C7_7 
ROOT
HETATM    1  C1  UNL     1     -32.857  16.971  -2.807  1.00 20.00    -0.019 C 
HETATM    2  C2  UNL     1     -33.689  15.948  -3.078  1.00 20.00    -0.087 C 
HETATM    3  C4  UNL     1     -34.981  15.751  -2.328  1.00 20.00     0.034 C 
HETATM    4  C5  UNL     1     -35.412  16.987  -1.537  1.00 20.00     0.016 C 
HETATM    5  C6  UNL     1     -33.093  17.991  -1.719  1.00 20.00     0.015 C 
HETATM    6  C7  UNL     1     -34.236  17.586  -0.766  1.00 20.00     0.054 C 
HETATM    7  C8  UNL     1     -33.385  14.940  -4.146  1.00 20.00     0.043 C 
HETATM    8  C9  UNL     1     -31.796  18.219  -0.932  1.00 20.00     0.015 C 
ENDROOT
BRANCH   6   9
HETATM    9  C3  UNL     1     -34.731  18.778   0.000  1.00 20.00     0.236 C 
HETATM   10  O10 UNL     1     -34.590  18.909   1.212  1.00 20.00    -0.306 OA
ENDBRANCH   6   9
TORSDOF 1
ENDMDL
MODEL 6
REMARK VINA RESULT:      -4.3      1.268      2.177
REMARK  1 active torsions:
REMARK  status: ('A' for Active; 'I' for Inactive)
REMARK    1  A    between atoms: C3_3  and  C7_7 
ROOT
HETATM    1  C1  UNL     1     -35.012  17.355  -4.041  1.00 20.00    -0.019 C 
HETATM    2  C2  UNL     1     -33.759  17.176  -3.586  1.00 20.00    -0.087 C 
HETATM    3  C4  UNL     1     -33.175  15.803  -3.374  1.00 20.00     0.034 C 
HETATM    4  C5  UNL     1     -33.976  14.696  -4.060  1.00 20.00     0.016 C 
HETATM    5  C6  UNL     1     -35.973  16.230  -4.344  1.00 20.00     0.015 C 
HETATM    6  C7  UNL     1     -35.476  14.869  -3.816  1.00 20.00     0.054 C 
HETATM    7  C8  UNL     1     -32.859  18.333  -3.264  1.00 20.00     0.043 C 
HETATM    8  C9  UNL     1     -37.354  16.557  -3.761  1.00 20.00     0.015 C 
ENDROOT
BRANCH   6   9
HETATM    9  C3  UNL     1     -36.198  13.743  -4.497  1.00 20.00     0.236 C 
HETATM   10  O10 UNL     1     -35.801  12.583  -4.488  1.00 20.00    -0.306 OA
ENDBRANCH   6   9
TORSDOF 1
ENDMDL
MODEL 7
REMARK VINA RESULT:      -4.2      3.040      5.054
REMARK  1 active torsions:
REMARK  status: ('A' for Active; 'I' for Inactive)
REMARK    1  A    between atoms: C3_3  and  C7_7 
ROOT
HETATM    1  C1  UNL     1     -35.112  16.010  -1.872  1.00 20.00    -0.019 C 
HETATM    2  C2  UNL     1     -34.263  15.782  -2.890  1.00 20.00    -0.087 C 
HETATM    3  C4  UNL     1     -33.049  16.642  -3.125  1.00 20.00     0.034 C 
HETATM    4  C5  UNL     1     -32.689  17.516  -1.923  1.00 20.00     0.016 C 
HETATM    5  C6  UNL     1     -34.977  17.154  -0.894  1.00 20.00     0.015 C 
HETATM    6  C7  UNL     1     -33.930  18.194  -1.343  1.00 20.00     0.054 C 
HETATM    7  C8  UNL     1     -34.469  14.653  -3.856  1.00 20.00     0.043 C 
HETATM    8  C9  UNL     1     -36.340  17.822  -0.685  1.00 20.00     0.015 C 
ENDROOT
BRANCH   6   9
HETATM    9  C3  UNL     1     -33.505  19.048  -0.184  1.00 20.00     0.236 C 
HETATM   10  O10 UNL     1     -33.091  18.591   0.876  1.00 20.00    -0.306 OA
ENDBRANCH   6   9
TORSDOF 1
ENDMDL
MODEL 8
REMARK VINA RESULT:      -4.2      1.414      2.679
REMARK  1 active torsions:
REMARK  status: ('A' for Active; 'I' for Inactive)
REMARK    1  A    between atoms: C3_3  and  C7_7 
ROOT
HETATM    1  C1  UNL     1     -35.828  15.718  -2.891  1.00 20.00    -0.019 C 
HETATM    2  C2  UNL     1     -34.927  16.302  -2.081  1.00 20.00    -0.087 C 
HETATM    3  C4  UNL     1     -33.478  16.443  -2.470  1.00 20.00     0.034 C 
HETATM    4  C5  UNL     1     -33.230  16.215  -3.961  1.00 20.00     0.016 C 
HETATM    5  C6  UNL     1     -35.495  15.111  -4.233  1.00 20.00     0.015 C 
HETATM    6  C7  UNL     1     -33.975  14.977  -4.461  1.00 20.00     0.054 C 
HETATM    7  C8  UNL     1     -35.307  16.854  -0.739  1.00 20.00     0.043 C 
HETATM    8  C9  UNL     1     -36.178  13.745  -4.368  1.00 20.00     0.015 C 
ENDROOT
BRANCH   6   9
HETATM    9  C3  UNL     1     -33.673  14.801  -5.920  1.00 20.00     0.236 C 
HETATM   10  O10 UNL     1     -34.199  15.469  -6.804  1.00 20.00    -0.306 OA
ENDBRANCH   6   9
TORSDOF 1
ENDMDL
MODEL 9
REMARK VINA RESULT:      -4.2     15.079     17.050
REMARK  1 active torsions:
REMARK  status: ('A' for Active; 'I' for Inactive)
REMARK    1  A    between atoms: C3_3  and  C7_7 
ROOT
HETATM    1  C1  UNL     1     -24.411  18.661  10.657  1.00 20.00    -0.019 C 
HETATM    2  C2  UNL     1     -23.438  17.734  10.698  1.00 20.00    -0.087 C 
HETATM    3  C4  UNL     1     -22.804  17.188   9.444  1.00 20.00     0.034 C 
HETATM    4  C5  UNL     1     -23.094  18.034   8.205  1.00 20.00     0.016 C 
HETATM    5  C6  UNL     1     -24.999  19.220   9.383  1.00 20.00     0.015 C 
HETATM    6  C7  UNL     1     -24.571  18.421   8.135  1.00 20.00     0.054 C 
HETATM    7  C8  UNL     1     -22.919  17.185  11.994  1.00 20.00     0.043 C 
HETATM    8  C9  UNL     1     -26.528  19.263   9.492  1.00 20.00     0.015 C 
ENDROOT
BRANCH   6   9
HETATM    9  C3  UNL     1     -24.789  19.230   6.890  1.00 20.00     0.236 C 
HETATM   10  O10 UNL     1     -24.012  19.234   5.941  1.00 20.00    -0.306 OA
ENDBRANCH   6   9
TORSDOF 1
ENDMDL
