MODEL 1
REMARK VINA RESULT:      -5.7      0.000      0.000
REMARK  2 active torsions:
REMARK  status: ('A' for Active; 'I' for Inactive)
REMARK    1  A    between atoms: C6_6  and  C8_8 
REMARK    2  A    between atoms: C8_8  and  O9_9 
ROOT
HETATM    1  C1  UNL     1     -34.940   5.339   5.699  1.00 20.00    -0.030 C 
HETATM    2  C2  UNL     1     -34.270   6.445   6.046  1.00 20.00    -0.030 C 
HETATM    3  C3  UNL     1     -34.766   4.659   4.375  1.00 20.00     0.031 C 
HETATM    4  C4  UNL     1     -33.300   7.133   5.135  1.00 20.00     0.034 C 
HETATM    5  C5  UNL     1     -33.519   5.130   3.597  1.00 20.00    -0.009 C 
HETATM    6  C6  UNL     1     -33.397   6.671   3.665  1.00 20.00     0.016 C 
HETATM    7  C7  UNL     1     -33.578   4.591   2.166  1.00 20.00     0.011 C 
ENDROOT
BRANCH   6   8
HETATM    8  C8  UNL     1     -32.203   7.218   2.880  1.00 20.00     0.169 C 
BRANCH   8   9
HETATM    9  O9  UNL     1     -32.692   7.896   1.739  1.00 20.00    -0.400 OA
HETATM   10  H23 UNL     1     -33.410   7.354   1.368  1.00 20.00     0.209 HD
ENDBRANCH   8   9
ENDBRANCH   6   8
TORSDOF 2
ENDMDL
MODEL 2
REMARK VINA RESULT:      -4.8      1.351      2.604
REMARK  2 active torsions:
REMARK  status: ('A' for Active; 'I' for Inactive)
REMARK    1  A    between atoms: C6_6  and  C8_8 
REMARK    2  A    between atoms: C8_8  and  O9_9 
ROOT
HETATM    1  C1  UNL     1     -34.199   6.531   6.177  1.00 20.00    -0.030 C 
HETATM    2  C2  UNL     1     -34.934   5.453   5.873  1.00 20.00    -0.030 C 
HETATM    3  C3  UNL     1     -33.276   7.194   5.201  1.00 20.00     0.031 C 
HETATM    4  C4  UNL     1     -34.886   4.784   4.534  1.00 20.00     0.034 C 
HETATM    5  C5  UNL     1     -33.501   6.753   3.739  1.00 20.00    -0.009 C 
HETATM    6  C6  UNL     1     -33.685   5.218   3.667  1.00 20.00     0.016 C 
HETATM    7  C7  UNL     1     -32.351   7.266   2.869  1.00 20.00     0.011 C 
ENDROOT
BRANCH   6   8
HETATM    8  C8  UNL     1     -33.872   4.699   2.240  1.00 20.00     0.169 C 
BRANCH   8   9
HETATM    9  O9  UNL     1     -32.762   3.887   1.911  1.00 20.00    -0.400 OA
HETATM   10  H23 UNL     1     -32.898   3.026   2.342  1.00 20.00     0.209 HD
ENDBRANCH   8   9
ENDBRANCH   6   8
TORSDOF 2
ENDMDL
MODEL 3
REMARK VINA RESULT:      -4.5     16.285     16.826
REMARK  2 active torsions:
REMARK  status: ('A' for Active; 'I' for Inactive)
REMARK    1  A    between atoms: C6_6  and  C8_8 
REMARK    2  A    between atoms: C8_8  and  O9_9 
ROOT
HETATM    1  C1  UNL     1     -25.210  18.482  11.842  1.00 20.00    -0.030 C 
HETATM    2  C2  UNL     1     -24.100  17.914  12.330  1.00 20.00    -0.030 C 
HETATM    3  C3  UNL     1     -25.386  18.823  10.392  1.00 20.00     0.031 C 
HETATM    4  C4  UNL     1     -22.909  17.588  11.483  1.00 20.00     0.034 C 
HETATM    5  C5  UNL     1     -24.341  18.158   9.470  1.00 20.00    -0.009 C 
HETATM    6  C6  UNL     1     -22.930  18.267  10.096  1.00 20.00     0.016 C 
HETATM    7  C7  UNL     1     -24.432  18.774   8.072  1.00 20.00     0.011 C 
ENDROOT
BRANCH   6   8
HETATM    8  C8  UNL     1     -21.832  17.665   9.217  1.00 20.00     0.169 C 
BRANCH   8   9
HETATM    9  O9  UNL     1     -22.106  16.288   9.040  1.00 20.00    -0.400 OA
HETATM   10  H23 UNL     1     -22.894  16.081   9.571  1.00 20.00     0.209 HD
ENDBRANCH   8   9
ENDBRANCH   6   8
TORSDOF 2
ENDMDL
MODEL 4
REMARK VINA RESULT:      -4.4     11.625     12.110
REMARK  2 active torsions:
REMARK  status: ('A' for Active; 'I' for Inactive)
REMARK    1  A    between atoms: C6_6  and  C8_8 
REMARK    2  A    between atoms: C8_8  and  O9_9 
ROOT
HETATM    1  C1  UNL     1     -34.287  16.999  -2.089  1.00 20.00    -0.030 C 
HETATM    2  C2  UNL     1     -35.611  16.843  -2.220  1.00 20.00    -0.030 C 
HETATM    3  C3  UNL     1     -33.288  16.168  -2.837  1.00 20.00     0.031 C 
HETATM    4  C4  UNL     1     -36.228  15.802  -3.102  1.00 20.00     0.034 C 
HETATM    5  C5  UNL     1     -33.900  15.370  -4.008  1.00 20.00    -0.009 C 
HETATM    6  C6  UNL     1     -35.234  14.718  -3.571  1.00 20.00     0.016 C 
HETATM    7  C7  UNL     1     -32.874  14.360  -4.526  1.00 20.00     0.011 C 
ENDROOT
BRANCH   6   8
HETATM    8  C8  UNL     1     -35.881  13.874  -4.670  1.00 20.00     0.169 C 
BRANCH   8   9
HETATM    9  O9  UNL     1     -35.920  12.528  -4.235  1.00 20.00    -0.400 OA
HETATM   10  H23 UNL     1     -35.016  12.285  -3.972  1.00 20.00     0.209 HD
ENDBRANCH   8   9
ENDBRANCH   6   8
TORSDOF 2
ENDMDL
MODEL 5
REMARK VINA RESULT:      -4.3     11.730     12.215
REMARK  2 active torsions:
REMARK  status: ('A' for Active; 'I' for Inactive)
REMARK    1  A    between atoms: C6_6  and  C8_8 
REMARK    2  A    between atoms: C8_8  and  O9_9 
ROOT
HETATM    1  C1  UNL     1     -34.398  17.017  -1.609  1.00 20.00    -0.030 C 
HETATM    2  C2  UNL     1     -33.180  17.038  -2.165  1.00 20.00    -0.030 C 
HETATM    3  C3  UNL     1     -35.534  16.208  -2.156  1.00 20.00     0.031 C 
HETATM    4  C4  UNL     1     -32.838  16.277  -3.409  1.00 20.00     0.034 C 
HETATM    5  C5  UNL     1     -35.097  15.149  -3.191  1.00 20.00    -0.009 C 
HETATM    6  C6  UNL     1     -34.072  15.757  -4.177  1.00 20.00     0.016 C 
HETATM    7  C7  UNL     1     -36.335  14.573  -3.883  1.00 20.00     0.011 C 
ENDROOT
BRANCH   6   8
HETATM    8  C8  UNL     1     -33.622  14.776  -5.261  1.00 20.00     0.169 C 
BRANCH   8   9
HETATM    9  O9  UNL     1     -32.803  13.791  -4.660  1.00 20.00    -0.400 OA
HETATM   10  H23 UNL     1     -31.885  14.107  -4.715  1.00 20.00     0.209 HD
ENDBRANCH   8   9
ENDBRANCH   6   8
TORSDOF 2
ENDMDL
MODEL 6
REMARK VINA RESULT:      -4.3     12.010     12.680
REMARK  2 active torsions:
REMARK  status: ('A' for Active; 'I' for Inactive)
REMARK    1  A    between atoms: C6_6  and  C8_8 
REMARK    2  A    between atoms: C8_8  and  O9_9 
ROOT
HETATM    1  C1  UNL     1     -33.245  15.543  -3.677  1.00 20.00    -0.030 C 
HETATM    2  C2  UNL     1     -34.094  15.838  -2.685  1.00 20.00    -0.030 C 
HETATM    3  C3  UNL     1     -33.696  15.103  -5.037  1.00 20.00     0.031 C 
HETATM    4  C4  UNL     1     -35.582  15.730  -2.824  1.00 20.00     0.034 C 
HETATM    5  C5  UNL     1     -35.196  15.350  -5.301  1.00 20.00    -0.009 C 
HETATM    6  C6  UNL     1     -36.031  14.932  -4.067  1.00 20.00     0.016 C 
HETATM    7  C7  UNL     1     -35.612  14.630  -6.585  1.00 20.00     0.011 C 
ENDROOT
BRANCH   6   8
HETATM    8  C8  UNL     1     -37.537  15.110  -4.269  1.00 20.00     0.169 C 
BRANCH   8   9
HETATM    9  O9  UNL     1     -38.133  13.829  -4.334  1.00 20.00    -0.400 OA
HETATM   10  H23 UNL     1     -38.106  13.453  -3.437  1.00 20.00     0.209 HD
ENDBRANCH   8   9
ENDBRANCH   6   8
TORSDOF 2
ENDMDL
MODEL 7
REMARK VINA RESULT:      -4.2      1.924      3.862
REMARK  2 active torsions:
REMARK  status: ('A' for Active; 'I' for Inactive)
REMARK    1  A    between atoms: C6_6  and  C8_8 
REMARK    2  A    between atoms: C8_8  and  O9_9 
ROOT
HETATM    1  C1  UNL     1     -32.016   7.550   2.938  1.00 20.00    -0.030 C 
HETATM    2  C2  UNL     1     -32.442   6.531   2.182  1.00 20.00    -0.030 C 
HETATM    3  C3  UNL     1     -32.516   7.803   4.328  1.00 20.00     0.031 C 
HETATM    4  C4  UNL     1     -33.483   5.555   2.637  1.00 20.00     0.034 C 
HETATM    5  C5  UNL     1     -33.287   6.611   4.934  1.00 20.00    -0.009 C 
HETATM    6  C6  UNL     1     -34.261   6.018   3.888  1.00 20.00     0.016 C 
HETATM    7  C7  UNL     1     -33.981   7.056   6.223  1.00 20.00     0.011 C 
ENDROOT
BRANCH   6   8
HETATM    8  C8  UNL     1     -35.094   4.854   4.429  1.00 20.00     0.169 C 
BRANCH   8   9
HETATM    9  O9  UNL     1     -34.400   3.649   4.169  1.00 20.00    -0.400 OA
HETATM   10  H23 UNL     1     -34.807   3.247   3.383  1.00 20.00     0.209 HD
ENDBRANCH   8   9
ENDBRANCH   6   8
TORSDOF 2
ENDMDL
MODEL 8
REMARK VINA RESULT:      -4.1     11.886     12.482
REMARK  2 active torsions:
REMARK  status: ('A' for Active; 'I' for Inactive)
REMARK    1  A    between atoms: C6_6  and  C8_8 
REMARK    2  A    between atoms: C8_8  and  O9_9 
ROOT
HETATM    1  C1  UNL     1     -32.939  15.408  -3.646  1.00 20.00    -0.030 C 
HETATM    2  C2  UNL     1     -33.493  14.439  -4.385  1.00 20.00    -0.030 C 
HETATM    3  C3  UNL     1     -33.740  16.357  -2.806  1.00 20.00     0.031 C 
HETATM    4  C4  UNL     1     -34.972  14.221  -4.470  1.00 20.00     0.034 C 
HETATM    5  C5  UNL     1     -35.202  15.910  -2.594  1.00 20.00    -0.009 C 
HETATM    6  C6  UNL     1     -35.805  15.402  -3.925  1.00 20.00     0.016 C 
HETATM    7  C7  UNL     1     -35.999  17.057  -1.968  1.00 20.00     0.011 C 
ENDROOT
BRANCH   6   8
HETATM    8  C8  UNL     1     -37.270  14.979  -3.803  1.00 20.00     0.169 C 
BRANCH   8   9
HETATM    9  O9  UNL     1     -37.438  13.748  -4.480  1.00 20.00    -0.400 OA
HETATM   10  H23 UNL     1     -36.752  13.142  -4.150  1.00 20.00     0.209 HD
ENDBRANCH   8   9
ENDBRANCH   6   8
TORSDOF 2
ENDMDL
MODEL 9
REMARK VINA RESULT:      -4.1     11.695     12.549
REMARK  2 active torsions:
REMARK  status: ('A' for Active; 'I' for Inactive)
REMARK    1  A    between atoms: C6_6  and  C8_8 
REMARK    2  A    between atoms: C8_8  and  O9_9 
ROOT
HETATM    1  C1  UNL     1     -33.211  16.464  -3.270  1.00 20.00    -0.030 C 
HETATM    2  C2  UNL     1     -32.964  15.238  -3.750  1.00 20.00    -0.030 C 
HETATM    3  C3  UNL     1     -34.595  17.020  -3.119  1.00 20.00     0.031 C 
HETATM    4  C4  UNL     1     -34.043  14.309  -4.212  1.00 20.00     0.034 C 
HETATM    5  C5  UNL     1     -35.705  15.953  -3.231  1.00 20.00    -0.009 C 
HETATM    6  C6  UNL     1     -35.410  14.998  -4.412  1.00 20.00     0.016 C 
HETATM    7  C7  UNL     1     -37.066  16.645  -3.338  1.00 20.00     0.011 C 
ENDROOT
BRANCH   6   8
HETATM    8  C8  UNL     1     -36.492  13.935  -4.613  1.00 20.00     0.169 C 
BRANCH   8   9
HETATM    9  O9  UNL     1     -35.888  12.659  -4.521  1.00 20.00    -0.400 OA
HETATM   10  H23 UNL     1     -34.954  12.799  -4.286  1.00 20.00     0.209 HD
ENDBRANCH   8   9
ENDBRANCH   6   8
TORSDOF 2
ENDMDL
