MODEL 1
REMARK VINA RESULT:      -4.2      0.000      0.000
REMARK  2 active torsions:
REMARK  status: ('A' for Active; 'I' for Inactive)
REMARK    1  A    between atoms: C3_3  and  C7_7 
REMARK    2  A    between atoms: C4_4  and  C8_8 
ROOT
HETATM    1  C5  UNL     1     -22.640  17.721  10.535  1.00 20.00     0.014 C 
HETATM    2  C6  UNL     1     -22.635  18.475   9.213  1.00 20.00     0.037 C 
HETATM    3  C7  UNL     1     -23.838  18.137  11.410  1.00 20.00     0.036 C 
HETATM    4  C8  UNL     1     -23.952  18.235   8.462  1.00 20.00     0.144 C 
HETATM    5  C9  UNL     1     -24.933  18.839  10.574  1.00 20.00     0.126 C 
HETATM    6  C10 UNL     1     -26.295  18.924  11.254  1.00 20.00     0.040 C 
HETATM    7  O11 UNL     1     -25.099  18.170   9.320  1.00 20.00    -0.377 OA
ENDROOT
BRANCH   3   8
HETATM    8  C3  UNL     1     -24.331  16.944  12.178  1.00 20.00    -0.030 C 
HETATM    9  C1  UNL     1     -24.422  15.712  11.669  1.00 20.00     0.007 C 
ENDBRANCH   3   8
BRANCH   4  10
HETATM   10  C4  UNL     1     -24.190  19.261   7.401  1.00 20.00    -0.005 C 
HETATM   11  C2  UNL     1     -25.251  19.263   6.588  1.00 20.00     0.009 C 
ENDBRANCH   4  10
TORSDOF 2
ENDMDL
MODEL 2
REMARK VINA RESULT:      -4.1      1.696      3.996
REMARK  2 active torsions:
REMARK  status: ('A' for Active; 'I' for Inactive)
REMARK    1  A    between atoms: C3_3  and  C7_7 
REMARK    2  A    between atoms: C4_4  and  C8_8 
ROOT
HETATM    1  C5  UNL     1     -23.927  18.471   9.093  1.00 20.00     0.014 C 
HETATM    2  C6  UNL     1     -25.074  18.538  10.092  1.00 20.00     0.037 C 
HETATM    3  C7  UNL     1     -22.563  18.495   9.807  1.00 20.00     0.036 C 
HETATM    4  C8  UNL     1     -24.974  17.378  11.091  1.00 20.00     0.144 C 
HETATM    5  C9  UNL     1     -22.701  18.134  11.304  1.00 20.00     0.126 C 
HETATM    6  C10 UNL     1     -21.393  17.746  11.987  1.00 20.00     0.040 C 
HETATM    7  O11 UNL     1     -23.628  17.057  11.467  1.00 20.00    -0.377 OA
ENDROOT
BRANCH   3   8
HETATM    8  C3  UNL     1     -21.594  17.625   9.059  1.00 20.00    -0.030 C 
HETATM    9  C1  UNL     1     -21.670  17.377   7.748  1.00 20.00     0.007 C 
ENDBRANCH   3   8
BRANCH   4  10
HETATM   10  C4  UNL     1     -25.783  17.625  12.325  1.00 20.00    -0.005 C 
HETATM   11  C2  UNL     1     -27.113  17.757  12.332  1.00 20.00     0.009 C 
ENDBRANCH   4  10
TORSDOF 2
ENDMDL
MODEL 3
REMARK VINA RESULT:      -4.1     15.103     16.449
REMARK  2 active torsions:
REMARK  status: ('A' for Active; 'I' for Inactive)
REMARK    1  A    between atoms: C3_3  and  C7_7 
REMARK    2  A    between atoms: C4_4  and  C8_8 
ROOT
HETATM    1  C5  UNL     1     -32.186   8.029   3.637  1.00 20.00     0.014 C 
HETATM    2  C6  UNL     1     -32.682   7.540   4.991  1.00 20.00     0.037 C 
HETATM    3  C7  UNL     1     -32.135   6.879   2.613  1.00 20.00     0.036 C 
HETATM    4  C8  UNL     1     -34.067   6.895   4.844  1.00 20.00     0.144 C 
HETATM    5  C9  UNL     1     -32.996   5.677   3.068  1.00 20.00     0.126 C 
HETATM    6  C10 UNL     1     -33.326   4.678   1.964  1.00 20.00     0.040 C 
HETATM    7  O11 UNL     1     -34.225   6.140   3.636  1.00 20.00    -0.377 OA
ENDROOT
BRANCH   3   8
HETATM    8  C3  UNL     1     -32.497   7.406   1.254  1.00 20.00    -0.030 C 
HETATM    9  C1  UNL     1     -32.815   8.680   1.007  1.00 20.00     0.007 C 
ENDBRANCH   3   8
BRANCH   4  10
HETATM   10  C4  UNL     1     -34.410   6.027   6.013  1.00 20.00    -0.005 C 
HETATM   11  C2  UNL     1     -34.839   4.765   5.907  1.00 20.00     0.009 C 
ENDBRANCH   4  10
TORSDOF 2
ENDMDL
MODEL 4
REMARK VINA RESULT:      -4.1      1.584      2.554
REMARK  2 active torsions:
REMARK  status: ('A' for Active; 'I' for Inactive)
REMARK    1  A    between atoms: C3_3  and  C7_7 
REMARK    2  A    between atoms: C4_4  and  C8_8 
ROOT
HETATM    1  C5  UNL     1     -24.269  17.644  12.332  1.00 20.00     0.014 C 
HETATM    2  C6  UNL     1     -22.937  17.457  11.617  1.00 20.00     0.037 C 
HETATM    3  C7  UNL     1     -25.204  18.573  11.535  1.00 20.00     0.036 C 
HETATM    4  C8  UNL     1     -23.168  16.899  10.207  1.00 20.00     0.144 C 
HETATM    5  C9  UNL     1     -24.752  18.703  10.062  1.00 20.00     0.126 C 
HETATM    6  C10 UNL     1     -25.813  19.262   9.120  1.00 20.00     0.040 C 
HETATM    7  O11 UNL     1     -24.333  17.430   9.561  1.00 20.00    -0.377 OA
ENDROOT
BRANCH   3   8
HETATM    8  C3  UNL     1     -26.623  18.107  11.697  1.00 20.00    -0.030 C 
HETATM    9  C1  UNL     1     -26.970  16.944  12.256  1.00 20.00     0.007 C 
ENDBRANCH   3   8
BRANCH   4  10
HETATM   10  C4  UNL     1     -21.981  17.101   9.320  1.00 20.00    -0.005 C 
HETATM   11  C2  UNL     1     -22.047  17.171   7.987  1.00 20.00     0.009 C 
ENDBRANCH   4  10
TORSDOF 2
ENDMDL
MODEL 5
REMARK VINA RESULT:      -4.0     15.577     17.488
REMARK  2 active torsions:
REMARK  status: ('A' for Active; 'I' for Inactive)
REMARK    1  A    between atoms: C3_3  and  C7_7 
REMARK    2  A    between atoms: C4_4  and  C8_8 
ROOT
HETATM    1  C5  UNL     1     -35.373  14.784  -3.098  1.00 20.00     0.014 C 
HETATM    2  C6  UNL     1     -34.898  14.255  -4.444  1.00 20.00     0.037 C 
HETATM    3  C7  UNL     1     -34.430  15.880  -2.565  1.00 20.00     0.036 C 
HETATM    4  C8  UNL     1     -34.790  15.404  -5.456  1.00 20.00     0.144 C 
HETATM    5  C9  UNL     1     -33.543  16.459  -3.691  1.00 20.00     0.126 C 
HETATM    6  C10 UNL     1     -32.882  17.792  -3.355  1.00 20.00     0.040 C 
HETATM    7  O11 UNL     1     -34.312  16.629  -4.885  1.00 20.00    -0.377 OA
ENDROOT
BRANCH   3   8
HETATM    8  C3  UNL     1     -35.235  16.914  -1.831  1.00 20.00    -0.030 C 
HETATM    9  C1  UNL     1     -35.311  16.997  -0.500  1.00 20.00     0.007 C 
ENDBRANCH   3   8
BRANCH   4  10
HETATM   10  C4  UNL     1     -33.936  15.042  -6.629  1.00 20.00    -0.005 C 
HETATM   11  C2  UNL     1     -34.005  15.648  -7.819  1.00 20.00     0.009 C 
ENDBRANCH   4  10
TORSDOF 2
ENDMDL
MODEL 6
REMARK VINA RESULT:      -4.0     15.357     17.519
REMARK  2 active torsions:
REMARK  status: ('A' for Active; 'I' for Inactive)
REMARK    1  A    between atoms: C3_3  and  C7_7 
REMARK    2  A    between atoms: C4_4  and  C8_8 
ROOT
HETATM    1  C5  UNL     1     -33.285  15.893  -3.585  1.00 20.00     0.014 C 
HETATM    2  C6  UNL     1     -33.782  16.545  -2.303  1.00 20.00     0.037 C 
HETATM    3  C7  UNL     1     -34.287  14.845  -4.104  1.00 20.00     0.036 C 
HETATM    4  C8  UNL     1     -35.155  17.190  -2.537  1.00 20.00     0.144 C 
HETATM    5  C9  UNL     1     -35.686  15.041  -3.476  1.00 20.00     0.126 C 
HETATM    6  C10 UNL     1     -36.817  14.327  -4.209  1.00 20.00     0.040 C 
HETATM    7  O11 UNL     1     -36.005  16.433  -3.409  1.00 20.00    -0.377 OA
ENDROOT
BRANCH   3   8
HETATM    8  C3  UNL     1     -34.287  14.857  -5.605  1.00 20.00    -0.030 C 
HETATM    9  C1  UNL     1     -34.302  15.970  -6.345  1.00 20.00     0.007 C 
ENDBRANCH   3   8
BRANCH   4  10
HETATM   10  C4  UNL     1     -35.878  17.454  -1.255  1.00 20.00    -0.005 C 
HETATM   11  C2  UNL     1     -35.419  17.099  -0.050  1.00 20.00     0.009 C 
ENDBRANCH   4  10
TORSDOF 2
ENDMDL
MODEL 7
REMARK VINA RESULT:      -3.9     14.292     16.979
REMARK  2 active torsions:
REMARK  status: ('A' for Active; 'I' for Inactive)
REMARK    1  A    between atoms: C3_3  and  C7_7 
REMARK    2  A    between atoms: C4_4  and  C8_8 
ROOT
HETATM    1  C5  UNL     1     -32.885  15.887  -3.421  1.00 20.00     0.014 C 
HETATM    2  C6  UNL     1     -33.680  14.931  -4.300  1.00 20.00     0.037 C 
HETATM    3  C7  UNL     1     -33.731  17.111  -3.021  1.00 20.00     0.036 C 
HETATM    4  C8  UNL     1     -34.956  14.483  -3.573  1.00 20.00     0.144 C 
HETATM    5  C9  UNL     1     -35.241  16.844  -3.220  1.00 20.00     0.126 C 
HETATM    6  C10 UNL     1     -36.160  17.820  -2.491  1.00 20.00     0.040 C 
HETATM    7  O11 UNL     1     -35.568  15.519  -2.793  1.00 20.00    -0.377 OA
ENDROOT
BRANCH   3   8
HETATM    8  C3  UNL     1     -33.367  17.533  -1.627  1.00 20.00    -0.030 C 
HETATM    9  C1  UNL     1     -32.220  18.139  -1.304  1.00 20.00     0.007 C 
ENDBRANCH   3   8
BRANCH   4  10
HETATM   10  C4  UNL     1     -35.969  13.913  -4.515  1.00 20.00    -0.005 C 
HETATM   11  C2  UNL     1     -36.048  14.234  -5.810  1.00 20.00     0.009 C 
ENDBRANCH   4  10
TORSDOF 2
ENDMDL
MODEL 8
REMARK VINA RESULT:      -3.9     12.982     15.629
REMARK  2 active torsions:
REMARK  status: ('A' for Active; 'I' for Inactive)
REMARK    1  A    between atoms: C3_3  and  C7_7 
REMARK    2  A    between atoms: C4_4  and  C8_8 
ROOT
HETATM    1  C5  UNL     1     -32.810  17.477  -2.228  1.00 20.00     0.014 C 
HETATM    2  C6  UNL     1     -33.515  16.643  -3.289  1.00 20.00     0.037 C 
HETATM    3  C7  UNL     1     -33.824  18.211  -1.330  1.00 20.00     0.036 C 
HETATM    4  C8  UNL     1     -34.466  15.637  -2.626  1.00 20.00     0.144 C 
HETATM    5  C9  UNL     1     -35.233  17.582  -1.437  1.00 20.00     0.126 C 
HETATM    6  C10 UNL     1     -36.187  17.970  -0.312  1.00 20.00     0.040 C 
HETATM    7  O11 UNL     1     -35.134  16.155  -1.468  1.00 20.00    -0.377 OA
ENDROOT
BRANCH   3   8
HETATM    8  C3  UNL     1     -33.291  18.275   0.072  1.00 20.00    -0.030 C 
HETATM    9  C1  UNL     1     -32.008  18.492   0.376  1.00 20.00     0.007 C 
ENDBRANCH   3   8
BRANCH   4  10
HETATM   10  C4  UNL     1     -35.484  15.108  -3.585  1.00 20.00    -0.005 C 
HETATM   11  C2  UNL     1     -35.407  13.909  -4.170  1.00 20.00     0.009 C 
ENDBRANCH   4  10
TORSDOF 2
ENDMDL
MODEL 9
REMARK VINA RESULT:      -3.8     13.535     16.463
REMARK  2 active torsions:
REMARK  status: ('A' for Active; 'I' for Inactive)
REMARK    1  A    between atoms: C3_3  and  C7_7 
REMARK    2  A    between atoms: C4_4  and  C8_8 
ROOT
HETATM    1  C5  UNL     1     -35.092  16.077  -1.939  1.00 20.00     0.014 C 
HETATM    2  C6  UNL     1     -34.211  17.147  -1.310  1.00 20.00     0.037 C 
HETATM    3  C7  UNL     1     -35.400  16.403  -3.413  1.00 20.00     0.036 C 
HETATM    4  C8  UNL     1     -32.908  17.295  -2.107  1.00 20.00     0.144 C 
HETATM    5  C9  UNL     1     -34.407  17.443  -3.982  1.00 20.00     0.126 C 
HETATM    6  C10 UNL     1     -34.379  17.527  -5.504  1.00 20.00     0.040 C 
HETATM    7  O11 UNL     1     -33.082  17.160  -3.524  1.00 20.00    -0.377 OA
ENDROOT
BRANCH   3   8
HETATM    8  C3  UNL     1     -35.463  15.127  -4.202  1.00 20.00    -0.030 C 
HETATM    9  C1  UNL     1     -34.708  14.053  -3.950  1.00 20.00     0.007 C 
ENDBRANCH   3   8
BRANCH   4  10
HETATM   10  C4  UNL     1     -32.215  18.588  -1.818  1.00 20.00    -0.005 C 
HETATM   11  C2  UNL     1     -31.556  18.846  -0.684  1.00 20.00     0.009 C 
ENDBRANCH   4  10
TORSDOF 2
ENDMDL
