MODEL 1
REMARK VINA RESULT:      -4.2      0.000      0.000
REMARK  5 active torsions:
REMARK  status: ('A' for Active; 'I' for Inactive)
REMARK    1  A    between atoms: C2_2  and  C3_3 
REMARK    2  A    between atoms: C3_3  and  N7_7 
REMARK    3  A    between atoms: C4_4  and  C5_5 
REMARK    4  A    between atoms: C4_4  and  N7_7 
REMARK    5  A    between atoms: N6_6  and  N7_7 
ROOT
HETATM    1  N7  UNL     1     -35.296  13.743  -4.899  1.00 20.00    -0.205 NA
ENDROOT
BRANCH   1   2
HETATM    2  C3  UNL     1     -34.344  14.098  -3.883  1.00 20.00     0.111 C 
BRANCH   2   3
HETATM    3  C2  UNL     1     -34.635  15.460  -3.265  1.00 20.00     0.011 C 
HETATM    4  C1  UNL     1     -33.372  16.264  -2.991  1.00 20.00     0.006 C 
ENDBRANCH   2   3
ENDBRANCH   1   2
BRANCH   1   5
HETATM    5  C4  UNL     1     -35.846  14.954  -5.543  1.00 20.00     0.127 C 
BRANCH   5   6
HETATM    6  C5  UNL     1     -35.497  15.037  -7.021  1.00 20.00     0.130 C 
HETATM    7 CL9  UNL     1     -33.735  15.100  -7.267  1.00 20.00    -0.129 Cl
ENDBRANCH   5   6
ENDBRANCH   1   5
BRANCH   1   8
HETATM    8  N6  UNL     1     -36.279  12.937  -4.503  1.00 20.00     0.030 NA
HETATM    9  O8  UNL     1     -37.353  13.548  -4.458  1.00 20.00    -0.082 OA
ENDBRANCH   1   8
TORSDOF 5
ENDMDL
MODEL 2
REMARK VINA RESULT:      -4.0     11.039     11.809
REMARK  5 active torsions:
REMARK  status: ('A' for Active; 'I' for Inactive)
REMARK    1  A    between atoms: C2_2  and  C3_3 
REMARK    2  A    between atoms: C3_3  and  N7_7 
REMARK    3  A    between atoms: C4_4  and  C5_5 
REMARK    4  A    between atoms: C4_4  and  N7_7 
REMARK    5  A    between atoms: N6_6  and  N7_7 
ROOT
HETATM    1  N7  UNL     1     -33.002   6.301   3.379  1.00 20.00    -0.205 NA
ENDROOT
BRANCH   1   2
HETATM    2  C3  UNL     1     -34.149   6.743   4.123  1.00 20.00     0.111 C 
BRANCH   2   3
HETATM    3  C2  UNL     1     -33.999   6.502   5.620  1.00 20.00     0.011 C 
HETATM    4  C1  UNL     1     -34.734   5.255   6.092  1.00 20.00     0.006 C 
ENDBRANCH   2   3
ENDBRANCH   1   2
BRANCH   1   5
HETATM    5  C4  UNL     1     -32.259   7.455   2.831  1.00 20.00     0.127 C 
BRANCH   5   6
HETATM    6  C5  UNL     1     -32.427   7.593   1.326  1.00 20.00     0.130 C 
HETATM    7 CL9  UNL     1     -32.997   9.223   0.887  1.00 20.00    -0.129 Cl
ENDBRANCH   5   6
ENDBRANCH   1   5
BRANCH   1   8
HETATM    8  N6  UNL     1     -33.251   5.409   2.423  1.00 20.00     0.030 NA
HETATM    9  O8  UNL     1     -33.595   4.327   2.913  1.00 20.00    -0.082 OA
ENDBRANCH   1   8
TORSDOF 5
ENDMDL
MODEL 3
REMARK VINA RESULT:      -4.0      1.115      1.115
REMARK  5 active torsions:
REMARK  status: ('A' for Active; 'I' for Inactive)
REMARK    1  A    between atoms: C2_2  and  C3_3 
REMARK    2  A    between atoms: C3_3  and  N7_7 
REMARK    3  A    between atoms: C4_4  and  C5_5 
REMARK    4  A    between atoms: C4_4  and  N7_7 
REMARK    5  A    between atoms: N6_6  and  N7_7 
ROOT
HETATM    1  N7  UNL     1     -35.086  14.439  -4.485  1.00 20.00    -0.205 NA
ENDROOT
BRANCH   1   2
HETATM    2  C3  UNL     1     -35.558  15.339  -3.470  1.00 20.00     0.111 C 
BRANCH   2   3
HETATM    3  C2  UNL     1     -34.440  15.808  -2.545  1.00 20.00     0.011 C 
HETATM    4  C1  UNL     1     -33.197  16.253  -3.303  1.00 20.00     0.006 C 
ENDBRANCH   2   3
ENDBRANCH   1   2
BRANCH   1   5
HETATM    5  C4  UNL     1     -35.999  14.439  -5.648  1.00 20.00     0.127 C 
BRANCH   5   6
HETATM    6  C5  UNL     1     -35.418  15.178  -6.843  1.00 20.00     0.130 C 
HETATM    7 CL9  UNL     1     -33.656  14.943  -6.955  1.00 20.00    -0.129 Cl
ENDBRANCH   5   6
ENDBRANCH   1   5
BRANCH   1   8
HETATM    8  N6  UNL     1     -34.850  13.193  -4.079  1.00 20.00     0.030 NA
HETATM    9  O8  UNL     1     -35.770  12.440  -4.419  1.00 20.00    -0.082 OA
ENDBRANCH   1   8
TORSDOF 5
ENDMDL
MODEL 4
REMARK VINA RESULT:      -3.8      1.921      3.194
REMARK  5 active torsions:
REMARK  status: ('A' for Active; 'I' for Inactive)
REMARK    1  A    between atoms: C2_2  and  C3_3 
REMARK    2  A    between atoms: C3_3  and  N7_7 
REMARK    3  A    between atoms: C4_4  and  C5_5 
REMARK    4  A    between atoms: C4_4  and  N7_7 
REMARK    5  A    between atoms: N6_6  and  N7_7 
ROOT
HETATM    1  N7  UNL     1     -35.957  14.659  -4.673  1.00 20.00    -0.205 NA
ENDROOT
BRANCH   1   2
HETATM    2  C3  UNL     1     -35.628  15.299  -5.917  1.00 20.00     0.111 C 
BRANCH   2   3
HETATM    3  C2  UNL     1     -34.182  15.053  -6.332  1.00 20.00     0.011 C 
HETATM    4  C1  UNL     1     -33.934  15.345  -7.805  1.00 20.00     0.006 C 
ENDBRANCH   2   3
ENDBRANCH   1   2
BRANCH   1   5
HETATM    5  C4  UNL     1     -34.752  14.504  -3.832  1.00 20.00     0.127 C 
BRANCH   5   6
HETATM    6  C5  UNL     1     -34.661  15.564  -2.746  1.00 20.00     0.130 C 
HETATM    7 CL9  UNL     1     -33.115  16.445  -2.831  1.00 20.00    -0.129 Cl
ENDBRANCH   5   6
ENDBRANCH   1   5
BRANCH   1   8
HETATM    8  N6  UNL     1     -36.603  13.500  -4.781  1.00 20.00     0.030 NA
HETATM    9  O8  UNL     1     -35.858  12.556  -4.494  1.00 20.00    -0.082 OA
ENDBRANCH   1   8
TORSDOF 5
ENDMDL
MODEL 5
REMARK VINA RESULT:      -3.8      2.144      2.291
REMARK  5 active torsions:
REMARK  status: ('A' for Active; 'I' for Inactive)
REMARK    1  A    between atoms: C2_2  and  C3_3 
REMARK    2  A    between atoms: C3_3  and  N7_7 
REMARK    3  A    between atoms: C4_4  and  C5_5 
REMARK    4  A    between atoms: C4_4  and  N7_7 
REMARK    5  A    between atoms: N6_6  and  N7_7 
ROOT
HETATM    1  N7  UNL     1     -34.695  14.140  -4.389  1.00 20.00    -0.205 NA
ENDROOT
BRANCH   1   2
HETATM    2  C3  UNL     1     -34.653  15.126  -3.345  1.00 20.00     0.111 C 
BRANCH   2   3
HETATM    3  C2  UNL     1     -33.333  15.888  -3.318  1.00 20.00     0.011 C 
HETATM    4  C1  UNL     1     -33.322  17.009  -2.288  1.00 20.00     0.006 C 
ENDBRANCH   2   3
ENDBRANCH   1   2
BRANCH   1   5
HETATM    5  C4  UNL     1     -35.748  14.467  -5.373  1.00 20.00     0.127 C 
BRANCH   5   6
HETATM    6  C5  UNL     1     -36.715  15.523  -4.861  1.00 20.00     0.130 C 
HETATM    7 CL9  UNL     1     -38.216  14.783  -4.250  1.00 20.00    -0.129 Cl
ENDBRANCH   5   6
ENDBRANCH   1   5
BRANCH   1   8
HETATM    8  N6  UNL     1     -34.814  12.879  -3.980  1.00 20.00     0.030 NA
HETATM    9  O8  UNL     1     -35.835  12.362  -4.448  1.00 20.00    -0.082 OA
ENDBRANCH   1   8
TORSDOF 5
ENDMDL
MODEL 6
REMARK VINA RESULT:      -3.7     11.192     12.005
REMARK  5 active torsions:
REMARK  status: ('A' for Active; 'I' for Inactive)
REMARK    1  A    between atoms: C2_2  and  C3_3 
REMARK    2  A    between atoms: C3_3  and  N7_7 
REMARK    3  A    between atoms: C4_4  and  C5_5 
REMARK    4  A    between atoms: C4_4  and  N7_7 
REMARK    5  A    between atoms: N6_6  and  N7_7 
ROOT
HETATM    1  N7  UNL     1     -33.276   6.285   2.794  1.00 20.00    -0.205 NA
ENDROOT
BRANCH   1   2
HETATM    2  C3  UNL     1     -32.339   7.316   2.442  1.00 20.00     0.111 C 
BRANCH   2   3
HETATM    3  C2  UNL     1     -32.445   7.721   0.976  1.00 20.00     0.011 C 
HETATM    4  C1  UNL     1     -32.963   9.140   0.794  1.00 20.00     0.006 C 
ENDBRANCH   2   3
ENDBRANCH   1   2
BRANCH   1   5
HETATM    5  C4  UNL     1     -33.931   6.594   4.082  1.00 20.00     0.127 C 
BRANCH   5   6
HETATM    6  C5  UNL     1     -34.941   5.534   4.491  1.00 20.00     0.130 C 
HETATM    7 CL9  UNL     1     -34.784   5.123   6.217  1.00 20.00    -0.129 Cl
ENDBRANCH   5   6
ENDBRANCH   1   5
BRANCH   1   8
HETATM    8  N6  UNL     1     -32.786   5.047   2.805  1.00 20.00     0.030 NA
HETATM    9  O8  UNL     1     -33.213   4.400   1.841  1.00 20.00    -0.082 OA
ENDBRANCH   1   8
TORSDOF 5
ENDMDL
MODEL 7
REMARK VINA RESULT:      -3.5      1.832      3.013
REMARK  5 active torsions:
REMARK  status: ('A' for Active; 'I' for Inactive)
REMARK    1  A    between atoms: C2_2  and  C3_3 
REMARK    2  A    between atoms: C3_3  and  N7_7 
REMARK    3  A    between atoms: C4_4  and  C5_5 
REMARK    4  A    between atoms: C4_4  and  N7_7 
REMARK    5  A    between atoms: N6_6  and  N7_7 
ROOT
HETATM    1  N7  UNL     1     -35.592  14.445  -4.805  1.00 20.00    -0.205 NA
ENDROOT
BRANCH   1   2
HETATM    2  C3  UNL     1     -35.116  14.795  -6.114  1.00 20.00     0.111 C 
BRANCH   2   3
HETATM    3  C2  UNL     1     -35.257  16.285  -6.404  1.00 20.00     0.011 C 
HETATM    4  C1  UNL     1     -36.508  16.890  -5.783  1.00 20.00     0.006 C 
ENDBRANCH   2   3
ENDBRANCH   1   2
BRANCH   1   5
HETATM    5  C4  UNL     1     -34.475  14.402  -3.838  1.00 20.00     0.127 C 
BRANCH   5   6
HETATM    6  C5  UNL     1     -34.545  15.526  -2.817  1.00 20.00     0.130 C 
HETATM    7 CL9  UNL     1     -33.069  16.522  -2.851  1.00 20.00    -0.129 Cl
ENDBRANCH   5   6
ENDBRANCH   1   5
BRANCH   1   8
HETATM    8  N6  UNL     1     -36.310  13.325  -4.739  1.00 20.00     0.030 NA
HETATM    9  O8  UNL     1     -37.492  13.578  -4.475  1.00 20.00    -0.082 OA
ENDBRANCH   1   8
TORSDOF 5
ENDMDL
MODEL 8
REMARK VINA RESULT:      -3.5      2.265      2.328
REMARK  5 active torsions:
REMARK  status: ('A' for Active; 'I' for Inactive)
REMARK    1  A    between atoms: C2_2  and  C3_3 
REMARK    2  A    between atoms: C3_3  and  N7_7 
REMARK    3  A    between atoms: C4_4  and  C5_5 
REMARK    4  A    between atoms: C4_4  and  N7_7 
REMARK    5  A    between atoms: N6_6  and  N7_7 
ROOT
HETATM    1  N7  UNL     1     -36.615  14.548  -5.372  1.00 20.00    -0.205 NA
ENDROOT
BRANCH   1   2
HETATM    2  C3  UNL     1     -35.212  14.782  -5.168  1.00 20.00     0.111 C 
BRANCH   2   3
HETATM    3  C2  UNL     1     -34.812  14.670  -3.702  1.00 20.00     0.011 C 
HETATM    4  C1  UNL     1     -33.783  15.713  -3.291  1.00 20.00     0.006 C 
ENDBRANCH   2   3
ENDBRANCH   1   2
BRANCH   1   5
HETATM    5  C4  UNL     1     -37.359  15.824  -5.386  1.00 20.00     0.127 C 
BRANCH   5   6
HETATM    6  C5  UNL     1     -37.294  16.522  -6.736  1.00 20.00     0.130 C 
HETATM    7 CL9  UNL     1     -38.902  17.094  -7.246  1.00 20.00    -0.129 Cl
ENDBRANCH   5   6
ENDBRANCH   1   5
BRANCH   1   8
HETATM    8  N6  UNL     1     -37.179  13.688  -4.527  1.00 20.00     0.030 NA
HETATM    9  O8  UNL     1     -38.383  13.938  -4.387  1.00 20.00    -0.082 OA
ENDBRANCH   1   8
TORSDOF 5
ENDMDL
MODEL 9
REMARK VINA RESULT:      -3.3      2.997      4.028
REMARK  5 active torsions:
REMARK  status: ('A' for Active; 'I' for Inactive)
REMARK    1  A    between atoms: C2_2  and  C3_3 
REMARK    2  A    between atoms: C3_3  and  N7_7 
REMARK    3  A    between atoms: C4_4  and  C5_5 
REMARK    4  A    between atoms: C4_4  and  N7_7 
REMARK    5  A    between atoms: N6_6  and  N7_7 
ROOT
HETATM    1  N7  UNL     1     -36.577  14.145  -3.949  1.00 20.00    -0.205 NA
ENDROOT
BRANCH   1   2
HETATM    2  C3  UNL     1     -37.479  14.982  -4.690  1.00 20.00     0.111 C 
BRANCH   2   3
HETATM    3  C2  UNL     1     -38.920  14.850  -4.212  1.00 20.00     0.011 C 
HETATM    4  C1  UNL     1     -39.875  15.769  -4.960  1.00 20.00     0.006 C 
ENDBRANCH   2   3
ENDBRANCH   1   2
BRANCH   1   5
HETATM    5  C4  UNL     1     -35.359  14.894  -3.576  1.00 20.00     0.127 C 
BRANCH   5   6
HETATM    6  C5  UNL     1     -35.670  16.278  -3.029  1.00 20.00     0.130 C 
HETATM    7 CL9  UNL     1     -35.085  16.458  -1.356  1.00 20.00    -0.129 Cl
ENDBRANCH   5   6
ENDBRANCH   1   5
BRANCH   1   8
HETATM    8  N6  UNL     1     -36.256  12.993  -4.534  1.00 20.00     0.030 NA
HETATM    9  O8  UNL     1     -35.201  12.545  -4.067  1.00 20.00    -0.082 OA
ENDBRANCH   1   8
TORSDOF 5
ENDMDL
