MODEL 1
REMARK VINA RESULT:      -4.7      0.000      0.000
REMARK  2 active torsions:
REMARK  status: ('A' for Active; 'I' for Inactive)
REMARK    1  A    between atoms: C6_6  and  C8_8 
REMARK    2  A    between atoms: C8_8  and  O9_9 
ROOT
HETATM    1  C1  UNL     1     -33.467  16.604  -2.395  1.00 20.00    -0.030 C 
HETATM    2  C2  UNL     1     -32.990  15.974  -3.477  1.00 20.00    -0.030 C 
HETATM    3  C3  UNL     1     -34.868  16.424  -1.891  1.00 20.00     0.031 C 
HETATM    4  C4  UNL     1     -33.797  15.001  -4.285  1.00 20.00     0.034 C 
HETATM    5  C5  UNL     1     -35.817  15.756  -2.909  1.00 20.00    -0.009 C 
HETATM    6  C6  UNL     1     -35.096  14.562  -3.582  1.00 20.00     0.016 C 
HETATM    7  C7  UNL     1     -36.357  16.790  -3.908  1.00 20.00     0.011 C 
ENDROOT
BRANCH   6   8
HETATM    8  C8  UNL     1     -35.993  13.783  -4.544  1.00 20.00     0.169 C 
BRANCH   8   9
HETATM    9  O9  UNL     1     -35.874  12.404  -4.250  1.00 20.00    -0.400 OA
HETATM   10  H23 UNL     1     -36.490  11.932  -4.837  1.00 20.00     0.209 HD
ENDBRANCH   8   9
ENDBRANCH   6   8
TORSDOF 2
ENDMDL
MODEL 2
REMARK VINA RESULT:      -4.4      1.524      1.764
REMARK  2 active torsions:
REMARK  status: ('A' for Active; 'I' for Inactive)
REMARK    1  A    between atoms: C6_6  and  C8_8 
REMARK    2  A    between atoms: C8_8  and  O9_9 
ROOT
HETATM    1  C1  UNL     1     -33.954  17.382  -1.328  1.00 20.00    -0.030 C 
HETATM    2  C2  UNL     1     -32.973  17.309  -2.238  1.00 20.00    -0.030 C 
HETATM    3  C3  UNL     1     -35.194  16.541  -1.389  1.00 20.00     0.031 C 
HETATM    4  C4  UNL     1     -32.998  16.361  -3.399  1.00 20.00     0.034 C 
HETATM    5  C5  UNL     1     -35.423  15.864  -2.756  1.00 20.00    -0.009 C 
HETATM    6  C6  UNL     1     -34.087  15.277  -3.273  1.00 20.00     0.016 C 
HETATM    7  C7  UNL     1     -36.088  16.836  -3.740  1.00 20.00     0.011 C 
ENDROOT
BRANCH   6   8
HETATM    8  C8  UNL     1     -34.235  14.506  -4.584  1.00 20.00     0.169 C 
BRANCH   8   9
HETATM    9  O9  UNL     1     -32.970  14.446  -5.215  1.00 20.00    -0.400 OA
HETATM   10  H23 UNL     1     -32.910  13.581  -5.656  1.00 20.00     0.209 HD
ENDBRANCH   8   9
ENDBRANCH   6   8
TORSDOF 2
ENDMDL
MODEL 3
REMARK VINA RESULT:      -4.3     16.990     18.233
REMARK  2 active torsions:
REMARK  status: ('A' for Active; 'I' for Inactive)
REMARK    1  A    between atoms: C6_6  and  C8_8 
REMARK    2  A    between atoms: C8_8  and  O9_9 
ROOT
HETATM    1  C1  UNL     1     -23.568  16.998  12.112  1.00 20.00    -0.030 C 
HETATM    2  C2  UNL     1     -22.390  17.621  11.974  1.00 20.00    -0.030 C 
HETATM    3  C3  UNL     1     -24.410  16.566  10.948  1.00 20.00     0.031 C 
HETATM    4  C4  UNL     1     -21.774  17.931  10.641  1.00 20.00     0.034 C 
HETATM    5  C5  UNL     1     -24.002  17.215   9.607  1.00 20.00    -0.009 C 
HETATM    6  C6  UNL     1     -22.459  17.196   9.473  1.00 20.00     0.016 C 
HETATM    7  C7  UNL     1     -24.613  18.616   9.473  1.00 20.00     0.011 C 
ENDROOT
BRANCH   6   8
HETATM    8  C8  UNL     1     -21.966  17.738   8.132  1.00 20.00     0.169 C 
BRANCH   8   9
HETATM    9  O9  UNL     1     -21.731  16.645   7.265  1.00 20.00    -0.400 OA
HETATM   10  H23 UNL     1     -22.021  15.842   7.731  1.00 20.00     0.209 HD
ENDBRANCH   8   9
ENDBRANCH   6   8
TORSDOF 2
ENDMDL
MODEL 4
REMARK VINA RESULT:      -4.3      3.351      4.805
REMARK  2 active torsions:
REMARK  status: ('A' for Active; 'I' for Inactive)
REMARK    1  A    between atoms: C6_6  and  C8_8 
REMARK    2  A    between atoms: C8_8  and  O9_9 
ROOT
HETATM    1  C1  UNL     1     -34.923  15.904  -2.303  1.00 20.00    -0.030 C 
HETATM    2  C2  UNL     1     -35.197  16.737  -1.289  1.00 20.00    -0.030 C 
HETATM    3  C3  UNL     1     -33.650  15.966  -3.094  1.00 20.00     0.031 C 
HETATM    4  C4  UNL     1     -34.250  17.801  -0.819  1.00 20.00     0.034 C 
HETATM    5  C5  UNL     1     -32.855  17.274  -2.897  1.00 20.00    -0.009 C 
HETATM    6  C6  UNL     1     -32.829  17.643  -1.394  1.00 20.00     0.016 C 
HETATM    7  C7  UNL     1     -33.412  18.389  -3.793  1.00 20.00     0.011 C 
ENDROOT
BRANCH   6   8
HETATM    8  C8  UNL     1     -31.984  18.880  -1.092  1.00 20.00     0.169 C 
BRANCH   8   9
HETATM    9  O9  UNL     1     -30.684  18.458  -0.728  1.00 20.00    -0.400 OA
HETATM   10  H23 UNL     1     -30.059  19.106  -1.097  1.00 20.00     0.209 HD
ENDBRANCH   8   9
ENDBRANCH   6   8
TORSDOF 2
ENDMDL
MODEL 5
REMARK VINA RESULT:      -4.2     10.831     12.073
REMARK  2 active torsions:
REMARK  status: ('A' for Active; 'I' for Inactive)
REMARK    1  A    between atoms: C6_6  and  C8_8 
REMARK    2  A    between atoms: C8_8  and  O9_9 
ROOT
HETATM    1  C1  UNL     1     -41.983   8.591   0.356  1.00 20.00    -0.030 C 
HETATM    2  C2  UNL     1     -42.972   8.563  -0.548  1.00 20.00    -0.030 C 
HETATM    3  C3  UNL     1     -41.203   7.374   0.756  1.00 20.00     0.031 C 
HETATM    4  C4  UNL     1     -43.387   7.319  -1.276  1.00 20.00     0.034 C 
HETATM    5  C5  UNL     1     -41.860   6.043   0.332  1.00 20.00    -0.009 C 
HETATM    6  C6  UNL     1     -42.379   6.164  -1.122  1.00 20.00     0.016 C 
HETATM    7  C7  UNL     1     -42.942   5.626   1.337  1.00 20.00     0.011 C 
ENDROOT
BRANCH   6   8
HETATM    8  C8  UNL     1     -42.967   4.859  -1.661  1.00 20.00     0.169 C 
BRANCH   8   9
HETATM    9  O9  UNL     1     -41.900   3.989  -1.990  1.00 20.00    -0.400 OA
HETATM   10  H23 UNL     1     -42.154   3.521  -2.804  1.00 20.00     0.209 HD
ENDBRANCH   8   9
ENDBRANCH   6   8
TORSDOF 2
ENDMDL
MODEL 6
REMARK VINA RESULT:      -4.1      1.449      2.111
REMARK  2 active torsions:
REMARK  status: ('A' for Active; 'I' for Inactive)
REMARK    1  A    between atoms: C6_6  and  C8_8 
REMARK    2  A    between atoms: C8_8  and  O9_9 
ROOT
HETATM    1  C1  UNL     1     -33.569  16.932  -3.883  1.00 20.00    -0.030 C 
HETATM    2  C2  UNL     1     -33.636  15.815  -3.147  1.00 20.00    -0.030 C 
HETATM    3  C3  UNL     1     -34.411  17.163  -5.103  1.00 20.00     0.031 C 
HETATM    4  C4  UNL     1     -34.578  14.687  -3.447  1.00 20.00     0.034 C 
HETATM    5  C5  UNL     1     -35.081  15.886  -5.651  1.00 20.00    -0.009 C 
HETATM    6  C6  UNL     1     -35.663  15.063  -4.475  1.00 20.00     0.016 C 
HETATM    7  C7  UNL     1     -34.103  15.093  -6.530  1.00 20.00     0.011 C 
ENDROOT
BRANCH   6   8
HETATM    8  C8  UNL     1     -36.427  13.820  -4.931  1.00 20.00     0.169 C 
BRANCH   8   9
HETATM    9  O9  UNL     1     -35.754  12.675  -4.443  1.00 20.00    -0.400 OA
HETATM   10  H23 UNL     1     -36.408  12.145  -3.955  1.00 20.00     0.209 HD
ENDBRANCH   8   9
ENDBRANCH   6   8
TORSDOF 2
ENDMDL
MODEL 7
REMARK VINA RESULT:      -4.1     11.248     11.995
REMARK  2 active torsions:
REMARK  status: ('A' for Active; 'I' for Inactive)
REMARK    1  A    between atoms: C6_6  and  C8_8 
REMARK    2  A    between atoms: C8_8  and  O9_9 
ROOT
HETATM    1  C1  UNL     1     -34.903   4.402   4.278  1.00 20.00    -0.030 C 
HETATM    2  C2  UNL     1     -33.820   4.033   3.580  1.00 20.00    -0.030 C 
HETATM    3  C3  UNL     1     -35.278   5.835   4.516  1.00 20.00     0.031 C 
HETATM    4  C4  UNL     1     -32.882   5.013   2.940  1.00 20.00     0.034 C 
HETATM    5  C5  UNL     1     -34.140   6.835   4.219  1.00 20.00    -0.009 C 
HETATM    6  C6  UNL     1     -33.444   6.447   2.892  1.00 20.00     0.016 C 
HETATM    7  C7  UNL     1     -33.178   6.935   5.411  1.00 20.00     0.011 C 
ENDROOT
BRANCH   6   8
HETATM    8  C8  UNL     1     -32.359   7.437   2.470  1.00 20.00     0.169 C 
BRANCH   8   9
HETATM    9  O9  UNL     1     -32.670   7.919   1.176  1.00 20.00    -0.400 OA
HETATM   10  H23 UNL     1     -31.976   8.556   0.933  1.00 20.00     0.209 HD
ENDBRANCH   8   9
ENDBRANCH   6   8
TORSDOF 2
ENDMDL
MODEL 8
REMARK VINA RESULT:      -4.1     11.753     12.347
REMARK  2 active torsions:
REMARK  status: ('A' for Active; 'I' for Inactive)
REMARK    1  A    between atoms: C6_6  and  C8_8 
REMARK    2  A    between atoms: C8_8  and  O9_9 
ROOT
HETATM    1  C1  UNL     1     -34.352   6.176   6.472  1.00 20.00    -0.030 C 
HETATM    2  C2  UNL     1     -33.677   7.147   5.842  1.00 20.00    -0.030 C 
HETATM    3  C3  UNL     1     -34.785   4.907   5.798  1.00 20.00     0.031 C 
HETATM    4  C4  UNL     1     -33.258   7.059   4.404  1.00 20.00     0.034 C 
HETATM    5  C5  UNL     1     -34.720   4.965   4.257  1.00 20.00    -0.009 C 
HETATM    6  C6  UNL     1     -33.397   5.639   3.820  1.00 20.00     0.016 C 
HETATM    7  C7  UNL     1     -35.973   5.643   3.685  1.00 20.00     0.011 C 
ENDROOT
BRANCH   6   8
HETATM    8  C8  UNL     1     -33.204   5.659   2.304  1.00 20.00     0.169 C 
BRANCH   8   9
HETATM    9  O9  UNL     1     -32.642   6.905   1.939  1.00 20.00    -0.400 OA
HETATM   10  H23 UNL     1     -32.954   7.108   1.040  1.00 20.00     0.209 HD
ENDBRANCH   8   9
ENDBRANCH   6   8
TORSDOF 2
ENDMDL
MODEL 9
REMARK VINA RESULT:      -4.0      1.255      1.787
REMARK  2 active torsions:
REMARK  status: ('A' for Active; 'I' for Inactive)
REMARK    1  A    between atoms: C6_6  and  C8_8 
REMARK    2  A    between atoms: C8_8  and  O9_9 
ROOT
HETATM    1  C1  UNL     1     -33.331  17.361  -4.180  1.00 20.00    -0.030 C 
HETATM    2  C2  UNL     1     -34.364  17.406  -5.032  1.00 20.00    -0.030 C 
HETATM    3  C3  UNL     1     -33.148  16.267  -3.171  1.00 20.00     0.031 C 
HETATM    4  C4  UNL     1     -35.433  16.355  -5.087  1.00 20.00     0.034 C 
HETATM    5  C5  UNL     1     -34.411  15.411  -2.940  1.00 20.00    -0.009 C 
HETATM    6  C6  UNL     1     -35.067  15.080  -4.303  1.00 20.00     0.016 C 
HETATM    7  C7  UNL     1     -35.362  16.102  -1.952  1.00 20.00     0.011 C 
ENDROOT
BRANCH   6   8
HETATM    8  C8  UNL     1     -36.280  14.157  -4.178  1.00 20.00     0.169 C 
BRANCH   8   9
HETATM    9  O9  UNL     1     -35.887  12.848  -4.544  1.00 20.00    -0.400 OA
HETATM   10  H23 UNL     1     -36.041  12.759  -5.500  1.00 20.00     0.209 HD
ENDBRANCH   8   9
ENDBRANCH   6   8
TORSDOF 2
ENDMDL
