MODEL 1
REMARK VINA RESULT:      -4.6      0.000      0.000
REMARK  2 active torsions:
REMARK  status: ('A' for Active; 'I' for Inactive)
REMARK    1  A    between atoms: C3_3  and  C7_7 
REMARK    2  A    between atoms: C4_4  and  C8_8 
ROOT
HETATM    1  C5  UNL     1     -23.798  18.731   9.303  1.00 20.00     0.014 C 
HETATM    2  C6  UNL     1     -25.197  18.948   9.888  1.00 20.00     0.037 C 
HETATM    3  C7  UNL     1     -23.215  17.386   9.749  1.00 20.00     0.036 C 
HETATM    4  C8  UNL     1     -25.430  18.116  11.153  1.00 20.00     0.144 C 
HETATM    5  C9  UNL     1     -23.186  17.293  11.298  1.00 20.00     0.126 C 
HETATM    6  C10 UNL     1     -21.884  17.765  11.943  1.00 20.00     0.040 C 
HETATM    7  O11 UNL     1     -24.224  18.079  11.912  1.00 20.00    -0.377 OA
ENDROOT
BRANCH   3   8
HETATM    8  C3  UNL     1     -21.902  17.106   9.088  1.00 20.00    -0.030 C 
HETATM    9  C1  UNL     1     -21.648  17.347   7.797  1.00 20.00     0.007 C 
ENDBRANCH   3   8
BRANCH   4  10
HETATM   10  C4  UNL     1     -26.512  18.693  12.004  1.00 20.00    -0.005 C 
HETATM   11  C2  UNL     1     -27.651  18.058  12.300  1.00 20.00     0.009 C 
ENDBRANCH   4  10
TORSDOF 2
ENDMDL
MODEL 2
REMARK VINA RESULT:      -4.5      1.328      2.261
REMARK  2 active torsions:
REMARK  status: ('A' for Active; 'I' for Inactive)
REMARK    1  A    between atoms: C3_3  and  C7_7 
REMARK    2  A    between atoms: C4_4  and  C8_8 
ROOT
HETATM    1  C5  UNL     1     -23.677  16.914  10.222  1.00 20.00     0.014 C 
HETATM    2  C6  UNL     1     -24.691  17.056  11.362  1.00 20.00     0.037 C 
HETATM    3  C7  UNL     1     -23.183  18.286   9.749  1.00 20.00     0.036 C 
HETATM    4  C8  UNL     1     -25.367  18.431  11.367  1.00 20.00     0.144 C 
HETATM    5  C9  UNL     1     -24.378  19.175   9.318  1.00 20.00     0.126 C 
HETATM    6  C10 UNL     1     -24.734  19.093   7.834  1.00 20.00     0.040 C 
HETATM    7  O11 UNL     1     -25.589  18.843  10.021  1.00 20.00    -0.377 OA
ENDROOT
BRANCH   3   8
HETATM    8  C3  UNL     1     -22.102  18.158   8.721  1.00 20.00    -0.030 C 
HETATM    9  C1  UNL     1     -21.293  17.099   8.614  1.00 20.00     0.007 C 
ENDBRANCH   3   8
BRANCH   4  10
HETATM   10  C4  UNL     1     -26.678  18.400  12.079  1.00 20.00    -0.005 C 
HETATM   11  C2  UNL     1     -27.833  18.809  11.542  1.00 20.00     0.009 C 
ENDBRANCH   4  10
TORSDOF 2
ENDMDL
MODEL 3
REMARK VINA RESULT:      -4.4     16.400     17.513
REMARK  2 active torsions:
REMARK  status: ('A' for Active; 'I' for Inactive)
REMARK    1  A    between atoms: C3_3  and  C7_7 
REMARK    2  A    between atoms: C4_4  and  C8_8 
ROOT
HETATM    1  C5  UNL     1     -35.341  15.908  -2.458  1.00 20.00     0.014 C 
HETATM    2  C6  UNL     1     -34.397  16.799  -1.644  1.00 20.00     0.037 C 
HETATM    3  C7  UNL     1     -34.559  15.034  -3.446  1.00 20.00     0.036 C 
HETATM    4  C8  UNL     1     -33.059  17.026  -2.353  1.00 20.00     0.144 C 
HETATM    5  C9  UNL     1     -33.688  15.915  -4.379  1.00 20.00     0.126 C 
HETATM    6  C10 UNL     1     -34.362  16.320  -5.689  1.00 20.00     0.040 C 
HETATM    7  O11 UNL     1     -33.293  17.150  -3.754  1.00 20.00    -0.377 OA
ENDROOT
BRANCH   3   8
HETATM    8  C3  UNL     1     -35.455  14.072  -4.161  1.00 20.00    -0.030 C 
HETATM    9  C1  UNL     1     -36.783  14.208  -4.245  1.00 20.00     0.007 C 
ENDBRANCH   3   8
BRANCH   4  10
HETATM   10  C4  UNL     1     -32.380  18.264  -1.872  1.00 20.00    -0.005 C 
HETATM   11  C2  UNL     1     -31.593  18.315  -0.792  1.00 20.00     0.009 C 
ENDBRANCH   4  10
TORSDOF 2
ENDMDL
MODEL 4
REMARK VINA RESULT:      -4.3     17.277     18.164
REMARK  2 active torsions:
REMARK  status: ('A' for Active; 'I' for Inactive)
REMARK    1  A    between atoms: C3_3  and  C7_7 
REMARK    2  A    between atoms: C4_4  and  C8_8 
ROOT
HETATM    1  C5  UNL     1     -33.212  15.393  -3.986  1.00 20.00     0.014 C 
HETATM    2  C6  UNL     1     -33.461  16.208  -2.713  1.00 20.00     0.037 C 
HETATM    3  C7  UNL     1     -34.361  15.566  -4.986  1.00 20.00     0.036 C 
HETATM    4  C8  UNL     1     -34.948  16.511  -2.501  1.00 20.00     0.144 C 
HETATM    5  C9  UNL     1     -35.713  15.173  -4.334  1.00 20.00     0.126 C 
HETATM    6  C10 UNL     1     -36.118  13.714  -4.533  1.00 20.00     0.040 C 
HETATM    7  O11 UNL     1     -35.713  15.380  -2.909  1.00 20.00    -0.377 OA
ENDROOT
BRANCH   3   8
HETATM    8  C3  UNL     1     -34.073  14.874  -6.282  1.00 20.00    -0.030 C 
HETATM    9  C1  UNL     1     -34.043  15.490  -7.468  1.00 20.00     0.007 C 
ENDBRANCH   3   8
BRANCH   4  10
HETATM   10  C4  UNL     1     -35.255  16.804  -1.070  1.00 20.00    -0.005 C 
HETATM   11  C2  UNL     1     -34.617  17.725  -0.341  1.00 20.00     0.009 C 
ENDBRANCH   4  10
TORSDOF 2
ENDMDL
MODEL 5
REMARK VINA RESULT:      -4.3     16.222     17.272
REMARK  2 active torsions:
REMARK  status: ('A' for Active; 'I' for Inactive)
REMARK    1  A    between atoms: C3_3  and  C7_7 
REMARK    2  A    between atoms: C4_4  and  C8_8 
ROOT
HETATM    1  C5  UNL     1     -33.234  16.929  -3.357  1.00 20.00     0.014 C 
HETATM    2  C6  UNL     1     -33.633  15.637  -4.077  1.00 20.00     0.037 C 
HETATM    3  C7  UNL     1     -33.585  16.861  -1.867  1.00 20.00     0.036 C 
HETATM    4  C8  UNL     1     -34.734  14.876  -3.333  1.00 20.00     0.144 C 
HETATM    5  C9  UNL     1     -35.097  16.567  -1.678  1.00 20.00     0.126 C 
HETATM    6  C10 UNL     1     -35.979  17.809  -1.553  1.00 20.00     0.040 C 
HETATM    7  O11 UNL     1     -35.649  15.814  -2.774  1.00 20.00    -0.377 OA
ENDROOT
BRANCH   3   8
HETATM    8  C3  UNL     1     -33.092  18.066  -1.128  1.00 20.00    -0.030 C 
HETATM    9  C1  UNL     1     -31.799  18.342  -0.927  1.00 20.00     0.007 C 
ENDBRANCH   3   8
BRANCH   4  10
HETATM   10  C4  UNL     1     -35.485  13.960  -4.241  1.00 20.00    -0.005 C 
HETATM   11  C2  UNL     1     -36.792  14.069  -4.501  1.00 20.00     0.009 C 
ENDBRANCH   4  10
TORSDOF 2
ENDMDL
MODEL 6
REMARK VINA RESULT:      -4.2     16.916     18.168
REMARK  2 active torsions:
REMARK  status: ('A' for Active; 'I' for Inactive)
REMARK    1  A    between atoms: C3_3  and  C7_7 
REMARK    2  A    between atoms: C4_4  and  C8_8 
ROOT
HETATM    1  C5  UNL     1     -33.559  16.583  -2.420  1.00 20.00     0.014 C 
HETATM    2  C6  UNL     1     -33.091  15.729  -3.603  1.00 20.00     0.037 C 
HETATM    3  C7  UNL     1     -34.974  16.190  -1.981  1.00 20.00     0.036 C 
HETATM    4  C8  UNL     1     -34.264  15.137  -4.389  1.00 20.00     0.144 C 
HETATM    5  C9  UNL     1     -35.963  16.304  -3.171  1.00 20.00     0.126 C 
HETATM    6  C10 UNL     1     -36.667  17.655  -3.290  1.00 20.00     0.040 C 
HETATM    7  O11 UNL     1     -35.318  16.095  -4.441  1.00 20.00    -0.377 OA
ENDROOT
BRANCH   3   8
HETATM    8  C3  UNL     1     -35.396  16.931  -0.751  1.00 20.00    -0.030 C 
HETATM    9  C1  UNL     1     -34.596  17.750  -0.060  1.00 20.00     0.007 C 
ENDBRANCH   3   8
BRANCH   4  10
HETATM   10  C4  UNL     1     -33.873  14.783  -5.785  1.00 20.00    -0.005 C 
HETATM   11  C2  UNL     1     -34.375  15.371  -6.876  1.00 20.00     0.009 C 
ENDBRANCH   4  10
TORSDOF 2
ENDMDL
MODEL 7
REMARK VINA RESULT:      -4.1     15.904     16.531
REMARK  2 active torsions:
REMARK  status: ('A' for Active; 'I' for Inactive)
REMARK    1  A    between atoms: C3_3  and  C7_7 
REMARK    2  A    between atoms: C4_4  and  C8_8 
ROOT
HETATM    1  C5  UNL     1     -32.041   7.557   3.559  1.00 20.00     0.014 C 
HETATM    2  C6  UNL     1     -32.785   7.455   4.894  1.00 20.00     0.037 C 
HETATM    3  C7  UNL     1     -32.990   7.322   2.379  1.00 20.00     0.036 C 
HETATM    4  C8  UNL     1     -34.069   6.627   4.779  1.00 20.00     0.144 C 
HETATM    5  C9  UNL     1     -33.696   5.948   2.514  1.00 20.00     0.126 C 
HETATM    6  C10 UNL     1     -32.981   4.790   1.819  1.00 20.00     0.040 C 
HETATM    7  O11 UNL     1     -33.840   5.540   3.887  1.00 20.00    -0.377 OA
ENDROOT
BRANCH   3   8
HETATM    8  C3  UNL     1     -32.304   7.540   1.066  1.00 20.00    -0.030 C 
HETATM    9  C1  UNL     1     -32.648   8.490   0.190  1.00 20.00     0.007 C 
ENDBRANCH   3   8
BRANCH   4  10
HETATM   10  C4  UNL     1     -34.494   6.079   6.101  1.00 20.00    -0.005 C 
HETATM   11  C2  UNL     1     -34.881   4.814   6.297  1.00 20.00     0.009 C 
ENDBRANCH   4  10
TORSDOF 2
ENDMDL
MODEL 8
REMARK VINA RESULT:      -4.0     23.422     24.832
REMARK  2 active torsions:
REMARK  status: ('A' for Active; 'I' for Inactive)
REMARK    1  A    between atoms: C3_3  and  C7_7 
REMARK    2  A    between atoms: C4_4  and  C8_8 
ROOT
HETATM    1  C5  UNL     1     -41.326   5.147  -1.535  1.00 20.00     0.014 C 
HETATM    2  C6  UNL     1     -40.982   6.563  -1.062  1.00 20.00     0.037 C 
HETATM    3  C7  UNL     1     -42.837   4.899  -1.482  1.00 20.00     0.036 C 
HETATM    4  C8  UNL     1     -42.071   7.153  -0.162  1.00 20.00     0.144 C 
HETATM    5  C9  UNL     1     -43.379   5.151  -0.050  1.00 20.00     0.126 C 
HETATM    6  C10 UNL     1     -43.417   3.913   0.846  1.00 20.00     0.040 C 
HETATM    7  O11 UNL     1     -42.595   6.120   0.669  1.00 20.00    -0.377 OA
ENDROOT
BRANCH   3   8
HETATM    8  C3  UNL     1     -43.198   3.564  -2.055  1.00 20.00    -0.030 C 
HETATM    9  C1  UNL     1     -42.526   2.969  -3.046  1.00 20.00     0.007 C 
ENDBRANCH   3   8
BRANCH   4  10
HETATM   10  C4  UNL     1     -41.540   8.242   0.709  1.00 20.00    -0.005 C 
HETATM   11  C2  UNL     1     -41.415   9.517   0.323  1.00 20.00     0.009 C 
ENDBRANCH   4  10
TORSDOF 2
ENDMDL
MODEL 9
REMARK VINA RESULT:      -4.0     14.525     15.699
REMARK  2 active torsions:
REMARK  status: ('A' for Active; 'I' for Inactive)
REMARK    1  A    between atoms: C3_3  and  C7_7 
REMARK    2  A    between atoms: C4_4  and  C8_8 
ROOT
HETATM    1  C5  UNL     1     -34.690  17.441  -1.056  1.00 20.00     0.014 C 
HETATM    2  C6  UNL     1     -33.711  18.078  -0.064  1.00 20.00     0.037 C 
HETATM    3  C7  UNL     1     -33.952  16.578  -2.084  1.00 20.00     0.036 C 
HETATM    4  C8  UNL     1     -32.293  18.178  -0.635  1.00 20.00     0.144 C 
HETATM    5  C9  UNL     1     -32.879  17.417  -2.828  1.00 20.00     0.126 C 
HETATM    6  C10 UNL     1     -33.363  18.068  -4.123  1.00 20.00     0.040 C 
HETATM    7  O11 UNL     1     -32.374  18.497  -2.022  1.00 20.00    -0.377 OA
ENDROOT
BRANCH   3   8
HETATM    8  C3  UNL     1     -34.904  15.853  -2.983  1.00 20.00    -0.030 C 
HETATM    9  C1  UNL     1     -34.660  14.653  -3.519  1.00 20.00     0.007 C 
ENDBRANCH   3   8
BRANCH   4  10
HETATM   10  C4  UNL     1     -31.493  19.234   0.052  1.00 20.00    -0.005 C 
HETATM   11  C2  UNL     1     -30.660  18.998   1.071  1.00 20.00     0.009 C 
ENDBRANCH   4  10
TORSDOF 2
ENDMDL
