MODEL 1
REMARK VINA RESULT:      -4.6      0.000      0.000
REMARK  1 active torsions:
REMARK  status: ('A' for Active; 'I' for Inactive)
REMARK    1  A    between atoms: C3_3  and  C6_6 
ROOT
HETATM    1  C1  UNL     1     -33.895  15.530  -3.042  1.00 20.00    -0.024 C 
HETATM    2  C2  UNL     1     -35.014  16.124  -2.594  1.00 20.00    -0.087 C 
HETATM    3  C4  UNL     1     -33.750  14.954  -4.419  1.00 20.00     0.032 C 
HETATM    4  C5  UNL     1     -36.257  16.246  -3.442  1.00 20.00     0.045 C 
HETATM    5  C6  UNL     1     -36.227  15.431  -4.745  1.00 20.00     0.055 C 
HETATM    6  C7  UNL     1     -34.839  15.407  -5.410  1.00 20.00    -0.004 C 
HETATM    7  C8  UNL     1     -35.100  16.710  -1.214  1.00 20.00     0.043 C 
HETATM    8  C9  UNL     1     -34.496  16.777  -6.011  1.00 20.00     0.011 C 
ENDROOT
BRANCH   5   9
HETATM    9  C3  UNL     1     -36.693  14.024  -4.493  1.00 20.00     0.236 C 
HETATM   10  O10 UNL     1     -37.875  13.710  -4.404  1.00 20.00    -0.306 OA
ENDBRANCH   5   9
TORSDOF 1
ENDMDL
MODEL 2
REMARK VINA RESULT:      -4.5      1.394      3.308
REMARK  1 active torsions:
REMARK  status: ('A' for Active; 'I' for Inactive)
REMARK    1  A    between atoms: C3_3  and  C6_6 
ROOT
HETATM    1  C1  UNL     1     -35.242  16.988  -5.391  1.00 20.00    -0.024 C 
HETATM    2  C2  UNL     1     -34.500  16.120  -6.098  1.00 20.00    -0.087 C 
HETATM    3  C4  UNL     1     -35.566  16.818  -3.937  1.00 20.00     0.032 C 
HETATM    4  C5  UNL     1     -33.934  14.860  -5.489  1.00 20.00     0.045 C 
HETATM    5  C6  UNL     1     -34.472  14.527  -4.088  1.00 20.00     0.055 C 
HETATM    6  C7  UNL     1     -34.693  15.775  -3.214  1.00 20.00    -0.004 C 
HETATM    7  C8  UNL     1     -34.182  16.349  -7.547  1.00 20.00     0.043 C 
HETATM    8  C9  UNL     1     -33.352  16.386  -2.784  1.00 20.00     0.011 C 
ENDROOT
BRANCH   5   9
HETATM    9  C3  UNL     1     -35.754  13.747  -4.191  1.00 20.00     0.236 C 
HETATM   10  O10 UNL     1     -35.804  12.574  -4.546  1.00 20.00    -0.306 OA
ENDBRANCH   5   9
TORSDOF 1
ENDMDL
MODEL 3
REMARK VINA RESULT:      -4.4      1.332      2.480
REMARK  1 active torsions:
REMARK  status: ('A' for Active; 'I' for Inactive)
REMARK    1  A    between atoms: C3_3  and  C6_6 
ROOT
HETATM    1  C1  UNL     1     -36.046  16.889  -2.853  1.00 20.00    -0.024 C 
HETATM    2  C2  UNL     1     -36.283  17.063  -4.164  1.00 20.00    -0.087 C 
HETATM    3  C4  UNL     1     -35.183  15.795  -2.300  1.00 20.00     0.032 C 
HETATM    4  C5  UNL     1     -35.710  16.144  -5.217  1.00 20.00     0.045 C 
HETATM    5  C6  UNL     1     -35.053  14.869  -4.665  1.00 20.00     0.055 C 
HETATM    6  C7  UNL     1     -34.291  15.103  -3.349  1.00 20.00    -0.004 C 
HETATM    7  C8  UNL     1     -37.134  18.192  -4.670  1.00 20.00     0.043 C 
HETATM    8  C9  UNL     1     -33.009  15.910  -3.595  1.00 20.00     0.011 C 
ENDROOT
BRANCH   5   9
HETATM    9  C3  UNL     1     -36.084  13.792  -4.469  1.00 20.00     0.236 C 
HETATM   10  O10 UNL     1     -35.819  12.594  -4.478  1.00 20.00    -0.306 OA
ENDBRANCH   5   9
TORSDOF 1
ENDMDL
MODEL 4
REMARK VINA RESULT:      -4.3      1.424      2.046
REMARK  1 active torsions:
REMARK  status: ('A' for Active; 'I' for Inactive)
REMARK    1  A    between atoms: C3_3  and  C6_6 
ROOT
HETATM    1  C1  UNL     1     -34.006  16.933  -4.531  1.00 20.00    -0.024 C 
HETATM    2  C2  UNL     1     -33.974  16.594  -3.231  1.00 20.00    -0.087 C 
HETATM    3  C4  UNL     1     -35.048  16.448  -5.494  1.00 20.00     0.032 C 
HETATM    4  C5  UNL     1     -34.988  15.659  -2.616  1.00 20.00     0.045 C 
HETATM    5  C6  UNL     1     -35.894  14.941  -3.629  1.00 20.00     0.055 C 
HETATM    6  C7  UNL     1     -36.288  15.828  -4.823  1.00 20.00    -0.004 C 
HETATM    7  C8  UNL     1     -32.923  17.128  -2.301  1.00 20.00     0.043 C 
HETATM    8  C9  UNL     1     -37.278  16.918  -4.391  1.00 20.00     0.011 C 
ENDROOT
BRANCH   5   9
HETATM    9  C3  UNL     1     -35.231  13.686  -4.126  1.00 20.00     0.236 C 
HETATM   10  O10 UNL     1     -35.851  12.685  -4.468  1.00 20.00    -0.306 OA
ENDBRANCH   5   9
TORSDOF 1
ENDMDL
MODEL 5
REMARK VINA RESULT:      -4.2      3.458      4.888
REMARK  1 active torsions:
REMARK  status: ('A' for Active; 'I' for Inactive)
REMARK    1  A    between atoms: C3_3  and  C6_6 
ROOT
HETATM    1  C1  UNL     1     -34.647  15.846  -2.227  1.00 20.00    -0.024 C 
HETATM    2  C2  UNL     1     -33.715  16.038  -3.176  1.00 20.00    -0.087 C 
HETATM    3  C4  UNL     1     -35.078  16.903  -1.255  1.00 20.00     0.032 C 
HETATM    4  C5  UNL     1     -32.987  17.350  -3.337  1.00 20.00     0.045 C 
HETATM    5  C6  UNL     1     -33.210  18.352  -2.193  1.00 20.00     0.055 C 
HETATM    6  C7  UNL     1     -34.648  18.331  -1.643  1.00 20.00    -0.004 C 
HETATM    7  C8  UNL     1     -33.338  14.954  -4.143  1.00 20.00     0.043 C 
HETATM    8  C9  UNL     1     -35.629  18.942  -2.653  1.00 20.00     0.011 C 
ENDROOT
BRANCH   5   9
HETATM    9  C3  UNL     1     -32.237  18.097  -1.076  1.00 20.00     0.236 C 
HETATM   10  O10 UNL     1     -31.121  18.604  -1.024  1.00 20.00    -0.306 OA
ENDBRANCH   5   9
TORSDOF 1
ENDMDL
MODEL 6
REMARK VINA RESULT:      -4.1      1.590      1.800
REMARK  1 active torsions:
REMARK  status: ('A' for Active; 'I' for Inactive)
REMARK    1  A    between atoms: C3_3  and  C6_6 
ROOT
HETATM    1  C1  UNL     1     -33.562  17.025  -1.981  1.00 20.00    -0.024 C 
HETATM    2  C2  UNL     1     -34.821  16.679  -1.663  1.00 20.00    -0.087 C 
HETATM    3  C4  UNL     1     -32.959  16.824  -3.339  1.00 20.00     0.032 C 
HETATM    4  C5  UNL     1     -35.752  16.024  -2.655  1.00 20.00     0.045 C 
HETATM    5  C6  UNL     1     -35.080  15.564  -3.958  1.00 20.00     0.055 C 
HETATM    6  C7  UNL     1     -33.986  16.530  -4.448  1.00 20.00    -0.004 C 
HETATM    7  C8  UNL     1     -35.387  16.926  -0.295  1.00 20.00     0.043 C 
HETATM    8  C9  UNL     1     -34.605  17.831  -4.979  1.00 20.00     0.011 C 
ENDROOT
BRANCH   5   9
HETATM    9  C3  UNL     1     -34.500  14.187  -3.789  1.00 20.00     0.236 C 
HETATM   10  O10 UNL     1     -35.092  13.161  -4.108  1.00 20.00    -0.306 OA
ENDBRANCH   5   9
TORSDOF 1
ENDMDL
MODEL 7
REMARK VINA RESULT:      -3.9      1.327      2.409
REMARK  1 active torsions:
REMARK  status: ('A' for Active; 'I' for Inactive)
REMARK    1  A    between atoms: C3_3  and  C6_6 
ROOT
HETATM    1  C1  UNL     1     -34.234  15.249  -6.012  1.00 20.00    -0.024 C 
HETATM    2  C2  UNL     1     -33.927  14.928  -4.744  1.00 20.00    -0.087 C 
HETATM    3  C4  UNL     1     -35.568  15.788  -6.436  1.00 20.00     0.032 C 
HETATM    4  C5  UNL     1     -34.921  15.060  -3.615  1.00 20.00     0.045 C 
HETATM    5  C6  UNL     1     -36.364  15.347  -4.062  1.00 20.00     0.055 C 
HETATM    6  C7  UNL     1     -36.444  16.292  -5.274  1.00 20.00    -0.004 C 
HETATM    7  C8  UNL     1     -32.567  14.416  -4.366  1.00 20.00     0.043 C 
HETATM    8  C9  UNL     1     -36.057  17.724  -4.878  1.00 20.00     0.011 C 
ENDROOT
BRANCH   5   9
HETATM    9  C3  UNL     1     -37.081  14.063  -4.372  1.00 20.00     0.236 C 
HETATM   10  O10 UNL     1     -38.303  13.954  -4.366  1.00 20.00    -0.306 OA
ENDBRANCH   5   9
TORSDOF 1
ENDMDL
MODEL 8
REMARK VINA RESULT:      -3.9      1.659      3.417
REMARK  1 active torsions:
REMARK  status: ('A' for Active; 'I' for Inactive)
REMARK    1  A    between atoms: C3_3  and  C6_6 
ROOT
HETATM    1  C1  UNL     1     -35.735  17.432  -4.411  1.00 20.00    -0.024 C 
HETATM    2  C2  UNL     1     -34.429  17.713  -4.553  1.00 20.00    -0.087 C 
HETATM    3  C4  UNL     1     -36.261  16.322  -3.552  1.00 20.00     0.032 C 
HETATM    4  C5  UNL     1     -33.352  16.908  -3.867  1.00 20.00     0.045 C 
HETATM    5  C6  UNL     1     -33.844  15.610  -3.206  1.00 20.00     0.055 C 
HETATM    6  C7  UNL     1     -35.232  15.753  -2.556  1.00 20.00    -0.004 C 
HETATM    7  C8  UNL     1     -33.954  18.854  -5.406  1.00 20.00     0.043 C 
HETATM    8  C9  UNL     1     -35.158  16.618  -1.291  1.00 20.00     0.011 C 
ENDROOT
BRANCH   5   9
HETATM    9  C3  UNL     1     -33.865  14.488  -4.207  1.00 20.00     0.236 C 
HETATM   10  O10 UNL     1     -34.421  13.414  -4.004  1.00 20.00    -0.306 OA
ENDBRANCH   5   9
TORSDOF 1
ENDMDL
MODEL 9
REMARK VINA RESULT:      -3.8      1.945      2.768
REMARK  1 active torsions:
REMARK  status: ('A' for Active; 'I' for Inactive)
REMARK    1  A    between atoms: C3_3  and  C6_6 
ROOT
HETATM    1  C1  UNL     1     -34.728  16.168  -1.922  1.00 20.00    -0.024 C 
HETATM    2  C2  UNL     1     -33.857  17.180  -2.079  1.00 20.00    -0.087 C 
HETATM    3  C4  UNL     1     -35.247  15.332  -3.053  1.00 20.00     0.032 C 
HETATM    4  C5  UNL     1     -33.333  17.589  -3.434  1.00 20.00     0.045 C 
HETATM    5  C6  UNL     1     -34.050  16.933  -4.625  1.00 20.00     0.055 C 
HETATM    6  C7  UNL     1     -34.444  15.469  -4.360  1.00 20.00    -0.004 C 
HETATM    7  C8  UNL     1     -33.346  17.971  -0.910  1.00 20.00     0.043 C 
HETATM    8  C9  UNL     1     -33.204  14.564  -4.338  1.00 20.00     0.011 C 
ENDROOT
BRANCH   5   9
HETATM    9  C3  UNL     1     -35.271  17.726  -5.001  1.00 20.00     0.236 C 
HETATM   10  O10 UNL     1     -36.085  17.356  -5.841  1.00 20.00    -0.306 OA
ENDBRANCH   5   9
TORSDOF 1
ENDMDL
