MODEL 1
REMARK VINA RESULT:      -5.4      0.000      0.000
REMARK  1 active torsions:
REMARK  status: ('A' for Active; 'I' for Inactive)
REMARK    1  A    between atoms: C3_3  and  C7_7 
ROOT
HETATM    1  C1  UNL     1     -33.061  16.367  -3.260  1.00 20.00    -0.019 C 
HETATM    2  C2  UNL     1     -33.626  16.886  -2.157  1.00 20.00    -0.087 C 
HETATM    3  C4  UNL     1     -34.994  16.465  -1.687  1.00 20.00     0.034 C 
HETATM    4  C5  UNL     1     -35.792  15.720  -2.757  1.00 20.00     0.016 C 
HETATM    5  C6  UNL     1     -33.695  15.295  -4.117  1.00 20.00     0.015 C 
HETATM    6  C7  UNL     1     -34.934  14.660  -3.449  1.00 20.00     0.054 C 
HETATM    7  C8  UNL     1     -32.930  17.920  -1.321  1.00 20.00     0.043 C 
HETATM    8  C9  UNL     1     -32.656  14.219  -4.454  1.00 20.00     0.015 C 
ENDROOT
BRANCH   6   9
HETATM    9  C3  UNL     1     -35.769  13.957  -4.476  1.00 20.00     0.236 C 
HETATM   10  O10 UNL     1     -35.889  12.738  -4.531  1.00 20.00    -0.306 OA
ENDBRANCH   6   9
TORSDOF 1
ENDMDL
MODEL 2
REMARK VINA RESULT:      -5.0      0.897      2.337
REMARK  1 active torsions:
REMARK  status: ('A' for Active; 'I' for Inactive)
REMARK    1  A    between atoms: C3_3  and  C7_7 
ROOT
HETATM    1  C1  UNL     1     -35.020  16.507  -2.469  1.00 20.00    -0.019 C 
HETATM    2  C2  UNL     1     -33.691  16.541  -2.671  1.00 20.00    -0.087 C 
HETATM    3  C4  UNL     1     -33.011  15.629  -3.658  1.00 20.00     0.034 C 
HETATM    4  C5  UNL     1     -33.887  14.454  -4.093  1.00 20.00     0.016 C 
HETATM    5  C6  UNL     1     -35.971  15.604  -3.220  1.00 20.00     0.015 C 
HETATM    6  C7  UNL     1     -35.304  14.918  -4.432  1.00 20.00     0.054 C 
HETATM    7  C8  UNL     1     -32.800  17.489  -1.924  1.00 20.00     0.043 C 
HETATM    8  C9  UNL     1     -37.201  16.404  -3.666  1.00 20.00     0.015 C 
ENDROOT
BRANCH   6   9
HETATM    9  C3  UNL     1     -36.112  13.731  -4.860  1.00 20.00     0.236 C 
HETATM   10  O10 UNL     1     -35.881  12.585  -4.489  1.00 20.00    -0.306 OA
ENDBRANCH   6   9
TORSDOF 1
ENDMDL
MODEL 3
REMARK VINA RESULT:      -4.7      1.351      1.474
REMARK  1 active torsions:
REMARK  status: ('A' for Active; 'I' for Inactive)
REMARK    1  A    between atoms: C3_3  and  C7_7 
ROOT
HETATM    1  C1  UNL     1     -33.986  17.001  -4.783  1.00 20.00    -0.019 C 
HETATM    2  C2  UNL     1     -33.610  17.257  -3.518  1.00 20.00    -0.087 C 
HETATM    3  C4  UNL     1     -33.982  16.348  -2.376  1.00 20.00     0.034 C 
HETATM    4  C5  UNL     1     -35.104  15.371  -2.728  1.00 20.00     0.016 C 
HETATM    5  C6  UNL     1     -34.770  15.781  -5.207  1.00 20.00     0.015 C 
HETATM    6  C7  UNL     1     -34.863  14.719  -4.090  1.00 20.00     0.054 C 
HETATM    7  C8  UNL     1     -32.797  18.466  -3.162  1.00 20.00     0.043 C 
HETATM    8  C9  UNL     1     -34.145  15.177  -6.471  1.00 20.00     0.015 C 
ENDROOT
BRANCH   6   9
HETATM    9  C3  UNL     1     -35.985  13.767  -4.376  1.00 20.00     0.236 C 
HETATM   10  O10 UNL     1     -35.830  12.556  -4.493  1.00 20.00    -0.306 OA
ENDBRANCH   6   9
TORSDOF 1
ENDMDL
MODEL 4
REMARK VINA RESULT:      -4.6      2.630      4.636
REMARK  1 active torsions:
REMARK  status: ('A' for Active; 'I' for Inactive)
REMARK    1  A    between atoms: C3_3  and  C7_7 
ROOT
HETATM    1  C1  UNL     1     -35.412  15.877  -2.470  1.00 20.00    -0.019 C 
HETATM    2  C2  UNL     1     -34.711  15.131  -3.341  1.00 20.00    -0.087 C 
HETATM    3  C4  UNL     1     -33.292  15.469  -3.720  1.00 20.00     0.034 C 
HETATM    4  C5  UNL     1     -32.892  16.894  -3.335  1.00 20.00     0.016 C 
HETATM    5  C6  UNL     1     -34.863  17.088  -1.752  1.00 20.00     0.015 C 
HETATM    6  C7  UNL     1     -33.333  17.225  -1.909  1.00 20.00     0.054 C 
HETATM    7  C8  UNL     1     -35.296  13.914  -3.994  1.00 20.00     0.043 C 
HETATM    8  C9  UNL     1     -35.247  17.029  -0.268  1.00 20.00     0.015 C 
ENDROOT
BRANCH   6   9
HETATM    9  C3  UNL     1     -32.906  18.625  -1.584  1.00 20.00     0.236 C 
HETATM   10  O10 UNL     1     -31.829  19.101  -1.930  1.00 20.00    -0.306 OA
ENDBRANCH   6   9
TORSDOF 1
ENDMDL
MODEL 5
REMARK VINA RESULT:      -4.6     14.680     16.618
REMARK  1 active torsions:
REMARK  status: ('A' for Active; 'I' for Inactive)
REMARK    1  A    between atoms: C3_3  and  C7_7 
ROOT
HETATM    1  C1  UNL     1     -22.414  18.045   9.947  1.00 20.00    -0.019 C 
HETATM    2  C2  UNL     1     -23.325  17.977  10.934  1.00 20.00    -0.087 C 
HETATM    3  C4  UNL     1     -24.776  18.309  10.706  1.00 20.00     0.034 C 
HETATM    4  C5  UNL     1     -25.019  19.072   9.403  1.00 20.00     0.016 C 
HETATM    5  C6  UNL     1     -22.737  18.413   8.517  1.00 20.00     0.015 C 
HETATM    6  C7  UNL     1     -24.256  18.437   8.240  1.00 20.00     0.054 C 
HETATM    7  C8  UNL     1     -22.952  17.566  12.328  1.00 20.00     0.043 C 
HETATM    8  C9  UNL     1     -22.032  17.442   7.561  1.00 20.00     0.015 C 
ENDROOT
BRANCH   6   9
HETATM    9  C3  UNL     1     -24.539  19.217   6.992  1.00 20.00     0.236 C 
HETATM   10  O10 UNL     1     -25.231  18.793   6.072  1.00 20.00    -0.306 OA
ENDBRANCH   6   9
TORSDOF 1
ENDMDL
MODEL 6
REMARK VINA RESULT:      -4.5      1.311      2.491
REMARK  1 active torsions:
REMARK  status: ('A' for Active; 'I' for Inactive)
REMARK    1  A    between atoms: C3_3  and  C7_7 
ROOT
HETATM    1  C1  UNL     1     -35.180  16.223  -1.719  1.00 20.00    -0.019 C 
HETATM    2  C2  UNL     1     -34.304  17.188  -1.388  1.00 20.00    -0.087 C 
HETATM    3  C4  UNL     1     -33.077  17.471  -2.215  1.00 20.00     0.034 C 
HETATM    4  C5  UNL     1     -32.742  16.347  -3.195  1.00 20.00     0.016 C 
HETATM    5  C6  UNL     1     -35.064  15.358  -2.952  1.00 20.00     0.015 C 
HETATM    6  C7  UNL     1     -33.991  15.871  -3.938  1.00 20.00     0.054 C 
HETATM    7  C8  UNL     1     -34.492  18.045  -0.170  1.00 20.00     0.043 C 
HETATM    8  C9  UNL     1     -36.428  15.261  -3.647  1.00 20.00     0.015 C 
ENDROOT
BRANCH   6   9
HETATM    9  C3  UNL     1     -33.602  14.780  -4.889  1.00 20.00     0.236 C 
HETATM   10  O10 UNL     1     -33.212  13.675  -4.528  1.00 20.00    -0.306 OA
ENDBRANCH   6   9
TORSDOF 1
ENDMDL
MODEL 7
REMARK VINA RESULT:      -4.4     16.534     17.203
REMARK  1 active torsions:
REMARK  status: ('A' for Active; 'I' for Inactive)
REMARK    1  A    between atoms: C3_3  and  C7_7 
ROOT
HETATM    1  C1  UNL     1     -23.329  16.652   9.620  1.00 20.00    -0.019 C 
HETATM    2  C2  UNL     1     -22.904  17.642   8.817  1.00 20.00    -0.087 C 
HETATM    3  C4  UNL     1     -23.503  19.023   8.866  1.00 20.00     0.034 C 
HETATM    4  C5  UNL     1     -24.839  19.071   9.607  1.00 20.00     0.016 C 
HETATM    5  C6  UNL     1     -24.402  16.812  10.672  1.00 20.00     0.015 C 
HETATM    6  C7  UNL     1     -24.771  18.291  10.920  1.00 20.00     0.054 C 
HETATM    7  C8  UNL     1     -21.804  17.435   7.816  1.00 20.00     0.043 C 
HETATM    8  C9  UNL     1     -23.952  16.145  11.977  1.00 20.00     0.015 C 
ENDROOT
BRANCH   6   9
HETATM    9  C3  UNL     1     -26.101  18.381  11.606  1.00 20.00     0.236 C 
HETATM   10  O10 UNL     1     -26.990  19.152  11.260  1.00 20.00    -0.306 OA
ENDBRANCH   6   9
TORSDOF 1
ENDMDL
MODEL 8
REMARK VINA RESULT:      -4.3      2.734      4.303
REMARK  1 active torsions:
REMARK  status: ('A' for Active; 'I' for Inactive)
REMARK    1  A    between atoms: C3_3  and  C7_7 
ROOT
HETATM    1  C1  UNL     1     -32.869  16.526  -2.924  1.00 20.00    -0.019 C 
HETATM    2  C2  UNL     1     -33.870  15.688  -3.240  1.00 20.00    -0.087 C 
HETATM    3  C4  UNL     1     -35.202  15.732  -2.537  1.00 20.00     0.034 C 
HETATM    4  C5  UNL     1     -35.163  16.523  -1.229  1.00 20.00     0.016 C 
HETATM    5  C6  UNL     1     -32.970  17.615  -1.881  1.00 20.00     0.015 C 
HETATM    6  C7  UNL     1     -34.421  17.848  -1.406  1.00 20.00     0.054 C 
HETATM    7  C8  UNL     1     -33.726  14.650  -4.314  1.00 20.00     0.043 C 
HETATM    8  C9  UNL     1     -32.370  18.916  -2.430  1.00 20.00     0.015 C 
ENDROOT
BRANCH   6   9
HETATM    9  C3  UNL     1     -34.423  18.583  -0.100  1.00 20.00     0.236 C 
HETATM   10  O10 UNL     1     -33.854  18.174   0.907  1.00 20.00    -0.306 OA
ENDBRANCH   6   9
TORSDOF 1
ENDMDL
MODEL 9
REMARK VINA RESULT:      -4.3     16.273     17.456
REMARK  1 active torsions:
REMARK  status: ('A' for Active; 'I' for Inactive)
REMARK    1  A    between atoms: C3_3  and  C7_7 
ROOT
HETATM    1  C1  UNL     1     -25.313  18.189  11.809  1.00 20.00    -0.019 C 
HETATM    2  C2  UNL     1     -26.166  18.862  11.018  1.00 20.00    -0.087 C 
HETATM    3  C4  UNL     1     -25.805  19.263   9.612  1.00 20.00     0.034 C 
HETATM    4  C5  UNL     1     -24.304  19.177   9.331  1.00 20.00     0.016 C 
HETATM    5  C6  UNL     1     -23.939  17.728  11.379  1.00 20.00     0.015 C 
HETATM    6  C7  UNL     1     -23.718  17.867   9.857  1.00 20.00     0.054 C 
HETATM    7  C8  UNL     1     -27.535  19.259  11.487  1.00 20.00     0.043 C 
HETATM    8  C9  UNL     1     -23.716  16.277  11.824  1.00 20.00     0.015 C 
ENDROOT
BRANCH   6   9
HETATM    9  C3  UNL     1     -22.252  17.834   9.545  1.00 20.00     0.236 C 
HETATM   10  O10 UNL     1     -21.662  18.743   8.971  1.00 20.00    -0.306 OA
ENDBRANCH   6   9
TORSDOF 1
ENDMDL
