MODEL 1
REMARK VINA RESULT:      -4.3      0.000      0.000
REMARK  0 active torsions:
REMARK  status: ('A' for Active; 'I' for Inactive)
ROOT
HETATM    1  C1  UNL     1     -33.106   6.305   2.910  1.00 20.00     0.025 C 
HETATM    2  C2  UNL     1     -33.804   6.704   4.173  1.00 20.00     0.081 C 
HETATM    3  C3  UNL     1     -34.631   5.444   4.414  1.00 20.00     0.029 C 
HETATM    4  C4  UNL     1     -32.349   7.300   2.098  1.00 20.00     0.067 C 
HETATM    5  C5  UNL     1     -34.604   5.007   5.877  1.00 20.00     0.034 C 
HETATM    6  C6  UNL     1     -36.074   5.610   3.925  1.00 20.00     0.034 C 
HETATM    7  N7  UNL     1     -33.198   5.053   2.591  1.00 20.00    -0.210 NA
HETATM    8  N8  UNL     1     -33.914   4.470   3.583  1.00 20.00    -0.208 NA
HETATM    9  H20 UNL     1     -33.289   3.890   4.142  1.00 20.00     0.149 HD
ENDROOT
TORSDOF 0
ENDMDL
MODEL 2
REMARK VINA RESULT:      -4.2     16.320     17.218
REMARK  0 active torsions:
REMARK  status: ('A' for Active; 'I' for Inactive)
ROOT
HETATM    1  C1  UNL     1     -25.437  17.088  11.869  1.00 20.00     0.025 C 
HETATM    2  C2  UNL     1     -24.570  18.081  11.159  1.00 20.00     0.081 C 
HETATM    3  C3  UNL     1     -23.243  17.327  11.192  1.00 20.00     0.029 C 
HETATM    4  C4  UNL     1     -26.807  17.450  12.332  1.00 20.00     0.067 C 
HETATM    5  C5  UNL     1     -22.507  17.393   9.856  1.00 20.00     0.034 C 
HETATM    6  C6  UNL     1     -22.342  17.816  12.332  1.00 20.00     0.034 C 
HETATM    7  N7  UNL     1     -24.921  15.912  12.036  1.00 20.00    -0.210 NA
HETATM    8  N8  UNL     1     -23.701  15.956  11.449  1.00 20.00    -0.208 NA
HETATM    9  H20 UNL     1     -23.729  15.406  10.591  1.00 20.00     0.149 HD
ENDROOT
TORSDOF 0
ENDMDL
MODEL 3
REMARK VINA RESULT:      -4.1     16.594     17.593
REMARK  0 active torsions:
REMARK  status: ('A' for Active; 'I' for Inactive)
ROOT
HETATM    1  C1  UNL     1     -23.725  16.625  11.282  1.00 20.00     0.025 C 
HETATM    2  C2  UNL     1     -23.544  16.564   9.797  1.00 20.00     0.081 C 
HETATM    3  C3  UNL     1     -22.449  17.615   9.633  1.00 20.00     0.029 C 
HETATM    4  C4  UNL     1     -24.880  15.958  11.948  1.00 20.00     0.067 C 
HETATM    5  C5  UNL     1     -21.353  17.160   8.672  1.00 20.00     0.034 C 
HETATM    6  C6  UNL     1     -23.023  18.969   9.199  1.00 20.00     0.034 C 
HETATM    7  N7  UNL     1     -22.815  17.279  11.931  1.00 20.00    -0.210 NA
HETATM    8  N8  UNL     1     -21.921  17.692  11.000  1.00 20.00    -0.208 NA
HETATM    9  H20 UNL     1     -21.065  17.148  11.101  1.00 20.00     0.149 HD
ENDROOT
TORSDOF 0
ENDMDL
MODEL 4
REMARK VINA RESULT:      -4.1     16.180     16.990
REMARK  0 active torsions:
REMARK  status: ('A' for Active; 'I' for Inactive)
ROOT
HETATM    1  C1  UNL     1     -23.667  18.128   8.623  1.00 20.00     0.025 C 
HETATM    2  C2  UNL     1     -23.985  18.430  10.054  1.00 20.00     0.081 C 
HETATM    3  C3  UNL     1     -23.356  17.207  10.716  1.00 20.00     0.029 C 
HETATM    4  C4  UNL     1     -24.292  18.903   7.512  1.00 20.00     0.067 C 
HETATM    5  C5  UNL     1     -22.564  17.572  11.969  1.00 20.00     0.034 C 
HETATM    6  C6  UNL     1     -24.401  16.131  11.030  1.00 20.00     0.034 C 
HETATM    7  N7  UNL     1     -22.818  17.170   8.427  1.00 20.00    -0.210 NA
HETATM    8  N8  UNL     1     -22.445  16.748   9.660  1.00 20.00    -0.208 NA
HETATM    9  H20 UNL     1     -21.488  17.051   9.835  1.00 20.00     0.149 HD
ENDROOT
TORSDOF 0
ENDMDL
MODEL 5
REMARK VINA RESULT:      -4.1     16.815     17.515
REMARK  0 active torsions:
REMARK  status: ('A' for Active; 'I' for Inactive)
ROOT
HETATM    1  C1  UNL     1     -22.546  17.919  10.324  1.00 20.00     0.025 C 
HETATM    2  C2  UNL     1     -24.040  17.904  10.229  1.00 20.00     0.081 C 
HETATM    3  C3  UNL     1     -24.375  17.337  11.606  1.00 20.00     0.029 C 
HETATM    4  C4  UNL     1     -21.698  18.158   9.121  1.00 20.00     0.067 C 
HETATM    5  C5  UNL     1     -25.531  18.080  12.271  1.00 20.00     0.034 C 
HETATM    6  C6  UNL     1     -24.661  15.832  11.546  1.00 20.00     0.034 C 
HETATM    7  N7  UNL     1     -22.058  17.725  11.507  1.00 20.00    -0.210 NA
HETATM    8  N8  UNL     1     -23.125  17.595  12.332  1.00 20.00    -0.208 NA
HETATM    9  H20 UNL     1     -23.196  18.431  12.911  1.00 20.00     0.149 HD
ENDROOT
TORSDOF 0
ENDMDL
MODEL 6
REMARK VINA RESULT:      -4.1     16.958     17.521
REMARK  0 active torsions:
REMARK  status: ('A' for Active; 'I' for Inactive)
ROOT
HETATM    1  C1  UNL     1     -22.403  17.728   8.684  1.00 20.00     0.025 C 
HETATM    2  C2  UNL     1     -23.012  16.730   9.620  1.00 20.00     0.081 C 
HETATM    3  C3  UNL     1     -23.503  17.676  10.712  1.00 20.00     0.029 C 
HETATM    4  C4  UNL     1     -21.543  17.294   7.546  1.00 20.00     0.067 C 
HETATM    5  C5  UNL     1     -24.910  17.326  11.190  1.00 20.00     0.034 C 
HETATM    6  C6  UNL     1     -22.528  17.732  11.894  1.00 20.00     0.034 C 
HETATM    7  N7  UNL     1     -22.685  18.968   8.926  1.00 20.00    -0.210 NA
HETATM    8  N8  UNL     1     -23.517  18.957   9.995  1.00 20.00    -0.208 NA
HETATM    9  H20 UNL     1     -24.457  19.199   9.683  1.00 20.00     0.149 HD
ENDROOT
TORSDOF 0
ENDMDL
MODEL 7
REMARK VINA RESULT:      -4.0     16.210     16.953
REMARK  0 active torsions:
REMARK  status: ('A' for Active; 'I' for Inactive)
ROOT
HETATM    1  C1  UNL     1     -24.539  18.511   9.408  1.00 20.00     0.025 C 
HETATM    2  C2  UNL     1     -23.780  17.303   9.863  1.00 20.00     0.081 C 
HETATM    3  C3  UNL     1     -24.292  17.208  11.297  1.00 20.00     0.029 C 
HETATM    4  C4  UNL     1     -24.207  19.194   8.125  1.00 20.00     0.067 C 
HETATM    5  C5  UNL     1     -24.635  15.775  11.695  1.00 20.00     0.034 C 
HETATM    6  C6  UNL     1     -23.304  17.825  12.294  1.00 20.00     0.034 C 
HETATM    7  N7  UNL     1     -25.492  18.902  10.193  1.00 20.00    -0.210 NA
HETATM    8  N8  UNL     1     -25.515  18.016  11.217  1.00 20.00    -0.208 NA
HETATM    9  H20 UNL     1     -26.344  17.429  11.126  1.00 20.00     0.149 HD
ENDROOT
TORSDOF 0
ENDMDL
MODEL 8
REMARK VINA RESULT:      -4.0      8.669      9.143
REMARK  0 active torsions:
REMARK  status: ('A' for Active; 'I' for Inactive)
ROOT
HETATM    1  C1  UNL     1     -41.401   6.048  -0.653  1.00 20.00     0.025 C 
HETATM    2  C2  UNL     1     -41.344   7.446  -1.185  1.00 20.00     0.081 C 
HETATM    3  C3  UNL     1     -41.930   8.195   0.010  1.00 20.00     0.029 C 
HETATM    4  C4  UNL     1     -41.171   4.873  -1.542  1.00 20.00     0.067 C 
HETATM    5  C5  UNL     1     -41.151   9.467   0.332  1.00 20.00     0.034 C 
HETATM    6  C6  UNL     1     -43.417   8.506  -0.189  1.00 20.00     0.034 C 
HETATM    7  N7  UNL     1     -41.647   5.940   0.614  1.00 20.00    -0.210 NA
HETATM    8  N8  UNL     1     -41.748   7.207   1.081  1.00 20.00    -0.208 NA
HETATM    9  H20 UNL     1     -40.925   7.416   1.645  1.00 20.00     0.149 HD
ENDROOT
TORSDOF 0
ENDMDL
MODEL 9
REMARK VINA RESULT:      -3.9     11.776     12.846
REMARK  0 active torsions:
REMARK  status: ('A' for Active; 'I' for Inactive)
ROOT
HETATM    1  C1  UNL     1     -37.676  14.866  -4.457  1.00 20.00     0.025 C 
HETATM    2  C2  UNL     1     -36.552  15.770  -4.855  1.00 20.00     0.081 C 
HETATM    3  C3  UNL     1     -35.393  14.779  -4.785  1.00 20.00     0.029 C 
HETATM    4  C4  UNL     1     -39.023  15.410  -4.119  1.00 20.00     0.067 C 
HETATM    5  C5  UNL     1     -34.450  14.908  -5.979  1.00 20.00     0.034 C 
HETATM    6  C6  UNL     1     -34.620  14.903  -3.467  1.00 20.00     0.034 C 
HETATM    7  N7  UNL     1     -37.399  13.601  -4.439  1.00 20.00    -0.210 NA
HETATM    8  N8  UNL     1     -36.110  13.499  -4.843  1.00 20.00    -0.208 NA
HETATM    9  H20 UNL     1     -36.090  13.103  -5.783  1.00 20.00     0.149 HD
ENDROOT
TORSDOF 0
ENDMDL
