MODEL 1
REMARK VINA RESULT:      -4.7      0.000      0.000
REMARK  2 active torsions:
REMARK  status: ('A' for Active; 'I' for Inactive)
REMARK    1  A    between atoms: C1_1  and  S11_11 
REMARK    2  A    between atoms: C8_8  and  S11_11 
ROOT
HETATM    1  C2  UNL     1     -34.089  18.025  -1.988  1.00 20.00     0.005 C 
HETATM    2  C3  UNL     1     -34.789  16.708  -1.620  1.00 20.00     0.006 C 
HETATM    3  C4  UNL     1     -32.965  16.219  -3.057  1.00 20.00     0.010 C 
HETATM    4  C5  UNL     1     -34.397  17.537  -4.431  1.00 20.00     0.020 C 
HETATM    5  C6  UNL     1     -33.361  17.675  -3.297  1.00 20.00    -0.013 C 
HETATM    6  C7  UNL     1     -34.406  15.775  -2.785  1.00 20.00     0.000 C 
HETATM    7  C8  UNL     1     -35.160  16.254  -4.046  1.00 20.00     0.059 C 
ENDROOT
BRANCH   7   8
HETATM    8  S11 UNL     1     -35.121  15.011  -5.378  1.00 20.00    -0.088 SA
BRANCH   8   9
HETATM    9  C1  UNL     1     -36.209  13.803  -4.699  1.00 20.00     0.182 C 
HETATM   10  C9  UNL     1     -37.550  14.361  -4.316  1.00 20.00     0.104 C 
HETATM   11  O10 UNL     1     -35.910  12.624  -4.553  1.00 20.00    -0.286 OA
ENDBRANCH   8   9
ENDBRANCH   7   8
TORSDOF 2
ENDMDL
MODEL 2
REMARK VINA RESULT:      -4.7      1.463      1.712
REMARK  2 active torsions:
REMARK  status: ('A' for Active; 'I' for Inactive)
REMARK    1  A    between atoms: C1_1  and  S11_11 
REMARK    2  A    between atoms: C8_8  and  S11_11 
ROOT
HETATM    1  C2  UNL     1     -33.432  16.645  -2.411  1.00 20.00     0.005 C 
HETATM    2  C3  UNL     1     -34.825  16.234  -1.907  1.00 20.00     0.006 C 
HETATM    3  C4  UNL     1     -34.170  14.735  -3.627  1.00 20.00     0.010 C 
HETATM    4  C5  UNL     1     -34.306  16.827  -4.757  1.00 20.00     0.020 C 
HETATM    5  C6  UNL     1     -33.379  16.028  -3.819  1.00 20.00    -0.013 C 
HETATM    6  C7  UNL     1     -35.413  15.464  -3.105  1.00 20.00     0.000 C 
HETATM    7  C8  UNL     1     -35.712  16.483  -4.227  1.00 20.00     0.059 C 
ENDROOT
BRANCH   7   8
HETATM    8  S11 UNL     1     -36.778  15.778  -5.525  1.00 20.00    -0.088 SA
BRANCH   8   9
HETATM    9  C1  UNL     1     -38.046  15.070  -4.528  1.00 20.00     0.182 C 
HETATM   10  C9  UNL     1     -38.952  16.094  -3.906  1.00 20.00     0.104 C 
HETATM   11  O10 UNL     1     -38.182  13.864  -4.355  1.00 20.00    -0.286 OA
ENDBRANCH   8   9
ENDBRANCH   7   8
TORSDOF 2
ENDMDL
MODEL 3
REMARK VINA RESULT:      -4.5      0.769      1.792
REMARK  2 active torsions:
REMARK  status: ('A' for Active; 'I' for Inactive)
REMARK    1  A    between atoms: C1_1  and  S11_11 
REMARK    2  A    between atoms: C8_8  and  S11_11 
ROOT
HETATM    1  C2  UNL     1     -33.274  16.996  -2.271  1.00 20.00     0.005 C 
HETATM    2  C3  UNL     1     -33.160  17.641  -3.660  1.00 20.00     0.006 C 
HETATM    3  C4  UNL     1     -35.440  17.125  -3.250  1.00 20.00     0.010 C 
HETATM    4  C5  UNL     1     -34.396  14.984  -3.269  1.00 20.00     0.020 C 
HETATM    5  C6  UNL     1     -34.596  16.214  -2.361  1.00 20.00    -0.013 C 
HETATM    6  C7  UNL     1     -34.414  17.120  -4.388  1.00 20.00     0.000 C 
HETATM    7  C8  UNL     1     -34.212  15.613  -4.665  1.00 20.00     0.059 C 
ENDROOT
BRANCH   7   8
HETATM    8  S11 UNL     1     -35.420  14.971  -5.868  1.00 20.00    -0.088 SA
BRANCH   8   9
HETATM    9  C1  UNL     1     -36.305  13.845  -4.842  1.00 20.00     0.182 C 
HETATM   10  C9  UNL     1     -37.590  14.412  -4.311  1.00 20.00     0.104 C 
HETATM   11  O10 UNL     1     -35.916  12.712  -4.583  1.00 20.00    -0.286 OA
ENDBRANCH   8   9
ENDBRANCH   7   8
TORSDOF 2
ENDMDL
MODEL 4
REMARK VINA RESULT:      -4.3      1.086      1.894
REMARK  2 active torsions:
REMARK  status: ('A' for Active; 'I' for Inactive)
REMARK    1  A    between atoms: C1_1  and  S11_11 
REMARK    2  A    between atoms: C8_8  and  S11_11 
ROOT
HETATM    1  C2  UNL     1     -33.681  17.708  -0.835  1.00 20.00     0.005 C 
HETATM    2  C3  UNL     1     -32.545  17.694  -1.869  1.00 20.00     0.006 C 
HETATM    3  C4  UNL     1     -34.580  18.183  -2.987  1.00 20.00     0.010 C 
HETATM    4  C5  UNL     1     -34.938  15.981  -2.153  1.00 20.00     0.020 C 
HETATM    5  C6  UNL     1     -34.932  17.452  -1.693  1.00 20.00    -0.013 C 
HETATM    6  C7  UNL     1     -33.282  17.395  -3.189  1.00 20.00     0.000 C 
HETATM    7  C8  UNL     1     -33.759  15.926  -3.145  1.00 20.00     0.059 C 
ENDROOT
BRANCH   7   8
HETATM    8  S11 UNL     1     -34.275  15.326  -4.786  1.00 20.00    -0.088 SA
BRANCH   8   9
HETATM    9  C1  UNL     1     -35.174  13.886  -4.316  1.00 20.00     0.182 C 
HETATM   10  C9  UNL     1     -36.660  14.037  -4.475  1.00 20.00     0.104 C 
HETATM   11  O10 UNL     1     -34.647  12.860  -3.902  1.00 20.00    -0.286 OA
ENDBRANCH   8   9
ENDBRANCH   7   8
TORSDOF 2
ENDMDL
MODEL 5
REMARK VINA RESULT:      -4.3      1.212      1.784
REMARK  2 active torsions:
REMARK  status: ('A' for Active; 'I' for Inactive)
REMARK    1  A    between atoms: C1_1  and  S11_11 
REMARK    2  A    between atoms: C8_8  and  S11_11 
ROOT
HETATM    1  C2  UNL     1     -34.293  18.467  -2.392  1.00 20.00     0.005 C 
HETATM    2  C3  UNL     1     -35.569  18.067  -3.149  1.00 20.00     0.006 C 
HETATM    3  C4  UNL     1     -35.116  16.416  -1.506  1.00 20.00     0.010 C 
HETATM    4  C5  UNL     1     -33.235  16.262  -2.958  1.00 20.00     0.020 C 
HETATM    5  C6  UNL     1     -33.801  17.128  -1.815  1.00 20.00    -0.013 C 
HETATM    6  C7  UNL     1     -35.630  16.541  -2.943  1.00 20.00     0.000 C 
HETATM    7  C8  UNL     1     -34.493  15.903  -3.773  1.00 20.00     0.059 C 
ENDROOT
BRANCH   7   8
HETATM    8  S11 UNL     1     -34.702  14.102  -3.948  1.00 20.00    -0.088 SA
BRANCH   8   9
HETATM    9  C1  UNL     1     -36.167  14.058  -4.924  1.00 20.00     0.182 C 
HETATM   10  C9  UNL     1     -35.997  14.686  -6.278  1.00 20.00     0.104 C 
HETATM   11  O10 UNL     1     -37.224  13.566  -4.544  1.00 20.00    -0.286 OA
ENDBRANCH   8   9
ENDBRANCH   7   8
TORSDOF 2
ENDMDL
MODEL 6
REMARK VINA RESULT:      -4.3      1.819      2.781
REMARK  2 active torsions:
REMARK  status: ('A' for Active; 'I' for Inactive)
REMARK    1  A    between atoms: C1_1  and  S11_11 
REMARK    2  A    between atoms: C8_8  and  S11_11 
ROOT
HETATM    1  C2  UNL     1     -32.911  14.922  -4.186  1.00 20.00     0.005 C 
HETATM    2  C3  UNL     1     -33.783  14.870  -5.450  1.00 20.00     0.006 C 
HETATM    3  C4  UNL     1     -34.079  16.984  -4.411  1.00 20.00     0.010 C 
HETATM    4  C5  UNL     1     -34.924  15.460  -2.786  1.00 20.00     0.020 C 
HETATM    5  C6  UNL     1     -33.593  16.010  -3.339  1.00 20.00    -0.013 C 
HETATM    6  C7  UNL     1     -34.881  15.911  -5.155  1.00 20.00     0.000 C 
HETATM    7  C8  UNL     1     -35.797  15.336  -4.051  1.00 20.00     0.059 C 
ENDROOT
BRANCH   7   8
HETATM    8  S11 UNL     1     -37.354  16.271  -3.900  1.00 20.00    -0.088 SA
BRANCH   8   9
HETATM    9  C1  UNL     1     -38.514  14.982  -4.207  1.00 20.00     0.182 C 
HETATM   10  C9  UNL     1     -39.939  15.456  -4.213  1.00 20.00     0.104 C 
HETATM   11  O10 UNL     1     -38.198  13.813  -4.397  1.00 20.00    -0.286 OA
ENDBRANCH   8   9
ENDBRANCH   7   8
TORSDOF 2
ENDMDL
MODEL 7
REMARK VINA RESULT:      -4.2      1.179      1.179
REMARK  2 active torsions:
REMARK  status: ('A' for Active; 'I' for Inactive)
REMARK    1  A    between atoms: C1_1  and  S11_11 
REMARK    2  A    between atoms: C8_8  and  S11_11 
ROOT
HETATM    1  C2  UNL     1     -33.780  17.337  -1.637  1.00 20.00     0.005 C 
HETATM    2  C3  UNL     1     -34.834  16.248  -1.890  1.00 20.00     0.006 C 
HETATM    3  C4  UNL     1     -32.987  15.862  -3.330  1.00 20.00     0.010 C 
HETATM    4  C5  UNL     1     -33.814  17.971  -4.066  1.00 20.00     0.020 C 
HETATM    5  C6  UNL     1     -32.966  17.340  -2.943  1.00 20.00    -0.013 C 
HETATM    6  C7  UNL     1     -34.517  15.787  -3.326  1.00 20.00     0.000 C 
HETATM    7  C8  UNL     1     -34.922  16.923  -4.292  1.00 20.00     0.059 C 
ENDROOT
BRANCH   7   8
HETATM    8  S11 UNL     1     -34.986  16.359  -6.023  1.00 20.00    -0.088 SA
BRANCH   8   9
HETATM    9  C1  UNL     1     -36.192  15.084  -5.884  1.00 20.00     0.182 C 
HETATM   10  C9  UNL     1     -37.504  15.566  -5.334  1.00 20.00     0.104 C 
HETATM   11  O10 UNL     1     -35.989  13.918  -6.203  1.00 20.00    -0.286 OA
ENDBRANCH   8   9
ENDBRANCH   7   8
TORSDOF 2
ENDMDL
MODEL 8
REMARK VINA RESULT:      -4.2     11.759     12.697
REMARK  2 active torsions:
REMARK  status: ('A' for Active; 'I' for Inactive)
REMARK    1  A    between atoms: C1_1  and  S11_11 
REMARK    2  A    between atoms: C8_8  and  S11_11 
ROOT
HETATM    1  C2  UNL     1     -34.687   5.105   6.171  1.00 20.00     0.005 C 
HETATM    2  C3  UNL     1     -34.024   6.457   5.869  1.00 20.00     0.006 C 
HETATM    3  C4  UNL     1     -35.612   5.997   4.167  1.00 20.00     0.010 C 
HETATM    4  C5  UNL     1     -34.022   4.244   3.909  1.00 20.00     0.020 C 
HETATM    5  C6  UNL     1     -35.213   4.663   4.794  1.00 20.00    -0.013 C 
HETATM    6  C7  UNL     1     -34.218   6.606   4.347  1.00 20.00     0.000 C 
HETATM    7  C8  UNL     1     -33.299   5.580   3.647  1.00 20.00     0.059 C 
ENDROOT
BRANCH   7   8
HETATM    8  S11 UNL     1     -33.123   5.924   1.867  1.00 20.00    -0.088 SA
BRANCH   8   9
HETATM    9  C1  UNL     1     -32.364   7.512   1.936  1.00 20.00     0.182 C 
HETATM   10  C9  UNL     1     -32.743   8.401   0.787  1.00 20.00     0.104 C 
HETATM   11  O10 UNL     1     -31.602   7.863   2.830  1.00 20.00    -0.286 OA
ENDBRANCH   8   9
ENDBRANCH   7   8
TORSDOF 2
ENDMDL
MODEL 9
REMARK VINA RESULT:      -4.0      1.889      2.640
REMARK  2 active torsions:
REMARK  status: ('A' for Active; 'I' for Inactive)
REMARK    1  A    between atoms: C1_1  and  S11_11 
REMARK    2  A    between atoms: C8_8  and  S11_11 
ROOT
HETATM    1  C2  UNL     1     -33.029  16.972  -2.345  1.00 20.00     0.005 C 
HETATM    2  C3  UNL     1     -33.226  17.786  -3.633  1.00 20.00     0.006 C 
HETATM    3  C4  UNL     1     -35.355  17.356  -2.676  1.00 20.00     0.010 C 
HETATM    4  C5  UNL     1     -34.554  15.178  -3.213  1.00 20.00     0.020 C 
HETATM    5  C6  UNL     1     -34.394  16.289  -2.155  1.00 20.00    -0.013 C 
HETATM    6  C7  UNL     1     -34.670  17.438  -4.044  1.00 20.00     0.000 C 
HETATM    7  C8  UNL     1     -34.687  15.971  -4.528  1.00 20.00     0.059 C 
ENDROOT
BRANCH   7   8
HETATM    8  S11 UNL     1     -36.223  15.563  -5.419  1.00 20.00    -0.088 SA
BRANCH   8   9
HETATM    9  C1  UNL     1     -35.550  14.999  -6.946  1.00 20.00     0.182 C 
HETATM   10  C9  UNL     1     -34.062  15.177  -7.039  1.00 20.00     0.104 C 
HETATM   11  O10 UNL     1     -36.222  14.508  -7.846  1.00 20.00    -0.286 OA
ENDBRANCH   8   9
ENDBRANCH   7   8
TORSDOF 2
ENDMDL
