MODEL 1
REMARK VINA RESULT:      -4.6      0.000      0.000
REMARK  2 active torsions:
REMARK  status: ('A' for Active; 'I' for Inactive)
REMARK    1  A    between atoms: C1_1  and  S11_11 
REMARK    2  A    between atoms: C8_8  and  S11_11 
ROOT
HETATM    1  C2  UNL     1     -34.119  18.323  -3.346  1.00 20.00     0.005 C 
HETATM    2  C3  UNL     1     -35.499  17.651  -3.340  1.00 20.00     0.006 C 
HETATM    3  C4  UNL     1     -34.276  16.852  -1.479  1.00 20.00     0.010 C 
HETATM    4  C5  UNL     1     -32.982  16.092  -3.341  1.00 20.00     0.020 C 
HETATM    5  C6  UNL     1     -33.262  17.359  -2.507  1.00 20.00    -0.013 C 
HETATM    6  C7  UNL     1     -35.249  16.350  -2.554  1.00 20.00     0.000 C 
HETATM    7  C8  UNL     1     -34.338  15.360  -3.316  1.00 20.00     0.059 C 
ENDROOT
BRANCH   7   8
HETATM    8  S11 UNL     1     -34.919  14.871  -4.964  1.00 20.00    -0.088 SA
BRANCH   8   9
HETATM    9  C1  UNL     1     -36.208  13.755  -4.522  1.00 20.00     0.182 C 
HETATM   10  C9  UNL     1     -37.552  14.415  -4.392  1.00 20.00     0.104 C 
HETATM   11  O10 UNL     1     -36.032  12.556  -4.340  1.00 20.00    -0.286 OA
ENDBRANCH   8   9
ENDBRANCH   7   8
TORSDOF 2
ENDMDL
MODEL 2
REMARK VINA RESULT:      -4.5      1.413      1.856
REMARK  2 active torsions:
REMARK  status: ('A' for Active; 'I' for Inactive)
REMARK    1  A    between atoms: C1_1  and  S11_11 
REMARK    2  A    between atoms: C8_8  and  S11_11 
ROOT
HETATM    1  C2  UNL     1     -34.138  18.164  -2.187  1.00 20.00     0.005 C 
HETATM    2  C3  UNL     1     -34.756  16.890  -1.595  1.00 20.00     0.006 C 
HETATM    3  C4  UNL     1     -32.981  16.259  -3.025  1.00 20.00     0.010 C 
HETATM    4  C5  UNL     1     -34.519  17.323  -4.514  1.00 20.00     0.020 C 
HETATM    5  C6  UNL     1     -33.443  17.651  -3.460  1.00 20.00    -0.013 C 
HETATM    6  C7  UNL     1     -34.396  15.812  -2.636  1.00 20.00     0.000 C 
HETATM    7  C8  UNL     1     -35.133  16.014  -3.980  1.00 20.00     0.059 C 
ENDROOT
BRANCH   7   8
HETATM    8  S11 UNL     1     -36.944  16.060  -3.881  1.00 20.00    -0.088 SA
BRANCH   8   9
HETATM    9  C1  UNL     1     -37.324  14.403  -4.344  1.00 20.00     0.182 C 
HETATM   10  C9  UNL     1     -36.110  13.582  -4.678  1.00 20.00     0.104 C 
HETATM   11  O10 UNL     1     -38.465  13.959  -4.391  1.00 20.00    -0.286 OA
ENDBRANCH   8   9
ENDBRANCH   7   8
TORSDOF 2
ENDMDL
MODEL 3
REMARK VINA RESULT:      -4.5      0.842      1.610
REMARK  2 active torsions:
REMARK  status: ('A' for Active; 'I' for Inactive)
REMARK    1  A    between atoms: C1_1  and  S11_11 
REMARK    2  A    between atoms: C8_8  and  S11_11 
ROOT
HETATM    1  C2  UNL     1     -32.924  17.417  -1.925  1.00 20.00     0.005 C 
HETATM    2  C3  UNL     1     -33.021  17.588  -3.447  1.00 20.00     0.006 C 
HETATM    3  C4  UNL     1     -35.034  18.369  -2.482  1.00 20.00     0.010 C 
HETATM    4  C5  UNL     1     -35.022  16.050  -1.898  1.00 20.00     0.020 C 
HETATM    5  C6  UNL     1     -34.398  17.399  -1.485  1.00 20.00    -0.013 C 
HETATM    6  C7  UNL     1     -34.540  17.581  -3.702  1.00 20.00     0.000 C 
HETATM    7  C8  UNL     1     -35.184  16.202  -3.423  1.00 20.00     0.059 C 
ENDROOT
BRANCH   7   8
HETATM    8  S11 UNL     1     -34.491  14.811  -4.359  1.00 20.00    -0.088 SA
BRANCH   8   9
HETATM    9  C1  UNL     1     -35.892  13.745  -4.418  1.00 20.00     0.182 C 
HETATM   10  C9  UNL     1     -37.203  14.479  -4.383  1.00 20.00     0.104 C 
HETATM   11  O10 UNL     1     -35.811  12.524  -4.483  1.00 20.00    -0.286 OA
ENDBRANCH   8   9
ENDBRANCH   7   8
TORSDOF 2
ENDMDL
MODEL 4
REMARK VINA RESULT:      -4.5      1.054      1.274
REMARK  2 active torsions:
REMARK  status: ('A' for Active; 'I' for Inactive)
REMARK    1  A    between atoms: C1_1  and  S11_11 
REMARK    2  A    between atoms: C8_8  and  S11_11 
ROOT
HETATM    1  C2  UNL     1     -33.776  17.760  -4.045  1.00 20.00     0.005 C 
HETATM    2  C3  UNL     1     -35.128  18.014  -3.365  1.00 20.00     0.006 C 
HETATM    3  C4  UNL     1     -33.716  16.914  -1.820  1.00 20.00     0.010 C 
HETATM    4  C5  UNL     1     -33.948  15.307  -3.575  1.00 20.00     0.020 C 
HETATM    5  C6  UNL     1     -33.188  16.601  -3.221  1.00 20.00    -0.013 C 
HETATM    6  C7  UNL     1     -35.181  16.926  -2.276  1.00 20.00     0.000 C 
HETATM    7  C8  UNL     1     -35.302  15.501  -2.864  1.00 20.00     0.059 C 
ENDROOT
BRANCH   7   8
HETATM    8  S11 UNL     1     -36.728  15.221  -3.950  1.00 20.00    -0.088 SA
BRANCH   8   9
HETATM    9  C1  UNL     1     -36.092  13.938  -4.976  1.00 20.00     0.182 C 
HETATM   10  C9  UNL     1     -35.744  14.400  -6.364  1.00 20.00     0.104 C 
HETATM   11  O10 UNL     1     -35.945  12.782  -4.601  1.00 20.00    -0.286 OA
ENDBRANCH   8   9
ENDBRANCH   7   8
TORSDOF 2
ENDMDL
MODEL 5
REMARK VINA RESULT:      -4.5      3.330      4.839
REMARK  2 active torsions:
REMARK  status: ('A' for Active; 'I' for Inactive)
REMARK    1  A    between atoms: C1_1  and  S11_11 
REMARK    2  A    between atoms: C8_8  and  S11_11 
ROOT
HETATM    1  C2  UNL     1     -35.598  16.479  -4.273  1.00 20.00     0.005 C 
HETATM    2  C3  UNL     1     -34.177  16.739  -4.791  1.00 20.00     0.006 C 
HETATM    3  C4  UNL     1     -34.149  14.748  -3.516  1.00 20.00     0.010 C 
HETATM    4  C5  UNL     1     -34.773  16.406  -1.910  1.00 20.00     0.020 C 
HETATM    5  C6  UNL     1     -35.361  15.563  -3.060  1.00 20.00    -0.013 C 
HETATM    6  C7  UNL     1     -33.293  15.995  -3.773  1.00 20.00     0.000 C 
HETATM    7  C8  UNL     1     -33.322  16.647  -2.371  1.00 20.00     0.059 C 
ENDROOT
BRANCH   7   8
HETATM    8  S11 UNL     1     -32.832  18.393  -2.310  1.00 20.00    -0.088 SA
BRANCH   8   9
HETATM    9  C1  UNL     1     -31.890  18.401  -0.822  1.00 20.00     0.182 C 
HETATM   10  C9  UNL     1     -32.732  18.513   0.419  1.00 20.00     0.104 C 
HETATM   11  O10 UNL     1     -30.668  18.323  -0.793  1.00 20.00    -0.286 OA
ENDBRANCH   8   9
ENDBRANCH   7   8
TORSDOF 2
ENDMDL
MODEL 6
REMARK VINA RESULT:      -4.5      1.620      2.145
REMARK  2 active torsions:
REMARK  status: ('A' for Active; 'I' for Inactive)
REMARK    1  A    between atoms: C1_1  and  S11_11 
REMARK    2  A    between atoms: C8_8  and  S11_11 
ROOT
HETATM    1  C2  UNL     1     -33.986  17.336  -2.335  1.00 20.00     0.005 C 
HETATM    2  C3  UNL     1     -34.887  16.193  -1.851  1.00 20.00     0.006 C 
HETATM    3  C4  UNL     1     -33.487  15.359  -3.565  1.00 20.00     0.010 C 
HETATM    4  C5  UNL     1     -34.779  17.027  -4.690  1.00 20.00     0.020 C 
HETATM    5  C6  UNL     1     -33.571  16.876  -3.743  1.00 20.00    -0.013 C 
HETATM    6  C7  UNL     1     -34.933  15.247  -3.066  1.00 20.00     0.000 C 
HETATM    7  C8  UNL     1     -35.691  15.858  -4.267  1.00 20.00     0.059 C 
ENDROOT
BRANCH   7   8
HETATM    8  S11 UNL     1     -37.401  16.367  -3.937  1.00 20.00    -0.088 SA
BRANCH   8   9
HETATM    9  C1  UNL     1     -38.249  14.865  -4.294  1.00 20.00     0.182 C 
HETATM   10  C9  UNL     1     -39.744  15.019  -4.341  1.00 20.00     0.104 C 
HETATM   11  O10 UNL     1     -37.682  13.797  -4.488  1.00 20.00    -0.286 OA
ENDBRANCH   8   9
ENDBRANCH   7   8
TORSDOF 2
ENDMDL
MODEL 7
REMARK VINA RESULT:      -4.4      1.889      2.568
REMARK  2 active torsions:
REMARK  status: ('A' for Active; 'I' for Inactive)
REMARK    1  A    between atoms: C1_1  and  S11_11 
REMARK    2  A    between atoms: C8_8  and  S11_11 
ROOT
HETATM    1  C2  UNL     1     -35.111  16.257  -1.936  1.00 20.00     0.005 C 
HETATM    2  C3  UNL     1     -34.917  15.121  -2.949  1.00 20.00     0.006 C 
HETATM    3  C4  UNL     1     -32.965  16.455  -2.948  1.00 20.00     0.010 C 
HETATM    4  C5  UNL     1     -34.652  17.971  -3.702  1.00 20.00     0.020 C 
HETATM    5  C6  UNL     1     -34.108  17.320  -2.415  1.00 20.00    -0.013 C 
HETATM    6  C7  UNL     1     -33.874  15.697  -3.924  1.00 20.00     0.000 C 
HETATM    7  C8  UNL     1     -34.428  16.873  -4.761  1.00 20.00     0.059 C 
ENDROOT
BRANCH   7   8
HETATM    8  S11 UNL     1     -35.911  16.508  -5.739  1.00 20.00    -0.088 SA
BRANCH   8   9
HETATM    9  C1  UNL     1     -35.383  15.051  -6.576  1.00 20.00     0.182 C 
HETATM   10  C9  UNL     1     -34.244  15.288  -7.529  1.00 20.00     0.104 C 
HETATM   11  O10 UNL     1     -35.889  13.949  -6.403  1.00 20.00    -0.286 OA
ENDBRANCH   8   9
ENDBRANCH   7   8
TORSDOF 2
ENDMDL
MODEL 8
REMARK VINA RESULT:      -4.3      1.171      1.316
REMARK  2 active torsions:
REMARK  status: ('A' for Active; 'I' for Inactive)
REMARK    1  A    between atoms: C1_1  and  S11_11 
REMARK    2  A    between atoms: C8_8  and  S11_11 
ROOT
HETATM    1  C2  UNL     1     -33.605  17.622  -3.893  1.00 20.00     0.005 C 
HETATM    2  C3  UNL     1     -35.137  17.577  -3.800  1.00 20.00     0.006 C 
HETATM    3  C4  UNL     1     -34.247  16.371  -1.971  1.00 20.00     0.010 C 
HETATM    4  C5  UNL     1     -33.484  15.122  -3.862  1.00 20.00     0.020 C 
HETATM    5  C6  UNL     1     -33.174  16.402  -3.061  1.00 20.00    -0.013 C 
HETATM    6  C7  UNL     1     -35.399  16.299  -2.982  1.00 20.00     0.000 C 
HETATM    7  C8  UNL     1     -35.018  15.012  -3.750  1.00 20.00     0.059 C 
ENDROOT
BRANCH   7   8
HETATM    8  S11 UNL     1     -35.839  14.785  -5.351  1.00 20.00    -0.088 SA
BRANCH   8   9
HETATM    9  C1  UNL     1     -37.525  14.786  -4.841  1.00 20.00     0.182 C 
HETATM   10  C9  UNL     1     -38.249  16.062  -5.172  1.00 20.00     0.104 C 
HETATM   11  O10 UNL     1     -38.061  13.843  -4.273  1.00 20.00    -0.286 OA
ENDBRANCH   8   9
ENDBRANCH   7   8
TORSDOF 2
ENDMDL
MODEL 9
REMARK VINA RESULT:      -4.2      1.401      2.002
REMARK  2 active torsions:
REMARK  status: ('A' for Active; 'I' for Inactive)
REMARK    1  A    between atoms: C1_1  and  S11_11 
REMARK    2  A    between atoms: C8_8  and  S11_11 
ROOT
HETATM    1  C2  UNL     1     -35.087  17.543  -1.374  1.00 20.00     0.005 C 
HETATM    2  C3  UNL     1     -34.987  16.095  -1.873  1.00 20.00     0.006 C 
HETATM    3  C4  UNL     1     -32.910  17.158  -2.260  1.00 20.00     0.010 C 
HETATM    4  C5  UNL     1     -34.420  18.413  -3.624  1.00 20.00     0.020 C 
HETATM    5  C6  UNL     1     -33.972  18.255  -2.157  1.00 20.00    -0.013 C 
HETATM    6  C7  UNL     1     -33.870  16.167  -2.931  1.00 20.00     0.000 C 
HETATM    7  C8  UNL     1     -34.284  16.981  -4.179  1.00 20.00     0.059 C 
ENDROOT
BRANCH   7   8
HETATM    8  S11 UNL     1     -35.775  16.400  -5.033  1.00 20.00    -0.088 SA
BRANCH   8   9
HETATM    9  C1  UNL     1     -35.325  14.725  -5.342  1.00 20.00     0.182 C 
HETATM   10  C9  UNL     1     -36.222  13.729  -4.661  1.00 20.00     0.104 C 
HETATM   11  O10 UNL     1     -34.376  14.397  -6.044  1.00 20.00    -0.286 OA
ENDBRANCH   8   9
ENDBRANCH   7   8
TORSDOF 2
ENDMDL
