MODEL 1
REMARK VINA RESULT:      -4.5      0.000      0.000
REMARK  1 active torsions:
REMARK  status: ('A' for Active; 'I' for Inactive)
REMARK    1  A    between atoms: C3_3  and  C7_7 
ROOT
HETATM    1  C1  UNL     1     -34.539  16.460  -5.177  1.00 20.00    -0.020 C 
HETATM    2  C2  UNL     1     -35.054  15.841  -6.253  1.00 20.00    -0.086 C 
HETATM    3  C4  UNL     1     -35.671  14.465  -6.174  1.00 20.00     0.045 C 
HETATM    4  C5  UNL     1     -34.773  14.340  -3.806  1.00 20.00     0.020 C 
HETATM    5  C6  UNL     1     -34.492  15.854  -3.798  1.00 20.00     0.005 C 
HETATM    6  C7  UNL     1     -35.915  13.958  -4.748  1.00 20.00     0.051 C 
HETATM    7  C8  UNL     1     -35.053  16.483  -7.609  1.00 20.00     0.043 C 
HETATM    8  C9  UNL     1     -33.143  16.130  -3.131  1.00 20.00     0.014 C 
ENDROOT
BRANCH   6   9
HETATM    9  C3  UNL     1     -37.224  14.462  -4.211  1.00 20.00     0.236 C 
HETATM   10  O10 UNL     1     -38.297  13.905  -4.415  1.00 20.00    -0.306 OA
ENDBRANCH   6   9
TORSDOF 1
ENDMDL
MODEL 2
REMARK VINA RESULT:      -4.4      3.225      5.010
REMARK  1 active torsions:
REMARK  status: ('A' for Active; 'I' for Inactive)
REMARK    1  A    between atoms: C3_3  and  C7_7 
ROOT
HETATM    1  C1  UNL     1     -35.307  15.940  -2.328  1.00 20.00    -0.020 C 
HETATM    2  C2  UNL     1     -34.788  16.786  -1.421  1.00 20.00    -0.086 C 
HETATM    3  C4  UNL     1     -33.430  17.423  -1.596  1.00 20.00     0.045 C 
HETATM    4  C5  UNL     1     -33.098  15.866  -3.569  1.00 20.00     0.020 C 
HETATM    5  C6  UNL     1     -34.596  15.515  -3.587  1.00 20.00     0.005 C 
HETATM    6  C7  UNL     1     -32.825  17.256  -2.994  1.00 20.00     0.051 C 
HETATM    7  C8  UNL     1     -35.531  17.156  -0.171  1.00 20.00     0.043 C 
HETATM    8  C9  UNL     1     -34.778  14.015  -3.831  1.00 20.00     0.014 C 
ENDROOT
BRANCH   6   9
HETATM    9  C3  UNL     1     -33.328  18.315  -3.932  1.00 20.00     0.236 C 
HETATM   10  O10 UNL     1     -32.623  19.213  -4.378  1.00 20.00    -0.306 OA
ENDBRANCH   6   9
TORSDOF 1
ENDMDL
MODEL 3
REMARK VINA RESULT:      -4.4      2.758      3.680
REMARK  1 active torsions:
REMARK  status: ('A' for Active; 'I' for Inactive)
REMARK    1  A    between atoms: C3_3  and  C7_7 
ROOT
HETATM    1  C1  UNL     1     -32.848  16.830  -2.992  1.00 20.00    -0.020 C 
HETATM    2  C2  UNL     1     -33.645  15.780  -3.256  1.00 20.00    -0.086 C 
HETATM    3  C4  UNL     1     -34.954  15.559  -2.536  1.00 20.00     0.045 C 
HETATM    4  C5  UNL     1     -34.267  17.441  -0.982  1.00 20.00     0.020 C 
HETATM    5  C6  UNL     1     -33.147  17.872  -1.946  1.00 20.00     0.005 C 
HETATM    6  C7  UNL     1     -35.428  16.752  -1.698  1.00 20.00     0.051 C 
HETATM    7  C8  UNL     1     -33.286  14.757  -4.294  1.00 20.00     0.043 C 
HETATM    8  C9  UNL     1     -31.885  18.224  -1.156  1.00 20.00     0.014 C 
ENDROOT
BRANCH   6   9
HETATM    9  C3  UNL     1     -36.180  17.741  -2.542  1.00 20.00     0.236 C 
HETATM   10  O10 UNL     1     -36.743  17.445  -3.590  1.00 20.00    -0.306 OA
ENDBRANCH   6   9
TORSDOF 1
ENDMDL
MODEL 4
REMARK VINA RESULT:      -4.4      1.713      3.102
REMARK  1 active torsions:
REMARK  status: ('A' for Active; 'I' for Inactive)
REMARK    1  A    between atoms: C3_3  and  C7_7 
ROOT
HETATM    1  C1  UNL     1     -34.518  15.519  -2.614  1.00 20.00    -0.020 C 
HETATM    2  C2  UNL     1     -35.394  16.498  -2.325  1.00 20.00    -0.086 C 
HETATM    3  C4  UNL     1     -36.500  16.898  -3.272  1.00 20.00     0.045 C 
HETATM    4  C5  UNL     1     -35.394  15.396  -4.990  1.00 20.00     0.020 C 
HETATM    5  C6  UNL     1     -34.521  14.741  -3.904  1.00 20.00     0.005 C 
HETATM    6  C7  UNL     1     -36.717  15.929  -4.441  1.00 20.00     0.051 C 
HETATM    7  C8  UNL     1     -35.330  17.258  -1.033  1.00 20.00     0.043 C 
HETATM    8  C9  UNL     1     -33.096  14.551  -4.425  1.00 20.00     0.014 C 
ENDROOT
BRANCH   6   9
HETATM    9  C3  UNL     1     -37.612  14.791  -4.041  1.00 20.00     0.236 C 
HETATM   10  O10 UNL     1     -37.576  13.686  -4.570  1.00 20.00    -0.306 OA
ENDBRANCH   6   9
TORSDOF 1
ENDMDL
MODEL 5
REMARK VINA RESULT:      -4.2      1.719      1.987
REMARK  1 active torsions:
REMARK  status: ('A' for Active; 'I' for Inactive)
REMARK    1  A    between atoms: C3_3  and  C7_7 
ROOT
HETATM    1  C1  UNL     1     -35.848  17.166  -3.639  1.00 20.00    -0.020 C 
HETATM    2  C2  UNL     1     -35.615  17.022  -4.955  1.00 20.00    -0.086 C 
HETATM    3  C4  UNL     1     -34.890  15.824  -5.520  1.00 20.00     0.045 C 
HETATM    4  C5  UNL     1     -34.357  15.181  -3.126  1.00 20.00     0.020 C 
HETATM    5  C6  UNL     1     -35.398  16.182  -2.591  1.00 20.00     0.005 C 
HETATM    6  C7  UNL     1     -34.695  14.672  -4.527  1.00 20.00     0.051 C 
HETATM    7  C8  UNL     1     -36.066  18.047  -5.954  1.00 20.00     0.043 C 
HETATM    8  C9  UNL     1     -34.839  16.911  -1.368  1.00 20.00     0.014 C 
ENDROOT
BRANCH   6   9
HETATM    9  C3  UNL     1     -35.907  13.786  -4.481  1.00 20.00     0.236 C 
HETATM   10  O10 UNL     1     -35.850  12.562  -4.472  1.00 20.00    -0.306 OA
ENDBRANCH   6   9
TORSDOF 1
ENDMDL
MODEL 6
REMARK VINA RESULT:      -4.2      4.130      5.809
REMARK  1 active torsions:
REMARK  status: ('A' for Active; 'I' for Inactive)
REMARK    1  A    between atoms: C3_3  and  C7_7 
ROOT
HETATM    1  C1  UNL     1     -34.605  16.520  -1.601  1.00 20.00    -0.020 C 
HETATM    2  C2  UNL     1     -33.708  16.602  -2.600  1.00 20.00    -0.086 C 
HETATM    3  C4  UNL     1     -32.785  17.786  -2.760  1.00 20.00     0.045 C 
HETATM    4  C5  UNL     1     -34.143  18.926  -0.948  1.00 20.00     0.020 C 
HETATM    5  C6  UNL     1     -34.809  17.592  -0.562  1.00 20.00     0.005 C 
HETATM    6  C7  UNL     1     -32.754  18.736  -1.557  1.00 20.00     0.051 C 
HETATM    7  C8  UNL     1     -33.563  15.514  -3.623  1.00 20.00     0.043 C 
HETATM    8  C9  UNL     1     -36.299  17.811  -0.296  1.00 20.00     0.014 C 
ENDROOT
BRANCH   6   9
HETATM    9  C3  UNL     1     -31.788  18.257  -0.513  1.00 20.00     0.236 C 
HETATM   10  O10 UNL     1     -30.572  18.382  -0.609  1.00 20.00    -0.306 OA
ENDBRANCH   6   9
TORSDOF 1
ENDMDL
MODEL 7
REMARK VINA RESULT:      -4.2      1.460      3.172
REMARK  1 active torsions:
REMARK  status: ('A' for Active; 'I' for Inactive)
REMARK    1  A    between atoms: C3_3  and  C7_7 
ROOT
HETATM    1  C1  UNL     1     -34.026  16.867  -4.563  1.00 20.00    -0.020 C 
HETATM    2  C2  UNL     1     -34.019  16.556  -3.254  1.00 20.00    -0.086 C 
HETATM    3  C4  UNL     1     -35.043  15.634  -2.638  1.00 20.00     0.045 C 
HETATM    4  C5  UNL     1     -36.281  15.744  -4.848  1.00 20.00     0.020 C 
HETATM    5  C6  UNL     1     -35.055  16.363  -5.542  1.00 20.00     0.005 C 
HETATM    6  C7  UNL     1     -35.903  14.870  -3.652  1.00 20.00     0.051 C 
HETATM    7  C8  UNL     1     -32.983  17.107  -2.318  1.00 20.00     0.043 C 
HETATM    8  C9  UNL     1     -35.499  17.483  -6.485  1.00 20.00     0.014 C 
ENDROOT
BRANCH   6   9
HETATM    9  C3  UNL     1     -35.211  13.622  -4.117  1.00 20.00     0.236 C 
HETATM   10  O10 UNL     1     -35.806  12.607  -4.461  1.00 20.00    -0.306 OA
ENDBRANCH   6   9
TORSDOF 1
ENDMDL
MODEL 8
REMARK VINA RESULT:      -4.0      2.111      3.868
REMARK  1 active torsions:
REMARK  status: ('A' for Active; 'I' for Inactive)
REMARK    1  A    between atoms: C3_3  and  C7_7 
ROOT
HETATM    1  C1  UNL     1     -36.584  16.164  -3.329  1.00 20.00    -0.020 C 
HETATM    2  C2  UNL     1     -35.393  16.113  -2.707  1.00 20.00    -0.086 C 
HETATM    3  C4  UNL     1     -34.326  15.114  -3.086  1.00 20.00     0.045 C 
HETATM    4  C5  UNL     1     -36.071  14.004  -4.553  1.00 20.00     0.020 C 
HETATM    5  C6  UNL     1     -36.997  15.228  -4.436  1.00 20.00     0.005 C 
HETATM    6  C7  UNL     1     -34.594  14.364  -4.396  1.00 20.00     0.051 C 
HETATM    7  C8  UNL     1     -35.044  17.055  -1.592  1.00 20.00     0.043 C 
HETATM    8  C9  UNL     1     -38.445  14.772  -4.247  1.00 20.00     0.014 C 
ENDROOT
BRANCH   6   9
HETATM    9  C3  UNL     1     -34.123  15.159  -5.580  1.00 20.00     0.236 C 
HETATM   10  O10 UNL     1     -33.739  14.650  -6.627  1.00 20.00    -0.306 OA
ENDBRANCH   6   9
TORSDOF 1
ENDMDL
MODEL 9
REMARK VINA RESULT:      -3.9      2.473      3.202
REMARK  1 active torsions:
REMARK  status: ('A' for Active; 'I' for Inactive)
REMARK    1  A    between atoms: C3_3  and  C7_7 
ROOT
HETATM    1  C1  UNL     1     -36.069  16.684  -3.007  1.00 20.00    -0.020 C 
HETATM    2  C2  UNL     1     -35.779  17.009  -4.279  1.00 20.00    -0.086 C 
HETATM    3  C4  UNL     1     -34.377  16.924  -4.835  1.00 20.00     0.045 C 
HETATM    4  C5  UNL     1     -33.600  16.505  -2.458  1.00 20.00     0.020 C 
HETATM    5  C6  UNL     1     -35.044  16.232  -1.999  1.00 20.00     0.005 C 
HETATM    6  C7  UNL     1     -33.381  16.182  -3.936  1.00 20.00     0.051 C 
HETATM    7  C8  UNL     1     -36.837  17.476  -5.235  1.00 20.00     0.043 C 
HETATM    8  C9  UNL     1     -35.292  16.892  -0.641  1.00 20.00     0.014 C 
ENDROOT
BRANCH   6   9
HETATM    9  C3  UNL     1     -33.448  14.699  -4.161  1.00 20.00     0.236 C 
HETATM   10  O10 UNL     1     -33.796  14.192  -5.222  1.00 20.00    -0.306 OA
ENDBRANCH   6   9
TORSDOF 1
ENDMDL
