MODEL 1
REMARK VINA RESULT:      -3.4      0.000      0.000
REMARK  2 active torsions:
REMARK  status: ('A' for Active; 'I' for Inactive)
REMARK    1  A    between atoms: C1_1  and  S6_6 
REMARK    2  A    between atoms: N4_4  and  O5_5 
ROOT
HETATM    1  C1  UNL     1     -34.055   5.081   3.664  1.00 20.00     0.093 C 
HETATM    2  C2  UNL     1     -33.373   4.624   2.399  1.00 20.00     0.081 C 
HETATM    3  N4  UNL     1     -34.868   4.358   4.367  1.00 20.00    -0.134 NA
ENDROOT
BRANCH   1   4
HETATM    4  S6  UNL     1     -33.658   6.725   4.159  1.00 20.00    -0.117 SA
HETATM    5  C3  UNL     1     -32.387   7.176   2.959  1.00 20.00     0.097 C 
ENDBRANCH   1   4
BRANCH   3   6
HETATM    6  O5  UNL     1     -35.332   5.065   5.479  1.00 20.00    -0.266 OA
HETATM    7  H13 UNL     1     -36.293   5.051   5.332  1.00 20.00     0.247 HD
ENDBRANCH   3   6
TORSDOF 2
ENDMDL
MODEL 2
REMARK VINA RESULT:      -3.3     11.783     12.296
REMARK  2 active torsions:
REMARK  status: ('A' for Active; 'I' for Inactive)
REMARK    1  A    between atoms: C1_1  and  S6_6 
REMARK    2  A    between atoms: N4_4  and  O5_5 
ROOT
HETATM    1  C1  UNL     1     -34.901  14.425  -3.822  1.00 20.00     0.093 C 
HETATM    2  C2  UNL     1     -33.898  15.454  -3.363  1.00 20.00     0.081 C 
HETATM    3  N4  UNL     1     -34.634  13.175  -4.028  1.00 20.00    -0.134 NA
ENDROOT
BRANCH   1   4
HETATM    4  S6  UNL     1     -36.532  15.046  -4.065  1.00 20.00    -0.117 SA
HETATM    5  C3  UNL     1     -36.413  15.764  -5.717  1.00 20.00     0.097 C 
ENDBRANCH   1   4
BRANCH   3   6
HETATM    6  O5  UNL     1     -35.772  12.482  -4.446  1.00 20.00    -0.266 OA
HETATM    7  H13 UNL     1     -35.569  12.322  -5.384  1.00 20.00     0.247 HD
ENDBRANCH   3   6
TORSDOF 2
ENDMDL
MODEL 3
REMARK VINA RESULT:      -3.3     12.058     12.321
REMARK  2 active torsions:
REMARK  status: ('A' for Active; 'I' for Inactive)
REMARK    1  A    between atoms: C1_1  and  S6_6 
REMARK    2  A    between atoms: N4_4  and  O5_5 
ROOT
HETATM    1  C1  UNL     1     -36.517  14.694  -4.150  1.00 20.00     0.093 C 
HETATM    2  C2  UNL     1     -37.378  15.928  -4.063  1.00 20.00     0.081 C 
HETATM    3  N4  UNL     1     -36.930  13.532  -4.545  1.00 20.00    -0.134 NA
ENDROOT
BRANCH   1   4
HETATM    4  S6  UNL     1     -34.838  14.935  -3.672  1.00 20.00    -0.117 SA
HETATM    5  C3  UNL     1     -35.017  15.972  -2.205  1.00 20.00     0.097 C 
ENDBRANCH   1   4
BRANCH   3   6
HETATM    6  O5  UNL     1     -35.894  12.595  -4.514  1.00 20.00    -0.266 OA
HETATM    7  H13 UNL     1     -35.797  12.443  -3.558  1.00 20.00     0.247 HD
ENDBRANCH   3   6
TORSDOF 2
ENDMDL
MODEL 4
REMARK VINA RESULT:      -3.3     12.049     12.113
REMARK  2 active torsions:
REMARK  status: ('A' for Active; 'I' for Inactive)
REMARK    1  A    between atoms: C1_1  and  S6_6 
REMARK    2  A    between atoms: N4_4  and  O5_5 
ROOT
HETATM    1  C1  UNL     1     -35.360  14.248  -4.211  1.00 20.00     0.093 C 
HETATM    2  C2  UNL     1     -33.851  14.244  -4.231  1.00 20.00     0.081 C 
HETATM    3  N4  UNL     1     -36.105  13.271  -4.619  1.00 20.00    -0.134 NA
ENDROOT
BRANCH   1   4
HETATM    4  S6  UNL     1     -36.082  15.719  -3.565  1.00 20.00    -0.117 SA
HETATM    5  C3  UNL     1     -35.027  16.053  -2.138  1.00 20.00     0.097 C 
ENDBRANCH   1   4
BRANCH   3   6
HETATM    6  O5  UNL     1     -37.460  13.579  -4.471  1.00 20.00    -0.266 OA
HETATM    7  H13 UNL     1     -37.726  12.959  -3.771  1.00 20.00     0.247 HD
ENDBRANCH   3   6
TORSDOF 2
ENDMDL
MODEL 5
REMARK VINA RESULT:      -3.2     16.975     17.300
REMARK  2 active torsions:
REMARK  status: ('A' for Active; 'I' for Inactive)
REMARK    1  A    between atoms: C1_1  and  S6_6 
REMARK    2  A    between atoms: N4_4  and  O5_5 
ROOT
HETATM    1  C1  UNL     1     -23.635  18.460   8.381  1.00 20.00     0.093 C 
HETATM    2  C2  UNL     1     -24.852  19.181   8.904  1.00 20.00     0.081 C 
HETATM    3  N4  UNL     1     -23.231  18.492   7.151  1.00 20.00    -0.134 NA
ENDROOT
BRANCH   1   4
HETATM    4  S6  UNL     1     -22.750  17.538   9.593  1.00 20.00    -0.117 SA
HETATM    5  C3  UNL     1     -24.070  16.580  10.367  1.00 20.00     0.097 C 
ENDBRANCH   1   4
BRANCH   3   6
HETATM    6  O5  UNL     1     -22.077  17.724   6.983  1.00 20.00    -0.266 OA
HETATM    7  H13 UNL     1     -21.568  17.960   7.778  1.00 20.00     0.247 HD
ENDBRANCH   3   6
TORSDOF 2
ENDMDL
MODEL 6
REMARK VINA RESULT:      -3.2      1.571      1.987
REMARK  2 active torsions:
REMARK  status: ('A' for Active; 'I' for Inactive)
REMARK    1  A    between atoms: C1_1  and  S6_6 
REMARK    2  A    between atoms: N4_4  and  O5_5 
ROOT
HETATM    1  C1  UNL     1     -34.125   6.079   4.759  1.00 20.00     0.093 C 
HETATM    2  C2  UNL     1     -33.368   7.237   5.360  1.00 20.00     0.081 C 
HETATM    3  N4  UNL     1     -35.072   5.428   5.356  1.00 20.00    -0.134 NA
ENDROOT
BRANCH   1   4
HETATM    4  S6  UNL     1     -33.634   5.651   3.122  1.00 20.00    -0.117 SA
HETATM    5  C3  UNL     1     -32.532   7.016   2.697  1.00 20.00     0.097 C 
ENDBRANCH   1   4
BRANCH   3   6
HETATM    6  O5  UNL     1     -35.574   4.413   4.538  1.00 20.00    -0.266 OA
HETATM    7  H13 UNL     1     -36.310   4.867   4.093  1.00 20.00     0.247 HD
ENDBRANCH   3   6
TORSDOF 2
ENDMDL
MODEL 7
REMARK VINA RESULT:      -3.1     17.305     17.385
REMARK  2 active torsions:
REMARK  status: ('A' for Active; 'I' for Inactive)
REMARK    1  A    between atoms: C1_1  and  S6_6 
REMARK    2  A    between atoms: N4_4  and  O5_5 
ROOT
HETATM    1  C1  UNL     1     -23.003  18.026   8.346  1.00 20.00     0.093 C 
HETATM    2  C2  UNL     1     -22.317  17.254   9.445  1.00 20.00     0.081 C 
HETATM    3  N4  UNL     1     -22.647  18.013   7.101  1.00 20.00    -0.134 NA
ENDROOT
BRANCH   1   4
HETATM    4  S6  UNL     1     -24.386  18.982   8.874  1.00 20.00    -0.117 SA
HETATM    5  C3  UNL     1     -24.739  18.260  10.491  1.00 20.00     0.097 C 
ENDBRANCH   1   4
BRANCH   3   6
HETATM    6  O5  UNL     1     -23.481  18.830   6.333  1.00 20.00    -0.266 OA
HETATM    7  H13 UNL     1     -22.924  19.617   6.211  1.00 20.00     0.247 HD
ENDBRANCH   3   6
TORSDOF 2
ENDMDL
MODEL 8
REMARK VINA RESULT:      -3.1     12.669     12.852
REMARK  2 active torsions:
REMARK  status: ('A' for Active; 'I' for Inactive)
REMARK    1  A    between atoms: C1_1  and  S6_6 
REMARK    2  A    between atoms: N4_4  and  O5_5 
ROOT
HETATM    1  C1  UNL     1     -34.131  15.235  -3.931  1.00 20.00     0.093 C 
HETATM    2  C2  UNL     1     -34.508  15.758  -2.568  1.00 20.00     0.081 C 
HETATM    3  N4  UNL     1     -32.953  14.807  -4.257  1.00 20.00    -0.134 NA
ENDROOT
BRANCH   1   4
HETATM    4  S6  UNL     1     -35.444  15.231  -5.106  1.00 20.00    -0.117 SA
HETATM    5  C3  UNL     1     -36.327  13.717  -4.667  1.00 20.00     0.097 C 
ENDBRANCH   1   4
BRANCH   3   6
HETATM    6  O5  UNL     1     -32.923  14.390  -5.590  1.00 20.00    -0.266 OA
HETATM    7  H13 UNL     1     -32.435  13.552  -5.521  1.00 20.00     0.247 HD
ENDBRANCH   3   6
TORSDOF 2
ENDMDL
MODEL 9
REMARK VINA RESULT:      -3.1      2.265      2.549
REMARK  2 active torsions:
REMARK  status: ('A' for Active; 'I' for Inactive)
REMARK    1  A    between atoms: C1_1  and  S6_6 
REMARK    2  A    between atoms: N4_4  and  O5_5 
ROOT
HETATM    1  C1  UNL     1     -34.194   6.165   4.649  1.00 20.00     0.093 C 
HETATM    2  C2  UNL     1     -35.342   5.215   4.413  1.00 20.00     0.081 C 
HETATM    3  N4  UNL     1     -33.920   6.724   5.785  1.00 20.00    -0.134 NA
ENDROOT
BRANCH   1   4
HETATM    4  S6  UNL     1     -33.197   6.478   3.230  1.00 20.00    -0.117 SA
HETATM    5  C3  UNL     1     -33.167   4.857   2.435  1.00 20.00     0.097 C 
ENDBRANCH   1   4
BRANCH   3   6
HETATM    6  O5  UNL     1     -32.798   7.549   5.678  1.00 20.00    -0.266 OA
HETATM    7  H13 UNL     1     -32.211   7.009   5.122  1.00 20.00     0.247 HD
ENDBRANCH   3   6
TORSDOF 2
ENDMDL
