MODEL 1
REMARK VINA RESULT:      -5.8      0.000      0.000
REMARK  1 active torsions:
REMARK  status: ('A' for Active; 'I' for Inactive)
REMARK    1  A    between atoms: C3_3  and  C6_6 
ROOT
HETATM    1  C1  UNL     1     -34.249   6.451   6.080  1.00 20.00    -0.030 C 
HETATM    2  C2  UNL     1     -34.880   5.306   5.793  1.00 20.00    -0.030 C 
HETATM    3  C4  UNL     1     -33.372   7.172   5.102  1.00 20.00     0.038 C 
HETATM    4  C5  UNL     1     -34.756   4.612   4.471  1.00 20.00     0.031 C 
HETATM    5  C6  UNL     1     -33.501   6.656   3.659  1.00 20.00     0.054 C 
HETATM    6  C7  UNL     1     -33.577   5.118   3.615  1.00 20.00    -0.004 C 
HETATM    7  C8  UNL     1     -33.715   4.583   2.186  1.00 20.00     0.011 C 
ENDROOT
BRANCH   5   8
HETATM    8  C3  UNL     1     -32.324   7.168   2.882  1.00 20.00     0.236 C 
HETATM    9  O9  UNL     1     -32.426   7.757   1.811  1.00 20.00    -0.306 OA
ENDBRANCH   5   8
TORSDOF 1
ENDMDL
MODEL 2
REMARK VINA RESULT:      -5.1      1.289      2.564
REMARK  1 active torsions:
REMARK  status: ('A' for Active; 'I' for Inactive)
REMARK    1  A    between atoms: C3_3  and  C6_6 
ROOT
HETATM    1  C1  UNL     1     -34.952   5.342   5.827  1.00 20.00    -0.030 C 
HETATM    2  C2  UNL     1     -34.310   6.465   6.174  1.00 20.00    -0.030 C 
HETATM    3  C4  UNL     1     -34.766   4.668   4.503  1.00 20.00     0.038 C 
HETATM    4  C5  UNL     1     -33.358   7.178   5.264  1.00 20.00     0.031 C 
HETATM    5  C6  UNL     1     -33.562   5.194   3.704  1.00 20.00     0.054 C 
HETATM    6  C7  UNL     1     -33.456   6.729   3.792  1.00 20.00    -0.004 C 
HETATM    7  C8  UNL     1     -32.257   7.274   3.009  1.00 20.00     0.011 C 
ENDROOT
BRANCH   5   8
HETATM    8  C3  UNL     1     -33.719   4.738   2.283  1.00 20.00     0.236 C 
HETATM    9  O9  UNL     1     -32.958   3.947   1.739  1.00 20.00    -0.306 OA
ENDBRANCH   5   8
TORSDOF 1
ENDMDL
MODEL 3
REMARK VINA RESULT:      -4.6     11.599     12.149
REMARK  1 active torsions:
REMARK  status: ('A' for Active; 'I' for Inactive)
REMARK    1  A    between atoms: C3_3  and  C6_6 
ROOT
HETATM    1  C1  UNL     1     -35.407  16.869  -2.131  1.00 20.00    -0.030 C 
HETATM    2  C2  UNL     1     -34.087  17.087  -2.114  1.00 20.00    -0.030 C 
HETATM    3  C4  UNL     1     -36.046  15.764  -2.914  1.00 20.00     0.038 C 
HETATM    4  C5  UNL     1     -33.111  16.265  -2.898  1.00 20.00     0.031 C 
HETATM    5  C6  UNL     1     -35.045  14.725  -3.447  1.00 20.00     0.054 C 
HETATM    6  C7  UNL     1     -33.770  15.399  -3.991  1.00 20.00    -0.004 C 
HETATM    7  C8  UNL     1     -32.755  14.381  -4.519  1.00 20.00     0.011 C 
ENDROOT
BRANCH   5   8
HETATM    8  C3  UNL     1     -35.736  13.925  -4.511  1.00 20.00     0.236 C 
HETATM    9  O9  UNL     1     -35.853  12.705  -4.471  1.00 20.00    -0.306 OA
ENDBRANCH   5   8
TORSDOF 1
ENDMDL
MODEL 4
REMARK VINA RESULT:      -4.3     11.980     12.683
REMARK  1 active torsions:
REMARK  status: ('A' for Active; 'I' for Inactive)
REMARK    1  A    between atoms: C3_3  and  C6_6 
ROOT
HETATM    1  C1  UNL     1     -34.117  15.796  -2.690  1.00 20.00    -0.030 C 
HETATM    2  C2  UNL     1     -33.266  15.647  -3.713  1.00 20.00    -0.030 C 
HETATM    3  C4  UNL     1     -35.584  15.511  -2.794  1.00 20.00     0.038 C 
HETATM    4  C5  UNL     1     -33.697  15.204  -5.077  1.00 20.00     0.031 C 
HETATM    5  C6  UNL     1     -35.976  14.749  -4.071  1.00 20.00     0.054 C 
HETATM    6  C7  UNL     1     -35.220  15.286  -5.302  1.00 20.00    -0.004 C 
HETATM    7  C8  UNL     1     -35.590  14.535  -6.585  1.00 20.00     0.011 C 
ENDROOT
BRANCH   5   8
HETATM    8  C3  UNL     1     -37.461  14.875  -4.244  1.00 20.00     0.236 C 
HETATM    9  O9  UNL     1     -38.215  13.913  -4.330  1.00 20.00    -0.306 OA
ENDBRANCH   5   8
TORSDOF 1
ENDMDL
MODEL 5
REMARK VINA RESULT:      -4.3     11.778     12.538
REMARK  1 active torsions:
REMARK  status: ('A' for Active; 'I' for Inactive)
REMARK    1  A    between atoms: C3_3  and  C6_6 
ROOT
HETATM    1  C1  UNL     1     -32.942  15.415  -3.640  1.00 20.00    -0.030 C 
HETATM    2  C2  UNL     1     -33.349  16.585  -3.133  1.00 20.00    -0.030 C 
HETATM    3  C4  UNL     1     -33.880  14.403  -4.222  1.00 20.00     0.038 C 
HETATM    4  C5  UNL     1     -34.790  16.994  -3.070  1.00 20.00     0.031 C 
HETATM    5  C6  UNL     1     -35.299  14.943  -4.466  1.00 20.00     0.054 C 
HETATM    6  C7  UNL     1     -35.773  15.828  -3.297  1.00 20.00    -0.004 C 
HETATM    7  C8  UNL     1     -37.183  16.383  -3.522  1.00 20.00     0.011 C 
ENDROOT
BRANCH   5   8
HETATM    8  C3  UNL     1     -36.210  13.767  -4.665  1.00 20.00     0.236 C 
HETATM    9  O9  UNL     1     -35.870  12.607  -4.461  1.00 20.00    -0.306 OA
ENDBRANCH   5   8
TORSDOF 1
ENDMDL
MODEL 6
REMARK VINA RESULT:      -4.3      1.944      3.836
REMARK  1 active torsions:
REMARK  status: ('A' for Active; 'I' for Inactive)
REMARK    1  A    between atoms: C3_3  and  C6_6 
ROOT
HETATM    1  C1  UNL     1     -32.360   6.603   2.215  1.00 20.00    -0.030 C 
HETATM    2  C2  UNL     1     -31.971   7.600   3.020  1.00 20.00    -0.030 C 
HETATM    3  C4  UNL     1     -33.409   5.604   2.596  1.00 20.00     0.038 C 
HETATM    4  C5  UNL     1     -32.525   7.804   4.397  1.00 20.00     0.031 C 
HETATM    5  C6  UNL     1     -34.209   5.995   3.849  1.00 20.00     0.054 C 
HETATM    6  C7  UNL     1     -33.295   6.584   4.941  1.00 20.00    -0.004 C 
HETATM    7  C8  UNL     1     -34.074   6.989   6.196  1.00 20.00     0.011 C 
ENDROOT
BRANCH   5   8
HETATM    8  C3  UNL     1     -34.924   4.769   4.339  1.00 20.00     0.236 C 
HETATM    9  O9  UNL     1     -34.477   3.634   4.220  1.00 20.00    -0.306 OA
ENDBRANCH   5   8
TORSDOF 1
ENDMDL
MODEL 7
REMARK VINA RESULT:      -4.2     12.060     12.884
REMARK  1 active torsions:
REMARK  status: ('A' for Active; 'I' for Inactive)
REMARK    1  A    between atoms: C3_3  and  C6_6 
ROOT
HETATM    1  C1  UNL     1     -34.079  16.019  -3.210  1.00 20.00    -0.030 C 
HETATM    2  C2  UNL     1     -35.112  15.902  -2.367  1.00 20.00    -0.030 C 
HETATM    3  C4  UNL     1     -32.909  16.917  -2.953  1.00 20.00     0.038 C 
HETATM    4  C5  UNL     1     -35.219  16.677  -1.090  1.00 20.00     0.031 C 
HETATM    5  C6  UNL     1     -32.846  17.455  -1.514  1.00 20.00     0.054 C 
HETATM    6  C7  UNL     1     -34.242  17.867  -1.006  1.00 20.00    -0.004 C 
HETATM    7  C8  UNL     1     -34.204  18.398   0.431  1.00 20.00     0.011 C 
ENDROOT
BRANCH   5   8
HETATM    8  C3  UNL     1     -31.895  18.615  -1.498  1.00 20.00     0.236 C 
HETATM    9  O9  UNL     1     -30.846  18.619  -0.863  1.00 20.00    -0.306 OA
ENDBRANCH   5   8
TORSDOF 1
ENDMDL
MODEL 8
REMARK VINA RESULT:      -4.2      0.794      2.456
REMARK  1 active torsions:
REMARK  status: ('A' for Active; 'I' for Inactive)
REMARK    1  A    between atoms: C3_3  and  C6_6 
ROOT
HETATM    1  C1  UNL     1     -34.188   4.207   3.122  1.00 20.00    -0.030 C 
HETATM    2  C2  UNL     1     -34.681   4.236   4.366  1.00 20.00    -0.030 C 
HETATM    3  C4  UNL     1     -33.349   5.305   2.545  1.00 20.00     0.038 C 
HETATM    4  C5  UNL     1     -34.466   5.384   5.304  1.00 20.00     0.031 C 
HETATM    5  C6  UNL     1     -32.850   6.316   3.592  1.00 20.00     0.054 C 
HETATM    6  C7  UNL     1     -33.954   6.662   4.610  1.00 20.00    -0.004 C 
HETATM    7  C8  UNL     1     -33.475   7.662   5.668  1.00 20.00     0.011 C 
ENDROOT
BRANCH   5   8
HETATM    8  C3  UNL     1     -32.379   7.539   2.861  1.00 20.00     0.236 C 
HETATM    9  O9  UNL     1     -32.444   7.665   1.643  1.00 20.00    -0.306 OA
ENDBRANCH   5   8
TORSDOF 1
ENDMDL
MODEL 9
REMARK VINA RESULT:      -4.2     16.329     16.759
REMARK  1 active torsions:
REMARK  status: ('A' for Active; 'I' for Inactive)
REMARK    1  A    between atoms: C3_3  and  C6_6 
ROOT
HETATM    1  C1  UNL     1     -25.388  18.511  11.786  1.00 20.00    -0.030 C 
HETATM    2  C2  UNL     1     -24.358  17.829  12.303  1.00 20.00    -0.030 C 
HETATM    3  C4  UNL     1     -25.446  18.952  10.356  1.00 20.00     0.038 C 
HETATM    4  C5  UNL     1     -23.142  17.459  11.510  1.00 20.00     0.031 C 
HETATM    5  C6  UNL     1     -24.376  18.300   9.464  1.00 20.00     0.054 C 
HETATM    6  C7  UNL     1     -23.013  18.229  10.180  1.00 20.00    -0.004 C 
HETATM    7  C8  UNL     1     -21.934  17.575   9.312  1.00 20.00     0.011 C 
ENDROOT
BRANCH   5   8
HETATM    8  C3  UNL     1     -24.287  19.097   8.197  1.00 20.00     0.236 C 
HETATM    9  O9  UNL     1     -24.385  18.603   7.079  1.00 20.00    -0.306 OA
ENDBRANCH   5   8
TORSDOF 1
ENDMDL
