MODEL 1
REMARK VINA RESULT:      -5.6      0.000      0.000
REMARK  3 active torsions:
REMARK  status: ('A' for Active; 'I' for Inactive)
REMARK    1  A    between atoms: C3_3  and  C8_8 
REMARK    2  A    between atoms: C4_4  and  C10_10 
REMARK    3  A    between atoms: C10_10  and  O11_11 
ROOT
HETATM    1  C1  UNL     1     -34.810   5.003   5.574  1.00 20.00    -0.031 C 
HETATM    2  C2  UNL     1     -34.371   6.199   5.991  1.00 20.00    -0.030 C 
HETATM    3  C5  UNL     1     -34.530   4.459   4.204  1.00 20.00     0.027 C 
HETATM    4  C6  UNL     1     -33.524   7.103   5.145  1.00 20.00     0.035 C 
HETATM    5  C7  UNL     1     -33.996   5.518   3.237  1.00 20.00     0.012 C 
HETATM    6  C8  UNL     1     -32.952   6.399   3.913  1.00 20.00     0.011 C 
ENDROOT
BRANCH   6   7
HETATM    7  C3  UNL     1     -32.529   7.465   2.920  1.00 20.00    -0.023 C 
HETATM    8  C4  UNL     1     -33.011   7.555   1.672  1.00 20.00     0.000 C 
BRANCH   8   9
HETATM    9  C10 UNL     1     -32.591   8.611   0.692  1.00 20.00     0.136 C 
HETATM   10  C9  UNL     1     -33.388   8.514  -0.601  1.00 20.00     0.043 C 
BRANCH   9  11
HETATM   11  O11 UNL     1     -32.824   9.884   1.290  1.00 20.00    -0.392 OA
HETATM   12  H27 UNL     1     -31.955  10.293   1.418  1.00 20.00     0.210 HD
ENDBRANCH   9  11
ENDBRANCH   8   9
ENDBRANCH   6   7
TORSDOF 3
ENDMDL
MODEL 2
REMARK VINA RESULT:      -5.1     10.612     11.510
REMARK  3 active torsions:
REMARK  status: ('A' for Active; 'I' for Inactive)
REMARK    1  A    between atoms: C3_3  and  C8_8 
REMARK    2  A    between atoms: C4_4  and  C10_10 
REMARK    3  A    between atoms: C10_10  and  O11_11 
ROOT
HETATM    1  C1  UNL     1     -32.955  18.413  -0.680  1.00 20.00    -0.031 C 
HETATM    2  C2  UNL     1     -32.530  17.968  -1.871  1.00 20.00    -0.030 C 
HETATM    3  C5  UNL     1     -34.249  17.977  -0.057  1.00 20.00     0.027 C 
HETATM    4  C6  UNL     1     -33.284  16.963  -2.690  1.00 20.00     0.035 C 
HETATM    5  C7  UNL     1     -35.174  17.256  -1.040  1.00 20.00     0.012 C 
HETATM    6  C8  UNL     1     -34.394  16.267  -1.900  1.00 20.00     0.011 C 
ENDROOT
BRANCH   6   7
HETATM    7  C3  UNL     1     -35.361  15.652  -2.894  1.00 20.00    -0.023 C 
HETATM    8  C4  UNL     1     -35.079  14.571  -3.637  1.00 20.00     0.000 C 
BRANCH   8   9
HETATM    9  C10 UNL     1     -36.038  13.965  -4.619  1.00 20.00     0.136 C 
HETATM   10  C9  UNL     1     -35.773  14.467  -6.032  1.00 20.00     0.043 C 
BRANCH   9  11
HETATM   11  O11 UNL     1     -35.866  12.551  -4.586  1.00 20.00    -0.392 OA
HETATM   12  H27 UNL     1     -36.753  12.163  -4.646  1.00 20.00     0.210 HD
ENDBRANCH   9  11
ENDBRANCH   8   9
ENDBRANCH   6   7
TORSDOF 3
ENDMDL
MODEL 3
REMARK VINA RESULT:      -5.1     10.866     11.731
REMARK  3 active torsions:
REMARK  status: ('A' for Active; 'I' for Inactive)
REMARK    1  A    between atoms: C3_3  and  C8_8 
REMARK    2  A    between atoms: C4_4  and  C10_10 
REMARK    3  A    between atoms: C10_10  and  O11_11 
ROOT
HETATM    1  C1  UNL     1     -34.743  14.382  -4.284  1.00 20.00    -0.031 C 
HETATM    2  C2  UNL     1     -33.458  14.765  -4.289  1.00 20.00    -0.030 C 
HETATM    3  C5  UNL     1     -35.780  15.004  -3.396  1.00 20.00     0.027 C 
HETATM    4  C6  UNL     1     -32.930  15.878  -3.433  1.00 20.00     0.035 C 
HETATM    5  C7  UNL     1     -35.178  15.863  -2.281  1.00 20.00     0.012 C 
HETATM    6  C8  UNL     1     -34.041  16.728  -2.813  1.00 20.00     0.011 C 
ENDROOT
BRANCH   6   7
HETATM    7  C3  UNL     1     -33.448  17.489  -1.642  1.00 20.00    -0.023 C 
HETATM    8  C4  UNL     1     -32.237  18.063  -1.662  1.00 20.00     0.000 C 
BRANCH   8   9
HETATM    9  C10 UNL     1     -31.655  18.816  -0.501  1.00 20.00     0.136 C 
HETATM   10  C9  UNL     1     -32.457  18.578   0.771  1.00 20.00     0.043 C 
BRANCH   9  11
HETATM   11  O11 UNL     1     -30.320  18.356  -0.305  1.00 20.00    -0.392 OA
HETATM   12  H27 UNL     1     -30.066  17.887  -1.114  1.00 20.00     0.210 HD
ENDBRANCH   9  11
ENDBRANCH   8   9
ENDBRANCH   6   7
TORSDOF 3
ENDMDL
MODEL 4
REMARK VINA RESULT:      -5.0     11.014     11.741
REMARK  3 active torsions:
REMARK  status: ('A' for Active; 'I' for Inactive)
REMARK    1  A    between atoms: C3_3  and  C8_8 
REMARK    2  A    between atoms: C4_4  and  C10_10 
REMARK    3  A    between atoms: C10_10  and  O11_11 
ROOT
HETATM    1  C1  UNL     1     -34.083  17.698  -0.686  1.00 20.00    -0.031 C 
HETATM    2  C2  UNL     1     -33.042  17.763  -1.529  1.00 20.00    -0.030 C 
HETATM    3  C5  UNL     1     -35.273  16.814  -0.922  1.00 20.00     0.027 C 
HETATM    4  C6  UNL     1     -32.941  16.935  -2.776  1.00 20.00     0.035 C 
HETATM    5  C7  UNL     1     -35.338  16.264  -2.348  1.00 20.00     0.012 C 
HETATM    6  C8  UNL     1     -33.964  15.798  -2.817  1.00 20.00     0.011 C 
ENDROOT
BRANCH   6   7
HETATM    7  C3  UNL     1     -34.095  15.340  -4.258  1.00 20.00    -0.023 C 
HETATM    8  C4  UNL     1     -35.173  15.574  -5.020  1.00 20.00     0.000 C 
BRANCH   8   9
HETATM    9  C10 UNL     1     -35.298  15.120  -6.444  1.00 20.00     0.136 C 
HETATM   10  C9  UNL     1     -33.944  15.097  -7.139  1.00 20.00     0.043 C 
BRANCH   9  11
HETATM   11  O11 UNL     1     -35.843  13.802  -6.439  1.00 20.00    -0.392 OA
HETATM   12  H27 UNL     1     -35.237  13.251  -6.958  1.00 20.00     0.210 HD
ENDBRANCH   9  11
ENDBRANCH   8   9
ENDBRANCH   6   7
TORSDOF 3
ENDMDL
MODEL 5
REMARK VINA RESULT:      -4.8     10.833     11.467
REMARK  3 active torsions:
REMARK  status: ('A' for Active; 'I' for Inactive)
REMARK    1  A    between atoms: C3_3  and  C8_8 
REMARK    2  A    between atoms: C4_4  and  C10_10 
REMARK    3  A    between atoms: C10_10  and  O11_11 
ROOT
HETATM    1  C1  UNL     1     -34.396  18.202   0.625  1.00 20.00    -0.031 C 
HETATM    2  C2  UNL     1     -35.203  17.292   0.060  1.00 20.00    -0.030 C 
HETATM    3  C5  UNL     1     -33.138  18.697  -0.026  1.00 20.00     0.027 C 
HETATM    4  C6  UNL     1     -34.953  16.701  -1.296  1.00 20.00     0.035 C 
HETATM    5  C7  UNL     1     -32.698  17.836  -1.213  1.00 20.00     0.012 C 
HETATM    6  C8  UNL     1     -33.889  17.463  -2.088  1.00 20.00     0.011 C 
ENDROOT
BRANCH   6   7
HETATM    7  C3  UNL     1     -33.388  16.552  -3.193  1.00 20.00    -0.023 C 
HETATM    8  C4  UNL     1     -33.930  15.360  -3.480  1.00 20.00     0.000 C 
BRANCH   8   9
HETATM    9  C10 UNL     1     -33.431  14.462  -4.574  1.00 20.00     0.136 C 
HETATM   10  C9  UNL     1     -33.936  14.918  -5.936  1.00 20.00     0.043 C 
BRANCH   9  11
HETATM   11  O11 UNL     1     -32.006  14.507  -4.565  1.00 20.00    -0.392 OA
HETATM   12  H27 UNL     1     -31.741  14.691  -3.651  1.00 20.00     0.210 HD
ENDBRANCH   9  11
ENDBRANCH   8   9
ENDBRANCH   6   7
TORSDOF 3
ENDMDL
MODEL 6
REMARK VINA RESULT:      -4.7     10.688     11.661
REMARK  3 active torsions:
REMARK  status: ('A' for Active; 'I' for Inactive)
REMARK    1  A    between atoms: C3_3  and  C8_8 
REMARK    2  A    between atoms: C4_4  and  C10_10 
REMARK    3  A    between atoms: C10_10  and  O11_11 
ROOT
HETATM    1  C1  UNL     1     -32.995  19.058   0.295  1.00 20.00    -0.031 C 
HETATM    2  C2  UNL     1     -34.115  18.347   0.490  1.00 20.00    -0.030 C 
HETATM    3  C5  UNL     1     -32.137  18.916  -0.927  1.00 20.00     0.027 C 
HETATM    4  C6  UNL     1     -34.647  17.362  -0.509  1.00 20.00     0.035 C 
HETATM    5  C7  UNL     1     -32.470  17.671  -1.752  1.00 20.00     0.012 C 
HETATM    6  C8  UNL     1     -33.979  17.488  -1.879  1.00 20.00     0.011 C 
ENDROOT
BRANCH   6   7
HETATM    7  C3  UNL     1     -34.229  16.199  -2.641  1.00 20.00    -0.023 C 
HETATM    8  C4  UNL     1     -33.350  15.657  -3.496  1.00 20.00     0.000 C 
BRANCH   8   9
HETATM    9  C10 UNL     1     -33.600  14.382  -4.247  1.00 20.00     0.136 C 
HETATM   10  C9  UNL     1     -35.076  14.008  -4.225  1.00 20.00     0.043 C 
BRANCH   9  11
HETATM   11  O11 UNL     1     -33.188  14.578  -5.597  1.00 20.00    -0.392 OA
HETATM   12  H27 UNL     1     -32.794  13.742  -5.890  1.00 20.00     0.210 HD
ENDBRANCH   9  11
ENDBRANCH   8   9
ENDBRANCH   6   7
TORSDOF 3
ENDMDL
MODEL 7
REMARK VINA RESULT:      -4.7     11.137     11.796
REMARK  3 active torsions:
REMARK  status: ('A' for Active; 'I' for Inactive)
REMARK    1  A    between atoms: C3_3  and  C8_8 
REMARK    2  A    between atoms: C4_4  and  C10_10 
REMARK    3  A    between atoms: C10_10  and  O11_11 
ROOT
HETATM    1  C1  UNL     1     -34.191  17.882  -0.144  1.00 20.00    -0.031 C 
HETATM    2  C2  UNL     1     -33.065  18.145  -0.822  1.00 20.00    -0.030 C 
HETATM    3  C5  UNL     1     -35.263  16.967  -0.659  1.00 20.00     0.027 C 
HETATM    4  C6  UNL     1     -32.741  17.526  -2.149  1.00 20.00     0.035 C 
HETATM    5  C7  UNL     1     -35.106  16.638  -2.146  1.00 20.00     0.012 C 
HETATM    6  C8  UNL     1     -33.650  16.343  -2.489  1.00 20.00     0.011 C 
ENDROOT
BRANCH   6   7
HETATM    7  C3  UNL     1     -33.564  16.102  -3.984  1.00 20.00    -0.023 C 
HETATM    8  C4  UNL     1     -34.446  15.363  -4.672  1.00 20.00     0.000 C 
BRANCH   8   9
HETATM    9  C10 UNL     1     -34.358  15.128  -6.152  1.00 20.00     0.136 C 
HETATM   10  C9  UNL     1     -34.420  16.438  -6.925  1.00 20.00     0.043 C 
BRANCH   9  11
HETATM   11  O11 UNL     1     -33.115  14.484  -6.422  1.00 20.00    -0.392 OA
HETATM   12  H27 UNL     1     -32.649  14.418  -5.574  1.00 20.00     0.210 HD
ENDBRANCH   9  11
ENDBRANCH   8   9
ENDBRANCH   6   7
TORSDOF 3
ENDMDL
MODEL 8
REMARK VINA RESULT:      -4.5     10.506     11.569
REMARK  3 active torsions:
REMARK  status: ('A' for Active; 'I' for Inactive)
REMARK    1  A    between atoms: C3_3  and  C8_8 
REMARK    2  A    between atoms: C4_4  and  C10_10 
REMARK    3  A    between atoms: C10_10  and  O11_11 
ROOT
HETATM    1  C1  UNL     1     -33.288  18.354  -0.189  1.00 20.00    -0.031 C 
HETATM    2  C2  UNL     1     -34.468  17.780   0.088  1.00 20.00    -0.030 C 
HETATM    3  C5  UNL     1     -32.566  18.157  -1.490  1.00 20.00     0.027 C 
HETATM    4  C6  UNL     1     -35.207  16.910  -0.886  1.00 20.00     0.035 C 
HETATM    5  C7  UNL     1     -33.127  16.998  -2.317  1.00 20.00     0.012 C 
HETATM    6  C8  UNL     1     -34.652  17.008  -2.309  1.00 20.00     0.011 C 
ENDROOT
BRANCH   6   7
HETATM    7  C3  UNL     1     -35.130  15.793  -3.081  1.00 20.00    -0.023 C 
HETATM    8  C4  UNL     1     -36.324  15.716  -3.686  1.00 20.00     0.000 C 
BRANCH   8   9
HETATM    9  C10 UNL     1     -36.793  14.513  -4.450  1.00 20.00     0.136 C 
HETATM   10  C9  UNL     1     -35.797  13.366  -4.341  1.00 20.00     0.043 C 
BRANCH   9  11
HETATM   11  O11 UNL     1     -38.042  14.102  -3.899  1.00 20.00    -0.392 OA
HETATM   12  H27 UNL     1     -38.183  14.637  -3.104  1.00 20.00     0.210 HD
ENDBRANCH   9  11
ENDBRANCH   8   9
ENDBRANCH   6   7
TORSDOF 3
ENDMDL
MODEL 9
REMARK VINA RESULT:      -4.4     10.865     11.795
REMARK  3 active torsions:
REMARK  status: ('A' for Active; 'I' for Inactive)
REMARK    1  A    between atoms: C3_3  and  C8_8 
REMARK    2  A    between atoms: C4_4  and  C10_10 
REMARK    3  A    between atoms: C10_10  and  O11_11 
ROOT
HETATM    1  C1  UNL     1     -33.051  18.001  -1.104  1.00 20.00    -0.031 C 
HETATM    2  C2  UNL     1     -32.623  17.539  -2.288  1.00 20.00    -0.030 C 
HETATM    3  C5  UNL     1     -34.354  17.587  -0.486  1.00 20.00     0.027 C 
HETATM    4  C6  UNL     1     -33.384  16.535  -3.102  1.00 20.00     0.035 C 
HETATM    5  C7  UNL     1     -35.281  16.867  -1.468  1.00 20.00     0.012 C 
HETATM    6  C8  UNL     1     -34.508  15.861  -2.313  1.00 20.00     0.011 C 
ENDROOT
BRANCH   6   7
HETATM    7  C3  UNL     1     -35.475  15.247  -3.307  1.00 20.00    -0.023 C 
HETATM    8  C4  UNL     1     -36.673  15.771  -3.602  1.00 20.00     0.000 C 
BRANCH   8   9
HETATM    9  C10 UNL     1     -37.627  15.162  -4.587  1.00 20.00     0.136 C 
HETATM   10  C9  UNL     1     -37.336  15.636  -6.005  1.00 20.00     0.043 C 
BRANCH   9  11
HETATM   11  O11 UNL     1     -37.477  13.746  -4.527  1.00 20.00    -0.392 OA
HETATM   12  H27 UNL     1     -36.528  13.573  -4.420  1.00 20.00     0.210 HD
ENDBRANCH   9  11
ENDBRANCH   8   9
ENDBRANCH   6   7
TORSDOF 3
ENDMDL
