MODEL 1
REMARK VINA RESULT:      -4.6      0.000      0.000
REMARK  0 active torsions:
REMARK  status: ('A' for Active; 'I' for Inactive)
ROOT
HETATM    1  C1  UNL     1     -34.392   6.510   6.170  1.00 20.00     0.000 C 
HETATM    2  C2  UNL     1     -33.236   7.047   5.324  1.00 20.00     0.003 C 
HETATM    3  C3  UNL     1     -34.751   5.073   5.786  1.00 20.00     0.003 C 
HETATM    4  C4  UNL     1     -33.537   6.936   3.829  1.00 20.00     0.040 C 
HETATM    5  C5  UNL     1     -35.059   4.952   4.293  1.00 20.00     0.040 C 
HETATM    6  C6  UNL     1     -32.964   4.618   2.772  1.00 20.00     0.207 A 
HETATM    7  C7  UNL     1     -33.932   5.529   3.488  1.00 20.00     0.082 A 
HETATM    8  O8  UNL     1     -34.034   5.278   2.080  1.00 20.00    -0.375 OA
ENDROOT
TORSDOF 0
ENDMDL
MODEL 2
REMARK VINA RESULT:      -4.3      1.092      2.299
REMARK  0 active torsions:
REMARK  status: ('A' for Active; 'I' for Inactive)
ROOT
HETATM    1  C1  UNL     1     -34.822   5.404   5.702  1.00 20.00     0.000 C 
HETATM    2  C2  UNL     1     -35.062   4.978   4.252  1.00 20.00     0.003 C 
HETATM    3  C3  UNL     1     -34.266   6.828   5.786  1.00 20.00     0.003 C 
HETATM    4  C4  UNL     1     -33.795   5.124   3.408  1.00 20.00     0.040 C 
HETATM    5  C5  UNL     1     -32.995   6.983   4.949  1.00 20.00     0.040 C 
HETATM    6  C6  UNL     1     -33.411   7.513   2.426  1.00 20.00     0.207 A 
HETATM    7  C7  UNL     1     -33.245   6.513   3.546  1.00 20.00     0.082 A 
HETATM    8  O8  UNL     1     -32.178   6.809   2.635  1.00 20.00    -0.375 OA
ENDROOT
TORSDOF 0
ENDMDL
MODEL 3
REMARK VINA RESULT:      -4.3      1.255      1.838
REMARK  0 active torsions:
REMARK  status: ('A' for Active; 'I' for Inactive)
ROOT
HETATM    1  C1  UNL     1     -34.858   4.881   5.276  1.00 20.00     0.000 C 
HETATM    2  C2  UNL     1     -34.226   6.197   5.734  1.00 20.00     0.003 C 
HETATM    3  C3  UNL     1     -34.089   4.263   4.105  1.00 20.00     0.003 C 
HETATM    4  C4  UNL     1     -34.096   7.188   4.577  1.00 20.00     0.040 C 
HETATM    5  C5  UNL     1     -33.958   5.246   2.941  1.00 20.00     0.040 C 
HETATM    6  C6  UNL     1     -31.943   6.896   3.129  1.00 20.00     0.207 A 
HETATM    7  C7  UNL     1     -33.382   6.543   3.427  1.00 20.00     0.082 A 
HETATM    8  O8  UNL     1     -33.030   7.453   2.375  1.00 20.00    -0.375 OA
ENDROOT
TORSDOF 0
ENDMDL
MODEL 4
REMARK VINA RESULT:      -4.0     12.276     12.742
REMARK  0 active torsions:
REMARK  status: ('A' for Active; 'I' for Inactive)
ROOT
HETATM    1  C1  UNL     1     -34.136  16.061  -2.421  1.00 20.00     0.000 C 
HETATM    2  C2  UNL     1     -35.588  16.223  -2.876  1.00 20.00     0.003 C 
HETATM    3  C3  UNL     1     -33.211  15.731  -3.594  1.00 20.00     0.003 C 
HETATM    4  C4  UNL     1     -36.079  14.988  -3.632  1.00 20.00     0.040 C 
HETATM    5  C5  UNL     1     -33.691  14.494  -4.354  1.00 20.00     0.040 C 
HETATM    6  C6  UNL     1     -35.498  14.969  -6.178  1.00 20.00     0.207 A 
HETATM    7  C7  UNL     1     -35.129  14.658  -4.746  1.00 20.00     0.082 A 
HETATM    8  O8  UNL     1     -35.609  13.644  -5.639  1.00 20.00    -0.375 OA
ENDROOT
TORSDOF 0
ENDMDL
MODEL 5
REMARK VINA RESULT:      -4.0     12.289     12.877
REMARK  0 active torsions:
REMARK  status: ('A' for Active; 'I' for Inactive)
ROOT
HETATM    1  C1  UNL     1     -34.536  16.287  -1.959  1.00 20.00     0.000 C 
HETATM    2  C2  UNL     1     -35.750  15.943  -2.824  1.00 20.00     0.003 C 
HETATM    3  C3  UNL     1     -33.312  16.625  -2.813  1.00 20.00     0.003 C 
HETATM    4  C4  UNL     1     -35.436  14.813  -3.806  1.00 20.00     0.040 C 
HETATM    5  C5  UNL     1     -32.987  15.499  -3.795  1.00 20.00     0.040 C 
HETATM    6  C6  UNL     1     -34.322  15.589  -6.037  1.00 20.00     0.207 A 
HETATM    7  C7  UNL     1     -34.205  15.149  -4.596  1.00 20.00     0.082 A 
HETATM    8  O8  UNL     1     -33.948  14.249  -5.683  1.00 20.00    -0.375 OA
ENDROOT
TORSDOF 0
ENDMDL
MODEL 6
REMARK VINA RESULT:      -3.9      1.690      3.207
REMARK  0 active torsions:
REMARK  status: ('A' for Active; 'I' for Inactive)
ROOT
HETATM    1  C1  UNL     1     -32.808   6.354   2.431  1.00 20.00     0.000 C 
HETATM    2  C2  UNL     1     -33.261   4.913   2.676  1.00 20.00     0.003 C 
HETATM    3  C3  UNL     1     -32.596   7.110   3.745  1.00 20.00     0.003 C 
HETATM    4  C4  UNL     1     -34.515   4.861   3.548  1.00 20.00     0.040 C 
HETATM    5  C5  UNL     1     -33.847   7.068   4.622  1.00 20.00     0.040 C 
HETATM    6  C6  UNL     1     -34.058   4.939   6.118  1.00 20.00     0.207 A 
HETATM    7  C7  UNL     1     -34.298   5.649   4.807  1.00 20.00     0.082 A 
HETATM    8  O8  UNL     1     -35.339   5.491   5.780  1.00 20.00    -0.375 OA
ENDROOT
TORSDOF 0
ENDMDL
MODEL 7
REMARK VINA RESULT:      -3.9     12.186     12.698
REMARK  0 active torsions:
REMARK  status: ('A' for Active; 'I' for Inactive)
ROOT
HETATM    1  C1  UNL     1     -33.437  16.082  -3.033  1.00 20.00     0.000 C 
HETATM    2  C2  UNL     1     -33.138  15.037  -4.109  1.00 20.00     0.003 C 
HETATM    3  C3  UNL     1     -34.819  15.870  -2.410  1.00 20.00     0.003 C 
HETATM    4  C4  UNL     1     -34.227  15.010  -5.182  1.00 20.00     0.040 C 
HETATM    5  C5  UNL     1     -35.916  15.846  -3.475  1.00 20.00     0.040 C 
HETATM    6  C6  UNL     1     -36.292  13.521  -4.600  1.00 20.00     0.207 A 
HETATM    7  C7  UNL     1     -35.574  14.849  -4.542  1.00 20.00     0.082 A 
HETATM    8  O8  UNL     1     -36.637  14.606  -5.473  1.00 20.00    -0.375 OA
ENDROOT
TORSDOF 0
ENDMDL
MODEL 8
REMARK VINA RESULT:      -3.9     16.729     17.224
REMARK  0 active torsions:
REMARK  status: ('A' for Active; 'I' for Inactive)
ROOT
HETATM    1  C1  UNL     1     -23.962  18.592   8.001  1.00 20.00     0.000 C 
HETATM    2  C2  UNL     1     -22.635  17.882   8.276  1.00 20.00     0.003 C 
HETATM    3  C3  UNL     1     -24.553  19.197   9.277  1.00 20.00     0.003 C 
HETATM    4  C4  UNL     1     -22.782  16.823   9.370  1.00 20.00     0.040 C 
HETATM    5  C5  UNL     1     -24.709  18.144  10.375  1.00 20.00     0.040 C 
HETATM    6  C6  UNL     1     -22.564  17.737  11.806  1.00 20.00     0.207 A 
HETATM    7  C7  UNL     1     -23.407  17.431  10.591  1.00 20.00     0.082 A 
HETATM    8  O8  UNL     1     -23.398  16.572  11.739  1.00 20.00    -0.375 OA
ENDROOT
TORSDOF 0
ENDMDL
MODEL 9
REMARK VINA RESULT:      -3.8      9.149      9.804
REMARK  0 active torsions:
REMARK  status: ('A' for Active; 'I' for Inactive)
ROOT
HETATM    1  C1  UNL     1     -42.210   5.459  -0.206  1.00 20.00     0.000 C 
HETATM    2  C2  UNL     1     -42.610   6.193   1.076  1.00 20.00     0.003 C 
HETATM    3  C3  UNL     1     -41.211   6.271  -1.033  1.00 20.00     0.003 C 
HETATM    4  C4  UNL     1     -43.153   7.590   0.775  1.00 20.00     0.040 C 
HETATM    5  C5  UNL     1     -41.747   7.669  -1.343  1.00 20.00     0.040 C 
HETATM    6  C6  UNL     1     -41.324   9.439   0.530  1.00 20.00     0.207 A 
HETATM    7  C7  UNL     1     -42.176   8.347  -0.076  1.00 20.00     0.082 A 
HETATM    8  O8  UNL     1     -42.499   9.735  -0.238  1.00 20.00    -0.375 OA
ENDROOT
TORSDOF 0
ENDMDL
