MODEL 1
REMARK VINA RESULT:      -4.1      0.000      0.000
REMARK  1 active torsions:
REMARK  status: ('A' for Active; 'I' for Inactive)
REMARK    1  A    between atoms: C1_1  and  C3_3 
ROOT
HETATM    1  C1  UNL     1     -34.811   4.744   4.464  1.00 20.00     0.037 C 
HETATM    2  C2  UNL     1     -34.816   5.328   5.668  1.00 20.00    -0.028 C 
HETATM    3  C4  UNL     1     -34.064   6.580   5.977  1.00 20.00     0.036 C 
ENDROOT
BRANCH   1   4
HETATM    4  C3  UNL     1     -34.027   5.354   3.373  1.00 20.00     0.258 C 
HETATM    5  O5  UNL     1     -33.334   4.683   2.618  1.00 20.00    -0.302 OA
ENDBRANCH   1   4
TORSDOF 1
ENDMDL
MODEL 2
REMARK VINA RESULT:      -4.1      1.071      1.482
REMARK  1 active torsions:
REMARK  status: ('A' for Active; 'I' for Inactive)
REMARK    1  A    between atoms: C1_1  and  C3_3 
ROOT
HETATM    1  C1  UNL     1     -34.890   5.313   5.788  1.00 20.00     0.037 C 
HETATM    2  C2  UNL     1     -34.173   6.394   6.121  1.00 20.00    -0.028 C 
HETATM    3  C4  UNL     1     -33.395   7.199   5.134  1.00 20.00     0.036 C 
ENDROOT
BRANCH   1   4
HETATM    4  C3  UNL     1     -34.924   4.881   4.378  1.00 20.00     0.258 C 
HETATM    5  O5  UNL     1     -34.342   3.873   3.995  1.00 20.00    -0.302 OA
ENDBRANCH   1   4
TORSDOF 1
ENDMDL
MODEL 3
REMARK VINA RESULT:      -3.8      1.144      1.402
REMARK  1 active torsions:
REMARK  status: ('A' for Active; 'I' for Inactive)
REMARK    1  A    between atoms: C1_1  and  C3_3 
ROOT
HETATM    1  C1  UNL     1     -34.269   5.262   3.580  1.00 20.00     0.037 C 
HETATM    2  C2  UNL     1     -34.858   4.894   4.723  1.00 20.00    -0.028 C 
HETATM    3  C4  UNL     1     -34.688   5.632   6.010  1.00 20.00     0.036 C 
ENDROOT
BRANCH   1   4
HETATM    4  C3  UNL     1     -33.402   6.456   3.570  1.00 20.00     0.258 C 
HETATM    5  O5  UNL     1     -32.587   6.659   2.679  1.00 20.00    -0.302 OA
ENDBRANCH   1   4
TORSDOF 1
ENDMDL
MODEL 4
REMARK VINA RESULT:      -3.6      1.952      2.782
REMARK  1 active torsions:
REMARK  status: ('A' for Active; 'I' for Inactive)
REMARK    1  A    between atoms: C1_1  and  C3_3 
ROOT
HETATM    1  C1  UNL     1     -34.347   4.635   3.730  1.00 20.00     0.037 C 
HETATM    2  C2  UNL     1     -33.481   5.072   2.807  1.00 20.00    -0.028 C 
HETATM    3  C4  UNL     1     -32.918   6.454   2.800  1.00 20.00     0.036 C 
ENDROOT
BRANCH   1   4
HETATM    4  C3  UNL     1     -34.779   5.552   4.802  1.00 20.00     0.258 C 
HETATM    5  O5  UNL     1     -34.871   5.190   5.968  1.00 20.00    -0.302 OA
ENDBRANCH   1   4
TORSDOF 1
ENDMDL
MODEL 5
REMARK VINA RESULT:      -3.6      1.916      2.751
REMARK  1 active torsions:
REMARK  status: ('A' for Active; 'I' for Inactive)
REMARK    1  A    between atoms: C1_1  and  C3_3 
ROOT
HETATM    1  C1  UNL     1     -34.831   5.091   5.198  1.00 20.00     0.037 C 
HETATM    2  C2  UNL     1     -34.489   4.455   4.071  1.00 20.00    -0.028 C 
HETATM    3  C4  UNL     1     -33.686   5.089   2.983  1.00 20.00     0.036 C 
ENDROOT
BRANCH   1   4
HETATM    4  C3  UNL     1     -34.404   6.489   5.393  1.00 20.00     0.258 C 
HETATM    5  O5  UNL     1     -33.489   6.789   6.150  1.00 20.00    -0.302 OA
ENDBRANCH   1   4
TORSDOF 1
ENDMDL
MODEL 6
REMARK VINA RESULT:      -3.5      1.985      3.014
REMARK  1 active torsions:
REMARK  status: ('A' for Active; 'I' for Inactive)
REMARK    1  A    between atoms: C1_1  and  C3_3 
ROOT
HETATM    1  C1  UNL     1     -34.030   6.482   4.262  1.00 20.00     0.037 C 
HETATM    2  C2  UNL     1     -33.269   6.227   3.191  1.00 20.00    -0.028 C 
HETATM    3  C4  UNL     1     -33.253   4.909   2.490  1.00 20.00     0.036 C 
ENDROOT
BRANCH   1   4
HETATM    4  C3  UNL     1     -34.903   5.418   4.793  1.00 20.00     0.258 C 
HETATM    5  O5  UNL     1     -34.919   5.124   5.982  1.00 20.00    -0.302 OA
ENDBRANCH   1   4
TORSDOF 1
ENDMDL
MODEL 7
REMARK VINA RESULT:      -3.4     12.152     12.317
REMARK  1 active torsions:
REMARK  status: ('A' for Active; 'I' for Inactive)
REMARK    1  A    between atoms: C1_1  and  C3_3 
ROOT
HETATM    1  C1  UNL     1     -34.291  14.434  -4.132  1.00 20.00     0.037 C 
HETATM    2  C2  UNL     1     -34.035  15.394  -3.236  1.00 20.00    -0.028 C 
HETATM    3  C4  UNL     1     -35.055  15.918  -2.279  1.00 20.00     0.036 C 
ENDROOT
BRANCH   1   4
HETATM    4  C3  UNL     1     -35.645  13.851  -4.193  1.00 20.00     0.258 C 
HETATM    5  O5  UNL     1     -35.834  12.680  -4.499  1.00 20.00    -0.302 OA
ENDBRANCH   1   4
TORSDOF 1
ENDMDL
MODEL 8
REMARK VINA RESULT:      -3.1      8.773      9.194
REMARK  1 active torsions:
REMARK  status: ('A' for Active; 'I' for Inactive)
REMARK    1  A    between atoms: C1_1  and  C3_3 
ROOT
HETATM    1  C1  UNL     1     -41.489   7.911   0.868  1.00 20.00     0.037 C 
HETATM    2  C2  UNL     1     -41.295   6.690   0.356  1.00 20.00    -0.028 C 
HETATM    3  C4  UNL     1     -41.138   6.429  -1.106  1.00 20.00     0.036 C 
ENDROOT
BRANCH   1   4
HETATM    4  C3  UNL     1     -41.557   9.071  -0.042  1.00 20.00     0.258 C 
HETATM    5  O5  UNL     1     -41.386  10.217   0.354  1.00 20.00    -0.302 OA
ENDBRANCH   1   4
TORSDOF 1
ENDMDL
MODEL 9
REMARK VINA RESULT:      -3.0      8.390      8.643
REMARK  1 active torsions:
REMARK  status: ('A' for Active; 'I' for Inactive)
REMARK    1  A    between atoms: C1_1  and  C3_3 
ROOT
HETATM    1  C1  UNL     1     -41.404   6.423   0.411  1.00 20.00     0.037 C 
HETATM    2  C2  UNL     1     -41.510   7.710   0.764  1.00 20.00    -0.028 C 
HETATM    3  C4  UNL     1     -41.389   8.840  -0.204  1.00 20.00     0.036 C 
ENDROOT
BRANCH   1   4
HETATM    4  C3  UNL     1     -41.155   6.085  -1.003  1.00 20.00     0.258 C 
HETATM    5  O5  UNL     1     -40.617   5.035  -1.334  1.00 20.00    -0.302 OA
ENDBRANCH   1   4
TORSDOF 1
ENDMDL
