MODEL 1
REMARK VINA RESULT:      -5.3      0.000      0.000
REMARK  2 active torsions:
REMARK  status: ('A' for Active; 'I' for Inactive)
REMARK    1  A    between atoms: C1_1  and  C10_10 
REMARK    2  A    between atoms: C8_8  and  C10_10 
ROOT
HETATM    1  C2  UNL     1     -34.741   4.996   6.071  1.00 20.00     0.005 C 
HETATM    2  C3  UNL     1     -34.103   6.384   5.907  1.00 20.00     0.005 C 
HETATM    3  C4  UNL     1     -35.607   6.024   4.107  1.00 20.00     0.009 C 
HETATM    4  C5  UNL     1     -33.964   4.334   3.780  1.00 20.00     0.010 C 
HETATM    5  C6  UNL     1     -35.199   4.653   4.644  1.00 20.00    -0.014 C 
HETATM    6  C7  UNL     1     -34.239   6.648   4.396  1.00 20.00    -0.010 C 
HETATM    7  C8  UNL     1     -33.266   5.705   3.649  1.00 20.00    -0.003 C 
ENDROOT
BRANCH   7   8
HETATM    8  C10 UNL     1     -33.052   6.108   2.194  1.00 20.00     0.082 C 
BRANCH   8   9
HETATM    9  C1  UNL     1     -32.389   7.464   2.062  1.00 20.00     0.123 C 
HETATM   10  C9  UNL     1     -32.785   8.274   0.855  1.00 20.00     0.091 C 
HETATM   11  O11 UNL     1     -31.576   7.896   2.877  1.00 20.00    -0.298 OA
ENDBRANCH   8   9
ENDBRANCH   7   8
TORSDOF 2
ENDMDL
MODEL 2
REMARK VINA RESULT:      -4.8     11.427     12.762
REMARK  2 active torsions:
REMARK  status: ('A' for Active; 'I' for Inactive)
REMARK    1  A    between atoms: C1_1  and  C10_10 
REMARK    2  A    between atoms: C8_8  and  C10_10 
ROOT
HETATM    1  C2  UNL     1     -33.265  16.241  -2.951  1.00 20.00     0.005 C 
HETATM    2  C3  UNL     1     -34.610  16.086  -2.224  1.00 20.00     0.005 C 
HETATM    3  C4  UNL     1     -34.383  14.310  -3.781  1.00 20.00     0.009 C 
HETATM    4  C5  UNL     1     -34.432  16.241  -5.171  1.00 20.00     0.010 C 
HETATM    5  C6  UNL     1     -33.482  15.451  -4.252  1.00 20.00    -0.014 C 
HETATM    6  C7  UNL     1     -35.445  15.258  -3.218  1.00 20.00    -0.010 C 
HETATM    7  C8  UNL     1     -35.785  16.155  -4.432  1.00 20.00    -0.003 C 
ENDROOT
BRANCH   7   8
HETATM    8  C10 UNL     1     -36.887  15.571  -5.308  1.00 20.00     0.082 C 
BRANCH   8   9
HETATM    9  C1  UNL     1     -38.090  15.125  -4.503  1.00 20.00     0.123 C 
HETATM   10  C9  UNL     1     -38.915  16.226  -3.889  1.00 20.00     0.091 C 
HETATM   11  O11 UNL     1     -38.393  13.943  -4.347  1.00 20.00    -0.298 OA
ENDBRANCH   8   9
ENDBRANCH   7   8
TORSDOF 2
ENDMDL
MODEL 3
REMARK VINA RESULT:      -4.8     11.599     12.639
REMARK  2 active torsions:
REMARK  status: ('A' for Active; 'I' for Inactive)
REMARK    1  A    between atoms: C1_1  and  C10_10 
REMARK    2  A    between atoms: C8_8  and  C10_10 
ROOT
HETATM    1  C2  UNL     1     -34.122  18.080  -2.167  1.00 20.00     0.005 C 
HETATM    2  C3  UNL     1     -34.752  16.791  -1.617  1.00 20.00     0.005 C 
HETATM    3  C4  UNL     1     -32.973  16.202  -3.073  1.00 20.00     0.009 C 
HETATM    4  C5  UNL     1     -34.509  17.301  -4.519  1.00 20.00     0.010 C 
HETATM    5  C6  UNL     1     -33.435  17.606  -3.459  1.00 20.00    -0.014 C 
HETATM    6  C7  UNL     1     -34.381  15.744  -2.684  1.00 20.00    -0.010 C 
HETATM    7  C8  UNL     1     -35.203  16.040  -3.962  1.00 20.00    -0.003 C 
ENDROOT
BRANCH   7   8
HETATM    8  C10 UNL     1     -35.190  14.885  -4.955  1.00 20.00     0.082 C 
BRANCH   8   9
HETATM    9  C1  UNL     1     -36.207  13.815  -4.612  1.00 20.00     0.123 C 
HETATM   10  C9  UNL     1     -37.606  14.303  -4.338  1.00 20.00     0.091 C 
HETATM   11  O11 UNL     1     -35.930  12.618  -4.555  1.00 20.00    -0.298 OA
ENDBRANCH   8   9
ENDBRANCH   7   8
TORSDOF 2
ENDMDL
MODEL 4
REMARK VINA RESULT:      -4.7     11.256     12.309
REMARK  2 active torsions:
REMARK  status: ('A' for Active; 'I' for Inactive)
REMARK    1  A    between atoms: C1_1  and  C10_10 
REMARK    2  A    between atoms: C8_8  and  C10_10 
ROOT
HETATM    1  C2  UNL     1     -33.704  17.748  -0.905  1.00 20.00     0.005 C 
HETATM    2  C3  UNL     1     -32.580  17.650  -1.947  1.00 20.00     0.005 C 
HETATM    3  C4  UNL     1     -34.622  18.080  -3.076  1.00 20.00     0.009 C 
HETATM    4  C5  UNL     1     -34.995  15.950  -2.083  1.00 20.00     0.010 C 
HETATM    5  C6  UNL     1     -34.968  17.448  -1.728  1.00 20.00    -0.014 C 
HETATM    6  C7  UNL     1     -33.335  17.266  -3.233  1.00 20.00    -0.010 C 
HETATM    7  C8  UNL     1     -33.831  15.807  -3.087  1.00 20.00    -0.003 C 
ENDROOT
BRANCH   7   8
HETATM    8  C10 UNL     1     -34.281  15.201  -4.412  1.00 20.00     0.082 C 
BRANCH   8   9
HETATM    9  C1  UNL     1     -35.073  13.923  -4.223  1.00 20.00     0.123 C 
HETATM   10  C9  UNL     1     -36.559  14.032  -4.450  1.00 20.00     0.091 C 
HETATM   11  O11 UNL     1     -34.557  12.853  -3.905  1.00 20.00    -0.298 OA
ENDBRANCH   8   9
ENDBRANCH   7   8
TORSDOF 2
ENDMDL
MODEL 5
REMARK VINA RESULT:      -4.7     11.429     12.673
REMARK  2 active torsions:
REMARK  status: ('A' for Active; 'I' for Inactive)
REMARK    1  A    between atoms: C1_1  and  C10_10 
REMARK    2  A    between atoms: C8_8  and  C10_10 
ROOT
HETATM    1  C2  UNL     1     -33.617  18.336  -2.911  1.00 20.00     0.005 C 
HETATM    2  C3  UNL     1     -35.057  18.163  -3.418  1.00 20.00     0.005 C 
HETATM    3  C4  UNL     1     -34.687  16.625  -1.649  1.00 20.00     0.009 C 
HETATM    4  C5  UNL     1     -33.150  15.905  -3.317  1.00 20.00     0.010 C 
HETATM    5  C6  UNL     1     -33.324  16.987  -2.234  1.00 20.00    -0.014 C 
HETATM    6  C7  UNL     1     -35.397  16.719  -3.002  1.00 20.00    -0.010 C 
HETATM    7  C8  UNL     1     -34.576  15.753  -3.889  1.00 20.00    -0.003 C 
ENDROOT
BRANCH   7   8
HETATM    8  C10 UNL     1     -35.077  14.315  -3.818  1.00 20.00     0.082 C 
BRANCH   8   9
HETATM    9  C1  UNL     1     -36.179  14.037  -4.820  1.00 20.00     0.123 C 
HETATM   10  C9  UNL     1     -35.899  14.461  -6.239  1.00 20.00     0.091 C 
HETATM   11  O11 UNL     1     -37.243  13.500  -4.517  1.00 20.00    -0.298 OA
ENDBRANCH   8   9
ENDBRANCH   7   8
TORSDOF 2
ENDMDL
MODEL 6
REMARK VINA RESULT:      -4.5     11.261     12.608
REMARK  2 active torsions:
REMARK  status: ('A' for Active; 'I' for Inactive)
REMARK    1  A    between atoms: C1_1  and  C10_10 
REMARK    2  A    between atoms: C8_8  and  C10_10 
ROOT
HETATM    1  C2  UNL     1     -34.606  18.024  -2.303  1.00 20.00     0.005 C 
HETATM    2  C3  UNL     1     -33.472  17.025  -2.029  1.00 20.00     0.005 C 
HETATM    3  C4  UNL     1     -33.962  16.995  -4.350  1.00 20.00     0.009 C 
HETATM    4  C5  UNL     1     -35.983  16.216  -3.364  1.00 20.00     0.010 C 
HETATM    5  C6  UNL     1     -35.202  17.518  -3.627  1.00 20.00    -0.014 C 
HETATM    6  C7  UNL     1     -33.584  16.045  -3.211  1.00 20.00    -0.010 C 
HETATM    7  C8  UNL     1     -34.869  15.203  -3.024  1.00 20.00    -0.003 C 
ENDROOT
BRANCH   7   8
HETATM    8  C10 UNL     1     -34.908  13.975  -3.927  1.00 20.00     0.082 C 
BRANCH   8   9
HETATM    9  C1  UNL     1     -36.117  13.967  -4.840  1.00 20.00     0.123 C 
HETATM   10  C9  UNL     1     -35.891  14.486  -6.236  1.00 20.00     0.091 C 
HETATM   11  O11 UNL     1     -37.225  13.566  -4.484  1.00 20.00    -0.298 OA
ENDBRANCH   8   9
ENDBRANCH   7   8
TORSDOF 2
ENDMDL
MODEL 7
REMARK VINA RESULT:      -4.3     11.515     12.642
REMARK  2 active torsions:
REMARK  status: ('A' for Active; 'I' for Inactive)
REMARK    1  A    between atoms: C1_1  and  C10_10 
REMARK    2  A    between atoms: C8_8  and  C10_10 
ROOT
HETATM    1  C2  UNL     1     -35.037  14.136  -4.061  1.00 20.00     0.005 C 
HETATM    2  C3  UNL     1     -35.748  15.231  -3.252  1.00 20.00     0.005 C 
HETATM    3  C4  UNL     1     -34.652  16.245  -5.095  1.00 20.00     0.009 C 
HETATM    4  C5  UNL     1     -32.851  15.343  -3.829  1.00 20.00     0.010 C 
HETATM    5  C6  UNL     1     -33.950  14.917  -4.819  1.00 20.00    -0.014 C 
HETATM    6  C7  UNL     1     -34.955  16.499  -3.616  1.00 20.00    -0.010 C 
HETATM    7  C8  UNL     1     -33.558  16.404  -2.958  1.00 20.00    -0.003 C 
ENDROOT
BRANCH   7   8
HETATM    8  C10 UNL     1     -32.815  17.735  -2.951  1.00 20.00     0.082 C 
BRANCH   8   9
HETATM    9  C1  UNL     1     -32.445  18.183  -1.551  1.00 20.00     0.123 C 
HETATM   10  C9  UNL     1     -33.521  18.037  -0.508  1.00 20.00     0.091 C 
HETATM   11  O11 UNL     1     -31.340  18.639  -1.263  1.00 20.00    -0.298 OA
ENDBRANCH   8   9
ENDBRANCH   7   8
TORSDOF 2
ENDMDL
MODEL 8
REMARK VINA RESULT:      -4.3     11.839     12.994
REMARK  2 active torsions:
REMARK  status: ('A' for Active; 'I' for Inactive)
REMARK    1  A    between atoms: C1_1  and  C10_10 
REMARK    2  A    between atoms: C8_8  and  C10_10 
ROOT
HETATM    1  C2  UNL     1     -34.490  15.280  -5.429  1.00 20.00     0.005 C 
HETATM    2  C3  UNL     1     -33.564  14.616  -4.398  1.00 20.00     0.005 C 
HETATM    3  C4  UNL     1     -35.426  15.543  -3.257  1.00 20.00     0.009 C 
HETATM    4  C5  UNL     1     -34.360  17.456  -4.188  1.00 20.00     0.010 C 
HETATM    5  C6  UNL     1     -35.284  16.288  -4.583  1.00 20.00    -0.014 C 
HETATM    6  C7  UNL     1     -33.916  15.355  -3.094  1.00 20.00    -0.010 C 
HETATM    7  C8  UNL     1     -33.376  16.802  -3.195  1.00 20.00    -0.003 C 
ENDROOT
BRANCH   7   8
HETATM    8  C10 UNL     1     -33.350  17.518  -1.850  1.00 20.00     0.082 C 
BRANCH   8   9
HETATM    9  C1  UNL     1     -32.138  18.414  -1.695  1.00 20.00     0.123 C 
HETATM   10  C9  UNL     1     -31.326  18.212  -0.442  1.00 20.00     0.091 C 
HETATM   11  O11 UNL     1     -31.819  19.261  -2.529  1.00 20.00    -0.298 OA
ENDBRANCH   8   9
ENDBRANCH   7   8
TORSDOF 2
ENDMDL
MODEL 9
REMARK VINA RESULT:      -4.3     11.880     12.868
REMARK  2 active torsions:
REMARK  status: ('A' for Active; 'I' for Inactive)
REMARK    1  A    between atoms: C1_1  and  C10_10 
REMARK    2  A    between atoms: C8_8  and  C10_10 
ROOT
HETATM    1  C2  UNL     1     -32.914  15.505  -3.550  1.00 20.00     0.005 C 
HETATM    2  C3  UNL     1     -33.650  14.941  -4.774  1.00 20.00     0.005 C 
HETATM    3  C4  UNL     1     -34.401  17.160  -4.396  1.00 20.00     0.009 C 
HETATM    4  C5  UNL     1     -35.101  16.013  -2.432  1.00 20.00     0.010 C 
HETATM    5  C6  UNL     1     -33.845  16.633  -3.074  1.00 20.00    -0.014 C 
HETATM    6  C7  UNL     1     -34.934  15.791  -4.826  1.00 20.00    -0.010 C 
HETATM    7  C8  UNL     1     -35.834  15.383  -3.635  1.00 20.00    -0.003 C 
ENDROOT
BRANCH   7   8
HETATM    8  C10 UNL     1     -37.264  15.892  -3.773  1.00 20.00     0.082 C 
BRANCH   8   9
HETATM    9  C1  UNL     1     -38.222  14.809  -4.225  1.00 20.00     0.123 C 
HETATM   10  C9  UNL     1     -39.651  15.239  -4.429  1.00 20.00     0.091 C 
HETATM   11  O11 UNL     1     -37.876  13.645  -4.419  1.00 20.00    -0.298 OA
ENDBRANCH   8   9
ENDBRANCH   7   8
TORSDOF 2
ENDMDL
