MODEL 1
REMARK VINA RESULT:      -5.4      0.000      0.000
REMARK  1 active torsions:
REMARK  status: ('A' for Active; 'I' for Inactive)
REMARK    1  A    between atoms: C2_2  and  C3_3 
ROOT
HETATM    1  C1  UNL     1     -35.710  16.239  -3.965  1.00 20.00    -0.061 C 
HETATM    2  C2  UNL     1     -36.540  15.758  -4.897  1.00 20.00     0.088 C 
HETATM    3  C4  UNL     1     -33.396  15.552  -3.446  1.00 20.00     0.009 C 
HETATM    4  C5  UNL     1     -33.061  16.986  -2.995  1.00 20.00     0.006 C 
HETATM    5  C6  UNL     1     -34.926  16.245  -1.759  1.00 20.00     0.014 C 
HETATM    6  C7  UNL     1     -34.868  15.395  -3.027  1.00 20.00     0.016 C 
HETATM    7  C8  UNL     1     -34.415  17.511  -2.467  1.00 20.00    -0.002 C 
HETATM    8  C9  UNL     1     -35.464  17.703  -3.614  1.00 20.00    -0.020 C 
HETATM    9  C10 UNL     1     -36.736  18.390  -3.086  1.00 20.00     0.020 C 
HETATM   10  C11 UNL     1     -34.926  18.516  -4.801  1.00 20.00     0.020 C 
ENDROOT
BRANCH   2  11
HETATM   11  C3  UNL     1     -36.728  14.251  -5.114  1.00 20.00     0.198 C 
HETATM   12  O12 UNL     1     -35.947  13.754  -5.978  1.00 20.00    -0.644 OA
HETATM   13  O13 UNL     1     -37.620  13.679  -4.426  1.00 20.00    -0.644 OA
ENDBRANCH   2  11
TORSDOF 1
ENDMDL
MODEL 2
REMARK VINA RESULT:      -5.1      0.749      2.822
REMARK  1 active torsions:
REMARK  status: ('A' for Active; 'I' for Inactive)
REMARK    1  A    between atoms: C2_2  and  C3_3 
ROOT
HETATM    1  C1  UNL     1     -35.523  15.960  -3.717  1.00 20.00    -0.061 C 
HETATM    2  C2  UNL     1     -35.670  14.630  -3.735  1.00 20.00     0.088 C 
HETATM    3  C4  UNL     1     -37.244  17.714  -3.941  1.00 20.00     0.009 C 
HETATM    4  C5  UNL     1     -36.416  18.655  -3.046  1.00 20.00     0.006 C 
HETATM    5  C6  UNL     1     -35.053  17.961  -4.838  1.00 20.00     0.014 C 
HETATM    6  C7  UNL     1     -36.165  16.922  -4.698  1.00 20.00     0.016 C 
HETATM    7  C8  UNL     1     -34.963  18.211  -3.324  1.00 20.00    -0.002 C 
HETATM    8  C9  UNL     1     -34.662  16.781  -2.763  1.00 20.00    -0.020 C 
HETATM    9  C10 UNL     1     -33.167  16.441  -2.898  1.00 20.00     0.020 C 
HETATM   10  C11 UNL     1     -35.072  16.605  -1.293  1.00 20.00     0.020 C 
ENDROOT
BRANCH   2  11
HETATM   11  C3  UNL     1     -36.535  13.926  -4.788  1.00 20.00     0.198 C 
HETATM   12  O12 UNL     1     -37.726  13.712  -4.417  1.00 20.00    -0.644 OA
HETATM   13  O13 UNL     1     -35.980  13.638  -5.887  1.00 20.00    -0.644 OA
ENDBRANCH   2  11
TORSDOF 1
ENDMDL
MODEL 3
REMARK VINA RESULT:      -5.1      1.380      1.980
REMARK  1 active torsions:
REMARK  status: ('A' for Active; 'I' for Inactive)
REMARK    1  A    between atoms: C2_2  and  C3_3 
ROOT
HETATM    1  C1  UNL     1     -35.965  15.959  -4.312  1.00 20.00    -0.061 C 
HETATM    2  C2  UNL     1     -37.216  15.973  -4.784  1.00 20.00     0.088 C 
HETATM    3  C4  UNL     1     -34.490  14.026  -3.885  1.00 20.00     0.009 C 
HETATM    4  C5  UNL     1     -33.253  14.887  -4.199  1.00 20.00     0.006 C 
HETATM    5  C6  UNL     1     -34.482  15.961  -2.499  1.00 20.00     0.014 C 
HETATM    6  C7  UNL     1     -35.451  15.031  -3.228  1.00 20.00     0.016 C 
HETATM    7  C8  UNL     1     -33.699  16.305  -3.777  1.00 20.00    -0.002 C 
HETATM    8  C9  UNL     1     -34.815  16.878  -4.714  1.00 20.00    -0.020 C 
HETATM    9  C10 UNL     1     -35.112  18.351  -4.378  1.00 20.00     0.020 C 
HETATM   10  C11 UNL     1     -34.469  16.777  -6.207  1.00 20.00     0.020 C 
ENDROOT
BRANCH   2  11
HETATM   11  C3  UNL     1     -38.292  15.017  -4.252  1.00 20.00     0.198 C 
HETATM   12  O12 UNL     1     -39.248  15.598  -3.660  1.00 20.00    -0.644 OA
HETATM   13  O13 UNL     1     -38.114  13.783  -4.456  1.00 20.00    -0.644 OA
ENDBRANCH   2  11
TORSDOF 1
ENDMDL
MODEL 4
REMARK VINA RESULT:      -5.0      1.123      1.957
REMARK  1 active torsions:
REMARK  status: ('A' for Active; 'I' for Inactive)
REMARK    1  A    between atoms: C2_2  and  C3_3 
ROOT
HETATM    1  C1  UNL     1     -35.330  15.796  -3.636  1.00 20.00    -0.061 C 
HETATM    2  C2  UNL     1     -36.309  14.895  -3.772  1.00 20.00     0.088 C 
HETATM    3  C4  UNL     1     -34.114  17.042  -5.385  1.00 20.00     0.009 C 
HETATM    4  C5  UNL     1     -33.921  18.227  -4.421  1.00 20.00     0.006 C 
HETATM    5  C6  UNL     1     -33.055  16.294  -3.388  1.00 20.00     0.014 C 
HETATM    6  C7  UNL     1     -34.050  15.824  -4.449  1.00 20.00     0.016 C 
HETATM    7  C8  UNL     1     -33.876  17.545  -3.035  1.00 20.00    -0.002 C 
HETATM    8  C9  UNL     1     -35.260  16.939  -2.627  1.00 20.00    -0.020 C 
HETATM    9  C10 UNL     1     -35.230  16.425  -1.177  1.00 20.00     0.020 C 
HETATM   10  C11 UNL     1     -36.426  17.929  -2.771  1.00 20.00     0.020 C 
ENDROOT
BRANCH   2  11
HETATM   11  C3  UNL     1     -36.228  13.761  -4.803  1.00 20.00     0.198 C 
HETATM   12  O12 UNL     1     -35.963  12.629  -4.302  1.00 20.00    -0.644 OA
HETATM   13  O13 UNL     1     -36.427  14.070  -6.012  1.00 20.00    -0.644 OA
ENDBRANCH   2  11
TORSDOF 1
ENDMDL
MODEL 5
REMARK VINA RESULT:      -4.9      1.063      1.241
REMARK  1 active torsions:
REMARK  status: ('A' for Active; 'I' for Inactive)
REMARK    1  A    between atoms: C2_2  and  C3_3 
ROOT
HETATM    1  C1  UNL     1     -35.117  16.471  -4.301  1.00 20.00    -0.061 C 
HETATM    2  C2  UNL     1     -35.446  16.127  -5.551  1.00 20.00     0.088 C 
HETATM    3  C4  UNL     1     -32.970  16.170  -3.122  1.00 20.00     0.009 C 
HETATM    4  C5  UNL     1     -33.236  17.439  -2.291  1.00 20.00     0.006 C 
HETATM    5  C6  UNL     1     -35.067  15.982  -2.011  1.00 20.00     0.014 C 
HETATM    6  C7  UNL     1     -34.379  15.585  -3.316  1.00 20.00     0.016 C 
HETATM    7  C8  UNL     1     -34.778  17.480  -2.202  1.00 20.00    -0.002 C 
HETATM    8  C9  UNL     1     -35.444  17.779  -3.587  1.00 20.00    -0.020 C 
HETATM    9  C10 UNL     1     -36.961  17.988  -3.433  1.00 20.00     0.020 C 
HETATM   10  C11 UNL     1     -34.851  19.006  -4.296  1.00 20.00     0.020 C 
ENDROOT
BRANCH   2  11
HETATM   11  C3  UNL     1     -35.094  14.751  -6.130  1.00 20.00     0.198 C 
HETATM   12  O12 UNL     1     -33.908  14.664  -6.565  1.00 20.00    -0.644 OA
HETATM   13  O13 UNL     1     -36.001  13.872  -6.114  1.00 20.00    -0.644 OA
ENDBRANCH   2  11
TORSDOF 1
ENDMDL
MODEL 6
REMARK VINA RESULT:      -4.5      1.690      2.614
REMARK  1 active torsions:
REMARK  status: ('A' for Active; 'I' for Inactive)
REMARK    1  A    between atoms: C2_2  and  C3_3 
ROOT
HETATM    1  C1  UNL     1     -36.239  15.557  -4.080  1.00 20.00    -0.061 C 
HETATM    2  C2  UNL     1     -37.450  16.111  -3.953  1.00 20.00     0.088 C 
HETATM    3  C4  UNL     1     -35.177  14.593  -6.089  1.00 20.00     0.009 C 
HETATM    4  C5  UNL     1     -33.788  15.001  -5.564  1.00 20.00     0.006 C 
HETATM    5  C6  UNL     1     -34.839  13.686  -3.915  1.00 20.00     0.014 C 
HETATM    6  C7  UNL     1     -35.946  14.255  -4.801  1.00 20.00     0.016 C 
HETATM    7  C8  UNL     1     -33.967  14.947  -4.030  1.00 20.00    -0.002 C 
HETATM    8  C9  UNL     1     -34.923  16.070  -3.504  1.00 20.00    -0.020 C 
HETATM    9  C10 UNL     1     -34.941  16.100  -1.965  1.00 20.00     0.020 C 
HETATM   10  C11 UNL     1     -34.557  17.471  -4.016  1.00 20.00     0.020 C 
ENDROOT
BRANCH   2  11
HETATM   11  C3  UNL     1     -38.705  15.459  -4.547  1.00 20.00     0.198 C 
HETATM   12  O12 UNL     1     -38.987  15.856  -5.715  1.00 20.00    -0.644 OA
HETATM   13  O13 UNL     1     -39.310  14.616  -3.825  1.00 20.00    -0.644 OA
ENDBRANCH   2  11
TORSDOF 1
ENDMDL
MODEL 7
REMARK VINA RESULT:      -4.4      2.310      3.644
REMARK  1 active torsions:
REMARK  status: ('A' for Active; 'I' for Inactive)
REMARK    1  A    between atoms: C2_2  and  C3_3 
ROOT
HETATM    1  C1  UNL     1     -34.412  16.291  -4.942  1.00 20.00    -0.061 C 
HETATM    2  C2  UNL     1     -34.634  16.279  -6.261  1.00 20.00     0.088 C 
HETATM    3  C4  UNL     1     -35.596  17.552  -3.181  1.00 20.00     0.009 C 
HETATM    4  C5  UNL     1     -35.305  16.430  -2.168  1.00 20.00     0.006 C 
HETATM    5  C6  UNL     1     -33.254  17.135  -3.090  1.00 20.00     0.014 C 
HETATM    6  C7  UNL     1     -34.348  17.537  -4.079  1.00 20.00     0.016 C 
HETATM    7  C8  UNL     1     -33.970  15.839  -2.676  1.00 20.00    -0.002 C 
HETATM    8  C9  UNL     1     -34.134  15.092  -4.041  1.00 20.00    -0.020 C 
HETATM    9  C10 UNL     1     -32.833  14.367  -4.431  1.00 20.00     0.020 C 
HETATM   10  C11 UNL     1     -35.282  14.070  -4.043  1.00 20.00     0.020 C 
ENDROOT
BRANCH   2  11
HETATM   11  C3  UNL     1     -34.853  17.572  -7.057  1.00 20.00     0.198 C 
HETATM   12  O12 UNL     1     -33.794  18.054  -7.557  1.00 20.00    -0.644 OA
HETATM   13  O13 UNL     1     -36.036  18.011  -7.126  1.00 20.00    -0.644 OA
ENDBRANCH   2  11
TORSDOF 1
ENDMDL
MODEL 8
REMARK VINA RESULT:      -4.3      3.564      4.708
REMARK  1 active torsions:
REMARK  status: ('A' for Active; 'I' for Inactive)
REMARK    1  A    between atoms: C2_2  and  C3_3 
ROOT
HETATM    1  C1  UNL     1     -33.568  18.034  -2.616  1.00 20.00    -0.061 C 
HETATM    2  C2  UNL     1     -32.931  18.910  -1.830  1.00 20.00     0.088 C 
HETATM    3  C4  UNL     1     -34.964  16.103  -1.974  1.00 20.00     0.009 C 
HETATM    4  C5  UNL     1     -35.808  16.277  -3.250  1.00 20.00     0.006 C 
HETATM    5  C6  UNL     1     -33.550  16.069  -3.888  1.00 20.00     0.014 C 
HETATM    6  C7  UNL     1     -33.559  16.529  -2.431  1.00 20.00     0.016 C 
HETATM    7  C8  UNL     1     -34.802  16.882  -4.254  1.00 20.00    -0.002 C 
HETATM    8  C9  UNL     1     -34.383  18.340  -3.868  1.00 20.00    -0.020 C 
HETATM    9  C10 UNL     1     -33.523  18.977  -4.974  1.00 20.00     0.020 C 
HETATM   10  C11 UNL     1     -35.579  19.263  -3.586  1.00 20.00     0.020 C 
ENDROOT
BRANCH   2  11
HETATM   11  C3  UNL     1     -32.101  18.458  -0.621  1.00 20.00     0.198 C 
HETATM   12  O12 UNL     1     -30.852  18.464  -0.824  1.00 20.00    -0.644 OA
HETATM   13  O13 UNL     1     -32.736  18.134   0.422  1.00 20.00    -0.644 OA
ENDBRANCH   2  11
TORSDOF 1
ENDMDL
MODEL 9
REMARK VINA RESULT:      -4.3      2.119      3.058
REMARK  1 active torsions:
REMARK  status: ('A' for Active; 'I' for Inactive)
REMARK    1  A    between atoms: C2_2  and  C3_3 
ROOT
HETATM    1  C1  UNL     1     -35.211  15.984  -5.107  1.00 20.00    -0.061 C 
HETATM    2  C2  UNL     1     -35.439  16.485  -6.326  1.00 20.00     0.088 C 
HETATM    3  C4  UNL     1     -33.354  16.467  -3.554  1.00 20.00     0.009 C 
HETATM    4  C5  UNL     1     -34.278  16.204  -2.351  1.00 20.00     0.006 C 
HETATM    5  C6  UNL     1     -34.324  14.302  -3.741  1.00 20.00     0.014 C 
HETATM    6  C7  UNL     1     -33.872  15.475  -4.609  1.00 20.00     0.016 C 
HETATM    7  C8  UNL     1     -35.281  15.165  -2.902  1.00 20.00    -0.002 C 
HETATM    8  C9  UNL     1     -36.228  15.774  -3.989  1.00 20.00    -0.020 C 
HETATM    9  C10 UNL     1     -37.324  14.770  -4.389  1.00 20.00     0.020 C 
HETATM   10  C11 UNL     1     -36.901  17.082  -3.547  1.00 20.00     0.020 C 
ENDROOT
BRANCH   2  11
HETATM   11  C3  UNL     1     -34.326  16.596  -7.377  1.00 20.00     0.198 C 
HETATM   12  O12 UNL     1     -34.018  15.494  -7.917  1.00 20.00    -0.644 OA
HETATM   13  O13 UNL     1     -33.846  17.746  -7.585  1.00 20.00    -0.644 OA
ENDBRANCH   2  11
TORSDOF 1
ENDMDL
