MODEL 1
REMARK VINA RESULT:      -3.3      0.000      0.000
REMARK  1 active torsions:
REMARK  status: ('A' for Active; 'I' for Inactive)
REMARK    1  A    between atoms: C2_2  and  C3_3 
ROOT
HETATM    1  C3  UNL     1     -23.335  17.811  10.484  1.00 20.00     0.216 C 
HETATM    2 CL5  UNL     1     -23.262  18.229  12.231  1.00 20.00    -0.081 Cl
HETATM    3 CL6  UNL     1     -24.449  18.971   9.679  1.00 20.00    -0.081 Cl
HETATM    4 CL7  UNL     1     -24.040  16.164  10.333  1.00 20.00    -0.081 Cl
ENDROOT
BRANCH   1   5
HETATM    5  C2  UNL     1     -21.982  17.866   9.871  1.00 20.00     0.199 A 
HETATM    6  C1  UNL     1     -21.787  17.664   8.394  1.00 20.00     0.204 A 
HETATM    7  O4  UNL     1     -21.774  18.972   8.987  1.00 20.00    -0.377 OA
ENDBRANCH   1   5
TORSDOF 1
ENDMDL
MODEL 2
REMARK VINA RESULT:      -3.3      1.626      2.367
REMARK  1 active torsions:
REMARK  status: ('A' for Active; 'I' for Inactive)
REMARK    1  A    between atoms: C2_2  and  C3_3 
ROOT
HETATM    1  C3  UNL     1     -24.000  17.278  11.373  1.00 20.00     0.216 C 
HETATM    2 CL5  UNL     1     -25.245  18.438  11.955  1.00 20.00    -0.081 Cl
HETATM    3 CL6  UNL     1     -24.593  15.612  11.703  1.00 20.00    -0.081 Cl
HETATM    4 CL7  UNL     1     -22.502  17.537  12.332  1.00 20.00    -0.081 Cl
ENDROOT
BRANCH   1   5
HETATM    5  C2  UNL     1     -23.740  17.468   9.922  1.00 20.00     0.199 A 
HETATM    6  C1  UNL     1     -22.865  18.586   9.428  1.00 20.00     0.204 A 
HETATM    7  O4  UNL     1     -22.385  17.236   9.525  1.00 20.00    -0.377 OA
ENDBRANCH   1   5
TORSDOF 1
ENDMDL
MODEL 3
REMARK VINA RESULT:      -3.2      1.380      2.323
REMARK  1 active torsions:
REMARK  status: ('A' for Active; 'I' for Inactive)
REMARK    1  A    between atoms: C2_2  and  C3_3 
ROOT
HETATM    1  C3  UNL     1     -23.948  17.591  10.994  1.00 20.00     0.216 C 
HETATM    2 CL5  UNL     1     -24.490  15.891  11.223  1.00 20.00    -0.081 Cl
HETATM    3 CL6  UNL     1     -22.804  17.995  12.322  1.00 20.00    -0.081 Cl
HETATM    4 CL7  UNL     1     -25.384  18.660  11.150  1.00 20.00    -0.081 Cl
ENDROOT
BRANCH   1   5
HETATM    5  C2  UNL     1     -23.300  17.763   9.668  1.00 20.00     0.199 A 
HETATM    6  C1  UNL     1     -21.814  17.603   9.501  1.00 20.00     0.204 A 
HETATM    7  O4  UNL     1     -22.734  16.567   9.121  1.00 20.00    -0.377 OA
ENDBRANCH   1   5
TORSDOF 1
ENDMDL
MODEL 4
REMARK VINA RESULT:      -3.2     18.258     18.891
REMARK  1 active torsions:
REMARK  status: ('A' for Active; 'I' for Inactive)
REMARK    1  A    between atoms: C2_2  and  C3_3 
ROOT
HETATM    1  C3  UNL     1     -34.391  15.194  -3.921  1.00 20.00     0.216 C 
HETATM    2 CL5  UNL     1     -34.050  16.032  -2.366  1.00 20.00    -0.081 Cl
HETATM    3 CL6  UNL     1     -32.904  14.311  -4.416  1.00 20.00    -0.081 Cl
HETATM    4 CL7  UNL     1     -34.737  16.445  -5.165  1.00 20.00    -0.081 Cl
ENDROOT
BRANCH   1   5
HETATM    5  C2  UNL     1     -35.537  14.259  -3.776  1.00 20.00     0.199 A 
HETATM    6  C1  UNL     1     -36.247  13.706  -4.980  1.00 20.00     0.204 A 
HETATM    7  O4  UNL     1     -35.286  12.931  -4.247  1.00 20.00    -0.377 OA
ENDBRANCH   1   5
TORSDOF 1
ENDMDL
MODEL 5
REMARK VINA RESULT:      -3.2     18.258     18.886
REMARK  1 active torsions:
REMARK  status: ('A' for Active; 'I' for Inactive)
REMARK    1  A    between atoms: C2_2  and  C3_3 
ROOT
HETATM    1  C3  UNL     1     -34.389  15.190  -3.920  1.00 20.00     0.216 C 
HETATM    2 CL5  UNL     1     -32.902  14.307  -4.415  1.00 20.00    -0.081 Cl
HETATM    3 CL6  UNL     1     -34.741  16.434  -5.170  1.00 20.00    -0.081 Cl
HETATM    4 CL7  UNL     1     -34.045  16.037  -2.372  1.00 20.00    -0.081 Cl
ENDROOT
BRANCH   1   5
HETATM    5  C2  UNL     1     -35.533  14.254  -3.769  1.00 20.00     0.199 A 
HETATM    6  C1  UNL     1     -36.254  13.706  -4.969  1.00 20.00     0.204 A 
HETATM    7  O4  UNL     1     -35.285  12.929  -4.250  1.00 20.00    -0.377 OA
ENDBRANCH   1   5
TORSDOF 1
ENDMDL
MODEL 6
REMARK VINA RESULT:      -3.2     18.198     18.843
REMARK  1 active torsions:
REMARK  status: ('A' for Active; 'I' for Inactive)
REMARK    1  A    between atoms: C2_2  and  C3_3 
ROOT
HETATM    1  C3  UNL     1     -34.352  15.316  -3.907  1.00 20.00     0.216 C 
HETATM    2 CL5  UNL     1     -34.685  16.581  -5.142  1.00 20.00    -0.081 Cl
HETATM    3 CL6  UNL     1     -33.998  16.140  -2.348  1.00 20.00    -0.081 Cl
HETATM    4 CL7  UNL     1     -32.879  14.417  -4.411  1.00 20.00    -0.081 Cl
ENDROOT
BRANCH   1   5
HETATM    5  C2  UNL     1     -35.512  14.397  -3.768  1.00 20.00     0.199 A 
HETATM    6  C1  UNL     1     -36.201  13.825  -4.975  1.00 20.00     0.204 A 
HETATM    7  O4  UNL     1     -35.265  13.057  -4.203  1.00 20.00    -0.377 OA
ENDBRANCH   1   5
TORSDOF 1
ENDMDL
MODEL 7
REMARK VINA RESULT:      -3.2     23.698     24.348
REMARK  1 active torsions:
REMARK  status: ('A' for Active; 'I' for Inactive)
REMARK    1  A    between atoms: C2_2  and  C3_3 
ROOT
HETATM    1  C3  UNL     1     -42.220   6.532  -0.046  1.00 20.00     0.216 C 
HETATM    2 CL5  UNL     1     -40.792   5.751  -0.812  1.00 20.00    -0.081 Cl
HETATM    3 CL6  UNL     1     -42.962   5.349   1.087  1.00 20.00    -0.081 Cl
HETATM    4 CL7  UNL     1     -43.417   6.893  -1.338  1.00 20.00    -0.081 Cl
ENDROOT
BRANCH   1   5
HETATM    5  C2  UNL     1     -41.822   7.772   0.670  1.00 20.00     0.199 A 
HETATM    6  C1  UNL     1     -41.359   8.989  -0.080  1.00 20.00     0.204 A 
HETATM    7  O4  UNL     1     -42.689   8.889   0.452  1.00 20.00    -0.377 OA
ENDBRANCH   1   5
TORSDOF 1
ENDMDL
MODEL 8
REMARK VINA RESULT:      -3.1     23.695     24.304
REMARK  1 active torsions:
REMARK  status: ('A' for Active; 'I' for Inactive)
REMARK    1  A    between atoms: C2_2  and  C3_3 
ROOT
HETATM    1  C3  UNL     1     -42.219   6.546  -0.037  1.00 20.00     0.216 C 
HETATM    2 CL5  UNL     1     -42.941   5.346   1.091  1.00 20.00    -0.081 Cl
HETATM    3 CL6  UNL     1     -43.417   6.884  -1.335  1.00 20.00    -0.081 Cl
HETATM    4 CL7  UNL     1     -40.771   5.798  -0.796  1.00 20.00    -0.081 Cl
ENDROOT
BRANCH   1   5
HETATM    5  C2  UNL     1     -41.854   7.794   0.683  1.00 20.00     0.199 A 
HETATM    6  C1  UNL     1     -41.387   9.014  -0.061  1.00 20.00     0.204 A 
HETATM    7  O4  UNL     1     -42.729   8.900   0.438  1.00 20.00    -0.377 OA
ENDBRANCH   1   5
TORSDOF 1
ENDMDL
MODEL 9
REMARK VINA RESULT:      -3.1      2.934      3.811
REMARK  1 active torsions:
REMARK  status: ('A' for Active; 'I' for Inactive)
REMARK    1  A    between atoms: C2_2  and  C3_3 
ROOT
HETATM    1  C3  UNL     1     -24.106  17.678  11.476  1.00 20.00     0.216 C 
HETATM    2 CL5  UNL     1     -24.523  15.936  11.321  1.00 20.00    -0.081 Cl
HETATM    3 CL6  UNL     1     -24.013  18.379   9.821  1.00 20.00    -0.081 Cl
HETATM    4 CL7  UNL     1     -22.475  17.797  12.224  1.00 20.00    -0.081 Cl
ENDROOT
BRANCH   1   5
HETATM    5  C2  UNL     1     -25.118  18.393  12.296  1.00 20.00     0.199 A 
HETATM    6  C1  UNL     1     -26.318  19.041  11.662  1.00 20.00     0.204 A 
HETATM    7  O4  UNL     1     -26.407  17.770  12.326  1.00 20.00    -0.377 OA
ENDBRANCH   1   5
TORSDOF 1
ENDMDL
