MODEL 1
REMARK VINA RESULT:      -5.0      0.000      0.000
REMARK  1 active torsions:
REMARK  status: ('A' for Active; 'I' for Inactive)
REMARK    1  A    between atoms: C8_8  and  C9_9 
ROOT
HETATM    1  C1  UNL     1     -36.909  14.073  -4.514  1.00 20.00     0.059 C 
HETATM    2  C9  UNL     1     -35.489  14.141  -4.837  1.00 20.00     0.129 C 
HETATM    3  N10 UNL     1     -38.045  14.005  -4.286  1.00 20.00    -0.197 NA
ENDROOT
BRANCH   2   4
HETATM    4  C8  UNL     1     -34.854  14.780  -3.607  1.00 20.00     0.003 C 
HETATM    5  C5  UNL     1     -33.403  15.236  -3.868  1.00 20.00     0.010 C 
HETATM    6  C6  UNL     1     -33.435  16.729  -3.494  1.00 20.00    -0.014 C 
HETATM    7  C2  UNL     1     -33.618  16.865  -1.973  1.00 20.00     0.005 C 
HETATM    8  C4  UNL     1     -34.807  17.150  -4.014  1.00 20.00     0.009 C 
HETATM    9  C3  UNL     1     -35.083  16.456  -1.763  1.00 20.00     0.005 C 
HETATM   10  C7  UNL     1     -35.548  16.097  -3.187  1.00 20.00    -0.009 C 
ENDBRANCH   2   4
TORSDOF 1
ENDMDL
MODEL 2
REMARK VINA RESULT:      -4.8      3.141      4.764
REMARK  1 active torsions:
REMARK  status: ('A' for Active; 'I' for Inactive)
REMARK    1  A    between atoms: C8_8  and  C9_9 
ROOT
HETATM    1  C1  UNL     1     -31.712  18.360  -0.915  1.00 20.00     0.059 C 
HETATM    2  C9  UNL     1     -33.056  18.432  -1.474  1.00 20.00     0.129 C 
HETATM    3  N10 UNL     1     -30.643  18.333  -0.464  1.00 20.00    -0.197 NA
ENDROOT
BRANCH   2   4
HETATM    4  C8  UNL     1     -33.343  17.013  -1.950  1.00 20.00     0.003 C 
HETATM    5  C5  UNL     1     -34.784  16.566  -1.622  1.00 20.00     0.010 C 
HETATM    6  C6  UNL     1     -35.343  16.159  -2.997  1.00 20.00    -0.014 C 
HETATM    7  C2  UNL     1     -34.637  14.878  -3.472  1.00 20.00     0.005 C 
HETATM    8  C4  UNL     1     -34.724  17.215  -3.909  1.00 20.00     0.009 C 
HETATM    9  C3  UNL     1     -33.230  15.375  -3.837  1.00 20.00     0.005 C 
HETATM   10  C7  UNL     1     -33.292  16.874  -3.490  1.00 20.00    -0.009 C 
ENDBRANCH   2   4
TORSDOF 1
ENDMDL
MODEL 3
REMARK VINA RESULT:      -4.7     15.972     17.831
REMARK  1 active torsions:
REMARK  status: ('A' for Active; 'I' for Inactive)
REMARK    1  A    between atoms: C8_8  and  C9_9 
ROOT
HETATM    1  C1  UNL     1     -24.484  18.939   7.533  1.00 20.00     0.059 C 
HETATM    2  C9  UNL     1     -25.368  18.832   8.686  1.00 20.00     0.129 C 
HETATM    3  N10 UNL     1     -23.804  19.024   6.596  1.00 20.00    -0.197 NA
ENDROOT
BRANCH   2   4
HETATM    4  C8  UNL     1     -24.424  18.774   9.881  1.00 20.00     0.003 C 
HETATM    5  C5  UNL     1     -25.171  18.506  11.205  1.00 20.00     0.010 C 
HETATM    6  C6  UNL     1     -24.468  17.252  11.754  1.00 20.00    -0.014 C 
HETATM    7  C2  UNL     1     -23.037  17.621  12.182  1.00 20.00     0.005 C 
HETATM    8  C4  UNL     1     -24.216  16.453  10.477  1.00 20.00     0.009 C 
HETATM    9  C3  UNL     1     -22.317  17.826  10.841  1.00 20.00     0.005 C 
HETATM   10  C7  UNL     1     -23.435  17.587   9.809  1.00 20.00    -0.009 C 
ENDBRANCH   2   4
TORSDOF 1
ENDMDL
MODEL 4
REMARK VINA RESULT:      -4.7      1.220      2.010
REMARK  1 active torsions:
REMARK  status: ('A' for Active; 'I' for Inactive)
REMARK    1  A    between atoms: C8_8  and  C9_9 
ROOT
HETATM    1  C1  UNL     1     -36.241  13.821  -4.436  1.00 20.00     0.059 C 
HETATM    2  C9  UNL     1     -36.687  15.192  -4.224  1.00 20.00     0.129 C 
HETATM    3  N10 UNL     1     -35.916  12.720  -4.607  1.00 20.00    -0.197 NA
ENDROOT
BRANCH   2   4
HETATM    4  C8  UNL     1     -35.396  15.994  -4.104  1.00 20.00     0.003 C 
HETATM    5  C5  UNL     1     -35.654  17.466  -3.716  1.00 20.00     0.010 C 
HETATM    6  C6  UNL     1     -34.805  17.644  -2.445  1.00 20.00    -0.014 C 
HETATM    7  C2  UNL     1     -33.314  17.598  -2.823  1.00 20.00     0.005 C 
HETATM    8  C4  UNL     1     -34.995  16.297  -1.752  1.00 20.00     0.009 C 
HETATM    9  C3  UNL     1     -33.087  16.114  -3.148  1.00 20.00     0.005 C 
HETATM   10  C7  UNL     1     -34.486  15.500  -2.955  1.00 20.00    -0.009 C 
ENDBRANCH   2   4
TORSDOF 1
ENDMDL
MODEL 5
REMARK VINA RESULT:      -4.7      0.829      1.717
REMARK  1 active torsions:
REMARK  status: ('A' for Active; 'I' for Inactive)
REMARK    1  A    between atoms: C8_8  and  C9_9 
ROOT
HETATM    1  C1  UNL     1     -36.969  14.144  -4.264  1.00 20.00     0.059 C 
HETATM    2  C9  UNL     1     -35.531  14.289  -4.077  1.00 20.00     0.129 C 
HETATM    3  N10 UNL     1     -38.110  13.999  -4.419  1.00 20.00    -0.197 NA
ENDROOT
BRANCH   2   4
HETATM    4  C8  UNL     1     -35.344  15.756  -3.707  1.00 20.00     0.003 C 
HETATM    5  C5  UNL     1     -35.049  15.947  -2.204  1.00 20.00     0.010 C 
HETATM    6  C6  UNL     1     -33.723  16.728  -2.207  1.00 20.00    -0.014 C 
HETATM    7  C2  UNL     1     -33.974  18.150  -2.738  1.00 20.00     0.005 C 
HETATM    8  C4  UNL     1     -32.984  16.082  -3.376  1.00 20.00     0.009 C 
HETATM    9  C3  UNL     1     -34.208  17.921  -4.239  1.00 20.00     0.005 C 
HETATM   10  C7  UNL     1     -34.101  16.390  -4.376  1.00 20.00    -0.009 C 
ENDBRANCH   2   4
TORSDOF 1
ENDMDL
MODEL 6
REMARK VINA RESULT:      -4.6      1.155      1.279
REMARK  1 active torsions:
REMARK  status: ('A' for Active; 'I' for Inactive)
REMARK    1  A    between atoms: C8_8  and  C9_9 
ROOT
HETATM    1  C1  UNL     1     -36.056  13.853  -4.232  1.00 20.00     0.059 C 
HETATM    2  C9  UNL     1     -36.362  15.227  -3.858  1.00 20.00     0.129 C 
HETATM    3  N10 UNL     1     -35.838  12.757  -4.548  1.00 20.00    -0.197 NA
ENDROOT
BRANCH   2   4
HETATM    4  C8  UNL     1     -35.208  15.636  -2.949  1.00 20.00     0.003 C 
HETATM    5  C5  UNL     1     -33.842  15.551  -3.663  1.00 20.00     0.010 C 
HETATM    6  C6  UNL     1     -33.271  16.970  -3.494  1.00 20.00    -0.014 C 
HETATM    7  C2  UNL     1     -32.923  17.202  -2.013  1.00 20.00     0.005 C 
HETATM    8  C4  UNL     1     -34.522  17.830  -3.660  1.00 20.00     0.009 C 
HETATM    9  C3  UNL     1     -34.302  17.335  -1.351  1.00 20.00     0.005 C 
HETATM   10  C7  UNL     1     -35.273  17.124  -2.528  1.00 20.00    -0.009 C 
ENDBRANCH   2   4
TORSDOF 1
ENDMDL
MODEL 7
REMARK VINA RESULT:      -4.6      1.005      2.057
REMARK  1 active torsions:
REMARK  status: ('A' for Active; 'I' for Inactive)
REMARK    1  A    between atoms: C8_8  and  C9_9 
ROOT
HETATM    1  C1  UNL     1     -37.744  15.025  -4.180  1.00 20.00     0.059 C 
HETATM    2  C9  UNL     1     -37.388  16.407  -3.883  1.00 20.00     0.129 C 
HETATM    3  N10 UNL     1     -38.058  13.932  -4.412  1.00 20.00    -0.197 NA
ENDROOT
BRANCH   2   4
HETATM    4  C8  UNL     1     -35.869  16.440  -4.011  1.00 20.00     0.003 C 
HETATM    5  C5  UNL     1     -35.270  17.777  -3.526  1.00 20.00     0.010 C 
HETATM    6  C6  UNL     1     -34.254  17.337  -2.457  1.00 20.00    -0.014 C 
HETATM    7  C2  UNL     1     -33.082  16.611  -3.142  1.00 20.00     0.005 C 
HETATM    8  C4  UNL     1     -34.990  16.180  -1.787  1.00 20.00     0.009 C 
HETATM    9  C3  UNL     1     -33.704  15.270  -3.559  1.00 20.00     0.005 C 
HETATM   10  C7  UNL     1     -35.167  15.408  -3.096  1.00 20.00    -0.009 C 
ENDBRANCH   2   4
TORSDOF 1
ENDMDL
MODEL 8
REMARK VINA RESULT:      -4.5      1.277      2.193
REMARK  1 active torsions:
REMARK  status: ('A' for Active; 'I' for Inactive)
REMARK    1  A    between atoms: C8_8  and  C9_9 
ROOT
HETATM    1  C1  UNL     1     -35.047  13.632  -4.235  1.00 20.00     0.059 C 
HETATM    2  C9  UNL     1     -33.919  14.515  -3.965  1.00 20.00     0.129 C 
HETATM    3  N10 UNL     1     -35.924  12.905  -4.455  1.00 20.00    -0.197 NA
ENDROOT
BRANCH   2   4
HETATM    4  C8  UNL     1     -34.563  15.853  -3.620  1.00 20.00     0.003 C 
HETATM    5  C5  UNL     1     -35.036  15.915  -2.152  1.00 20.00     0.010 C 
HETATM    6  C6  UNL     1     -34.316  17.161  -1.607  1.00 20.00    -0.014 C 
HETATM    7  C2  UNL     1     -34.915  18.418  -2.262  1.00 20.00     0.005 C 
HETATM    8  C4  UNL     1     -32.958  17.063  -2.299  1.00 20.00     0.009 C 
HETATM    9  C3  UNL     1     -34.378  18.347  -3.699  1.00 20.00     0.005 C 
HETATM   10  C7  UNL     1     -33.569  17.036  -3.702  1.00 20.00    -0.009 C 
ENDBRANCH   2   4
TORSDOF 1
ENDMDL
MODEL 9
REMARK VINA RESULT:      -4.4     17.372     18.298
REMARK  1 active torsions:
REMARK  status: ('A' for Active; 'I' for Inactive)
REMARK    1  A    between atoms: C8_8  and  C9_9 
ROOT
HETATM    1  C1  UNL     1     -26.522  18.025  12.108  1.00 20.00     0.059 C 
HETATM    2  C9  UNL     1     -25.206  17.440  12.332  1.00 20.00     0.129 C 
HETATM    3  N10 UNL     1     -27.582  18.470  11.950  1.00 20.00    -0.197 NA
ENDROOT
BRANCH   2   4
HETATM    4  C8  UNL     1     -24.282  18.226  11.409  1.00 20.00     0.003 C 
HETATM    5  C5  UNL     1     -22.795  17.879  11.634  1.00 20.00     0.010 C 
HETATM    6  C6  UNL     1     -22.322  17.450  10.234  1.00 20.00    -0.014 C 
HETATM    7  C2  UNL     1     -22.298  18.679   9.309  1.00 20.00     0.005 C 
HETATM    8  C4  UNL     1     -23.539  16.689   9.714  1.00 20.00     0.009 C 
HETATM    9  C3  UNL     1     -23.790  18.957   9.067  1.00 20.00     0.005 C 
HETATM   10  C7  UNL     1     -24.485  17.876   9.915  1.00 20.00    -0.009 C 
ENDBRANCH   2   4
TORSDOF 1
ENDMDL
