MODEL 1
REMARK VINA RESULT:      -5.1      0.000      0.000
REMARK  1 active torsions:
REMARK  status: ('A' for Active; 'I' for Inactive)
REMARK    1  A    between atoms: C8_8  and  C9_9 
ROOT
HETATM    1  C1  UNL     1     -32.511   7.666   1.814  1.00 20.00     0.059 C 
HETATM    2  C9  UNL     1     -32.409   6.851   3.020  1.00 20.00     0.129 C 
HETATM    3  N10 UNL     1     -32.566   8.323   0.859  1.00 20.00    -0.197 NA
ENDROOT
BRANCH   2   4
HETATM    4  C8  UNL     1     -33.747   6.136   3.109  1.00 20.00     0.003 C 
HETATM    5  C5  UNL     1     -33.621   4.627   3.404  1.00 20.00     0.010 C 
HETATM    6  C6  UNL     1     -34.573   4.430   4.599  1.00 20.00    -0.014 C 
HETATM    7  C2  UNL     1     -33.917   5.031   5.855  1.00 20.00     0.005 C 
HETATM    8  C4  UNL     1     -35.677   5.445   4.305  1.00 20.00     0.009 C 
HETATM    9  C3  UNL     1     -34.034   6.543   5.614  1.00 20.00     0.005 C 
HETATM   10  C7  UNL     1     -34.697   6.622   4.228  1.00 20.00    -0.009 C 
ENDBRANCH   2   4
TORSDOF 1
ENDMDL
MODEL 2
REMARK VINA RESULT:      -4.9     11.715     12.598
REMARK  1 active torsions:
REMARK  status: ('A' for Active; 'I' for Inactive)
REMARK    1  A    between atoms: C8_8  and  C9_9 
ROOT
HETATM    1  C1  UNL     1     -36.850  14.136  -4.622  1.00 20.00     0.059 C 
HETATM    2  C9  UNL     1     -35.478  14.441  -5.011  1.00 20.00     0.129 C 
HETATM    3  N10 UNL     1     -37.948  13.887  -4.338  1.00 20.00    -0.197 NA
ENDROOT
BRANCH   2   4
HETATM    4  C8  UNL     1     -34.791  14.825  -3.711  1.00 20.00     0.003 C 
HETATM    5  C5  UNL     1     -33.293  15.153  -3.879  1.00 20.00     0.010 C 
HETATM    6  C6  UNL     1     -33.160  16.521  -3.183  1.00 20.00    -0.014 C 
HETATM    7  C2  UNL     1     -33.800  17.594  -4.081  1.00 20.00     0.005 C 
HETATM    8  C4  UNL     1     -34.183  16.409  -2.052  1.00 20.00     0.009 C 
HETATM    9  C3  UNL     1     -35.302  17.317  -3.933  1.00 20.00     0.005 C 
HETATM   10  C7  UNL     1     -35.338  16.089  -3.008  1.00 20.00    -0.009 C 
ENDBRANCH   2   4
TORSDOF 1
ENDMDL
MODEL 3
REMARK VINA RESULT:      -4.9     15.865     16.871
REMARK  1 active torsions:
REMARK  status: ('A' for Active; 'I' for Inactive)
REMARK    1  A    between atoms: C8_8  and  C9_9 
ROOT
HETATM    1  C1  UNL     1     -22.005  17.865   8.215  1.00 20.00     0.059 C 
HETATM    2  C9  UNL     1     -22.073  18.404   9.569  1.00 20.00     0.129 C 
HETATM    3  N10 UNL     1     -21.940  17.459   7.130  1.00 20.00    -0.197 NA
ENDROOT
BRANCH   2   4
HETATM    4  C8  UNL     1     -22.681  17.283  10.395  1.00 20.00     0.003 C 
HETATM    5  C5  UNL     1     -22.657  17.553  11.913  1.00 20.00     0.010 C 
HETATM    6  C6  UNL     1     -24.118  17.296  12.331  1.00 20.00    -0.014 C 
HETATM    7  C2  UNL     1     -24.984  18.467  11.837  1.00 20.00     0.005 C 
HETATM    8  C4  UNL     1     -24.534  16.174  11.379  1.00 20.00     0.009 C 
HETATM    9  C3  UNL     1     -25.051  18.231  10.322  1.00 20.00     0.005 C 
HETATM   10  C7  UNL     1     -24.174  16.982  10.127  1.00 20.00    -0.009 C 
ENDBRANCH   2   4
TORSDOF 1
ENDMDL
MODEL 4
REMARK VINA RESULT:      -4.7     11.682     12.806
REMARK  1 active torsions:
REMARK  status: ('A' for Active; 'I' for Inactive)
REMARK    1  A    between atoms: C8_8  and  C9_9 
ROOT
HETATM    1  C1  UNL     1     -37.493  14.975  -4.314  1.00 20.00     0.059 C 
HETATM    2  C9  UNL     1     -36.857  16.287  -4.265  1.00 20.00     0.129 C 
HETATM    3  N10 UNL     1     -38.023  13.943  -4.350  1.00 20.00    -0.197 NA
ENDROOT
BRANCH   2   4
HETATM    4  C8  UNL     1     -35.375  15.998  -4.435  1.00 20.00     0.003 C 
HETATM    5  C5  UNL     1     -34.515  17.267  -4.607  1.00 20.00     0.010 C 
HETATM    6  C6  UNL     1     -33.406  17.076  -3.554  1.00 20.00    -0.014 C 
HETATM    7  C2  UNL     1     -34.006  17.312  -2.158  1.00 20.00     0.005 C 
HETATM    8  C4  UNL     1     -33.214  15.559  -3.560  1.00 20.00     0.009 C 
HETATM    9  C3  UNL     1     -34.863  16.059  -1.934  1.00 20.00     0.005 C 
HETATM   10  C7  UNL     1     -34.689  15.281  -3.249  1.00 20.00    -0.009 C 
ENDBRANCH   2   4
TORSDOF 1
ENDMDL
MODEL 5
REMARK VINA RESULT:      -4.4     11.190     12.522
REMARK  1 active torsions:
REMARK  status: ('A' for Active; 'I' for Inactive)
REMARK    1  A    between atoms: C8_8  and  C9_9 
ROOT
HETATM    1  C1  UNL     1     -35.147  13.693  -4.208  1.00 20.00     0.059 C 
HETATM    2  C9  UNL     1     -34.144  14.695  -3.865  1.00 20.00     0.129 C 
HETATM    3  N10 UNL     1     -35.924  12.878  -4.488  1.00 20.00    -0.197 NA
ENDROOT
BRANCH   2   4
HETATM    4  C8  UNL     1     -34.950  15.899  -3.407  1.00 20.00     0.003 C 
HETATM    5  C5  UNL     1     -35.069  16.013  -1.873  1.00 20.00     0.010 C 
HETATM    6  C6  UNL     1     -34.633  17.466  -1.601  1.00 20.00    -0.014 C 
HETATM    7  C2  UNL     1     -33.109  17.565  -1.787  1.00 20.00     0.005 C 
HETATM    8  C4  UNL     1     -35.148  18.195  -2.842  1.00 20.00     0.009 C 
HETATM    9  C3  UNL     1     -32.941  17.472  -3.310  1.00 20.00     0.005 C 
HETATM   10  C7  UNL     1     -34.384  17.281  -3.807  1.00 20.00    -0.009 C 
ENDBRANCH   2   4
TORSDOF 1
ENDMDL
MODEL 6
REMARK VINA RESULT:      -4.4     11.267     12.426
REMARK  1 active torsions:
REMARK  status: ('A' for Active; 'I' for Inactive)
REMARK    1  A    between atoms: C8_8  and  C9_9 
ROOT
HETATM    1  C1  UNL     1     -34.674  13.967  -4.152  1.00 20.00     0.059 C 
HETATM    2  C9  UNL     1     -33.965  15.241  -4.185  1.00 20.00     0.129 C 
HETATM    3  N10 UNL     1     -35.234  12.950  -4.153  1.00 20.00    -0.197 NA
ENDROOT
BRANCH   2   4
HETATM    4  C8  UNL     1     -33.996  15.730  -2.747  1.00 20.00     0.003 C 
HETATM    5  C5  UNL     1     -33.117  16.974  -2.500  1.00 20.00     0.010 C 
HETATM    6  C6  UNL     1     -34.085  17.944  -1.793  1.00 20.00    -0.014 C 
HETATM    7  C2  UNL     1     -35.081  18.488  -2.831  1.00 20.00     0.005 C 
HETATM    8  C4  UNL     1     -34.964  16.990  -0.984  1.00 20.00     0.009 C 
HETATM    9  C3  UNL     1     -35.993  17.283  -3.098  1.00 20.00     0.005 C 
HETATM   10  C7  UNL     1     -35.378  16.181  -2.219  1.00 20.00    -0.009 C 
ENDBRANCH   2   4
TORSDOF 1
ENDMDL
MODEL 7
REMARK VINA RESULT:      -4.3      8.868     10.183
REMARK  1 active torsions:
REMARK  status: ('A' for Active; 'I' for Inactive)
REMARK    1  A    between atoms: C8_8  and  C9_9 
ROOT
HETATM    1  C1  UNL     1     -42.676   4.067  -2.261  1.00 20.00     0.059 C 
HETATM    2  C9  UNL     1     -43.283   5.136  -1.475  1.00 20.00     0.129 C 
HETATM    3  N10 UNL     1     -42.218   3.207  -2.892  1.00 20.00    -0.197 NA
ENDROOT
BRANCH   2   4
HETATM    4  C8  UNL     1     -42.103   5.917  -0.922  1.00 20.00     0.003 C 
HETATM    5  C5  UNL     1     -41.971   7.336  -1.514  1.00 20.00     0.010 C 
HETATM    6  C6  UNL     1     -41.858   8.223  -0.259  1.00 20.00    -0.014 C 
HETATM    7  C2  UNL     1     -43.242   8.310   0.408  1.00 20.00     0.005 C 
HETATM    8  C4  UNL     1     -41.099   7.317   0.710  1.00 20.00     0.009 C 
HETATM    9  C3  UNL     1     -43.413   6.917   1.030  1.00 20.00     0.005 C 
HETATM   10  C7  UNL     1     -42.129   6.186   0.601  1.00 20.00    -0.009 C 
ENDBRANCH   2   4
TORSDOF 1
ENDMDL
MODEL 8
REMARK VINA RESULT:      -4.3     11.340     12.509
REMARK  1 active torsions:
REMARK  status: ('A' for Active; 'I' for Inactive)
REMARK    1  A    between atoms: C8_8  and  C9_9 
ROOT
HETATM    1  C1  UNL     1     -33.052  17.796  -1.666  1.00 20.00     0.059 C 
HETATM    2  C9  UNL     1     -32.978  17.282  -3.029  1.00 20.00     0.129 C 
HETATM    3  N10 UNL     1     -33.099  18.228  -0.590  1.00 20.00    -0.197 NA
ENDROOT
BRANCH   2   4
HETATM    4  C8  UNL     1     -33.573  15.887  -2.942  1.00 20.00     0.003 C 
HETATM    5  C5  UNL     1     -35.043  15.872  -2.474  1.00 20.00     0.010 C 
HETATM    6  C6  UNL     1     -35.737  15.010  -3.547  1.00 20.00    -0.014 C 
HETATM    7  C2  UNL     1     -35.848  15.833  -4.842  1.00 20.00     0.005 C 
HETATM    8  C4  UNL     1     -34.645  14.003  -3.908  1.00 20.00     0.009 C 
HETATM    9  C3  UNL     1     -34.403  15.862  -5.357  1.00 20.00     0.005 C 
HETATM   10  C7  UNL     1     -33.632  15.095  -4.269  1.00 20.00    -0.009 C 
ENDBRANCH   2   4
TORSDOF 1
ENDMDL
MODEL 9
REMARK VINA RESULT:      -4.2      8.539      9.478
REMARK  1 active torsions:
REMARK  status: ('A' for Active; 'I' for Inactive)
REMARK    1  A    between atoms: C8_8  and  C9_9 
ROOT
HETATM    1  C1  UNL     1     -41.273   9.406   0.058  1.00 20.00     0.059 C 
HETATM    2  C9  UNL     1     -41.300   8.179  -0.729  1.00 20.00     0.129 C 
HETATM    3  N10 UNL     1     -41.239  10.397   0.663  1.00 20.00    -0.197 NA
ENDROOT
BRANCH   2   4
HETATM    4  C8  UNL     1     -41.975   7.162   0.177  1.00 20.00     0.003 C 
HETATM    5  C5  UNL     1     -43.417   6.818  -0.250  1.00 20.00     0.010 C 
HETATM    6  C6  UNL     1     -43.406   5.278  -0.291  1.00 20.00    -0.014 C 
HETATM    7  C2  UNL     1     -42.616   4.825  -1.531  1.00 20.00     0.005 C 
HETATM    8  C4  UNL     1     -42.439   4.932   0.841  1.00 20.00     0.009 C 
HETATM    9  C3  UNL     1     -41.163   5.133  -1.145  1.00 20.00     0.005 C 
HETATM   10  C7  UNL     1     -41.302   5.772   0.247  1.00 20.00    -0.009 C 
ENDBRANCH   2   4
TORSDOF 1
ENDMDL
