MODEL 1
REMARK VINA RESULT:      -4.8      0.000      0.000
REMARK  0 active torsions:
REMARK  status: ('A' for Active; 'I' for Inactive)
ROOT
HETATM    1  C1  UNL     1     -37.219  14.767  -4.159  1.00 20.00     0.086 C 
HETATM    2  C2  UNL     1     -33.351  16.616  -3.601  1.00 20.00     0.005 C 
HETATM    3  C3  UNL     1     -34.154  16.259  -2.343  1.00 20.00     0.008 C 
HETATM    4  C4  UNL     1     -34.211  14.406  -3.806  1.00 20.00     0.012 C 
HETATM    5  C5  UNL     1     -35.321  16.110  -5.070  1.00 20.00     0.046 C 
HETATM    6  C6  UNL     1     -33.909  15.641  -4.653  1.00 20.00    -0.011 C 
HETATM    7  C7  UNL     1     -35.133  15.178  -2.847  1.00 20.00     0.024 C 
HETATM    8  C8  UNL     1     -36.181  15.761  -3.834  1.00 20.00     0.129 C 
HETATM    9  N9  UNL     1     -38.036  13.984  -4.413  1.00 20.00    -0.195 NA
HETATM   10 CL10 UNL     1     -37.046  17.182  -3.197  1.00 20.00    -0.102 Cl
ENDROOT
TORSDOF 0
ENDMDL
MODEL 2
REMARK VINA RESULT:      -4.8      1.826      2.252
REMARK  0 active torsions:
REMARK  status: ('A' for Active; 'I' for Inactive)
ROOT
HETATM    1  C1  UNL     1     -35.552  13.880  -4.491  1.00 20.00     0.086 C 
HETATM    2  C2  UNL     1     -33.525  17.537  -3.391  1.00 20.00     0.005 C 
HETATM    3  C3  UNL     1     -34.959  17.654  -3.925  1.00 20.00     0.008 C 
HETATM    4  C4  UNL     1     -34.908  15.923  -2.320  1.00 20.00     0.012 C 
HETATM    5  C5  UNL     1     -33.430  15.110  -4.018  1.00 20.00     0.046 C 
HETATM    6  C6  UNL     1     -33.482  16.102  -2.836  1.00 20.00    -0.011 C 
HETATM    7  C7  UNL     1     -35.538  16.245  -3.685  1.00 20.00     0.024 C 
HETATM    8  C8  UNL     1     -34.864  15.179  -4.592  1.00 20.00     0.129 C 
HETATM    9  N9  UNL     1     -36.095  12.857  -4.412  1.00 20.00    -0.195 NA
HETATM   10 CL10 UNL     1     -34.874  15.606  -6.322  1.00 20.00    -0.102 Cl
ENDROOT
TORSDOF 0
ENDMDL
MODEL 3
REMARK VINA RESULT:      -4.4      1.336      1.475
REMARK  0 active torsions:
REMARK  status: ('A' for Active; 'I' for Inactive)
ROOT
HETATM    1  C1  UNL     1     -35.816  14.802  -5.371  1.00 20.00     0.086 C 
HETATM    2  C2  UNL     1     -34.053  17.371  -2.374  1.00 20.00     0.005 C 
HETATM    3  C3  UNL     1     -34.876  16.171  -1.885  1.00 20.00     0.008 C 
HETATM    4  C4  UNL     1     -33.421  15.423  -3.588  1.00 20.00     0.012 C 
HETATM    5  C5  UNL     1     -34.811  16.998  -4.736  1.00 20.00     0.046 C 
HETATM    6  C6  UNL     1     -33.602  16.928  -3.777  1.00 20.00    -0.011 C 
HETATM    7  C7  UNL     1     -34.865  15.220  -3.100  1.00 20.00     0.024 C 
HETATM    8  C8  UNL     1     -35.675  15.796  -4.293  1.00 20.00     0.129 C 
HETATM    9  N9  UNL     1     -35.927  14.019  -6.220  1.00 20.00    -0.195 NA
HETATM   10 CL10 UNL     1     -37.332  16.287  -3.859  1.00 20.00    -0.102 Cl
ENDROOT
TORSDOF 0
ENDMDL
MODEL 4
REMARK VINA RESULT:      -4.4      1.365      1.440
REMARK  0 active torsions:
REMARK  status: ('A' for Active; 'I' for Inactive)
ROOT
HETATM    1  C1  UNL     1     -35.863  13.939  -4.328  1.00 20.00     0.086 C 
HETATM    2  C2  UNL     1     -34.500  17.892  -3.227  1.00 20.00     0.005 C 
HETATM    3  C3  UNL     1     -35.241  17.074  -2.160  1.00 20.00     0.008 C 
HETATM    4  C4  UNL     1     -33.634  15.675  -3.178  1.00 20.00     0.012 C 
HETATM    5  C5  UNL     1     -35.090  16.217  -5.000  1.00 20.00     0.046 C 
HETATM    6  C6  UNL     1     -33.935  16.806  -4.160  1.00 20.00    -0.011 C 
HETATM    7  C7  UNL     1     -35.079  15.623  -2.657  1.00 20.00     0.024 C 
HETATM    8  C8  UNL     1     -35.869  15.368  -3.970  1.00 20.00     0.129 C 
HETATM    9  N9  UNL     1     -35.857  12.814  -4.610  1.00 20.00    -0.195 NA
HETATM   10 CL10 UNL     1     -37.584  15.841  -3.872  1.00 20.00    -0.102 Cl
ENDROOT
TORSDOF 0
ENDMDL
MODEL 5
REMARK VINA RESULT:      -4.3      1.036      1.036
REMARK  0 active torsions:
REMARK  status: ('A' for Active; 'I' for Inactive)
ROOT
HETATM    1  C1  UNL     1     -37.012  15.828  -5.118  1.00 20.00     0.086 C 
HETATM    2  C2  UNL     1     -33.160  16.062  -3.170  1.00 20.00     0.005 C 
HETATM    3  C3  UNL     1     -34.409  16.162  -2.284  1.00 20.00     0.008 C 
HETATM    4  C4  UNL     1     -34.704  14.355  -3.775  1.00 20.00     0.012 C 
HETATM    5  C5  UNL     1     -34.552  16.235  -5.250  1.00 20.00     0.046 C 
HETATM    6  C6  UNL     1     -33.671  15.292  -4.400  1.00 20.00    -0.011 C 
HETATM    7  C7  UNL     1     -35.506  15.508  -3.151  1.00 20.00     0.024 C 
HETATM    8  C8  UNL     1     -35.840  16.363  -4.405  1.00 20.00     0.129 C 
HETATM    9  N9  UNL     1     -37.937  15.407  -5.679  1.00 20.00    -0.195 NA
HETATM   10 CL10 UNL     1     -36.227  18.060  -4.027  1.00 20.00    -0.102 Cl
ENDROOT
TORSDOF 0
ENDMDL
MODEL 6
REMARK VINA RESULT:      -4.2     11.198     12.064
REMARK  0 active torsions:
REMARK  status: ('A' for Active; 'I' for Inactive)
ROOT
HETATM    1  C1  UNL     1     -42.634   4.632  -1.603  1.00 20.00     0.086 C 
HETATM    2  C2  UNL     1     -41.983   8.449   0.320  1.00 20.00     0.005 C 
HETATM    3  C3  UNL     1     -41.163   7.252   0.823  1.00 20.00     0.008 C 
HETATM    4  C4  UNL     1     -41.087   7.260  -1.537  1.00 20.00     0.012 C 
HETATM    5  C5  UNL     1     -43.417   6.946  -1.087  1.00 20.00     0.046 C 
HETATM    6  C6  UNL     1     -42.331   8.044  -1.124  1.00 20.00    -0.011 C 
HETATM    7  C7  UNL     1     -41.211   6.271  -0.367  1.00 20.00     0.024 C 
HETATM    8  C8  UNL     1     -42.640   5.705  -0.594  1.00 20.00     0.129 C 
HETATM    9  N9  UNL     1     -42.629   3.786  -2.398  1.00 20.00    -0.195 NA
HETATM   10 CL10 UNL     1     -43.366   4.997   0.871  1.00 20.00    -0.102 Cl
ENDROOT
TORSDOF 0
ENDMDL
MODEL 7
REMARK VINA RESULT:      -4.2      2.073      2.794
REMARK  0 active torsions:
REMARK  status: ('A' for Active; 'I' for Inactive)
ROOT
HETATM    1  C1  UNL     1     -35.349  13.840  -4.271  1.00 20.00     0.086 C 
HETATM    2  C2  UNL     1     -34.524  17.967  -3.284  1.00 20.00     0.005 C 
HETATM    3  C3  UNL     1     -34.274  17.520  -4.731  1.00 20.00     0.008 C 
HETATM    4  C4  UNL     1     -36.384  16.701  -4.059  1.00 20.00     0.012 C 
HETATM    5  C5  UNL     1     -34.886  15.594  -2.555  1.00 20.00     0.046 C 
HETATM    6  C6  UNL     1     -35.575  16.957  -2.789  1.00 20.00    -0.011 C 
HETATM    7  C7  UNL     1     -35.151  16.258  -4.864  1.00 20.00     0.024 C 
HETATM    8  C8  UNL     1     -34.620  15.088  -3.991  1.00 20.00     0.129 C 
HETATM    9  N9  UNL     1     -35.924  12.856  -4.492  1.00 20.00    -0.195 NA
HETATM   10 CL10 UNL     1     -32.898  14.722  -4.263  1.00 20.00    -0.102 Cl
ENDROOT
TORSDOF 0
ENDMDL
MODEL 8
REMARK VINA RESULT:      -4.2     10.207     11.810
REMARK  0 active torsions:
REMARK  status: ('A' for Active; 'I' for Inactive)
ROOT
HETATM    1  C1  UNL     1     -41.725   9.142   0.003  1.00 20.00     0.086 C 
HETATM    2  C2  UNL     1     -43.012   5.019  -0.187  1.00 20.00     0.005 C 
HETATM    3  C3  UNL     1     -42.133   5.541  -1.332  1.00 20.00     0.008 C 
HETATM    4  C4  UNL     1     -41.169   6.227   0.711  1.00 20.00     0.012 C 
HETATM    5  C5  UNL     1     -43.290   7.337   0.731  1.00 20.00     0.046 C 
HETATM    6  C6  UNL     1     -42.648   5.954   0.979  1.00 20.00    -0.011 C 
HETATM    7  C7  UNL     1     -41.432   6.764  -0.705  1.00 20.00     0.024 C 
HETATM    8  C8  UNL     1     -42.431   7.918  -0.415  1.00 20.00     0.129 C 
HETATM    9  N9  UNL     1     -41.169  10.105   0.332  1.00 20.00    -0.195 NA
HETATM   10 CL10 UNL     1     -43.417   8.378  -1.825  1.00 20.00    -0.102 Cl
ENDROOT
TORSDOF 0
ENDMDL
MODEL 9
REMARK VINA RESULT:      -4.2     17.924     18.791
REMARK  0 active torsions:
REMARK  status: ('A' for Active; 'I' for Inactive)
ROOT
HETATM    1  C1  UNL     1     -25.161  18.357  11.563  1.00 20.00     0.086 C 
HETATM    2  C2  UNL     1     -21.717  17.089   9.279  1.00 20.00     0.005 C 
HETATM    3  C3  UNL     1     -23.102  16.682   8.758  1.00 20.00     0.008 C 
HETATM    4  C4  UNL     1     -23.173  18.971   9.334  1.00 20.00     0.012 C 
HETATM    5  C5  UNL     1     -22.707  17.915  11.431  1.00 20.00     0.046 C 
HETATM    6  C6  UNL     1     -22.020  18.344  10.116  1.00 20.00    -0.011 C 
HETATM    7  C7  UNL     1     -24.042  17.706   9.427  1.00 20.00     0.024 C 
HETATM    8  C8  UNL     1     -24.122  17.502  10.965  1.00 20.00     0.129 C 
HETATM    9  N9  UNL     1     -25.981  19.030  12.034  1.00 20.00    -0.195 NA
HETATM   10 CL10 UNL     1     -24.524  15.834  11.442  1.00 20.00    -0.102 Cl
ENDROOT
TORSDOF 0
ENDMDL
