MODEL 1
REMARK VINA RESULT:      -4.7      0.000      0.000
REMARK  1 active torsions:
REMARK  status: ('A' for Active; 'I' for Inactive)
REMARK    1  A    between atoms: C8_8  and  O10_10 
ROOT
HETATM    1  C1  UNL     1     -24.439  18.525  12.098  1.00 20.00     0.005 C 
HETATM    2  C2  UNL     1     -23.900  16.080  12.136  1.00 20.00     0.005 C 
HETATM    3  C3  UNL     1     -25.038  18.359  10.695  1.00 20.00     0.008 C 
HETATM    4  C4  UNL     1     -24.493  15.938  10.728  1.00 20.00     0.008 C 
HETATM    5  C5  UNL     1     -22.209  17.724  11.292  1.00 20.00     0.042 C 
HETATM    6  C6  UNL     1     -23.323  17.493  12.331  1.00 20.00    -0.012 C 
HETATM    7  C7  UNL     1     -24.291  17.248   9.934  1.00 20.00     0.019 C 
HETATM    8  C8  UNL     1     -22.773  17.570   9.860  1.00 20.00     0.058 C 
HETATM    9  C9  UNL     1     -22.470  18.809   9.012  1.00 20.00     0.046 C 
ENDROOT
BRANCH   8  10
HETATM   10  O10 UNL     1     -22.095  16.473   9.234  1.00 20.00    -0.390 OA
HETATM   11  H26 UNL     1     -21.247  16.822   8.926  1.00 20.00     0.210 HD
ENDBRANCH   8  10
TORSDOF 1
ENDMDL
MODEL 2
REMARK VINA RESULT:      -4.4     23.336     24.629
REMARK  1 active torsions:
REMARK  status: ('A' for Active; 'I' for Inactive)
REMARK    1  A    between atoms: C8_8  and  O10_10 
ROOT
HETATM    1  C1  UNL     1     -41.918   8.009  -1.640  1.00 20.00     0.005 C 
HETATM    2  C2  UNL     1     -41.283   7.616   0.750  1.00 20.00     0.005 C 
HETATM    3  C3  UNL     1     -43.375   7.671  -1.297  1.00 20.00     0.008 C 
HETATM    4  C4  UNL     1     -42.743   7.269   1.070  1.00 20.00     0.008 C 
HETATM    5  C5  UNL     1     -41.167   5.738  -0.903  1.00 20.00     0.042 C 
HETATM    6  C6  UNL     1     -40.956   7.252  -0.709  1.00 20.00    -0.012 C 
HETATM    7  C7  UNL     1     -43.417   6.628  -0.164  1.00 20.00     0.019 C 
HETATM    8  C8  UNL     1     -42.628   5.354  -0.572  1.00 20.00     0.058 C 
HETATM    9  C9  UNL     1     -43.279   4.600  -1.735  1.00 20.00     0.046 C 
ENDROOT
BRANCH   8  10
HETATM   10  O10 UNL     1     -42.605   4.447   0.538  1.00 20.00    -0.390 OA
HETATM   11  H26 UNL     1     -42.057   4.867   1.216  1.00 20.00     0.210 HD
ENDBRANCH   8  10
TORSDOF 1
ENDMDL
MODEL 3
REMARK VINA RESULT:      -4.4     18.711     19.876
REMARK  1 active torsions:
REMARK  status: ('A' for Active; 'I' for Inactive)
REMARK    1  A    between atoms: C8_8  and  O10_10 
ROOT
HETATM    1  C1  UNL     1     -35.016  16.764  -5.295  1.00 20.00     0.005 C 
HETATM    2  C2  UNL     1     -33.437  14.830  -5.487  1.00 20.00     0.005 C 
HETATM    3  C3  UNL     1     -35.293  16.377  -3.836  1.00 20.00     0.008 C 
HETATM    4  C4  UNL     1     -33.737  14.453  -4.030  1.00 20.00     0.008 C 
HETATM    5  C5  UNL     1     -35.851  14.542  -6.090  1.00 20.00     0.042 C 
HETATM    6  C6  UNL     1     -34.658  15.518  -6.122  1.00 20.00    -0.012 C 
HETATM    7  C7  UNL     1     -35.185  14.850  -3.669  1.00 20.00     0.019 C 
HETATM    8  C8  UNL     1     -36.167  14.130  -4.634  1.00 20.00     0.058 C 
HETATM    9  C9  UNL     1     -37.636  14.394  -4.292  1.00 20.00     0.046 C 
ENDROOT
BRANCH   8  10
HETATM   10  O10 UNL     1     -35.972  12.714  -4.524  1.00 20.00    -0.390 OA
HETATM   11  H26 UNL     1     -36.590  12.410  -3.843  1.00 20.00     0.210 HD
ENDBRANCH   8  10
TORSDOF 1
ENDMDL
MODEL 4
REMARK VINA RESULT:      -4.4     17.816     18.844
REMARK  1 active torsions:
REMARK  status: ('A' for Active; 'I' for Inactive)
REMARK    1  A    between atoms: C8_8  and  O10_10 
ROOT
HETATM    1  C1  UNL     1     -33.392  17.279  -3.814  1.00 20.00     0.005 C 
HETATM    2  C2  UNL     1     -34.839  15.768  -2.439  1.00 20.00     0.005 C 
HETATM    3  C3  UNL     1     -34.549  17.466  -4.805  1.00 20.00     0.008 C 
HETATM    4  C4  UNL     1     -35.979  15.958  -3.448  1.00 20.00     0.008 C 
HETATM    5  C5  UNL     1     -33.373  14.810  -4.230  1.00 20.00     0.042 C 
HETATM    6  C6  UNL     1     -33.477  15.898  -3.143  1.00 20.00    -0.012 C 
HETATM    7  C7  UNL     1     -35.402  16.184  -4.862  1.00 20.00     0.019 C 
HETATM    8  C8  UNL     1     -34.521  14.966  -5.254  1.00 20.00     0.058 C 
HETATM    9  C9  UNL     1     -33.977  15.062  -6.683  1.00 20.00     0.046 C 
ENDROOT
BRANCH   8  10
HETATM   10  O10 UNL     1     -35.322  13.778  -5.203  1.00 20.00    -0.390 OA
HETATM   11  H26 UNL     1     -35.268  13.380  -6.084  1.00 20.00     0.210 HD
ENDBRANCH   8  10
TORSDOF 1
ENDMDL
MODEL 5
REMARK VINA RESULT:      -4.2     22.735     24.040
REMARK  1 active torsions:
REMARK  status: ('A' for Active; 'I' for Inactive)
REMARK    1  A    between atoms: C8_8  and  O10_10 
ROOT
HETATM    1  C1  UNL     1     -40.921   5.874  -0.799  1.00 20.00     0.005 C 
HETATM    2  C2  UNL     1     -43.417   5.796  -0.614  1.00 20.00     0.005 C 
HETATM    3  C3  UNL     1     -40.841   6.369   0.652  1.00 20.00     0.008 C 
HETATM    4  C4  UNL     1     -43.316   6.302   0.831  1.00 20.00     0.008 C 
HETATM    5  C5  UNL     1     -42.287   7.868  -1.451  1.00 20.00     0.042 C 
HETATM    6  C6  UNL     1     -42.240   6.328  -1.448  1.00 20.00    -0.012 C 
HETATM    7  C7  UNL     1     -42.082   7.218   0.985  1.00 20.00     0.019 C 
HETATM    8  C8  UNL     1     -42.204   8.409  -0.005  1.00 20.00     0.058 C 
HETATM    9  C9  UNL     1     -41.064   9.421   0.141  1.00 20.00     0.046 C 
ENDROOT
BRANCH   8  10
HETATM   10  O10 UNL     1     -43.417   9.120   0.271  1.00 20.00    -0.390 OA
HETATM   11  H26 UNL     1     -43.151   9.963   0.665  1.00 20.00     0.210 HD
ENDBRANCH   8  10
TORSDOF 1
ENDMDL
MODEL 6
REMARK VINA RESULT:      -4.2     17.620     18.686
REMARK  1 active torsions:
REMARK  status: ('A' for Active; 'I' for Inactive)
REMARK    1  A    between atoms: C8_8  and  O10_10 
ROOT
HETATM    1  C1  UNL     1     -33.619  16.522  -2.396  1.00 20.00     0.005 C 
HETATM    2  C2  UNL     1     -33.339  14.769  -4.162  1.00 20.00     0.005 C 
HETATM    3  C3  UNL     1     -35.019  15.972  -2.090  1.00 20.00     0.008 C 
HETATM    4  C4  UNL     1     -34.746  14.243  -3.849  1.00 20.00     0.008 C 
HETATM    5  C5  UNL     1     -34.279  17.013  -4.761  1.00 20.00     0.042 C 
HETATM    6  C6  UNL     1     -33.257  16.278  -3.871  1.00 20.00    -0.012 C 
HETATM    7  C7  UNL     1     -35.650  15.401  -3.374  1.00 20.00     0.019 C 
HETATM    8  C8  UNL     1     -35.707  16.491  -4.479  1.00 20.00     0.058 C 
HETATM    9  C9  UNL     1     -36.656  17.641  -4.131  1.00 20.00     0.046 C 
ENDROOT
BRANCH   8  10
HETATM   10  O10 UNL     1     -36.207  15.902  -5.687  1.00 20.00    -0.390 OA
HETATM   11  H26 UNL     1     -36.589  16.628  -6.201  1.00 20.00     0.210 HD
ENDBRANCH   8  10
TORSDOF 1
ENDMDL
MODEL 7
REMARK VINA RESULT:      -4.2      1.598      2.410
REMARK  1 active torsions:
REMARK  status: ('A' for Active; 'I' for Inactive)
REMARK    1  A    between atoms: C8_8  and  O10_10 
ROOT
HETATM    1  C1  UNL     1     -23.101  16.652  12.266  1.00 20.00     0.005 C 
HETATM    2  C2  UNL     1     -25.598  16.482  12.187  1.00 20.00     0.005 C 
HETATM    3  C3  UNL     1     -23.219  18.180  12.332  1.00 20.00     0.008 C 
HETATM    4  C4  UNL     1     -25.694  18.013  12.242  1.00 20.00     0.008 C 
HETATM    5  C5  UNL     1     -24.283  16.610  10.059  1.00 20.00     0.042 C 
HETATM    6  C6  UNL     1     -24.292  16.054  11.497  1.00 20.00    -0.012 C 
HETATM    7  C7  UNL     1     -24.464  18.644  11.553  1.00 20.00     0.019 C 
HETATM    8  C8  UNL     1     -24.396  18.152  10.081  1.00 20.00     0.058 C 
HETATM    9  C9  UNL     1     -23.255  18.800   9.291  1.00 20.00     0.046 C 
ENDROOT
BRANCH   8  10
HETATM   10  O10 UNL     1     -25.611  18.515   9.413  1.00 20.00    -0.390 OA
HETATM   11  H26 UNL     1     -26.295  17.927   9.761  1.00 20.00     0.210 HD
ENDBRANCH   8  10
TORSDOF 1
ENDMDL
MODEL 8
REMARK VINA RESULT:      -4.2     17.847     18.956
REMARK  1 active torsions:
REMARK  status: ('A' for Active; 'I' for Inactive)
REMARK    1  A    between atoms: C8_8  and  O10_10 
ROOT
HETATM    1  C1  UNL     1     -35.724  17.061  -3.484  1.00 20.00     0.005 C 
HETATM    2  C2  UNL     1     -33.237  17.241  -3.709  1.00 20.00     0.005 C 
HETATM    3  C3  UNL     1     -35.570  15.581  -3.106  1.00 20.00     0.008 C 
HETATM    4  C4  UNL     1     -33.106  15.757  -3.341  1.00 20.00     0.008 C 
HETATM    5  C5  UNL     1     -34.636  16.654  -5.702  1.00 20.00     0.042 C 
HETATM    6  C6  UNL     1     -34.580  17.499  -4.414  1.00 20.00    -0.012 C 
HETATM    7  C7  UNL     1     -34.349  14.980  -3.826  1.00 20.00     0.019 C 
HETATM    8  C8  UNL     1     -34.490  15.152  -5.364  1.00 20.00     0.058 C 
HETATM    9  C9  UNL     1     -35.648  14.340  -5.949  1.00 20.00     0.046 C 
ENDROOT
BRANCH   8  10
HETATM   10  O10 UNL     1     -33.296  14.673  -5.996  1.00 20.00    -0.390 OA
HETATM   11  H26 UNL     1     -33.115  15.283  -6.725  1.00 20.00     0.210 HD
ENDBRANCH   8  10
TORSDOF 1
ENDMDL
MODEL 9
REMARK VINA RESULT:      -4.2     18.289     19.382
REMARK  1 active torsions:
REMARK  status: ('A' for Active; 'I' for Inactive)
REMARK    1  A    between atoms: C8_8  and  O10_10 
ROOT
HETATM    1  C1  UNL     1     -36.630  15.806  -4.222  1.00 20.00     0.005 C 
HETATM    2  C2  UNL     1     -35.858  14.214  -5.994  1.00 20.00     0.005 C 
HETATM    3  C3  UNL     1     -35.682  16.874  -4.785  1.00 20.00     0.008 C 
HETATM    4  C4  UNL     1     -34.908  15.292  -6.534  1.00 20.00     0.008 C 
HETATM    5  C5  UNL     1     -34.706  14.270  -3.771  1.00 20.00     0.042 C 
HETATM    6  C6  UNL     1     -36.067  14.398  -4.482  1.00 20.00    -0.012 C 
HETATM    7  C7  UNL     1     -34.431  16.202  -5.381  1.00 20.00     0.019 C 
HETATM    8  C8  UNL     1     -33.720  15.334  -4.307  1.00 20.00     0.058 C 
HETATM    9  C9  UNL     1     -33.132  16.167  -3.164  1.00 20.00     0.046 C 
ENDROOT
BRANCH   8  10
HETATM   10  O10 UNL     1     -32.620  14.648  -4.918  1.00 20.00    -0.390 OA
HETATM   11  H26 UNL     1     -32.989  14.166  -5.671  1.00 20.00     0.210 HD
ENDBRANCH   8  10
TORSDOF 1
ENDMDL
