MODEL 1
REMARK VINA RESULT:      -4.2      0.000      0.000
REMARK  0 active torsions:
REMARK  status: ('A' for Active; 'I' for Inactive)
ROOT
HETATM    1  C1  UNL     1     -33.798  14.487  -4.262  1.00 20.00     0.018 C 
HETATM    2  C2  UNL     1     -36.175  16.926  -2.873  1.00 20.00     0.018 C 
HETATM    3  C3  UNL     1     -35.261  14.049  -4.133  1.00 20.00     0.022 C 
HETATM    4  C4  UNL     1     -35.157  16.290  -1.923  1.00 20.00     0.022 C 
HETATM    5  C5  UNL     1     -33.476  15.943  -3.896  1.00 20.00     0.066 C 
HETATM    6  C6  UNL     1     -36.081  16.525  -4.353  1.00 20.00     0.066 C 
HETATM    7  C7  UNL     1     -36.283  15.040  -4.702  1.00 20.00     0.096 C 
HETATM    8  C8  UNL     1     -33.702  16.289  -2.411  1.00 20.00     0.096 C 
HETATM    9  S9  UNL     1     -34.452  17.032  -4.980  1.00 20.00    -0.156 SA
HETATM   10 CL10 UNL     1     -37.934  14.506  -4.236  1.00 20.00    -0.124 Cl
HETATM   11 CL11 UNL     1     -32.963  17.897  -2.044  1.00 20.00    -0.124 Cl
ENDROOT
TORSDOF 0
ENDMDL
MODEL 2
REMARK VINA RESULT:      -4.1      2.054      3.376
REMARK  0 active torsions:
REMARK  status: ('A' for Active; 'I' for Inactive)
ROOT
HETATM    1  C1  UNL     1     -33.045  15.122  -4.105  1.00 20.00     0.018 C 
HETATM    2  C2  UNL     1     -36.355  16.711  -4.319  1.00 20.00     0.018 C 
HETATM    3  C3  UNL     1     -33.446  16.070  -2.970  1.00 20.00     0.022 C 
HETATM    4  C4  UNL     1     -35.266  17.181  -5.286  1.00 20.00     0.022 C 
HETATM    5  C5  UNL     1     -34.106  14.840  -5.179  1.00 20.00     0.066 C 
HETATM    6  C6  UNL     1     -35.983  15.565  -3.366  1.00 20.00     0.066 C 
HETATM    7  C7  UNL     1     -34.834  15.811  -2.372  1.00 20.00     0.096 C 
HETATM    8  C8  UNL     1     -34.501  16.070  -6.019  1.00 20.00     0.096 C 
HETATM    9  S9  UNL     1     -35.560  14.106  -4.364  1.00 20.00    -0.156 SA
HETATM   10 CL10 UNL     1     -35.248  17.156  -1.256  1.00 20.00    -0.124 Cl
HETATM   11 CL11 UNL     1     -35.471  15.541  -7.449  1.00 20.00    -0.124 Cl
ENDROOT
TORSDOF 0
ENDMDL
MODEL 3
REMARK VINA RESULT:      -3.9      2.318      3.110
REMARK  0 active torsions:
REMARK  status: ('A' for Active; 'I' for Inactive)
ROOT
HETATM    1  C1  UNL     1     -35.824  17.693  -5.119  1.00 20.00     0.018 C 
HETATM    2  C2  UNL     1     -33.902  14.765  -3.995  1.00 20.00     0.018 C 
HETATM    3  C3  UNL     1     -34.852  17.062  -6.121  1.00 20.00     0.022 C 
HETATM    4  C4  UNL     1     -33.536  16.133  -3.416  1.00 20.00     0.022 C 
HETATM    5  C5  UNL     1     -35.985  16.980  -3.767  1.00 20.00     0.066 C 
HETATM    6  C6  UNL     1     -35.090  14.724  -4.969  1.00 20.00     0.066 C 
HETATM    7  C7  UNL     1     -34.973  15.541  -6.268  1.00 20.00     0.096 C 
HETATM    8  C8  UNL     1     -34.712  16.973  -2.898  1.00 20.00     0.096 C 
HETATM    9  S9  UNL     1     -36.574  15.287  -4.083  1.00 20.00    -0.156 SA
HETATM   10 CL10 UNL     1     -33.605  14.940  -7.264  1.00 20.00    -0.124 Cl
HETATM   11 CL11 UNL     1     -35.124  16.431  -1.224  1.00 20.00    -0.124 Cl
ENDROOT
TORSDOF 0
ENDMDL
MODEL 4
REMARK VINA RESULT:      -3.9      1.873      2.062
REMARK  0 active torsions:
REMARK  status: ('A' for Active; 'I' for Inactive)
ROOT
HETATM    1  C1  UNL     1     -32.985  15.061  -4.147  1.00 20.00     0.018 C 
HETATM    2  C2  UNL     1     -36.300  16.634  -4.387  1.00 20.00     0.018 C 
HETATM    3  C3  UNL     1     -33.826  14.743  -5.387  1.00 20.00     0.022 C 
HETATM    4  C4  UNL     1     -36.104  15.519  -3.357  1.00 20.00     0.022 C 
HETATM    5  C5  UNL     1     -33.560  16.092  -3.164  1.00 20.00     0.066 C 
HETATM    6  C6  UNL     1     -35.065  17.041  -5.205  1.00 20.00     0.066 C 
HETATM    7  C7  UNL     1     -34.417  15.967  -6.096  1.00 20.00     0.096 C 
HETATM    8  C8  UNL     1     -34.861  15.646  -2.467  1.00 20.00     0.096 C 
HETATM    9  S9  UNL     1     -33.799  17.659  -4.058  1.00 20.00    -0.156 SA
HETATM   10 CL10 UNL     1     -35.576  15.411  -7.351  1.00 20.00    -0.124 Cl
HETATM   11 CL11 UNL     1     -35.233  16.771  -1.102  1.00 20.00    -0.124 Cl
ENDROOT
TORSDOF 0
ENDMDL
MODEL 5
REMARK VINA RESULT:      -3.9      1.576      1.895
REMARK  0 active torsions:
REMARK  status: ('A' for Active; 'I' for Inactive)
ROOT
HETATM    1  C1  UNL     1     -34.449  16.839  -6.000  1.00 20.00     0.018 C 
HETATM    2  C2  UNL     1     -34.890  15.761  -2.511  1.00 20.00     0.018 C 
HETATM    3  C3  UNL     1     -34.813  15.371  -5.758  1.00 20.00     0.022 C 
HETATM    4  C4  UNL     1     -33.472  16.070  -2.996  1.00 20.00     0.022 C 
HETATM    5  C5  UNL     1     -34.404  17.754  -4.767  1.00 20.00     0.066 C 
HETATM    6  C6  UNL     1     -36.027  15.981  -3.521  1.00 20.00     0.066 C 
HETATM    7  C7  UNL     1     -36.000  15.147  -4.814  1.00 20.00     0.096 C 
HETATM    8  C8  UNL     1     -33.301  17.396  -3.751  1.00 20.00     0.096 C 
HETATM    9  S9  UNL     1     -36.047  17.738  -3.984  1.00 20.00    -0.156 SA
HETATM   10 CL10 UNL     1     -36.122  13.396  -4.434  1.00 20.00    -0.124 Cl
HETATM   11 CL11 UNL     1     -33.126  18.733  -2.548  1.00 20.00    -0.124 Cl
ENDROOT
TORSDOF 0
ENDMDL
MODEL 6
REMARK VINA RESULT:      -3.9      1.861      3.826
REMARK  0 active torsions:
REMARK  status: ('A' for Active; 'I' for Inactive)
ROOT
HETATM    1  C1  UNL     1     -34.022  16.299  -2.242  1.00 20.00     0.018 C 
HETATM    2  C2  UNL     1     -34.904  16.450  -5.809  1.00 20.00     0.018 C 
HETATM    3  C3  UNL     1     -33.257  17.300  -3.114  1.00 20.00     0.022 C 
HETATM    4  C4  UNL     1     -34.143  15.221  -5.306  1.00 20.00     0.022 C 
HETATM    5  C5  UNL     1     -35.162  15.521  -2.916  1.00 20.00     0.066 C 
HETATM    6  C6  UNL     1     -35.284  17.503  -4.757  1.00 20.00     0.066 C 
HETATM    7  C7  UNL     1     -34.139  18.193  -3.995  1.00 20.00     0.096 C 
HETATM    8  C8  UNL     1     -34.702  14.566  -4.036  1.00 20.00     0.096 C 
HETATM    9  S9  UNL     1     -36.381  16.722  -3.537  1.00 20.00    -0.156 SA
HETATM   10 CL10 UNL     1     -33.091  19.108  -5.132  1.00 20.00    -0.124 Cl
HETATM   11 CL11 UNL     1     -36.065  13.471  -4.495  1.00 20.00    -0.124 Cl
ENDROOT
TORSDOF 0
ENDMDL
MODEL 7
REMARK VINA RESULT:      -3.9      1.470      3.832
REMARK  0 active torsions:
REMARK  status: ('A' for Active; 'I' for Inactive)
ROOT
HETATM    1  C1  UNL     1     -34.428  17.191  -5.678  1.00 20.00     0.018 C 
HETATM    2  C2  UNL     1     -34.871  15.921  -2.255  1.00 20.00     0.018 C 
HETATM    3  C3  UNL     1     -33.941  18.079  -4.530  1.00 20.00     0.022 C 
HETATM    4  C4  UNL     1     -36.116  16.372  -3.023  1.00 20.00     0.022 C 
HETATM    5  C5  UNL     1     -34.964  15.802  -5.301  1.00 20.00     0.066 C 
HETATM    6  C6  UNL     1     -33.534  15.988  -3.009  1.00 20.00     0.066 C 
HETATM    7  C7  UNL     1     -33.060  17.370  -3.494  1.00 20.00     0.096 C 
HETATM    8  C8  UNL     1     -36.251  15.828  -4.452  1.00 20.00     0.096 C 
HETATM    9  S9  UNL     1     -33.636  14.890  -4.453  1.00 20.00    -0.156 SA
HETATM   10 CL10 UNL     1     -32.801  18.469  -2.098  1.00 20.00    -0.124 Cl
HETATM   11 CL11 UNL     1     -36.961  14.168  -4.378  1.00 20.00    -0.124 Cl
ENDROOT
TORSDOF 0
ENDMDL
MODEL 8
REMARK VINA RESULT:      -3.9      1.770      3.797
REMARK  0 active torsions:
REMARK  status: ('A' for Active; 'I' for Inactive)
ROOT
HETATM    1  C1  UNL     1     -35.595  16.441  -2.532  1.00 20.00     0.018 C 
HETATM    2  C2  UNL     1     -35.656  14.569  -5.697  1.00 20.00     0.018 C 
HETATM    3  C3  UNL     1     -34.425  15.492  -2.811  1.00 20.00     0.022 C 
HETATM    4  C4  UNL     1     -36.649  14.169  -4.604  1.00 20.00     0.022 C 
HETATM    5  C5  UNL     1     -36.637  16.603  -3.649  1.00 20.00     0.066 C 
HETATM    6  C6  UNL     1     -34.743  15.767  -5.394  1.00 20.00     0.066 C 
HETATM    7  C7  UNL     1     -33.785  15.646  -4.196  1.00 20.00     0.096 C 
HETATM    8  C8  UNL     1     -37.434  15.322  -3.963  1.00 20.00     0.096 C 
HETATM    9  S9  UNL     1     -35.789  17.230  -5.133  1.00 20.00    -0.156 SA
HETATM   10 CL10 UNL     1     -32.624  14.300  -4.455  1.00 20.00    -0.124 Cl
HETATM   11 CL11 UNL     1     -38.841  15.728  -5.022  1.00 20.00    -0.124 Cl
ENDROOT
TORSDOF 0
ENDMDL
MODEL 9
REMARK VINA RESULT:      -3.8      1.853      2.390
REMARK  0 active torsions:
REMARK  status: ('A' for Active; 'I' for Inactive)
ROOT
HETATM    1  C1  UNL     1     -34.366  18.179  -5.332  1.00 20.00     0.018 C 
HETATM    2  C2  UNL     1     -34.542  15.220  -3.155  1.00 20.00     0.018 C 
HETATM    3  C3  UNL     1     -34.672  16.833  -5.997  1.00 20.00     0.022 C 
HETATM    4  C4  UNL     1     -33.169  15.844  -3.413  1.00 20.00     0.022 C 
HETATM    5  C5  UNL     1     -34.264  18.187  -3.799  1.00 20.00     0.066 C 
HETATM    6  C6  UNL     1     -35.750  15.923  -3.792  1.00 20.00     0.066 C 
HETATM    7  C7  UNL     1     -35.787  16.021  -5.327  1.00 20.00     0.096 C 
HETATM    8  C8  UNL     1     -33.086  17.366  -3.238  1.00 20.00     0.096 C 
HETATM    9  S9  UNL     1     -35.850  17.609  -3.119  1.00 20.00    -0.156 SA
HETATM   10 CL10 UNL     1     -35.834  14.382  -6.059  1.00 20.00    -0.124 Cl
HETATM   11 CL11 UNL     1     -32.868  17.740  -1.483  1.00 20.00    -0.124 Cl
ENDROOT
TORSDOF 0
ENDMDL
