MODEL 1
REMARK VINA RESULT:      -4.4      0.000      0.000
REMARK  3 active torsions:
REMARK  status: ('A' for Active; 'I' for Inactive)
REMARK    1  A    between atoms: C1_1  and  C2_2 
REMARK    2  A    between atoms: C1_1  and  C3_3 
REMARK    3  A    between atoms: C2_2  and  S8_8 
ROOT
HETATM    1  C1  UNL     1     -33.825   6.154   4.184  1.00 20.00     0.241 C 
HETATM    2  O4  UNL     1     -33.494   7.070   4.935  1.00 20.00    -0.287 OA
ENDROOT
BRANCH   1   3
HETATM    3  C2  UNL     1     -33.207   5.916   2.822  1.00 20.00     0.158 C 
BRANCH   3   4
HETATM    4  S8  UNL     1     -32.475   7.421   2.138  1.00 20.00    -0.174 SA
HETATM    5  H11 UNL     1     -33.621   8.109   2.028  1.00 20.00     0.102 HD
ENDBRANCH   3   4
ENDBRANCH   1   3
BRANCH   1   6
HETATM    6  C3  UNL     1     -34.898   5.185   4.592  1.00 20.00     0.451 C 
HETATM    7  F5  UNL     1     -36.103   5.515   4.064  1.00 20.00    -0.163 F 
HETATM    8  F6  UNL     1     -34.619   3.922   4.182  1.00 20.00    -0.163 F 
HETATM    9  F7  UNL     1     -35.059   5.135   5.939  1.00 20.00    -0.163 F 
ENDBRANCH   1   6
TORSDOF 3
ENDMDL
MODEL 2
REMARK VINA RESULT:      -4.1      1.431      1.444
REMARK  3 active torsions:
REMARK  status: ('A' for Active; 'I' for Inactive)
REMARK    1  A    between atoms: C1_1  and  C2_2 
REMARK    2  A    between atoms: C1_1  and  C3_3 
REMARK    3  A    between atoms: C2_2  and  S8_8 
ROOT
HETATM    1  C1  UNL     1     -33.684   5.645   3.387  1.00 20.00     0.241 C 
HETATM    2  O4  UNL     1     -33.551   4.791   2.514  1.00 20.00    -0.287 OA
ENDROOT
BRANCH   1   3
HETATM    3  C2  UNL     1     -32.904   6.942   3.425  1.00 20.00     0.158 C 
BRANCH   3   4
HETATM    4  S8  UNL     1     -32.535   7.559   1.766  1.00 20.00    -0.174 SA
HETATM    5  H11 UNL     1     -32.180   8.796   2.141  1.00 20.00     0.102 HD
ENDBRANCH   3   4
ENDBRANCH   1   3
BRANCH   1   6
HETATM    6  C3  UNL     1     -34.666   5.442   4.507  1.00 20.00     0.451 C 
HETATM    7  F5  UNL     1     -35.948   5.546   4.078  1.00 20.00    -0.163 F 
HETATM    8  F6  UNL     1     -34.537   4.218   5.075  1.00 20.00    -0.163 F 
HETATM    9  F7  UNL     1     -34.509   6.355   5.499  1.00 20.00    -0.163 F 
ENDBRANCH   1   6
TORSDOF 3
ENDMDL
MODEL 3
REMARK VINA RESULT:      -3.7      2.914      3.300
REMARK  3 active torsions:
REMARK  status: ('A' for Active; 'I' for Inactive)
REMARK    1  A    between atoms: C1_1  and  C2_2 
REMARK    2  A    between atoms: C1_1  and  C3_3 
REMARK    3  A    between atoms: C2_2  and  S8_8 
ROOT
HETATM    1  C1  UNL     1     -34.247   4.830   3.825  1.00 20.00     0.241 C 
HETATM    2  O4  UNL     1     -34.316   3.649   4.161  1.00 20.00    -0.287 OA
ENDROOT
BRANCH   1   3
HETATM    3  C2  UNL     1     -34.986   5.951   4.525  1.00 20.00     0.158 C 
BRANCH   3   4
HETATM    4  S8  UNL     1     -34.080   6.566   5.962  1.00 20.00    -0.174 SA
HETATM    5  H11 UNL     1     -33.763   5.365   6.466  1.00 20.00     0.102 HD
ENDBRANCH   3   4
ENDBRANCH   1   3
BRANCH   1   6
HETATM    6  C3  UNL     1     -33.393   5.240   2.658  1.00 20.00     0.451 C 
HETATM    7  F5  UNL     1     -32.639   6.330   2.945  1.00 20.00    -0.163 F 
HETATM    8  F6  UNL     1     -32.539   4.253   2.288  1.00 20.00    -0.163 F 
HETATM    9  F7  UNL     1     -34.134   5.551   1.564  1.00 20.00    -0.163 F 
ENDBRANCH   1   6
TORSDOF 3
ENDMDL
MODEL 4
REMARK VINA RESULT:      -3.7      1.845      2.008
REMARK  3 active torsions:
REMARK  status: ('A' for Active; 'I' for Inactive)
REMARK    1  A    between atoms: C1_1  and  C2_2 
REMARK    2  A    between atoms: C1_1  and  C3_3 
REMARK    3  A    between atoms: C2_2  and  S8_8 
ROOT
HETATM    1  C1  UNL     1     -34.840   5.426   4.360  1.00 20.00     0.241 C 
HETATM    2  O4  UNL     1     -36.011   5.553   4.004  1.00 20.00    -0.287 OA
ENDROOT
BRANCH   1   3
HETATM    3  C2  UNL     1     -33.706   5.079   3.419  1.00 20.00     0.158 C 
BRANCH   3   4
HETATM    4  S8  UNL     1     -32.893   6.554   2.763  1.00 20.00    -0.174 SA
HETATM    5  H11 UNL     1     -32.749   6.102   1.509  1.00 20.00     0.102 HD
ENDBRANCH   3   4
ENDBRANCH   1   3
BRANCH   1   6
HETATM    6  C3  UNL     1     -34.457   5.617   5.800  1.00 20.00     0.451 C 
HETATM    7  F5  UNL     1     -35.543   5.824   6.587  1.00 20.00    -0.163 F 
HETATM    8  F6  UNL     1     -33.808   4.535   6.297  1.00 20.00    -0.163 F 
HETATM    9  F7  UNL     1     -33.636   6.684   5.976  1.00 20.00    -0.163 F 
ENDBRANCH   1   6
TORSDOF 3
ENDMDL
MODEL 5
REMARK VINA RESULT:      -3.7      1.915      2.287
REMARK  3 active torsions:
REMARK  status: ('A' for Active; 'I' for Inactive)
REMARK    1  A    between atoms: C1_1  and  C2_2 
REMARK    2  A    between atoms: C1_1  and  C3_3 
REMARK    3  A    between atoms: C2_2  and  S8_8 
ROOT
HETATM    1  C1  UNL     1     -34.488   5.372   4.527  1.00 20.00     0.241 C 
HETATM    2  O4  UNL     1     -34.750   4.262   4.066  1.00 20.00    -0.287 OA
ENDROOT
BRANCH   1   3
HETATM    3  C2  UNL     1     -34.221   6.597   3.678  1.00 20.00     0.158 C 
BRANCH   3   4
HETATM    4  S8  UNL     1     -32.717   6.423   2.690  1.00 20.00    -0.174 SA
HETATM    5  H11 UNL     1     -32.571   7.725   2.408  1.00 20.00     0.102 HD
ENDBRANCH   3   4
ENDBRANCH   1   3
BRANCH   1   6
HETATM    6  C3  UNL     1     -34.415   5.581   6.014  1.00 20.00     0.451 C 
HETATM    7  F5  UNL     1     -33.743   6.715   6.331  1.00 20.00    -0.163 F 
HETATM    8  F6  UNL     1     -35.649   5.684   6.569  1.00 20.00    -0.163 F 
HETATM    9  F7  UNL     1     -33.784   4.559   6.645  1.00 20.00    -0.163 F 
ENDBRANCH   1   6
TORSDOF 3
ENDMDL
MODEL 6
REMARK VINA RESULT:      -3.6      3.120      3.570
REMARK  3 active torsions:
REMARK  status: ('A' for Active; 'I' for Inactive)
REMARK    1  A    between atoms: C1_1  and  C2_2 
REMARK    2  A    between atoms: C1_1  and  C3_3 
REMARK    3  A    between atoms: C2_2  and  S8_8 
ROOT
HETATM    1  C1  UNL     1     -33.424   6.719   4.220  1.00 20.00     0.241 C 
HETATM    2  O4  UNL     1     -33.087   7.389   5.195  1.00 20.00    -0.287 OA
ENDROOT
BRANCH   1   3
HETATM    3  C2  UNL     1     -34.588   5.749   4.226  1.00 20.00     0.158 C 
BRANCH   3   4
HETATM    4  S8  UNL     1     -34.860   5.027   5.860  1.00 20.00    -0.174 SA
HETATM    5  H11 UNL     1     -35.961   5.735   6.155  1.00 20.00     0.102 HD
ENDBRANCH   3   4
ENDBRANCH   1   3
BRANCH   1   6
HETATM    6  C3  UNL     1     -32.674   6.830   2.923  1.00 20.00     0.451 C 
HETATM    7  F5  UNL     1     -31.396   7.242   3.114  1.00 20.00    -0.163 F 
HETATM    8  F6  UNL     1     -32.613   5.641   2.273  1.00 20.00    -0.163 F 
HETATM    9  F7  UNL     1     -33.250   7.715   2.071  1.00 20.00    -0.163 F 
ENDBRANCH   1   6
TORSDOF 3
ENDMDL
MODEL 7
REMARK VINA RESULT:      -3.5      3.593      4.022
REMARK  3 active torsions:
REMARK  status: ('A' for Active; 'I' for Inactive)
REMARK    1  A    between atoms: C1_1  and  C2_2 
REMARK    2  A    between atoms: C1_1  and  C3_3 
REMARK    3  A    between atoms: C2_2  and  S8_8 
ROOT
HETATM    1  C1  UNL     1     -33.265   6.148   3.002  1.00 20.00     0.241 C 
HETATM    2  O4  UNL     1     -33.283   5.058   2.434  1.00 20.00    -0.287 OA
ENDROOT
BRANCH   1   3
HETATM    3  C2  UNL     1     -34.024   6.447   4.277  1.00 20.00     0.158 C 
BRANCH   3   4
HETATM    4  S8  UNL     1     -34.943   5.009   4.872  1.00 20.00    -0.174 SA
HETATM    5  H11 UNL     1     -36.163   5.553   4.759  1.00 20.00     0.102 HD
ENDBRANCH   3   4
ENDBRANCH   1   3
BRANCH   1   6
HETATM    6  C3  UNL     1     -32.458   7.285   2.441  1.00 20.00     0.451 C 
HETATM    7  F5  UNL     1     -31.539   7.737   3.330  1.00 20.00    -0.163 F 
HETATM    8  F6  UNL     1     -31.781   6.920   1.323  1.00 20.00    -0.163 F 
HETATM    9  F7  UNL     1     -33.233   8.347   2.103  1.00 20.00    -0.163 F 
ENDBRANCH   1   6
TORSDOF 3
ENDMDL
MODEL 8
REMARK VINA RESULT:      -3.4     12.039     12.512
REMARK  3 active torsions:
REMARK  status: ('A' for Active; 'I' for Inactive)
REMARK    1  A    between atoms: C1_1  and  C2_2 
REMARK    2  A    between atoms: C1_1  and  C3_3 
REMARK    3  A    between atoms: C2_2  and  S8_8 
ROOT
HETATM    1  C1  UNL     1     -35.792  13.983  -4.570  1.00 20.00     0.241 C 
HETATM    2  O4  UNL     1     -35.968  12.766  -4.544  1.00 20.00    -0.287 OA
ENDROOT
BRANCH   1   3
HETATM    3  C2  UNL     1     -36.793  14.968  -5.134  1.00 20.00     0.158 C 
BRANCH   3   4
HETATM    4  S8  UNL     1     -38.366  14.922  -4.245  1.00 20.00    -0.174 SA
HETATM    5  H11 UNL     1     -39.081  15.580  -5.169  1.00 20.00     0.102 HD
ENDBRANCH   3   4
ENDBRANCH   1   3
BRANCH   1   6
HETATM    6  C3  UNL     1     -34.527  14.580  -4.020  1.00 20.00     0.451 C 
HETATM    7  F5  UNL     1     -34.130  15.663  -4.734  1.00 20.00    -0.163 F 
HETATM    8  F6  UNL     1     -34.679  14.988  -2.735  1.00 20.00    -0.163 F 
HETATM    9  F7  UNL     1     -33.495  13.699  -4.035  1.00 20.00    -0.163 F 
ENDBRANCH   1   6
TORSDOF 3
ENDMDL
MODEL 9
REMARK VINA RESULT:      -3.4     16.713     17.218
REMARK  3 active torsions:
REMARK  status: ('A' for Active; 'I' for Inactive)
REMARK    1  A    between atoms: C1_1  and  C2_2 
REMARK    2  A    between atoms: C1_1  and  C3_3 
REMARK    3  A    between atoms: C2_2  and  S8_8 
ROOT
HETATM    1  C1  UNL     1     -22.890  17.584  11.261  1.00 20.00     0.241 C 
HETATM    2  O4  UNL     1     -22.188  17.795  12.248  1.00 20.00    -0.287 OA
ENDROOT
BRANCH   1   3
HETATM    3  C2  UNL     1     -22.712  18.288   9.933  1.00 20.00     0.158 C 
BRANCH   3   4
HETATM    4  S8  UNL     1     -21.350  17.588   8.972  1.00 20.00    -0.174 SA
HETATM    5  H11 UNL     1     -22.109  17.037   8.014  1.00 20.00     0.102 HD
ENDBRANCH   3   4
ENDBRANCH   1   3
BRANCH   1   6
HETATM    6  C3  UNL     1     -24.005  16.578  11.322  1.00 20.00     0.451 C 
HETATM    7  F5  UNL     1     -23.731  15.574  12.192  1.00 20.00    -0.163 F 
HETATM    8  F6  UNL     1     -25.172  17.142  11.722  1.00 20.00    -0.163 F 
HETATM    9  F7  UNL     1     -24.240  16.000  10.116  1.00 20.00    -0.163 F 
ENDBRANCH   1   6
TORSDOF 3
ENDMDL
