MODEL 1
REMARK VINA RESULT:      -4.5      0.000      0.000
REMARK  0 active torsions:
REMARK  status: ('A' for Active; 'I' for Inactive)
ROOT
HETATM    1  C1  UNL     1     -34.774  14.017  -4.019  1.00 20.00     0.127 C 
HETATM    2  C2  UNL     1     -33.582  14.851  -4.449  1.00 20.00     0.082 C 
HETATM    3  C3  UNL     1     -36.107  14.725  -3.856  1.00 20.00     0.082 C 
HETATM    4  C4  UNL     1     -33.712  16.306  -2.376  1.00 20.00     0.005 C 
HETATM    5  C5  UNL     1     -35.204  16.231  -2.024  1.00 20.00     0.005 C 
HETATM    6  C6  UNL     1     -34.986  16.917  -4.304  1.00 20.00     0.010 C 
HETATM    7  C7  UNL     1     -33.654  16.285  -3.910  1.00 20.00    -0.007 C 
HETATM    8  C8  UNL     1     -35.937  16.170  -3.373  1.00 20.00    -0.007 C 
HETATM    9  O9  UNL     1     -34.689  12.793  -3.912  1.00 20.00    -0.298 OA
ENDROOT
TORSDOF 0
ENDMDL
MODEL 2
REMARK VINA RESULT:      -4.4      0.972      1.151
REMARK  0 active torsions:
REMARK  status: ('A' for Active; 'I' for Inactive)
ROOT
HETATM    1  C1  UNL     1     -35.516  13.902  -4.488  1.00 20.00     0.127 C 
HETATM    2  C2  UNL     1     -34.109  14.141  -3.969  1.00 20.00     0.082 C 
HETATM    3  C3  UNL     1     -36.234  15.070  -5.139  1.00 20.00     0.082 C 
HETATM    4  C4  UNL     1     -34.898  15.898  -2.319  1.00 20.00     0.005 C 
HETATM    5  C5  UNL     1     -36.154  16.446  -3.009  1.00 20.00     0.005 C 
HETATM    6  C6  UNL     1     -34.322  16.568  -4.540  1.00 20.00     0.010 C 
HETATM    7  C7  UNL     1     -33.918  15.573  -3.456  1.00 20.00    -0.007 C 
HETATM    8  C8  UNL     1     -35.840  16.412  -4.512  1.00 20.00    -0.007 C 
HETATM    9  O9  UNL     1     -36.014  12.776  -4.477  1.00 20.00    -0.298 OA
ENDROOT
TORSDOF 0
ENDMDL
MODEL 3
REMARK VINA RESULT:      -4.3     17.206     18.553
REMARK  0 active torsions:
REMARK  status: ('A' for Active; 'I' for Inactive)
ROOT
HETATM    1  C1  UNL     1     -22.568  18.311   9.661  1.00 20.00     0.127 C 
HETATM    2  C2  UNL     1     -23.861  17.665   9.200  1.00 20.00     0.082 C 
HETATM    3  C3  UNL     1     -21.934  17.788  10.937  1.00 20.00     0.082 C 
HETATM    4  C4  UNL     1     -25.090  18.365  11.306  1.00 20.00     0.005 C 
HETATM    5  C5  UNL     1     -23.951  18.439  12.332  1.00 20.00     0.005 C 
HETATM    6  C6  UNL     1     -23.906  16.288  11.289  1.00 20.00     0.010 C 
HETATM    7  C7  UNL     1     -24.725  17.197  10.377  1.00 20.00    -0.007 C 
HETATM    8  C8  UNL     1     -22.983  17.309  11.948  1.00 20.00    -0.007 C 
HETATM    9  O9  UNL     1     -21.997  19.155   8.969  1.00 20.00    -0.298 OA
ENDROOT
TORSDOF 0
ENDMDL
MODEL 4
REMARK VINA RESULT:      -4.3     10.365     11.849
REMARK  0 active torsions:
REMARK  status: ('A' for Active; 'I' for Inactive)
ROOT
HETATM    1  C1  UNL     1     -41.904   8.774  -0.069  1.00 20.00     0.127 C 
HETATM    2  C2  UNL     1     -43.284   8.285   0.327  1.00 20.00     0.082 C 
HETATM    3  C3  UNL     1     -41.172   8.014  -1.159  1.00 20.00     0.082 C 
HETATM    4  C4  UNL     1     -42.389   6.034   1.082  1.00 20.00     0.005 C 
HETATM    5  C5  UNL     1     -41.140   5.875   0.205  1.00 20.00     0.005 C 
HETATM    6  C6  UNL     1     -43.017   6.325  -1.206  1.00 20.00     0.010 C 
HETATM    7  C7  UNL     1     -43.415   6.762   0.201  1.00 20.00    -0.007 C 
HETATM    8  C8  UNL     1     -41.505   6.517  -1.142  1.00 20.00    -0.007 C 
HETATM    9  O9  UNL     1     -41.439   9.814   0.401  1.00 20.00    -0.298 OA
ENDROOT
TORSDOF 0
ENDMDL
MODEL 5
REMARK VINA RESULT:      -4.3     16.938     18.070
REMARK  0 active torsions:
REMARK  status: ('A' for Active; 'I' for Inactive)
ROOT
HETATM    1  C1  UNL     1     -25.052  18.840   9.904  1.00 20.00     0.127 C 
HETATM    2  C2  UNL     1     -23.637  18.296   9.835  1.00 20.00     0.082 C 
HETATM    3  C3  UNL     1     -25.637  19.113  11.277  1.00 20.00     0.082 C 
HETATM    4  C4  UNL     1     -24.268  16.193  11.107  1.00 20.00     0.005 C 
HETATM    5  C5  UNL     1     -25.451  16.675  11.958  1.00 20.00     0.005 C 
HETATM    6  C6  UNL     1     -23.592  18.131  12.332  1.00 20.00     0.010 C 
HETATM    7  C7  UNL     1     -23.309  17.390  11.029  1.00 20.00    -0.007 C 
HETATM    8  C8  UNL     1     -25.118  18.128  12.331  1.00 20.00    -0.007 C 
HETATM    9  O9  UNL     1     -25.664  19.151   8.880  1.00 20.00    -0.298 OA
ENDROOT
TORSDOF 0
ENDMDL
MODEL 6
REMARK VINA RESULT:      -4.3     10.421     11.791
REMARK  0 active torsions:
REMARK  status: ('A' for Active; 'I' for Inactive)
ROOT
HETATM    1  C1  UNL     1     -41.428   5.667  -0.861  1.00 20.00     0.127 C 
HETATM    2  C2  UNL     1     -42.900   5.858  -1.174  1.00 20.00     0.082 C 
HETATM    3  C3  UNL     1     -40.883   6.324   0.394  1.00 20.00     0.082 C 
HETATM    4  C4  UNL     1     -42.644   8.374  -1.373  1.00 20.00     0.005 C 
HETATM    5  C5  UNL     1     -41.452   8.650  -0.447  1.00 20.00     0.005 C 
HETATM    6  C6  UNL     1     -43.101   7.420   0.771  1.00 20.00     0.010 C 
HETATM    7  C7  UNL     1     -43.417   7.225  -0.709  1.00 20.00    -0.007 C 
HETATM    8  C8  UNL     1     -41.593   7.647   0.708  1.00 20.00    -0.007 C 
HETATM    9  O9  UNL     1     -40.725   4.919  -1.541  1.00 20.00    -0.298 OA
ENDROOT
TORSDOF 0
ENDMDL
MODEL 7
REMARK VINA RESULT:      -4.2      1.400      2.676
REMARK  0 active torsions:
REMARK  status: ('A' for Active; 'I' for Inactive)
ROOT
HETATM    1  C1  UNL     1     -36.526  14.301  -4.160  1.00 20.00     0.127 C 
HETATM    2  C2  UNL     1     -36.526  15.752  -3.716  1.00 20.00     0.082 C 
HETATM    3  C3  UNL     1     -35.233  13.519  -4.015  1.00 20.00     0.082 C 
HETATM    4  C4  UNL     1     -34.757  16.388  -5.420  1.00 20.00     0.005 C 
HETATM    5  C5  UNL     1     -33.994  15.068  -5.598  1.00 20.00     0.005 C 
HETATM    6  C6  UNL     1     -34.068  15.604  -3.269  1.00 20.00     0.010 C 
HETATM    7  C7  UNL     1     -35.166  16.425  -3.940  1.00 20.00    -0.007 C 
HETATM    8  C8  UNL     1     -33.998  14.406  -4.212  1.00 20.00    -0.007 C 
HETATM    9  O9  UNL     1     -37.564  13.748  -4.524  1.00 20.00    -0.298 OA
ENDROOT
TORSDOF 0
ENDMDL
MODEL 8
REMARK VINA RESULT:      -4.2     17.337     18.399
REMARK  0 active torsions:
REMARK  status: ('A' for Active; 'I' for Inactive)
ROOT
HETATM    1  C1  UNL     1     -25.500  18.357  11.428  1.00 20.00     0.127 C 
HETATM    2  C2  UNL     1     -25.334  16.993  12.072  1.00 20.00     0.082 C 
HETATM    3  C3  UNL     1     -24.895  18.565  10.052  1.00 20.00     0.082 C 
HETATM    4  C4  UNL     1     -22.805  17.190  12.094  1.00 20.00     0.005 C 
HETATM    5  C5  UNL     1     -22.545  18.120  10.901  1.00 20.00     0.005 C 
HETATM    6  C6  UNL     1     -23.882  16.280  10.163  1.00 20.00     0.010 C 
HETATM    7  C7  UNL     1     -24.008  16.328  11.683  1.00 20.00    -0.007 C 
HETATM    8  C8  UNL     1     -23.611  17.750   9.857  1.00 20.00    -0.007 C 
HETATM    9  O9  UNL     1     -26.193  19.228  11.954  1.00 20.00    -0.298 OA
ENDROOT
TORSDOF 0
ENDMDL
MODEL 9
REMARK VINA RESULT:      -4.2     11.260     12.335
REMARK  0 active torsions:
REMARK  status: ('A' for Active; 'I' for Inactive)
ROOT
HETATM    1  C1  UNL     1     -42.773   5.186  -0.474  1.00 20.00     0.127 C 
HETATM    2  C2  UNL     1     -43.172   5.857   0.827  1.00 20.00     0.082 C 
HETATM    3  C3  UNL     1     -41.480   5.634  -1.131  1.00 20.00     0.082 C 
HETATM    4  C4  UNL     1     -43.327   8.139  -0.271  1.00 20.00     0.005 C 
HETATM    5  C5  UNL     1     -42.328   8.007  -1.429  1.00 20.00     0.005 C 
HETATM    6  C6  UNL     1     -41.225   7.415   0.609  1.00 20.00     0.010 C 
HETATM    7  C7  UNL     1     -42.724   7.323   0.882  1.00 20.00    -0.007 C 
HETATM    8  C8  UNL     1     -41.195   7.121  -0.889  1.00 20.00    -0.007 C 
HETATM    9  O9  UNL     1     -43.417   4.238  -0.924  1.00 20.00    -0.298 OA
ENDROOT
TORSDOF 0
ENDMDL
