MODEL 1
REMARK VINA RESULT:      -5.5      0.000      0.000
REMARK  2 active torsions:
REMARK  status: ('A' for Active; 'I' for Inactive)
REMARK    1  A    between atoms: C1_1  and  C2_2 
REMARK    2  A    between atoms: C2_2  and  C3_3 
ROOT
HETATM    1  C2  UNL     1     -34.710   5.212   4.350  1.00 20.00     0.428 C 
HETATM    2  F6  UNL     1     -34.621   3.866   4.192  1.00 20.00    -0.184 F 
HETATM    3  F7  UNL     1     -35.991   5.553   4.055  1.00 20.00    -0.184 F 
ENDROOT
BRANCH   1   4
HETATM    4  C1  UNL     1     -33.744   5.914   3.445  1.00 20.00     0.379 C 
HETATM    5  O4  UNL     1     -33.003   5.364   2.644  1.00 20.00    -0.253 OA
HETATM    6  F5  UNL     1     -33.714   7.254   3.491  1.00 20.00    -0.157 F 
ENDBRANCH   1   4
BRANCH   1   7
HETATM    7  C3  UNL     1     -34.432   5.550   5.792  1.00 20.00     0.465 C 
HETATM    8  F8  UNL     1     -33.795   4.529   6.405  1.00 20.00    -0.165 F 
HETATM    9  F9  UNL     1     -35.574   5.787   6.471  1.00 20.00    -0.165 F 
HETATM   10  F10 UNL     1     -33.649   6.644   5.898  1.00 20.00    -0.165 F 
ENDBRANCH   1   7
TORSDOF 2
ENDMDL
MODEL 2
REMARK VINA RESULT:      -5.5      0.031      1.201
REMARK  2 active torsions:
REMARK  status: ('A' for Active; 'I' for Inactive)
REMARK    1  A    between atoms: C1_1  and  C2_2 
REMARK    2  A    between atoms: C2_2  and  C3_3 
ROOT
HETATM    1  C2  UNL     1     -34.705   5.222   4.369  1.00 20.00     0.428 C 
HETATM    2  F6  UNL     1     -34.609   3.878   4.197  1.00 20.00    -0.184 F 
HETATM    3  F7  UNL     1     -35.990   5.559   4.085  1.00 20.00    -0.184 F 
ENDROOT
BRANCH   1   4
HETATM    4  C1  UNL     1     -33.749   5.938   3.466  1.00 20.00     0.379 C 
HETATM    5  O4  UNL     1     -32.996   5.399   2.668  1.00 20.00    -0.253 OA
HETATM    6  F5  UNL     1     -33.740   7.278   3.509  1.00 20.00    -0.157 F 
ENDBRANCH   1   4
BRANCH   1   7
HETATM    7  C3  UNL     1     -34.420   5.548   5.812  1.00 20.00     0.465 C 
HETATM    8  F8  UNL     1     -35.568   5.805   6.477  1.00 20.00    -0.165 F 
HETATM    9  F9  UNL     1     -33.629   6.635   5.925  1.00 20.00    -0.165 F 
HETATM   10  F10 UNL     1     -33.807   4.520   6.436  1.00 20.00    -0.165 F 
ENDBRANCH   1   7
TORSDOF 2
ENDMDL
MODEL 3
REMARK VINA RESULT:      -5.5      0.733      1.915
REMARK  2 active torsions:
REMARK  status: ('A' for Active; 'I' for Inactive)
REMARK    1  A    between atoms: C1_1  and  C2_2 
REMARK    2  A    between atoms: C2_2  and  C3_3 
ROOT
HETATM    1  C2  UNL     1     -34.724   5.792   4.373  1.00 20.00     0.428 C 
HETATM    2  F6  UNL     1     -36.053   5.739   4.098  1.00 20.00    -0.184 F 
HETATM    3  F7  UNL     1     -34.292   7.014   3.968  1.00 20.00    -0.184 F 
ENDROOT
BRANCH   1   4
HETATM    4  C1  UNL     1     -33.994   4.698   3.657  1.00 20.00     0.379 C 
HETATM    5  O4  UNL     1     -33.271   4.853   2.684  1.00 20.00    -0.253 OA
HETATM    6  F5  UNL     1     -34.112   3.453   4.141  1.00 20.00    -0.157 F 
ENDBRANCH   1   4
BRANCH   1   7
HETATM    7  C3  UNL     1     -34.533   5.673   5.863  1.00 20.00     0.465 C 
HETATM    8  F8  UNL     1     -35.575   5.023   6.426  1.00 20.00    -0.165 F 
HETATM    9  F9  UNL     1     -34.445   6.888   6.446  1.00 20.00    -0.165 F 
HETATM   10  F10 UNL     1     -33.411   4.986   6.161  1.00 20.00    -0.165 F 
ENDBRANCH   1   7
TORSDOF 2
ENDMDL
MODEL 4
REMARK VINA RESULT:      -5.4      1.163      2.424
REMARK  2 active torsions:
REMARK  status: ('A' for Active; 'I' for Inactive)
REMARK    1  A    between atoms: C1_1  and  C2_2 
REMARK    2  A    between atoms: C2_2  and  C3_3 
ROOT
HETATM    1  C2  UNL     1     -34.032   6.441   4.445  1.00 20.00     0.428 C 
HETATM    2  F6  UNL     1     -34.857   7.511   4.304  1.00 20.00    -0.184 F 
HETATM    3  F7  UNL     1     -33.238   6.700   5.516  1.00 20.00    -0.184 F 
ENDROOT
BRANCH   1   4
HETATM    4  C1  UNL     1     -33.215   6.239   3.206  1.00 20.00     0.379 C 
HETATM    5  O4  UNL     1     -32.191   6.847   2.931  1.00 20.00    -0.253 OA
HETATM    6  F5  UNL     1     -33.617   5.293   2.345  1.00 20.00    -0.157 F 
ENDBRANCH   1   4
BRANCH   1   7
HETATM    7  C3  UNL     1     -34.867   5.221   4.737  1.00 20.00     0.465 C 
HETATM    8  F8  UNL     1     -35.165   5.153   6.053  1.00 20.00    -0.165 F 
HETATM    9  F9  UNL     1     -34.214   4.087   4.406  1.00 20.00    -0.165 F 
HETATM   10  F10 UNL     1     -36.030   5.246   4.054  1.00 20.00    -0.165 F 
ENDBRANCH   1   7
TORSDOF 2
ENDMDL
MODEL 5
REMARK VINA RESULT:      -5.0      1.622      3.178
REMARK  2 active torsions:
REMARK  status: ('A' for Active; 'I' for Inactive)
REMARK    1  A    between atoms: C1_1  and  C2_2 
REMARK    2  A    between atoms: C2_2  and  C3_3 
ROOT
HETATM    1  C2  UNL     1     -34.651   5.357   4.386  1.00 20.00     0.428 C 
HETATM    2  F6  UNL     1     -35.952   5.577   4.064  1.00 20.00    -0.184 F 
HETATM    3  F7  UNL     1     -34.395   4.054   4.101  1.00 20.00    -0.184 F 
ENDROOT
BRANCH   1   4
HETATM    4  C1  UNL     1     -34.409   5.649   5.834  1.00 20.00     0.379 C 
HETATM    5  O4  UNL     1     -34.453   6.758   6.346  1.00 20.00    -0.253 OA
HETATM    6  F5  UNL     1     -34.160   4.610   6.643  1.00 20.00    -0.157 F 
ENDBRANCH   1   4
BRANCH   1   7
HETATM    7  C3  UNL     1     -33.783   6.229   3.514  1.00 20.00     0.465 C 
HETATM    8  F8  UNL     1     -34.429   7.371   3.191  1.00 20.00    -0.165 F 
HETATM    9  F9  UNL     1     -33.456   5.604   2.364  1.00 20.00    -0.165 F 
HETATM   10  F10 UNL     1     -32.639   6.570   4.144  1.00 20.00    -0.165 F 
ENDBRANCH   1   7
TORSDOF 2
ENDMDL
MODEL 6
REMARK VINA RESULT:      -4.9      1.620      3.123
REMARK  2 active torsions:
REMARK  status: ('A' for Active; 'I' for Inactive)
REMARK    1  A    between atoms: C1_1  and  C2_2 
REMARK    2  A    between atoms: C2_2  and  C3_3 
ROOT
HETATM    1  C2  UNL     1     -34.645   5.357   4.380  1.00 20.00     0.428 C 
HETATM    2  F6  UNL     1     -35.948   5.565   4.059  1.00 20.00    -0.184 F 
HETATM    3  F7  UNL     1     -34.381   4.054   4.102  1.00 20.00    -0.184 F 
ENDROOT
BRANCH   1   4
HETATM    4  C1  UNL     1     -34.404   5.658   5.827  1.00 20.00     0.379 C 
HETATM    5  O4  UNL     1     -34.434   6.772   6.329  1.00 20.00    -0.253 OA
HETATM    6  F5  UNL     1     -34.173   4.622   6.646  1.00 20.00    -0.157 F 
ENDBRANCH   1   4
BRANCH   1   7
HETATM    7  C3  UNL     1     -33.785   6.229   3.504  1.00 20.00     0.465 C 
HETATM    8  F8  UNL     1     -33.480   5.594   2.351  1.00 20.00    -0.165 F 
HETATM    9  F9  UNL     1     -32.623   6.548   4.114  1.00 20.00    -0.165 F 
HETATM   10  F10 UNL     1     -34.416   7.379   3.183  1.00 20.00    -0.165 F 
ENDBRANCH   1   7
TORSDOF 2
ENDMDL
MODEL 7
REMARK VINA RESULT:      -4.9      1.925      3.366
REMARK  2 active torsions:
REMARK  status: ('A' for Active; 'I' for Inactive)
REMARK    1  A    between atoms: C1_1  and  C2_2 
REMARK    2  A    between atoms: C2_2  and  C3_3 
ROOT
HETATM    1  C2  UNL     1     -33.513   5.383   2.754  1.00 20.00     0.428 C 
HETATM    2  F6  UNL     1     -34.130   5.504   1.550  1.00 20.00    -0.184 F 
HETATM    3  F7  UNL     1     -32.505   4.489   2.586  1.00 20.00    -0.184 F 
ENDROOT
BRANCH   1   4
HETATM    4  C1  UNL     1     -34.481   4.914   3.796  1.00 20.00     0.379 C 
HETATM    5  O4  UNL     1     -34.358   3.897   4.464  1.00 20.00    -0.253 OA
HETATM    6  F5  UNL     1     -35.548   5.686   4.044  1.00 20.00    -0.157 F 
ENDBRANCH   1   4
BRANCH   1   7
HETATM    7  C3  UNL     1     -32.926   6.718   3.133  1.00 20.00     0.465 C 
HETATM    8  F8  UNL     1     -33.484   7.708   2.403  1.00 20.00    -0.165 F 
HETATM    9  F9  UNL     1     -31.595   6.750   2.917  1.00 20.00    -0.165 F 
HETATM   10  F10 UNL     1     -33.144   6.998   4.436  1.00 20.00    -0.165 F 
ENDBRANCH   1   7
TORSDOF 2
ENDMDL
MODEL 8
REMARK VINA RESULT:      -4.9      1.667      2.169
REMARK  2 active torsions:
REMARK  status: ('A' for Active; 'I' for Inactive)
REMARK    1  A    between atoms: C1_1  and  C2_2 
REMARK    2  A    between atoms: C2_2  and  C3_3 
ROOT
HETATM    1  C2  UNL     1     -33.428   5.475   2.796  1.00 20.00     0.428 C 
HETATM    2  F6  UNL     1     -32.507   4.478   2.858  1.00 20.00    -0.184 F 
HETATM    3  F7  UNL     1     -34.156   5.261   1.670  1.00 20.00    -0.184 F 
ENDROOT
BRANCH   1   4
HETATM    4  C1  UNL     1     -32.755   6.813   2.756  1.00 20.00     0.379 C 
HETATM    5  O4  UNL     1     -32.829   7.610   1.833  1.00 20.00    -0.253 OA
HETATM    6  F5  UNL     1     -32.043   7.181   3.831  1.00 20.00    -0.157 F 
ENDBRANCH   1   4
BRANCH   1   7
HETATM    7  C3  UNL     1     -34.336   5.371   3.994  1.00 20.00     0.465 C 
HETATM    8  F8  UNL     1     -34.266   4.136   4.538  1.00 20.00    -0.165 F 
HETATM    9  F9  UNL     1     -35.623   5.598   3.657  1.00 20.00    -0.165 F 
HETATM   10  F10 UNL     1     -33.992   6.260   4.950  1.00 20.00    -0.165 F 
ENDBRANCH   1   7
TORSDOF 2
ENDMDL
MODEL 9
REMARK VINA RESULT:      -4.9      1.286      2.839
REMARK  2 active torsions:
REMARK  status: ('A' for Active; 'I' for Inactive)
REMARK    1  A    between atoms: C1_1  and  C2_2 
REMARK    2  A    between atoms: C2_2  and  C3_3 
ROOT
HETATM    1  C2  UNL     1     -34.465   5.451   5.700  1.00 20.00     0.428 C 
HETATM    2  F6  UNL     1     -35.619   5.403   6.414  1.00 20.00    -0.184 F 
HETATM    3  F7  UNL     1     -33.652   4.491   6.212  1.00 20.00    -0.184 F 
ENDROOT
BRANCH   1   4
HETATM    4  C1  UNL     1     -33.834   6.805   5.808  1.00 20.00     0.379 C 
HETATM    5  O4  UNL     1     -32.888   7.196   5.140  1.00 20.00    -0.253 OA
HETATM    6  F5  UNL     1     -34.369   7.670   6.681  1.00 20.00    -0.157 F 
ENDBRANCH   1   4
BRANCH   1   7
HETATM    7  C3  UNL     1     -34.770   5.118   4.262  1.00 20.00     0.465 C 
HETATM    8  F8  UNL     1     -36.064   5.381   3.978  1.00 20.00    -0.165 F 
HETATM    9  F9  UNL     1     -34.551   3.812   4.002  1.00 20.00    -0.165 F 
HETATM   10  F10 UNL     1     -34.009   5.845   3.417  1.00 20.00    -0.165 F 
ENDBRANCH   1   7
TORSDOF 2
ENDMDL
