MODEL 1
REMARK VINA RESULT:      -4.3      0.000      0.000
REMARK  0 active torsions:
REMARK  status: ('A' for Active; 'I' for Inactive)
ROOT
HETATM    1  C1  UNL     1     -33.961   6.524   5.939  1.00 20.00    -0.025 A 
HETATM    2  C2  UNL     1     -33.656   6.806   4.662  1.00 20.00     0.003 A 
HETATM    3  C3  UNL     1     -34.873   5.321   5.991  1.00 20.00     0.061 A 
HETATM    4  C4  UNL     1     -34.266   5.873   3.702  1.00 20.00     0.173 A 
HETATM    5  C5  UNL     1     -35.140   4.967   4.547  1.00 20.00     0.158 A 
HETATM    6  O6  UNL     1     -34.054   4.453   3.778  1.00 20.00    -0.371 OA
ENDROOT
TORSDOF 0
ENDMDL
MODEL 2
REMARK VINA RESULT:      -4.3      0.988      1.799
REMARK  0 active torsions:
REMARK  status: ('A' for Active; 'I' for Inactive)
ROOT
HETATM    1  C1  UNL     1     -33.727   6.925   5.547  1.00 20.00    -0.025 A 
HETATM    2  C2  UNL     1     -34.434   5.951   6.141  1.00 20.00     0.003 A 
HETATM    3  C3  UNL     1     -33.652   6.665   4.061  1.00 20.00     0.061 A 
HETATM    4  C4  UNL     1     -34.940   4.944   5.196  1.00 20.00     0.173 A 
HETATM    5  C5  UNL     1     -34.352   5.342   3.857  1.00 20.00     0.158 A 
HETATM    6  O6  UNL     1     -35.762   5.297   4.071  1.00 20.00    -0.371 OA
ENDROOT
TORSDOF 0
ENDMDL
MODEL 3
REMARK VINA RESULT:      -3.9      1.333      2.442
REMARK  0 active torsions:
REMARK  status: ('A' for Active; 'I' for Inactive)
ROOT
HETATM    1  C1  UNL     1     -34.771   4.636   4.840  1.00 20.00    -0.025 A 
HETATM    2  C2  UNL     1     -34.782   5.370   5.964  1.00 20.00     0.003 A 
HETATM    3  C3  UNL     1     -34.229   5.462   3.698  1.00 20.00     0.061 A 
HETATM    4  C4  UNL     1     -34.257   6.730   5.772  1.00 20.00     0.173 A 
HETATM    5  C5  UNL     1     -33.990   6.834   4.284  1.00 20.00     0.158 A 
HETATM    6  O6  UNL     1     -32.943   6.974   5.242  1.00 20.00    -0.371 OA
ENDROOT
TORSDOF 0
ENDMDL
MODEL 4
REMARK VINA RESULT:      -3.9      1.316      2.160
REMARK  0 active torsions:
REMARK  status: ('A' for Active; 'I' for Inactive)
ROOT
HETATM    1  C1  UNL     1     -33.065   6.362   2.968  1.00 20.00    -0.025 A 
HETATM    2  C2  UNL     1     -33.550   6.839   4.127  1.00 20.00     0.003 A 
HETATM    3  C3  UNL     1     -33.588   4.964   2.736  1.00 20.00     0.061 A 
HETATM    4  C4  UNL     1     -34.445   5.895   4.812  1.00 20.00     0.173 A 
HETATM    5  C5  UNL     1     -34.397   4.636   3.969  1.00 20.00     0.158 A 
HETATM    6  O6  UNL     1     -35.613   5.351   4.175  1.00 20.00    -0.371 OA
ENDROOT
TORSDOF 0
ENDMDL
MODEL 5
REMARK VINA RESULT:      -3.8      1.073      1.941
REMARK  0 active torsions:
REMARK  status: ('A' for Active; 'I' for Inactive)
ROOT
HETATM    1  C1  UNL     1     -34.893   5.325   5.908  1.00 20.00    -0.025 A 
HETATM    2  C2  UNL     1     -34.821   4.803   4.673  1.00 20.00     0.003 A 
HETATM    3  C3  UNL     1     -34.048   6.575   5.981  1.00 20.00     0.061 A 
HETATM    4  C4  UNL     1     -33.978   5.588   3.760  1.00 20.00     0.173 A 
HETATM    5  C5  UNL     1     -33.389   6.684   4.625  1.00 20.00     0.158 A 
HETATM    6  O6  UNL     1     -34.221   6.982   3.505  1.00 20.00    -0.371 OA
ENDROOT
TORSDOF 0
ENDMDL
MODEL 6
REMARK VINA RESULT:      -3.4     12.244     12.517
REMARK  0 active torsions:
REMARK  status: ('A' for Active; 'I' for Inactive)
ROOT
HETATM    1  C1  UNL     1     -34.016  15.971  -2.728  1.00 20.00    -0.025 A 
HETATM    2  C2  UNL     1     -33.069  15.634  -3.618  1.00 20.00     0.003 A 
HETATM    3  C3  UNL     1     -35.270  15.171  -2.992  1.00 20.00     0.061 A 
HETATM    4  C4  UNL     1     -33.504  14.593  -4.561  1.00 20.00     0.173 A 
HETATM    5  C5  UNL     1     -34.965  14.357  -4.228  1.00 20.00     0.158 A 
HETATM    6  O6  UNL     1     -33.995  13.317  -4.115  1.00 20.00    -0.371 OA
ENDROOT
TORSDOF 0
ENDMDL
MODEL 7
REMARK VINA RESULT:      -3.3     12.456     12.829
REMARK  0 active torsions:
REMARK  status: ('A' for Active; 'I' for Inactive)
ROOT
HETATM    1  C1  UNL     1     -34.273  16.065  -2.762  1.00 20.00    -0.025 A 
HETATM    2  C2  UNL     1     -35.176  15.103  -3.011  1.00 20.00     0.003 A 
HETATM    3  C3  UNL     1     -33.032  15.823  -3.589  1.00 20.00     0.061 A 
HETATM    4  C4  UNL     1     -34.719  14.124  -4.008  1.00 20.00     0.173 A 
HETATM    5  C5  UNL     1     -33.289  14.523  -4.315  1.00 20.00     0.158 A 
HETATM    6  O6  UNL     1     -34.296  14.516  -5.325  1.00 20.00    -0.371 OA
ENDROOT
TORSDOF 0
ENDMDL
MODEL 8
REMARK VINA RESULT:      -3.2      9.031      9.620
REMARK  0 active torsions:
REMARK  status: ('A' for Active; 'I' for Inactive)
ROOT
HETATM    1  C1  UNL     1     -42.527   6.844   0.943  1.00 20.00    -0.025 A 
HETATM    2  C2  UNL     1     -43.417   7.761   0.529  1.00 20.00     0.003 A 
HETATM    3  C3  UNL     1     -41.142   7.236   0.483  1.00 20.00     0.061 A 
HETATM    4  C4  UNL     1     -42.802   8.868  -0.218  1.00 20.00     0.173 A 
HETATM    5  C5  UNL     1     -41.340   8.486  -0.341  1.00 20.00     0.158 A 
HETATM    6  O6  UNL     1     -41.748   9.672   0.338  1.00 20.00    -0.371 OA
ENDROOT
TORSDOF 0
ENDMDL
MODEL 9
REMARK VINA RESULT:      -3.2     12.223     13.028
REMARK  0 active torsions:
REMARK  status: ('A' for Active; 'I' for Inactive)
ROOT
HETATM    1  C1  UNL     1     -34.141  14.965  -5.720  1.00 20.00    -0.025 A 
HETATM    2  C2  UNL     1     -35.395  14.699  -6.123  1.00 20.00     0.003 A 
HETATM    3  C3  UNL     1     -33.939  14.451  -4.314  1.00 20.00     0.061 A 
HETATM    4  C4  UNL     1     -36.187  13.982  -5.112  1.00 20.00     0.173 A 
HETATM    5  C5  UNL     1     -35.284  13.906  -3.897  1.00 20.00     0.158 A 
HETATM    6  O6  UNL     1     -35.757  12.730  -4.552  1.00 20.00    -0.371 OA
ENDROOT
TORSDOF 0
ENDMDL
