MODEL 1
REMARK VINA RESULT:      -5.0      0.000      0.000
REMARK  0 active torsions:
REMARK  status: ('A' for Active; 'I' for Inactive)
ROOT
HETATM    1  C1  UNL     1     -32.761   7.192   2.378  1.00 20.00     0.064 C 
HETATM    2  C2  UNL     1     -33.247   6.942   4.787  1.00 20.00     0.022 C 
HETATM    3  C3  UNL     1     -34.269   6.456   5.816  1.00 20.00     0.036 C 
HETATM    4  C4  UNL     1     -33.710   5.057   3.176  1.00 20.00     0.053 C 
HETATM    5  C5  UNL     1     -33.676   6.582   3.358  1.00 20.00     0.095 C 
HETATM    6  C6  UNL     1     -34.659   5.028   5.602  1.00 20.00     0.151 A 
HETATM    7  C7  UNL     1     -34.417   4.344   4.284  1.00 20.00     0.152 A 
HETATM    8  N8  UNL     1     -32.040   7.671   1.605  1.00 20.00    -0.197 NA
HETATM    9  O9  UNL     1     -35.705   4.859   4.627  1.00 20.00    -0.375 OA
ENDROOT
TORSDOF 0
ENDMDL
MODEL 2
REMARK VINA RESULT:      -4.6      9.037      9.410
REMARK  0 active torsions:
REMARK  status: ('A' for Active; 'I' for Inactive)
ROOT
HETATM    1  C1  UNL     1     -41.453   9.187   0.422  1.00 20.00     0.064 C 
HETATM    2  C2  UNL     1     -41.296   7.147  -0.963  1.00 20.00     0.022 C 
HETATM    3  C3  UNL     1     -41.326   5.618  -0.950  1.00 20.00     0.036 C 
HETATM    4  C4  UNL     1     -43.081   7.372   0.807  1.00 20.00     0.053 C 
HETATM    5  C5  UNL     1     -41.637   7.725   0.418  1.00 20.00     0.095 C 
HETATM    6  C6  UNL     1     -42.566   5.076  -0.314  1.00 20.00     0.151 A 
HETATM    7  C7  UNL     1     -43.417   5.931   0.587  1.00 20.00     0.152 A 
HETATM    8  N8  UNL     1     -41.308  10.339   0.426  1.00 20.00    -0.197 NA
HETATM    9  O9  UNL     1     -42.484   4.990   1.122  1.00 20.00    -0.375 OA
ENDROOT
TORSDOF 0
ENDMDL
MODEL 3
REMARK VINA RESULT:      -4.6     12.085     12.553
REMARK  0 active torsions:
REMARK  status: ('A' for Active; 'I' for Inactive)
ROOT
HETATM    1  C1  UNL     1     -37.477  14.296  -4.277  1.00 20.00     0.064 C 
HETATM    2  C2  UNL     1     -35.653  15.559  -3.190  1.00 20.00     0.022 C 
HETATM    3  C3  UNL     1     -34.156  15.582  -2.879  1.00 20.00     0.036 C 
HETATM    4  C4  UNL     1     -35.341  14.560  -5.485  1.00 20.00     0.053 C 
HETATM    5  C5  UNL     1     -36.016  14.390  -4.115  1.00 20.00     0.095 C 
HETATM    6  C6  UNL     1     -33.316  15.452  -4.109  1.00 20.00     0.151 A 
HETATM    7  C7  UNL     1     -33.890  14.910  -5.391  1.00 20.00     0.152 A 
HETATM    8  N8  UNL     1     -38.628  14.221  -4.404  1.00 20.00    -0.197 NA
HETATM    9  O9  UNL     1     -33.110  14.086  -4.522  1.00 20.00    -0.375 OA
ENDROOT
TORSDOF 0
ENDMDL
MODEL 4
REMARK VINA RESULT:      -4.5     16.514     16.942
REMARK  0 active torsions:
REMARK  status: ('A' for Active; 'I' for Inactive)
ROOT
HETATM    1  C1  UNL     1     -23.952  18.500   8.038  1.00 20.00     0.064 C 
HETATM    2  C2  UNL     1     -25.046  18.763  10.238  1.00 20.00     0.022 C 
HETATM    3  C3  UNL     1     -25.250  18.138  11.619  1.00 20.00     0.036 C 
HETATM    4  C4  UNL     1     -22.633  18.042  10.075  1.00 20.00     0.053 C 
HETATM    5  C5  UNL     1     -24.019  17.975   9.413  1.00 20.00     0.095 C 
HETATM    6  C6  UNL     1     -23.956  17.848  12.311  1.00 20.00     0.151 A 
HETATM    7  C7  UNL     1     -22.665  17.762  11.544  1.00 20.00     0.152 A 
HETATM    8  N8  UNL     1     -23.899  18.914   6.955  1.00 20.00    -0.197 NA
HETATM    9  O9  UNL     1     -23.374  16.585  11.933  1.00 20.00    -0.375 OA
ENDROOT
TORSDOF 0
ENDMDL
MODEL 5
REMARK VINA RESULT:      -4.4      0.994      1.977
REMARK  0 active torsions:
REMARK  status: ('A' for Active; 'I' for Inactive)
ROOT
HETATM    1  C1  UNL     1     -32.669   7.100   2.464  1.00 20.00     0.064 C 
HETATM    2  C2  UNL     1     -34.282   5.382   3.206  1.00 20.00     0.022 C 
HETATM    3  C3  UNL     1     -34.675   4.440   4.345  1.00 20.00     0.036 C 
HETATM    4  C4  UNL     1     -33.579   7.245   4.754  1.00 20.00     0.053 C 
HETATM    5  C5  UNL     1     -33.132   6.311   3.619  1.00 20.00     0.095 C 
HETATM    6  C6  UNL     1     -34.865   5.160   5.641  1.00 20.00     0.151 A 
HETATM    7  C7  UNL     1     -34.291   6.534   5.860  1.00 20.00     0.152 A 
HETATM    8  N8  UNL     1     -32.303   7.721   1.555  1.00 20.00    -0.197 NA
HETATM    9  O9  UNL     1     -33.638   5.369   6.367  1.00 20.00    -0.375 OA
ENDROOT
TORSDOF 0
ENDMDL
MODEL 6
REMARK VINA RESULT:      -4.4     15.991     16.526
REMARK  0 active torsions:
REMARK  status: ('A' for Active; 'I' for Inactive)
ROOT
HETATM    1  C1  UNL     1     -22.814  17.739   8.501  1.00 20.00     0.064 C 
HETATM    2  C2  UNL     1     -23.913  16.286  10.171  1.00 20.00     0.022 C 
HETATM    3  C3  UNL     1     -24.435  16.198  11.606  1.00 20.00     0.036 C 
HETATM    4  C4  UNL     1     -24.641  18.683   9.867  1.00 20.00     0.053 C 
HETATM    5  C5  UNL     1     -23.452  17.710   9.829  1.00 20.00     0.095 C 
HETATM    6  C6  UNL     1     -25.412  17.283  11.926  1.00 20.00     0.151 A 
HETATM    7  C7  UNL     1     -25.491  18.532  11.088  1.00 20.00     0.152 A 
HETATM    8  N8  UNL     1     -22.311  17.762   7.456  1.00 20.00    -0.197 NA
HETATM    9  O9  UNL     1     -24.787  18.517  12.332  1.00 20.00    -0.375 OA
ENDROOT
TORSDOF 0
ENDMDL
MODEL 7
REMARK VINA RESULT:      -4.4     12.142     12.707
REMARK  0 active torsions:
REMARK  status: ('A' for Active; 'I' for Inactive)
ROOT
HETATM    1  C1  UNL     1     -37.003  14.515  -4.224  1.00 20.00     0.064 C 
HETATM    2  C2  UNL     1     -34.549  14.257  -4.102  1.00 20.00     0.022 C 
HETATM    3  C3  UNL     1     -33.208  14.992  -4.134  1.00 20.00     0.036 C 
HETATM    4  C4  UNL     1     -35.720  16.085  -2.816  1.00 20.00     0.053 C 
HETATM    5  C5  UNL     1     -35.727  15.241  -4.100  1.00 20.00     0.095 C 
HETATM    6  C6  UNL     1     -33.131  16.084  -3.116  1.00 20.00     0.151 A 
HETATM    7  C7  UNL     1     -34.375  16.654  -2.489  1.00 20.00     0.152 A 
HETATM    8  N8  UNL     1     -38.008  13.944  -4.322  1.00 20.00    -0.197 NA
HETATM    9  O9  UNL     1     -33.712  17.326  -3.561  1.00 20.00    -0.375 OA
ENDROOT
TORSDOF 0
ENDMDL
MODEL 8
REMARK VINA RESULT:      -4.3     11.859     12.869
REMARK  0 active torsions:
REMARK  status: ('A' for Active; 'I' for Inactive)
ROOT
HETATM    1  C1  UNL     1     -35.219  13.835  -4.122  1.00 20.00     0.064 C 
HETATM    2  C2  UNL     1     -35.182  15.619  -2.413  1.00 20.00     0.022 C 
HETATM    3  C3  UNL     1     -34.378  16.785  -1.835  1.00 20.00     0.036 C 
HETATM    4  C4  UNL     1     -34.500  16.099  -4.794  1.00 20.00     0.053 C 
HETATM    5  C5  UNL     1     -34.515  15.049  -3.673  1.00 20.00     0.095 C 
HETATM    6  C6  UNL     1     -34.004  17.791  -2.876  1.00 20.00     0.151 A 
HETATM    7  C7  UNL     1     -34.027  17.443  -4.340  1.00 20.00     0.152 A 
HETATM    8  N8  UNL     1     -35.773  12.879  -4.477  1.00 20.00    -0.197 NA
HETATM    9  O9  UNL     1     -32.806  17.451  -3.599  1.00 20.00    -0.375 OA
ENDROOT
TORSDOF 0
ENDMDL
MODEL 9
REMARK VINA RESULT:      -4.2     11.869     12.301
REMARK  0 active torsions:
REMARK  status: ('A' for Active; 'I' for Inactive)
ROOT
HETATM    1  C1  UNL     1     -35.237  16.773  -1.274  1.00 20.00     0.064 C 
HETATM    2  C2  UNL     1     -33.504  16.346  -2.982  1.00 20.00     0.022 C 
HETATM    3  C3  UNL     1     -32.885  15.295  -3.905  1.00 20.00     0.036 C 
HETATM    4  C4  UNL     1     -35.855  15.483  -3.286  1.00 20.00     0.053 C 
HETATM    5  C5  UNL     1     -34.749  15.802  -2.269  1.00 20.00     0.095 C 
HETATM    6  C6  UNL     1     -33.899  14.643  -4.789  1.00 20.00     0.151 A 
HETATM    7  C7  UNL     1     -35.368  14.703  -4.466  1.00 20.00     0.152 A 
HETATM    8  N8  UNL     1     -35.622  17.537  -0.491  1.00 20.00    -0.197 NA
HETATM    9  O9  UNL     1     -34.588  13.545  -4.161  1.00 20.00    -0.375 OA
ENDROOT
TORSDOF 0
ENDMDL
