MODEL 1
REMARK VINA RESULT:      -5.5      0.000      0.000
REMARK  2 active torsions:
REMARK  status: ('A' for Active; 'I' for Inactive)
REMARK    1  A    between atoms: C3_3  and  C5_5 
REMARK    2  A    between atoms: C4_4  and  C10_10 
ROOT
HETATM    1  C1  UNL     1     -34.001  18.624  -3.273  1.00 20.00    -0.026 C 
HETATM    2  C2  UNL     1     -35.147  18.321  -2.646  1.00 20.00    -0.025 C 
HETATM    3  C6  UNL     1     -33.435  17.822  -1.180  1.00 20.00     0.017 C 
HETATM    4  C7  UNL     1     -33.118  16.333  -3.011  1.00 20.00     0.017 C 
HETATM    5  C8  UNL     1     -32.909  17.813  -2.619  1.00 20.00     0.009 C 
HETATM    6  C9  UNL     1     -34.819  17.298  -1.580  1.00 20.00     0.016 C 
HETATM    7  C10 UNL     1     -34.426  15.962  -2.254  1.00 20.00     0.017 C 
ENDROOT
BRANCH   7   8
HETATM    8  C4  UNL     1     -35.484  15.358  -3.118  1.00 20.00    -0.015 C 
HETATM    9  C3  UNL     1     -35.225  14.502  -4.116  1.00 20.00     0.081 C 
BRANCH   9  10
HETATM   10  C5  UNL     1     -36.342  13.902  -4.982  1.00 20.00     0.198 C 
HETATM   11  O11 UNL     1     -36.014  13.718  -6.192  1.00 20.00    -0.645 OA
HETATM   12  O12 UNL     1     -37.443  13.660  -4.412  1.00 20.00    -0.645 OA
ENDBRANCH   9  10
ENDBRANCH   7   8
TORSDOF 2
ENDMDL
MODEL 2
REMARK VINA RESULT:      -5.4      0.988      1.514
REMARK  2 active torsions:
REMARK  status: ('A' for Active; 'I' for Inactive)
REMARK    1  A    between atoms: C3_3  and  C5_5 
REMARK    2  A    between atoms: C4_4  and  C10_10 
ROOT
HETATM    1  C1  UNL     1     -35.059  18.114  -2.233  1.00 20.00    -0.026 C 
HETATM    2  C2  UNL     1     -34.576  17.034  -1.601  1.00 20.00    -0.025 C 
HETATM    3  C6  UNL     1     -32.777  18.078  -2.605  1.00 20.00     0.017 C 
HETATM    4  C7  UNL     1     -34.161  17.383  -4.414  1.00 20.00     0.017 C 
HETATM    5  C8  UNL     1     -34.075  18.471  -3.320  1.00 20.00     0.009 C 
HETATM    6  C9  UNL     1     -33.273  16.664  -2.276  1.00 20.00     0.016 C 
HETATM    7  C10 UNL     1     -33.565  16.135  -3.701  1.00 20.00     0.017 C 
ENDROOT
BRANCH   7   8
HETATM    8  C4  UNL     1     -34.437  14.923  -3.756  1.00 20.00    -0.015 C 
HETATM    9  C3  UNL     1     -35.583  14.866  -4.448  1.00 20.00     0.081 C 
BRANCH   9  10
HETATM   10  C5  UNL     1     -36.450  13.600  -4.479  1.00 20.00     0.198 C 
HETATM   11  O11 UNL     1     -35.785  12.521  -4.492  1.00 20.00    -0.645 OA
HETATM   12  O12 UNL     1     -37.702  13.761  -4.488  1.00 20.00    -0.645 OA
ENDBRANCH   9  10
ENDBRANCH   7   8
TORSDOF 2
ENDMDL
MODEL 3
REMARK VINA RESULT:      -5.2     15.185     16.999
REMARK  2 active torsions:
REMARK  status: ('A' for Active; 'I' for Inactive)
REMARK    1  A    between atoms: C3_3  and  C5_5 
REMARK    2  A    between atoms: C4_4  and  C10_10 
ROOT
HETATM    1  C1  UNL     1     -24.692  16.155  11.351  1.00 20.00    -0.026 C 
HETATM    2  C2  UNL     1     -23.799  16.510  10.416  1.00 20.00    -0.025 C 
HETATM    3  C6  UNL     1     -23.376  17.820  12.270  1.00 20.00     0.017 C 
HETATM    4  C7  UNL     1     -25.559  18.458  11.562  1.00 20.00     0.017 C 
HETATM    5  C8  UNL     1     -24.824  17.318  12.304  1.00 20.00     0.009 C 
HETATM    6  C9  UNL     1     -23.344  17.917  10.740  1.00 20.00     0.016 C 
HETATM    7  C10 UNL     1     -24.513  18.903  10.499  1.00 20.00     0.017 C 
ENDROOT
BRANCH   7   8
HETATM    8  C4  UNL     1     -25.033  18.931   9.099  1.00 20.00    -0.015 C 
HETATM    9  C3  UNL     1     -24.276  19.229   8.035  1.00 20.00     0.081 C 
BRANCH   9  10
HETATM   10  C5  UNL     1     -24.850  19.247   6.610  1.00 20.00     0.198 C 
HETATM   11  O11 UNL     1     -26.116  19.243   6.566  1.00 20.00    -0.645 OA
HETATM   12  O12 UNL     1     -24.021  19.262   5.658  1.00 20.00    -0.645 OA
ENDBRANCH   9  10
ENDBRANCH   7   8
TORSDOF 2
ENDMDL
MODEL 4
REMARK VINA RESULT:      -4.9      1.319      2.208
REMARK  2 active torsions:
REMARK  status: ('A' for Active; 'I' for Inactive)
REMARK    1  A    between atoms: C3_3  and  C5_5 
REMARK    2  A    between atoms: C4_4  and  C10_10 
ROOT
HETATM    1  C1  UNL     1     -32.860  18.002  -0.904  1.00 20.00    -0.026 C 
HETATM    2  C2  UNL     1     -32.922  17.845  -2.234  1.00 20.00    -0.025 C 
HETATM    3  C6  UNL     1     -34.731  19.149  -1.633  1.00 20.00     0.017 C 
HETATM    4  C7  UNL     1     -35.115  17.053  -0.570  1.00 20.00     0.017 C 
HETATM    5  C8  UNL     1     -34.255  18.329  -0.428  1.00 20.00     0.009 C 
HETATM    6  C9  UNL     1     -34.364  18.056  -2.644  1.00 20.00     0.016 C 
HETATM    7  C10 UNL     1     -35.226  16.886  -2.113  1.00 20.00     0.017 C 
ENDROOT
BRANCH   7   8
HETATM    8  C4  UNL     1     -34.830  15.535  -2.614  1.00 20.00    -0.015 C 
HETATM    9  C3  UNL     1     -35.430  14.924  -3.645  1.00 20.00     0.081 C 
BRANCH   9  10
HETATM   10  C5  UNL     1     -34.993  13.535  -4.130  1.00 20.00     0.198 C 
HETATM   11  O11 UNL     1     -35.954  12.786  -4.481  1.00 20.00    -0.645 OA
HETATM   12  O12 UNL     1     -33.754  13.289  -4.129  1.00 20.00    -0.645 OA
ENDBRANCH   9  10
ENDBRANCH   7   8
TORSDOF 2
ENDMDL
MODEL 5
REMARK VINA RESULT:      -4.8      3.492      5.154
REMARK  2 active torsions:
REMARK  status: ('A' for Active; 'I' for Inactive)
REMARK    1  A    between atoms: C3_3  and  C5_5 
REMARK    2  A    between atoms: C4_4  and  C10_10 
ROOT
HETATM    1  C1  UNL     1     -35.151  15.305  -5.717  1.00 20.00    -0.026 C 
HETATM    2  C2  UNL     1     -33.905  14.963  -5.361  1.00 20.00    -0.025 C 
HETATM    3  C6  UNL     1     -35.337  13.713  -4.050  1.00 20.00     0.017 C 
HETATM    4  C7  UNL     1     -35.749  15.971  -3.415  1.00 20.00     0.017 C 
HETATM    5  C8  UNL     1     -36.053  14.971  -4.554  1.00 20.00     0.009 C 
HETATM    6  C9  UNL     1     -33.975  14.410  -3.954  1.00 20.00     0.016 C 
HETATM    7  C10 UNL     1     -34.317  15.554  -2.970  1.00 20.00     0.017 C 
ENDROOT
BRANCH   7   8
HETATM    8  C4  UNL     1     -33.332  16.676  -2.942  1.00 20.00    -0.015 C 
HETATM    9  C3  UNL     1     -33.043  17.380  -1.838  1.00 20.00     0.081 C 
BRANCH   9  10
HETATM   10  C5  UNL     1     -32.022  18.527  -1.851  1.00 20.00     0.198 C 
HETATM   11  O11 UNL     1     -32.089  19.263  -2.881  1.00 20.00    -0.645 OA
HETATM   12  O12 UNL     1     -31.243  18.613  -0.861  1.00 20.00    -0.645 OA
ENDBRANCH   9  10
ENDBRANCH   7   8
TORSDOF 2
ENDMDL
MODEL 6
REMARK VINA RESULT:      -4.8      1.054      1.650
REMARK  2 active torsions:
REMARK  status: ('A' for Active; 'I' for Inactive)
REMARK    1  A    between atoms: C3_3  and  C5_5 
REMARK    2  A    between atoms: C4_4  and  C10_10 
ROOT
HETATM    1  C1  UNL     1     -32.925  17.110  -2.550  1.00 20.00    -0.026 C 
HETATM    2  C2  UNL     1     -33.539  17.561  -3.654  1.00 20.00    -0.025 C 
HETATM    3  C6  UNL     1     -34.373  18.785  -1.883  1.00 20.00     0.017 C 
HETATM    4  C7  UNL     1     -35.063  16.548  -1.451  1.00 20.00     0.017 C 
HETATM    5  C8  UNL     1     -33.812  17.452  -1.377  1.00 20.00     0.009 C 
HETATM    6  C9  UNL     1     -34.843  18.193  -3.217  1.00 20.00     0.016 C 
HETATM    7  C10 UNL     1     -35.803  17.091  -2.708  1.00 20.00     0.017 C 
ENDROOT
BRANCH   7   8
HETATM    8  C4  UNL     1     -36.150  16.044  -3.716  1.00 20.00    -0.015 C 
HETATM    9  C3  UNL     1     -35.688  14.787  -3.665  1.00 20.00     0.081 C 
BRANCH   9  10
HETATM   10  C5  UNL     1     -36.069  13.740  -4.722  1.00 20.00     0.198 C 
HETATM   11  O11 UNL     1     -36.591  14.230  -5.767  1.00 20.00    -0.645 OA
HETATM   12  O12 UNL     1     -35.829  12.531  -4.445  1.00 20.00    -0.645 OA
ENDBRANCH   9  10
ENDBRANCH   7   8
TORSDOF 2
ENDMDL
MODEL 7
REMARK VINA RESULT:      -4.6     11.887     13.554
REMARK  2 active torsions:
REMARK  status: ('A' for Active; 'I' for Inactive)
REMARK    1  A    between atoms: C3_3  and  C5_5 
REMARK    2  A    between atoms: C4_4  and  C10_10 
ROOT
HETATM    1  C1  UNL     1     -41.179   7.303   0.328  1.00 20.00    -0.026 C 
HETATM    2  C2  UNL     1     -41.284   7.296  -1.009  1.00 20.00    -0.025 C 
HETATM    3  C6  UNL     1     -43.303   8.058  -0.188  1.00 20.00     0.017 C 
HETATM    4  C7  UNL     1     -43.133   5.819   0.605  1.00 20.00     0.017 C 
HETATM    5  C8  UNL     1     -42.580   7.234   0.885  1.00 20.00     0.009 C 
HETATM    6  C9  UNL     1     -42.757   7.210  -1.343  1.00 20.00     0.016 C 
HETATM    7  C10 UNL     1     -43.295   5.815  -0.943  1.00 20.00     0.017 C 
ENDROOT
BRANCH   7   8
HETATM    8  C4  UNL     1     -42.632   4.665  -1.627  1.00 20.00    -0.015 C 
HETATM    9  C3  UNL     1     -43.292   3.768  -2.372  1.00 20.00     0.081 C 
BRANCH   9  10
HETATM   10  C5  UNL     1     -42.573   2.599  -3.061  1.00 20.00     0.198 C 
HETATM   11  O11 UNL     1     -43.049   1.460  -2.773  1.00 20.00    -0.645 OA
HETATM   12  O12 UNL     1     -41.608   2.887  -3.822  1.00 20.00    -0.645 OA
ENDBRANCH   9  10
ENDBRANCH   7   8
TORSDOF 2
ENDMDL
MODEL 8
REMARK VINA RESULT:      -4.5     11.851     13.229
REMARK  2 active torsions:
REMARK  status: ('A' for Active; 'I' for Inactive)
REMARK    1  A    between atoms: C3_3  and  C5_5 
REMARK    2  A    between atoms: C4_4  and  C10_10 
ROOT
HETATM    1  C1  UNL     1     -43.384   7.945   0.379  1.00 20.00    -0.026 C 
HETATM    2  C2  UNL     1     -43.277   6.706   0.879  1.00 20.00    -0.025 C 
HETATM    3  C6  UNL     1     -41.142   7.584   0.815  1.00 20.00     0.017 C 
HETATM    4  C7  UNL     1     -41.815   7.460  -1.466  1.00 20.00     0.017 C 
HETATM    5  C8  UNL     1     -42.036   8.311  -0.195  1.00 20.00     0.009 C 
HETATM    6  C9  UNL     1     -41.859   6.241   0.628  1.00 20.00     0.016 C 
HETATM    7  C10 UNL     1     -41.650   6.024  -0.890  1.00 20.00     0.017 C 
ENDROOT
BRANCH   7   8
HETATM    8  C4  UNL     1     -42.552   5.007  -1.510  1.00 20.00    -0.015 C 
HETATM    9  C3  UNL     1     -42.111   3.982  -2.251  1.00 20.00     0.081 C 
BRANCH   9  10
HETATM   10  C5  UNL     1     -43.071   2.956  -2.870  1.00 20.00     0.198 C 
HETATM   11  O11 UNL     1     -43.417   3.227  -4.059  1.00 20.00    -0.645 OA
HETATM   12  O12 UNL     1     -43.407   1.975  -2.149  1.00 20.00    -0.645 OA
ENDBRANCH   9  10
ENDBRANCH   7   8
TORSDOF 2
ENDMDL
MODEL 9
REMARK VINA RESULT:      -4.5      4.394      5.743
REMARK  2 active torsions:
REMARK  status: ('A' for Active; 'I' for Inactive)
REMARK    1  A    between atoms: C3_3  and  C5_5 
REMARK    2  A    between atoms: C4_4  and  C10_10 
ROOT
HETATM    1  C1  UNL     1     -35.103  15.883  -2.169  1.00 20.00    -0.026 C 
HETATM    2  C2  UNL     1     -35.384  17.039  -1.551  1.00 20.00    -0.025 C 
HETATM    3  C6  UNL     1     -34.891  17.562  -3.745  1.00 20.00     0.017 C 
HETATM    4  C7  UNL     1     -32.867  16.666  -2.866  1.00 20.00     0.017 C 
HETATM    5  C8  UNL     1     -34.256  16.217  -3.373  1.00 20.00     0.009 C 
HETATM    6  C9  UNL     1     -34.713  18.144  -2.338  1.00 20.00     0.016 C 
HETATM    7  C10 UNL     1     -33.178  18.028  -2.181  1.00 20.00     0.017 C 
ENDROOT
BRANCH   7   8
HETATM    8  C4  UNL     1     -32.679  18.137  -0.777  1.00 20.00    -0.015 C 
HETATM    9  C3  UNL     1     -31.395  18.361  -0.464  1.00 20.00     0.081 C 
BRANCH   9  10
HETATM   10  C5  UNL     1     -30.922  18.467   0.993  1.00 20.00     0.198 C 
HETATM   11  O11 UNL     1     -29.805  19.049   1.129  1.00 20.00    -0.645 OA
HETATM   12  O12 UNL     1     -31.676  17.977   1.879  1.00 20.00    -0.645 OA
ENDBRANCH   9  10
ENDBRANCH   7   8
TORSDOF 2
ENDMDL
