MODEL 1
REMARK VINA RESULT:      -4.0      0.000      0.000
REMARK  3 active torsions:
REMARK  status: ('A' for Active; 'I' for Inactive)
REMARK    1  A    between atoms: C2_2  and  O8_8 
REMARK    2  A    between atoms: C4_4  and  C6_6 
REMARK    3  A    between atoms: C6_6  and  O8_8 
ROOT
HETATM    1  C6  UNL     1     -33.601   5.178   2.974  1.00 20.00     0.208 C 
ENDROOT
BRANCH   1   2
HETATM    2  C4  UNL     1     -34.322   5.873   4.108  1.00 20.00     0.169 A 
HETATM    3  C3  UNL     1     -34.759   5.116   5.331  1.00 20.00     0.202 A 
HETATM    4  O7  UNL     1     -35.682   5.463   4.287  1.00 20.00    -0.379 OA
ENDBRANCH   1   2
BRANCH   1   5
HETATM    5  O8  UNL     1     -32.502   5.971   2.574  1.00 20.00    -0.361 OA
BRANCH   5   6
HETATM    6  C2  UNL     1     -32.856   7.250   2.246  1.00 20.00     0.130 C 
HETATM    7  C1  UNL     1     -32.521   7.823   1.086  1.00 20.00    -0.007 C 
HETATM    8  C5  UNL     1     -32.897   9.217   0.714  1.00 20.00     0.038 C 
ENDBRANCH   5   6
ENDBRANCH   1   5
TORSDOF 3
ENDMDL
MODEL 2
REMARK VINA RESULT:      -3.7     10.515     11.198
REMARK  3 active torsions:
REMARK  status: ('A' for Active; 'I' for Inactive)
REMARK    1  A    between atoms: C2_2  and  O8_8 
REMARK    2  A    between atoms: C4_4  and  C6_6 
REMARK    3  A    between atoms: C6_6  and  O8_8 
ROOT
HETATM    1  C6  UNL     1     -35.238  13.769  -3.974  1.00 20.00     0.208 C 
ENDROOT
BRANCH   1   2
HETATM    2  C4  UNL     1     -36.389  14.037  -4.919  1.00 20.00     0.169 A 
HETATM    3  C3  UNL     1     -37.442  15.059  -4.591  1.00 20.00     0.202 A 
HETATM    4  O7  UNL     1     -37.673  13.652  -4.415  1.00 20.00    -0.379 OA
ENDBRANCH   1   2
BRANCH   1   5
HETATM    5  O8  UNL     1     -34.023  14.040  -4.641  1.00 20.00    -0.361 OA
BRANCH   5   6
HETATM    6  C2  UNL     1     -33.347  15.104  -4.113  1.00 20.00     0.130 C 
HETATM    7  C1  UNL     1     -33.796  15.805  -3.067  1.00 20.00    -0.007 C 
HETATM    8  C5  UNL     1     -33.071  16.968  -2.479  1.00 20.00     0.038 C 
ENDBRANCH   5   6
ENDBRANCH   1   5
TORSDOF 3
ENDMDL
MODEL 3
REMARK VINA RESULT:      -3.6      1.275      4.397
REMARK  3 active torsions:
REMARK  status: ('A' for Active; 'I' for Inactive)
REMARK    1  A    between atoms: C2_2  and  O8_8 
REMARK    2  A    between atoms: C4_4  and  C6_6 
REMARK    3  A    between atoms: C6_6  and  O8_8 
ROOT
HETATM    1  C6  UNL     1     -32.607   7.243   2.449  1.00 20.00     0.208 C 
ENDROOT
BRANCH   1   2
HETATM    2  C4  UNL     1     -32.247   7.976   1.175  1.00 20.00     0.169 A 
HETATM    3  C3  UNL     1     -32.916   9.271   0.807  1.00 20.00     0.202 A 
HETATM    4  O7  UNL     1     -33.295   8.025   0.201  1.00 20.00    -0.379 OA
ENDBRANCH   1   2
BRANCH   1   5
HETATM    5  O8  UNL     1     -32.973   5.917   2.129  1.00 20.00    -0.361 OA
BRANCH   5   6
HETATM    6  C2  UNL     1     -33.684   5.303   3.122  1.00 20.00     0.130 C 
HETATM    7  C1  UNL     1     -34.183   5.961   4.174  1.00 20.00    -0.007 C 
HETATM    8  C5  UNL     1     -34.960   5.306   5.266  1.00 20.00     0.038 C 
ENDBRANCH   5   6
ENDBRANCH   1   5
TORSDOF 3
ENDMDL
MODEL 4
REMARK VINA RESULT:      -3.6      1.479      2.170
REMARK  3 active torsions:
REMARK  status: ('A' for Active; 'I' for Inactive)
REMARK    1  A    between atoms: C2_2  and  O8_8 
REMARK    2  A    between atoms: C4_4  and  C6_6 
REMARK    3  A    between atoms: C6_6  and  O8_8 
ROOT
HETATM    1  C6  UNL     1     -35.205   5.178   4.149  1.00 20.00     0.208 C 
ENDROOT
BRANCH   1   2
HETATM    2  C4  UNL     1     -35.089   5.312   5.652  1.00 20.00     0.169 A 
HETATM    3  C3  UNL     1     -34.275   6.413   6.274  1.00 20.00     0.202 A 
HETATM    4  O7  UNL     1     -33.777   5.069   6.171  1.00 20.00    -0.379 OA
ENDBRANCH   1   2
BRANCH   1   5
HETATM    5  O8  UNL     1     -34.054   4.525   3.656  1.00 20.00    -0.361 OA
BRANCH   5   6
HETATM    6  C2  UNL     1     -33.391   5.251   2.706  1.00 20.00     0.130 C 
HETATM    7  C1  UNL     1     -33.085   6.543   2.861  1.00 20.00    -0.007 C 
HETATM    8  C5  UNL     1     -32.363   7.350   1.835  1.00 20.00     0.038 C 
ENDBRANCH   5   6
ENDBRANCH   1   5
TORSDOF 3
ENDMDL
MODEL 5
REMARK VINA RESULT:      -3.6     10.950     11.346
REMARK  3 active torsions:
REMARK  status: ('A' for Active; 'I' for Inactive)
REMARK    1  A    between atoms: C2_2  and  O8_8 
REMARK    2  A    between atoms: C4_4  and  C6_6 
REMARK    3  A    between atoms: C6_6  and  O8_8 
ROOT
HETATM    1  C6  UNL     1     -34.742  14.793  -5.732  1.00 20.00     0.208 C 
ENDROOT
BRANCH   1   2
HETATM    2  C4  UNL     1     -36.018  13.987  -5.630  1.00 20.00     0.169 A 
HETATM    3  C3  UNL     1     -36.896  14.071  -4.412  1.00 20.00     0.202 A 
HETATM    4  O7  UNL     1     -35.999  12.969  -4.624  1.00 20.00    -0.379 OA
ENDBRANCH   1   2
BRANCH   1   5
HETATM    5  O8  UNL     1     -33.755  14.198  -4.916  1.00 20.00    -0.361 OA
BRANCH   5   6
HETATM    6  C2  UNL     1     -33.123  15.094  -4.100  1.00 20.00     0.130 C 
HETATM    7  C1  UNL     1     -33.778  15.902  -3.260  1.00 20.00    -0.007 C 
HETATM    8  C5  UNL     1     -33.104  16.885  -2.364  1.00 20.00     0.038 C 
ENDBRANCH   5   6
ENDBRANCH   1   5
TORSDOF 3
ENDMDL
MODEL 6
REMARK VINA RESULT:      -3.4     15.711     16.759
REMARK  3 active torsions:
REMARK  status: ('A' for Active; 'I' for Inactive)
REMARK    1  A    between atoms: C2_2  and  O8_8 
REMARK    2  A    between atoms: C4_4  and  C6_6 
REMARK    3  A    between atoms: C6_6  and  O8_8 
ROOT
HETATM    1  C6  UNL     1     -23.404  18.138   8.434  1.00 20.00     0.208 C 
ENDROOT
BRANCH   1   2
HETATM    2  C4  UNL     1     -24.156  19.256   7.745  1.00 20.00     0.169 A 
HETATM    3  C3  UNL     1     -25.421  18.986   6.978  1.00 20.00     0.202 A 
HETATM    4  O7  UNL     1     -24.160  19.177   6.316  1.00 20.00    -0.379 OA
ENDBRANCH   1   2
BRANCH   1   5
HETATM    5  O8  UNL     1     -22.999  18.576   9.713  1.00 20.00    -0.361 OA
BRANCH   5   6
HETATM    6  C2  UNL     1     -23.563  17.857  10.730  1.00 20.00     0.130 C 
HETATM    7  C1  UNL     1     -24.020  16.611  10.574  1.00 20.00    -0.007 C 
HETATM    8  C5  UNL     1     -24.639  15.814  11.672  1.00 20.00     0.038 C 
ENDBRANCH   5   6
ENDBRANCH   1   5
TORSDOF 3
ENDMDL
MODEL 7
REMARK VINA RESULT:      -3.4     10.589     11.247
REMARK  3 active torsions:
REMARK  status: ('A' for Active; 'I' for Inactive)
REMARK    1  A    between atoms: C2_2  and  O8_8 
REMARK    2  A    between atoms: C4_4  and  C6_6 
REMARK    3  A    between atoms: C6_6  and  O8_8 
ROOT
HETATM    1  C6  UNL     1     -34.588  14.610  -3.578  1.00 20.00     0.208 C 
ENDROOT
BRANCH   1   2
HETATM    2  C4  UNL     1     -35.467  14.182  -4.733  1.00 20.00     0.169 A 
HETATM    3  C3  UNL     1     -36.947  13.985  -4.553  1.00 20.00     0.202 A 
HETATM    4  O7  UNL     1     -36.035  12.875  -4.594  1.00 20.00    -0.379 OA
ENDBRANCH   1   2
BRANCH   1   5
HETATM    5  O8  UNL     1     -33.473  15.313  -4.085  1.00 20.00    -0.361 OA
BRANCH   5   6
HETATM    6  C2  UNL     1     -33.070  16.336  -3.272  1.00 20.00     0.130 C 
HETATM    7  C1  UNL     1     -33.756  16.720  -2.191  1.00 20.00    -0.007 C 
HETATM    8  C5  UNL     1     -33.331  17.834  -1.295  1.00 20.00     0.038 C 
ENDBRANCH   5   6
ENDBRANCH   1   5
TORSDOF 3
ENDMDL
MODEL 8
REMARK VINA RESULT:      -3.4     10.651     12.048
REMARK  3 active torsions:
REMARK  status: ('A' for Active; 'I' for Inactive)
REMARK    1  A    between atoms: C2_2  and  O8_8 
REMARK    2  A    between atoms: C4_4  and  C6_6 
REMARK    3  A    between atoms: C6_6  and  O8_8 
ROOT
HETATM    1  C6  UNL     1     -36.195  13.888  -5.068  1.00 20.00     0.208 C 
ENDROOT
BRANCH   1   2
HETATM    2  C4  UNL     1     -35.569  14.601  -6.248  1.00 20.00     0.169 A 
HETATM    3  C3  UNL     1     -36.234  15.793  -6.878  1.00 20.00     0.202 A 
HETATM    4  O7  UNL     1     -36.306  14.486  -7.470  1.00 20.00    -0.379 OA
ENDBRANCH   1   2
BRANCH   1   5
HETATM    5  O8  UNL     1     -35.176  13.511  -4.166  1.00 20.00    -0.361 OA
BRANCH   5   6
HETATM    6  C2  UNL     1     -34.353  14.547  -3.823  1.00 20.00     0.130 C 
HETATM    7  C1  UNL     1     -34.637  15.409  -2.842  1.00 20.00    -0.007 C 
HETATM    8  C5  UNL     1     -33.751  16.545  -2.457  1.00 20.00     0.038 C 
ENDBRANCH   5   6
ENDBRANCH   1   5
TORSDOF 3
ENDMDL
MODEL 9
REMARK VINA RESULT:      -3.3      1.320      4.258
REMARK  3 active torsions:
REMARK  status: ('A' for Active; 'I' for Inactive)
REMARK    1  A    between atoms: C2_2  and  O8_8 
REMARK    2  A    between atoms: C4_4  and  C6_6 
REMARK    3  A    between atoms: C6_6  and  O8_8 
ROOT
HETATM    1  C6  UNL     1     -33.021   5.149   2.279  1.00 20.00     0.208 C 
ENDROOT
BRANCH   1   2
HETATM    2  C4  UNL     1     -33.110   6.620   2.625  1.00 20.00     0.169 A 
HETATM    3  C3  UNL     1     -32.450   7.662   1.766  1.00 20.00     0.202 A 
HETATM    4  O7  UNL     1     -31.864   7.218   3.000  1.00 20.00    -0.379 OA
ENDBRANCH   1   2
BRANCH   1   5
HETATM    5  O8  UNL     1     -33.969   4.438   3.046  1.00 20.00    -0.361 OA
BRANCH   5   6
HETATM    6  C2  UNL     1     -34.526   5.192   4.042  1.00 20.00     0.130 C 
HETATM    7  C1  UNL     1     -34.503   4.830   5.328  1.00 20.00    -0.007 C 
HETATM    8  C5  UNL     1     -35.107   5.640   6.426  1.00 20.00     0.038 C 
ENDBRANCH   5   6
ENDBRANCH   1   5
TORSDOF 3
ENDMDL
