MODEL 1
REMARK VINA RESULT:      -4.9      0.000      0.000
REMARK  1 active torsions:
REMARK  status: ('A' for Active; 'I' for Inactive)
REMARK    1  A    between atoms: C9_9  and  O11_11 
ROOT
HETATM    1  C1  UNL     1     -35.396  17.125  -2.329  1.00 20.00    -0.025 C 
HETATM    2  C2  UNL     1     -34.847  17.924  -3.264  1.00 20.00    -0.025 C 
HETATM    3  C3  UNL     1     -35.942  14.164  -4.319  1.00 20.00    -0.022 C 
HETATM    4  C4  UNL     1     -35.669  14.189  -5.645  1.00 20.00     0.001 C 
HETATM    5  C5  UNL     1     -33.280  16.362  -2.807  1.00 20.00     0.018 C 
HETATM    6  C6  UNL     1     -34.670  15.799  -2.373  1.00 20.00     0.017 C 
HETATM    7  C7  UNL     1     -33.831  17.089  -4.043  1.00 20.00     0.016 C 
HETATM    8  C8  UNL     1     -34.896  14.973  -3.649  1.00 20.00     0.023 C 
HETATM    9  C9  UNL     1     -34.570  15.201  -5.987  1.00 20.00     0.146 C 
HETATM   10  C10 UNL     1     -34.733  16.058  -4.751  1.00 20.00     0.034 C 
ENDROOT
BRANCH   9  11
HETATM   11  O11 UNL     1     -33.311  14.573  -6.085  1.00 20.00    -0.391 OA
HETATM   12  H23 UNL     1     -32.730  14.977  -5.415  1.00 20.00     0.210 HD
ENDBRANCH   9  11
TORSDOF 1
ENDMDL
MODEL 2
REMARK VINA RESULT:      -4.7     11.307     12.877
REMARK  1 active torsions:
REMARK  status: ('A' for Active; 'I' for Inactive)
REMARK    1  A    between atoms: C9_9  and  O11_11 
ROOT
HETATM    1  C1  UNL     1     -42.573   8.806   0.341  1.00 20.00    -0.025 C 
HETATM    2  C2  UNL     1     -43.177   8.704  -0.858  1.00 20.00    -0.025 C 
HETATM    3  C3  UNL     1     -42.760   5.360   1.399  1.00 20.00    -0.022 C 
HETATM    4  C4  UNL     1     -43.417   4.460   0.631  1.00 20.00     0.001 C 
HETATM    5  C5  UNL     1     -41.172   7.691  -1.102  1.00 20.00     0.018 C 
HETATM    6  C6  UNL     1     -41.521   7.724   0.420  1.00 20.00     0.017 C 
HETATM    7  C7  UNL     1     -42.624   7.457  -1.547  1.00 20.00     0.016 C 
HETATM    8  C8  UNL     1     -42.064   6.287   0.475  1.00 20.00     0.023 C 
HETATM    9  C9  UNL     1     -43.407   4.851  -0.851  1.00 20.00     0.146 C 
HETATM   10  C10 UNL     1     -43.149   6.326  -0.639  1.00 20.00     0.034 C 
ENDROOT
BRANCH   9  11
HETATM   11  O11 UNL     1     -42.378   4.184  -1.547  1.00 20.00    -0.391 OA
HETATM   12  H23 UNL     1     -41.681   3.967  -0.900  1.00 20.00     0.210 HD
ENDBRANCH   9  11
TORSDOF 1
ENDMDL
MODEL 3
REMARK VINA RESULT:      -4.6      1.601      2.215
REMARK  1 active torsions:
REMARK  status: ('A' for Active; 'I' for Inactive)
REMARK    1  A    between atoms: C9_9  and  O11_11 
ROOT
HETATM    1  C1  UNL     1     -34.256  15.996  -2.913  1.00 20.00    -0.025 C 
HETATM    2  C2  UNL     1     -33.238  15.664  -3.728  1.00 20.00    -0.025 C 
HETATM    3  C3  UNL     1     -36.878  16.392  -5.362  1.00 20.00    -0.022 C 
HETATM    4  C4  UNL     1     -36.586  16.278  -6.679  1.00 20.00     0.001 C 
HETATM    5  C5  UNL     1     -34.613  13.870  -3.714  1.00 20.00     0.018 C 
HETATM    6  C6  UNL     1     -35.436  15.120  -3.268  1.00 20.00     0.017 C 
HETATM    7  C7  UNL     1     -33.770  14.647  -4.738  1.00 20.00     0.016 C 
HETATM    8  C8  UNL     1     -36.054  15.386  -4.651  1.00 20.00     0.023 C 
HETATM    9  C9  UNL     1     -35.382  15.362  -6.924  1.00 20.00     0.146 C 
HETATM   10  C10 UNL     1     -34.783  15.488  -5.541  1.00 20.00     0.034 C 
ENDROOT
BRANCH   9  11
HETATM   11  O11 UNL     1     -35.795  14.054  -7.252  1.00 20.00    -0.391 OA
HETATM   12  H23 UNL     1     -36.749  14.091  -7.450  1.00 20.00     0.210 HD
ENDBRANCH   9  11
TORSDOF 1
ENDMDL
MODEL 4
REMARK VINA RESULT:      -4.6      2.020      3.772
REMARK  1 active torsions:
REMARK  status: ('A' for Active; 'I' for Inactive)
REMARK    1  A    between atoms: C9_9  and  O11_11 
ROOT
HETATM    1  C1  UNL     1     -34.089  15.053  -5.686  1.00 20.00    -0.025 C 
HETATM    2  C2  UNL     1     -35.413  15.282  -5.588  1.00 20.00    -0.025 C 
HETATM    3  C3  UNL     1     -32.945  16.920  -2.817  1.00 20.00    -0.022 C 
HETATM    4  C4  UNL     1     -33.831  17.642  -2.092  1.00 20.00     0.001 C 
HETATM    5  C5  UNL     1     -34.911  13.886  -3.883  1.00 20.00     0.018 C 
HETATM    6  C6  UNL     1     -33.597  14.604  -4.330  1.00 20.00     0.017 C 
HETATM    7  C7  UNL     1     -35.799  15.118  -4.118  1.00 20.00     0.016 C 
HETATM    8  C8  UNL     1     -33.639  15.678  -3.230  1.00 20.00     0.023 C 
HETATM    9  C9  UNL     1     -35.245  17.057  -2.164  1.00 20.00     0.146 C 
HETATM   10  C10 UNL     1     -35.051  16.290  -3.453  1.00 20.00     0.034 C 
ENDROOT
BRANCH   9  11
HETATM   11  O11 UNL     1     -35.516  16.240  -1.047  1.00 20.00    -0.391 OA
HETATM   12  H23 UNL     1     -35.864  15.393  -1.382  1.00 20.00     0.210 HD
ENDBRANCH   9  11
TORSDOF 1
ENDMDL
MODEL 5
REMARK VINA RESULT:      -4.6      1.530      2.439
REMARK  1 active torsions:
REMARK  status: ('A' for Active; 'I' for Inactive)
REMARK    1  A    between atoms: C9_9  and  O11_11 
ROOT
HETATM    1  C1  UNL     1     -33.707  17.164  -3.525  1.00 20.00    -0.025 C 
HETATM    2  C2  UNL     1     -33.687  16.171  -2.616  1.00 20.00    -0.025 C 
HETATM    3  C3  UNL     1     -35.549  15.524  -6.161  1.00 20.00    -0.022 C 
HETATM    4  C4  UNL     1     -35.897  14.223  -6.024  1.00 20.00     0.001 C 
HETATM    5  C5  UNL     1     -35.824  16.904  -2.665  1.00 20.00     0.018 C 
HETATM    6  C6  UNL     1     -35.133  17.324  -4.001  1.00 20.00     0.017 C 
HETATM    7  C7  UNL     1     -35.087  15.559  -2.573  1.00 20.00     0.016 C 
HETATM    8  C8  UNL     1     -35.684  16.148  -4.824  1.00 20.00     0.023 C 
HETATM    9  C9  UNL     1     -36.061  13.823  -4.554  1.00 20.00     0.146 C 
HETATM   10  C10 UNL     1     -35.211  14.933  -3.976  1.00 20.00     0.034 C 
ENDROOT
BRANCH   9  11
HETATM   11  O11 UNL     1     -37.414  13.873  -4.160  1.00 20.00    -0.391 OA
HETATM   12  H23 UNL     1     -37.437  14.182  -3.235  1.00 20.00     0.210 HD
ENDBRANCH   9  11
TORSDOF 1
ENDMDL
MODEL 6
REMARK VINA RESULT:      -4.5      1.440      3.409
REMARK  1 active torsions:
REMARK  status: ('A' for Active; 'I' for Inactive)
REMARK    1  A    between atoms: C9_9  and  O11_11 
ROOT
HETATM    1  C1  UNL     1     -37.232  14.375  -4.237  1.00 20.00    -0.025 C 
HETATM    2  C2  UNL     1     -36.189  13.663  -4.703  1.00 20.00    -0.025 C 
HETATM    3  C3  UNL     1     -35.464  16.709  -2.126  1.00 20.00    -0.022 C 
HETATM    4  C4  UNL     1     -34.126  16.584  -1.964  1.00 20.00     0.001 C 
HETATM    5  C5  UNL     1     -36.041  15.683  -5.706  1.00 20.00     0.018 C 
HETATM    6  C6  UNL     1     -36.907  15.840  -4.416  1.00 20.00     0.017 C 
HETATM    7  C7  UNL     1     -35.088  14.654  -5.079  1.00 20.00     0.016 C 
HETATM    8  C8  UNL     1     -35.761  16.368  -3.537  1.00 20.00     0.023 C 
HETATM    9  C9  UNL     1     -33.459  15.925  -3.177  1.00 20.00     0.146 C 
HETATM   10  C10 UNL     1     -34.700  15.243  -3.708  1.00 20.00     0.034 C 
ENDROOT
BRANCH   9  11
HETATM   11  O11 UNL     1     -32.920  16.893  -4.050  1.00 20.00    -0.391 OA
HETATM   12  H23 UNL     1     -32.046  16.572  -4.338  1.00 20.00     0.210 HD
ENDBRANCH   9  11
TORSDOF 1
ENDMDL
MODEL 7
REMARK VINA RESULT:      -4.5      1.986      3.706
REMARK  1 active torsions:
REMARK  status: ('A' for Active; 'I' for Inactive)
REMARK    1  A    between atoms: C9_9  and  O11_11 
ROOT
HETATM    1  C1  UNL     1     -34.899  14.149  -3.746  1.00 20.00    -0.025 C 
HETATM    2  C2  UNL     1     -33.622  14.365  -4.116  1.00 20.00    -0.025 C 
HETATM    3  C3  UNL     1     -35.212  16.672  -1.184  1.00 20.00    -0.022 C 
HETATM    4  C4  UNL     1     -34.132  17.409  -0.835  1.00 20.00     0.001 C 
HETATM    5  C5  UNL     1     -34.785  16.141  -4.891  1.00 20.00     0.018 C 
HETATM    6  C6  UNL     1     -35.607  15.485  -3.736  1.00 20.00     0.017 C 
HETATM    7  C7  UNL     1     -33.425  15.877  -4.227  1.00 20.00     0.016 C 
HETATM    8  C8  UNL     1     -35.137  16.466  -2.649  1.00 20.00     0.023 C 
HETATM    9  C9  UNL     1     -33.135  17.550  -1.990  1.00 20.00     0.146 C 
HETATM   10  C10 UNL     1     -33.592  16.334  -2.764  1.00 20.00     0.034 C 
ENDROOT
BRANCH   9  11
HETATM   11  O11 UNL     1     -33.320  18.768  -2.677  1.00 20.00    -0.391 OA
HETATM   12  H23 UNL     1     -34.235  18.778  -3.013  1.00 20.00     0.210 HD
ENDBRANCH   9  11
TORSDOF 1
ENDMDL
MODEL 8
REMARK VINA RESULT:      -4.4      1.272      3.171
REMARK  1 active torsions:
REMARK  status: ('A' for Active; 'I' for Inactive)
REMARK    1  A    between atoms: C9_9  and  O11_11 
ROOT
HETATM    1  C1  UNL     1     -37.448  15.744  -4.175  1.00 20.00    -0.025 C 
HETATM    2  C2  UNL     1     -37.295  14.417  -4.343  1.00 20.00    -0.025 C 
HETATM    3  C3  UNL     1     -34.007  16.671  -3.599  1.00 20.00    -0.022 C 
HETATM    4  C4  UNL     1     -33.059  15.709  -3.523  1.00 20.00     0.001 C 
HETATM    5  C5  UNL     1     -36.411  15.368  -6.193  1.00 20.00     0.018 C 
HETATM    6  C6  UNL     1     -36.436  16.440  -5.057  1.00 20.00     0.017 C 
HETATM    7  C7  UNL     1     -36.080  14.205  -5.245  1.00 20.00     0.016 C 
HETATM    8  C8  UNL     1     -34.967  16.247  -4.645  1.00 20.00     0.023 C 
HETATM    9  C9  UNL     1     -33.435  14.465  -4.335  1.00 20.00     0.146 C 
HETATM   10  C10 UNL     1     -34.926  14.719  -4.360  1.00 20.00     0.034 C 
ENDROOT
BRANCH   9  11
HETATM   11  O11 UNL     1     -32.829  14.484  -5.608  1.00 20.00    -0.391 OA
HETATM   12  H23 UNL     1     -32.604  15.411  -5.810  1.00 20.00     0.210 HD
ENDBRANCH   9  11
TORSDOF 1
ENDMDL
MODEL 9
REMARK VINA RESULT:      -4.4      1.996      2.659
REMARK  1 active torsions:
REMARK  status: ('A' for Active; 'I' for Inactive)
REMARK    1  A    between atoms: C9_9  and  O11_11 
ROOT
HETATM    1  C1  UNL     1     -33.541  17.194  -3.495  1.00 20.00    -0.025 C 
HETATM    2  C2  UNL     1     -33.299  15.870  -3.441  1.00 20.00    -0.025 C 
HETATM    3  C3  UNL     1     -36.774  17.143  -5.100  1.00 20.00    -0.022 C 
HETATM    4  C4  UNL     1     -37.296  15.965  -5.516  1.00 20.00     0.001 C 
HETATM    5  C5  UNL     1     -34.938  16.249  -1.932  1.00 20.00     0.018 C 
HETATM    6  C6  UNL     1     -34.933  17.430  -2.954  1.00 20.00     0.017 C 
HETATM    7  C7  UNL     1     -34.587  15.186  -2.984  1.00 20.00     0.016 C 
HETATM    8  C8  UNL     1     -36.075  16.876  -3.821  1.00 20.00     0.023 C 
HETATM    9  C9  UNL     1     -36.790  14.784  -4.680  1.00 20.00     0.146 C 
HETATM   10  C10 UNL     1     -35.536  15.459  -4.169  1.00 20.00     0.034 C 
ENDROOT
BRANCH   9  11
HETATM   11  O11 UNL     1     -37.711  14.446  -3.667  1.00 20.00    -0.391 OA
HETATM   12  H23 UNL     1     -38.393  13.879  -4.071  1.00 20.00     0.210 HD
ENDBRANCH   9  11
TORSDOF 1
ENDMDL
