MODEL 1
REMARK VINA RESULT:      -2.9      0.000      0.000
REMARK  0 active torsions:
REMARK  status: ('A' for Active; 'I' for Inactive)
ROOT
HETATM    1  C1  UNL     1     -34.082   5.048   3.641  1.00 20.00     0.178 C 
HETATM    2  C2  UNL     1     -33.851   6.526   3.901  1.00 20.00     0.102 C 
HETATM    3  C3  UNL     1     -34.821   5.085   5.831  1.00 20.00     0.241 C 
HETATM    4  O4  UNL     1     -35.125   4.603   4.518  1.00 20.00    -0.381 OA
HETATM    5  S5  UNL     1     -33.901   6.630   5.698  1.00 20.00    -0.141 SA
ENDROOT
TORSDOF 0
ENDMDL
MODEL 2
REMARK VINA RESULT:      -2.9      0.955      1.897
REMARK  0 active torsions:
REMARK  status: ('A' for Active; 'I' for Inactive)
ROOT
HETATM    1  C1  UNL     1     -35.183   5.018   4.386  1.00 20.00     0.178 C 
HETATM    2  C2  UNL     1     -34.758   5.203   5.832  1.00 20.00     0.102 C 
HETATM    3  C3  UNL     1     -33.585   6.647   4.020  1.00 20.00     0.241 C 
HETATM    4  O4  UNL     1     -34.080   5.389   3.550  1.00 20.00    -0.381 OA
HETATM    5  S5  UNL     1     -33.884   6.777   5.794  1.00 20.00    -0.141 SA
ENDROOT
TORSDOF 0
ENDMDL
MODEL 3
REMARK VINA RESULT:      -2.8      1.708      2.206
REMARK  0 active torsions:
REMARK  status: ('A' for Active; 'I' for Inactive)
ROOT
HETATM    1  C1  UNL     1     -34.760   5.032   5.815  1.00 20.00     0.178 C 
HETATM    2  C2  UNL     1     -35.037   5.172   4.328  1.00 20.00     0.102 C 
HETATM    3  C3  UNL     1     -33.576   6.988   5.474  1.00 20.00     0.241 C 
HETATM    4  O4  UNL     1     -34.512   6.341   6.343  1.00 20.00    -0.381 OA
HETATM    5  S5  UNL     1     -33.789   6.357   3.798  1.00 20.00    -0.141 SA
ENDROOT
TORSDOF 0
ENDMDL
MODEL 4
REMARK VINA RESULT:      -2.8      1.642      2.154
REMARK  0 active torsions:
REMARK  status: ('A' for Active; 'I' for Inactive)
ROOT
HETATM    1  C1  UNL     1     -34.954   5.337   4.312  1.00 20.00     0.178 C 
HETATM    2  C2  UNL     1     -34.018   6.506   4.568  1.00 20.00     0.102 C 
HETATM    3  C3  UNL     1     -33.414   4.854   2.657  1.00 20.00     0.241 C 
HETATM    4  O4  UNL     1     -34.189   4.282   3.715  1.00 20.00    -0.381 OA
HETATM    5  S5  UNL     1     -33.037   6.571   3.060  1.00 20.00    -0.141 SA
ENDROOT
TORSDOF 0
ENDMDL
MODEL 5
REMARK VINA RESULT:      -2.6      2.078      2.313
REMARK  0 active torsions:
REMARK  status: ('A' for Active; 'I' for Inactive)
ROOT
HETATM    1  C1  UNL     1     -33.044   6.491   2.846  1.00 20.00     0.178 C 
HETATM    2  C2  UNL     1     -33.516   5.048   2.887  1.00 20.00     0.102 C 
HETATM    3  C3  UNL     1     -34.074   6.572   4.914  1.00 20.00     0.241 C 
HETATM    4  O4  UNL     1     -32.892   6.944   4.197  1.00 20.00    -0.381 OA
HETATM    5  S5  UNL     1     -34.759   5.069   4.189  1.00 20.00    -0.141 SA
ENDROOT
TORSDOF 0
ENDMDL
MODEL 6
REMARK VINA RESULT:      -2.5     16.773     17.051
REMARK  0 active torsions:
REMARK  status: ('A' for Active; 'I' for Inactive)
ROOT
HETATM    1  C1  UNL     1     -23.150  16.852   9.649  1.00 20.00     0.178 C 
HETATM    2  C2  UNL     1     -22.639  18.099  10.349  1.00 20.00     0.102 C 
HETATM    3  C3  UNL     1     -23.955  16.361  11.760  1.00 20.00     0.241 C 
HETATM    4  O4  UNL     1     -24.295  16.380  10.370  1.00 20.00    -0.381 OA
HETATM    5  S5  UNL     1     -22.739  17.651  12.090  1.00 20.00    -0.141 SA
ENDROOT
TORSDOF 0
ENDMDL
MODEL 7
REMARK VINA RESULT:      -2.5     18.003     18.189
REMARK  0 active torsions:
REMARK  status: ('A' for Active; 'I' for Inactive)
ROOT
HETATM    1  C1  UNL     1     -21.590  18.047   9.544  1.00 20.00     0.178 C 
HETATM    2  C2  UNL     1     -22.418  17.766  10.786  1.00 20.00     0.102 C 
HETATM    3  C3  UNL     1     -23.501  19.169   8.888  1.00 20.00     0.241 C 
HETATM    4  O4  UNL     1     -22.075  19.260   8.955  1.00 20.00    -0.381 OA
HETATM    5  S5  UNL     1     -24.094  18.135  10.242  1.00 20.00    -0.141 SA
ENDROOT
TORSDOF 0
ENDMDL
MODEL 8
REMARK VINA RESULT:      -2.5     16.855     17.304
REMARK  0 active torsions:
REMARK  status: ('A' for Active; 'I' for Inactive)
ROOT
HETATM    1  C1  UNL     1     -24.126  16.560  10.352  1.00 20.00     0.178 C 
HETATM    2  C2  UNL     1     -23.834  16.389  11.833  1.00 20.00     0.102 C 
HETATM    3  C3  UNL     1     -22.199  17.836  10.426  1.00 20.00     0.241 C 
HETATM    4  O4  UNL     1     -22.884  16.821   9.685  1.00 20.00    -0.381 OA
HETATM    5  S5  UNL     1     -22.659  17.713  12.165  1.00 20.00    -0.141 SA
ENDROOT
TORSDOF 0
ENDMDL
MODEL 9
REMARK VINA RESULT:      -2.5     16.893     17.192
REMARK  0 active torsions:
REMARK  status: ('A' for Active; 'I' for Inactive)
ROOT
HETATM    1  C1  UNL     1     -23.971  19.032   8.283  1.00 20.00     0.178 C 
HETATM    2  C2  UNL     1     -24.394  18.088   9.395  1.00 20.00     0.102 C 
HETATM    3  C3  UNL     1     -22.215  17.542   8.094  1.00 20.00     0.241 C 
HETATM    4  O4  UNL     1     -23.182  18.286   7.347  1.00 20.00    -0.381 OA
HETATM    5  S5  UNL     1     -22.891  17.152   9.719  1.00 20.00    -0.141 SA
ENDROOT
TORSDOF 0
ENDMDL
