MODEL 1
REMARK VINA RESULT:      -4.2      0.000      0.000
REMARK  0 active torsions:
REMARK  status: ('A' for Active; 'I' for Inactive)
ROOT
HETATM    1  C1  UNL     1     -33.561   5.211   2.838  1.00 20.00     0.229 C 
HETATM    2  C2  UNL     1     -33.948   4.290   3.978  1.00 20.00     0.104 C 
HETATM    3  C3  UNL     1     -35.112   4.847   4.791  1.00 20.00     0.009 C 
HETATM    4  C4  UNL     1     -34.683   5.823   5.883  1.00 20.00     0.002 C 
HETATM    5  C5  UNL     1     -34.037   7.109   5.368  1.00 20.00     0.021 C 
HETATM    6  C6  UNL     1     -32.759   6.867   4.573  1.00 20.00     0.140 C 
HETATM    7  N7  UNL     1     -33.033   6.440   3.203  1.00 20.00    -0.284 N 
HETATM    8  O8  UNL     1     -33.734   4.846   1.672  1.00 20.00    -0.273 OA
HETATM    9 BR9  UNL     1     -32.628   7.695   1.824  1.00 20.00     0.052 Br
ENDROOT
TORSDOF 0
ENDMDL
MODEL 2
REMARK VINA RESULT:      -4.2     12.338     12.761
REMARK  0 active torsions:
REMARK  status: ('A' for Active; 'I' for Inactive)
ROOT
HETATM    1  C1  UNL     1     -35.562  14.708  -5.476  1.00 20.00     0.229 C 
HETATM    2  C2  UNL     1     -34.112  15.142  -5.549  1.00 20.00     0.104 C 
HETATM    3  C3  UNL     1     -33.338  14.762  -4.291  1.00 20.00     0.009 C 
HETATM    4  C4  UNL     1     -33.462  15.784  -3.164  1.00 20.00     0.002 C 
HETATM    5  C5  UNL     1     -34.876  15.947  -2.607  1.00 20.00     0.021 C 
HETATM    6  C6  UNL     1     -35.884  16.425  -3.647  1.00 20.00     0.140 C 
HETATM    7  N7  UNL     1     -36.337  15.342  -4.516  1.00 20.00    -0.284 N 
HETATM    8  O8  UNL     1     -35.978  13.834  -6.240  1.00 20.00    -0.273 OA
HETATM    9 BR9  UNL     1     -38.142  14.769  -4.290  1.00 20.00     0.052 Br
ENDROOT
TORSDOF 0
ENDMDL
MODEL 3
REMARK VINA RESULT:      -4.1     12.438     12.742
REMARK  0 active torsions:
REMARK  status: ('A' for Active; 'I' for Inactive)
ROOT
HETATM    1  C1  UNL     1     -35.782  14.809  -5.329  1.00 20.00     0.229 C 
HETATM    2  C2  UNL     1     -36.138  14.616  -3.868  1.00 20.00     0.104 C 
HETATM    3  C3  UNL     1     -35.747  15.823  -3.022  1.00 20.00     0.009 C 
HETATM    4  C4  UNL     1     -34.296  15.795  -2.549  1.00 20.00     0.002 C 
HETATM    5  C5  UNL     1     -33.261  15.869  -3.671  1.00 20.00     0.021 C 
HETATM    6  C6  UNL     1     -33.348  14.705  -4.652  1.00 20.00     0.140 C 
HETATM    7  N7  UNL     1     -34.429  14.878  -5.619  1.00 20.00    -0.284 N 
HETATM    8  O8  UNL     1     -36.681  14.901  -6.169  1.00 20.00    -0.273 OA
HETATM    9 BR9  UNL     1     -33.908  15.230  -7.420  1.00 20.00     0.052 Br
ENDROOT
TORSDOF 0
ENDMDL
MODEL 4
REMARK VINA RESULT:      -4.1      1.818      2.578
REMARK  0 active torsions:
REMARK  status: ('A' for Active; 'I' for Inactive)
ROOT
HETATM    1  C1  UNL     1     -33.167   6.667   3.524  1.00 20.00     0.229 C 
HETATM    2  C2  UNL     1     -33.721   7.553   4.622  1.00 20.00     0.104 C 
HETATM    3  C3  UNL     1     -33.560   6.921   6.000  1.00 20.00     0.009 C 
HETATM    4  C4  UNL     1     -34.688   5.962   6.369  1.00 20.00     0.002 C 
HETATM    5  C5  UNL     1     -34.784   4.722   5.482  1.00 20.00     0.021 C 
HETATM    6  C6  UNL     1     -35.046   5.047   4.015  1.00 20.00     0.140 C 
HETATM    7  N7  UNL     1     -33.833   5.469   3.318  1.00 20.00    -0.284 N 
HETATM    8  O8  UNL     1     -32.177   7.032   2.886  1.00 20.00    -0.273 OA
HETATM    9 BR9  UNL     1     -33.127   4.253   2.029  1.00 20.00     0.052 Br
ENDROOT
TORSDOF 0
ENDMDL
MODEL 5
REMARK VINA RESULT:      -4.1     16.357     16.801
REMARK  0 active torsions:
REMARK  status: ('A' for Active; 'I' for Inactive)
ROOT
HETATM    1  C1  UNL     1     -23.476  18.577   8.208  1.00 20.00     0.229 C 
HETATM    2  C2  UNL     1     -22.486  18.519   9.354  1.00 20.00     0.104 C 
HETATM    3  C3  UNL     1     -22.799  17.382  10.322  1.00 20.00     0.009 C 
HETATM    4  C4  UNL     1     -23.829  17.751  11.387  1.00 20.00     0.002 C 
HETATM    5  C5  UNL     1     -25.220  18.071  10.842  1.00 20.00     0.021 C 
HETATM    6  C6  UNL     1     -25.237  19.262   9.889  1.00 20.00     0.140 C 
HETATM    7  N7  UNL     1     -24.780  18.903   8.549  1.00 20.00    -0.284 N 
HETATM    8  O8  UNL     1     -23.097  18.332   7.061  1.00 20.00    -0.273 OA
HETATM    9 BR9  UNL     1     -26.104  18.886   7.175  1.00 20.00     0.052 Br
ENDROOT
TORSDOF 0
ENDMDL
MODEL 6
REMARK VINA RESULT:      -3.9     12.256     12.760
REMARK  0 active torsions:
REMARK  status: ('A' for Active; 'I' for Inactive)
ROOT
HETATM    1  C1  UNL     1     -37.275  14.590  -4.465  1.00 20.00     0.229 C 
HETATM    2  C2  UNL     1     -36.001  13.895  -4.902  1.00 20.00     0.104 C 
HETATM    3  C3  UNL     1     -34.964  13.851  -3.785  1.00 20.00     0.009 C 
HETATM    4  C4  UNL     1     -34.105  15.110  -3.698  1.00 20.00     0.002 C 
HETATM    5  C5  UNL     1     -34.875  16.381  -3.341  1.00 20.00     0.021 C 
HETATM    6  C6  UNL     1     -35.951  16.742  -4.359  1.00 20.00     0.140 C 
HETATM    7  N7  UNL     1     -37.163  15.944  -4.188  1.00 20.00    -0.284 N 
HETATM    8  O8  UNL     1     -38.321  13.944  -4.369  1.00 20.00    -0.273 OA
HETATM    9 BR9  UNL     1     -38.699  16.861  -3.526  1.00 20.00     0.052 Br
ENDROOT
TORSDOF 0
ENDMDL
MODEL 7
REMARK VINA RESULT:      -3.8     15.916     16.309
REMARK  0 active torsions:
REMARK  status: ('A' for Active; 'I' for Inactive)
ROOT
HETATM    1  C1  UNL     1     -23.481  17.175   9.910  1.00 20.00     0.229 C 
HETATM    2  C2  UNL     1     -23.395  16.638  11.325  1.00 20.00     0.104 C 
HETATM    3  C3  UNL     1     -24.701  15.986  11.767  1.00 20.00     0.009 C 
HETATM    4  C4  UNL     1     -25.718  16.974  12.332  1.00 20.00     0.002 C 
HETATM    5  C5  UNL     1     -26.226  18.008  11.327  1.00 20.00     0.021 C 
HETATM    6  C6  UNL     1     -25.123  18.898  10.766  1.00 20.00     0.140 C 
HETATM    7  N7  UNL     1     -24.356  18.233   9.715  1.00 20.00    -0.284 N 
HETATM    8  O8  UNL     1     -22.799  16.662   9.020  1.00 20.00    -0.273 OA
HETATM    9 BR9  UNL     1     -24.600  18.889   7.941  1.00 20.00     0.052 Br
ENDROOT
TORSDOF 0
ENDMDL
MODEL 8
REMARK VINA RESULT:      -3.8     12.343     12.997
REMARK  0 active torsions:
REMARK  status: ('A' for Active; 'I' for Inactive)
ROOT
HETATM    1  C1  UNL     1     -33.949  17.979  -0.302  1.00 20.00     0.229 C 
HETATM    2  C2  UNL     1     -35.210  17.610  -1.056  1.00 20.00     0.104 C 
HETATM    3  C3  UNL     1     -35.134  16.203  -1.641  1.00 20.00     0.009 C 
HETATM    4  C4  UNL     1     -34.446  16.143  -3.002  1.00 20.00     0.002 C 
HETATM    5  C5  UNL     1     -32.970  16.540  -2.986  1.00 20.00     0.021 C 
HETATM    6  C6  UNL     1     -32.734  17.973  -2.520  1.00 20.00     0.140 C 
HETATM    7  N7  UNL     1     -32.798  18.098  -1.066  1.00 20.00    -0.284 N 
HETATM    8  O8  UNL     1     -33.994  18.144   0.920  1.00 20.00    -0.273 OA
HETATM    9 BR9  UNL     1     -31.151  18.451  -0.171  1.00 20.00     0.052 Br
ENDROOT
TORSDOF 0
ENDMDL
MODEL 9
REMARK VINA RESULT:      -3.8     12.586     13.042
REMARK  0 active torsions:
REMARK  status: ('A' for Active; 'I' for Inactive)
ROOT
HETATM    1  C1  UNL     1     -31.534  18.493   0.038  1.00 20.00     0.229 C 
HETATM    2  C2  UNL     1     -31.499  19.056   1.445  1.00 20.00     0.104 C 
HETATM    3  C3  UNL     1     -32.113  18.096   2.459  1.00 20.00     0.009 C 
HETATM    4  C4  UNL     1     -33.630  18.218   2.576  1.00 20.00     0.002 C 
HETATM    5  C5  UNL     1     -34.398  17.845   1.309  1.00 20.00     0.021 C 
HETATM    6  C6  UNL     1     -34.052  18.723   0.111  1.00 20.00     0.140 C 
HETATM    7  N7  UNL     1     -32.794  18.329  -0.518  1.00 20.00    -0.284 N 
HETATM    8  O8  UNL     1     -30.479  18.206  -0.532  1.00 20.00    -0.273 OA
HETATM    9 BR9  UNL     1     -32.922  17.522  -2.242  1.00 20.00     0.052 Br
ENDROOT
TORSDOF 0
ENDMDL
