MODEL 1
REMARK VINA RESULT:      -4.0      0.000      0.000
REMARK  0 active torsions:
REMARK  status: ('A' for Active; 'I' for Inactive)
ROOT
HETATM    1  C1  UNL     1     -35.065  13.764  -3.944  1.00 20.00     0.066 C 
HETATM    2  C2  UNL     1     -35.891  14.355  -6.258  1.00 20.00     0.066 C 
HETATM    3  C3  UNL     1     -33.813  14.575  -4.268  1.00 20.00     0.170 C 
HETATM    4  C4  UNL     1     -34.588  15.130  -6.439  1.00 20.00     0.170 C 
HETATM    5  C5  UNL     1     -37.336  15.042  -4.188  1.00 20.00     0.207 A 
HETATM    6  C6  UNL     1     -36.198  14.256  -4.794  1.00 20.00     0.086 A 
HETATM    7  O7  UNL     1     -33.536  14.530  -5.673  1.00 20.00    -0.391 OA
HETATM    8  O8  UNL     1     -37.462  13.647  -4.498  1.00 20.00    -0.375 OA
ENDROOT
TORSDOF 0
ENDMDL
MODEL 2
REMARK VINA RESULT:      -3.8     11.914     13.123
REMARK  0 active torsions:
REMARK  status: ('A' for Active; 'I' for Inactive)
ROOT
HETATM    1  C1  UNL     1     -33.592   6.956   4.033  1.00 20.00     0.066 C 
HETATM    2  C2  UNL     1     -35.066   4.929   4.352  1.00 20.00     0.066 C 
HETATM    3  C3  UNL     1     -33.385   6.947   5.545  1.00 20.00     0.170 C 
HETATM    4  C4  UNL     1     -34.768   5.045   5.845  1.00 20.00     0.170 C 
HETATM    5  C5  UNL     1     -32.973   4.736   2.794  1.00 20.00     0.207 A 
HETATM    6  C6  UNL     1     -33.952   5.572   3.582  1.00 20.00     0.086 A 
HETATM    7  O7  UNL     1     -34.538   6.412   6.206  1.00 20.00    -0.391 OA
HETATM    8  O8  UNL     1     -34.059   5.427   2.160  1.00 20.00    -0.375 OA
ENDROOT
TORSDOF 0
ENDMDL
MODEL 3
REMARK VINA RESULT:      -3.8     18.017     19.471
REMARK  0 active torsions:
REMARK  status: ('A' for Active; 'I' for Inactive)
ROOT
HETATM    1  C1  UNL     1     -23.894  18.875   9.365  1.00 20.00     0.066 C 
HETATM    2  C2  UNL     1     -21.677  17.664   9.339  1.00 20.00     0.066 C 
HETATM    3  C3  UNL     1     -24.034  18.489   7.895  1.00 20.00     0.170 C 
HETATM    4  C4  UNL     1     -21.954  17.352   7.871  1.00 20.00     0.170 C 
HETATM    5  C5  UNL     1     -23.520  16.888  11.026  1.00 20.00     0.207 A 
HETATM    6  C6  UNL     1     -22.980  17.897  10.041  1.00 20.00     0.086 A 
HETATM    7  O7  UNL     1     -22.745  18.389   7.278  1.00 20.00    -0.391 OA
HETATM    8  O8  UNL     1     -22.861  18.087  11.457  1.00 20.00    -0.375 OA
ENDROOT
TORSDOF 0
ENDMDL
MODEL 4
REMARK VINA RESULT:      -3.7     18.797     19.789
REMARK  0 active torsions:
REMARK  status: ('A' for Active; 'I' for Inactive)
ROOT
HETATM    1  C1  UNL     1     -24.597  18.550   9.887  1.00 20.00     0.066 C 
HETATM    2  C2  UNL     1     -22.414  17.844  10.945  1.00 20.00     0.066 C 
HETATM    3  C3  UNL     1     -23.823  18.711   8.582  1.00 20.00     0.170 C 
HETATM    4  C4  UNL     1     -21.775  18.049   9.574  1.00 20.00     0.170 C 
HETATM    5  C5  UNL     1     -24.442  16.193  11.011  1.00 20.00     0.207 A 
HETATM    6  C6  UNL     1     -23.877  17.571  10.764  1.00 20.00     0.086 A 
HETATM    7  O7  UNL     1     -22.463  19.073   8.847  1.00 20.00    -0.391 OA
HETATM    8  O8  UNL     1     -24.570  17.247  11.976  1.00 20.00    -0.375 OA
ENDROOT
TORSDOF 0
ENDMDL
MODEL 5
REMARK VINA RESULT:      -3.7      1.311      3.172
REMARK  0 active torsions:
REMARK  status: ('A' for Active; 'I' for Inactive)
ROOT
HETATM    1  C1  UNL     1     -33.997  15.006  -6.037  1.00 20.00     0.066 C 
HETATM    2  C2  UNL     1     -34.871  13.938  -3.920  1.00 20.00     0.066 C 
HETATM    3  C3  UNL     1     -35.404  14.844  -6.607  1.00 20.00     0.170 C 
HETATM    4  C4  UNL     1     -36.224  13.842  -4.621  1.00 20.00     0.170 C 
HETATM    5  C5  UNL     1     -33.833  16.336  -3.790  1.00 20.00     0.207 A 
HETATM    6  C6  UNL     1     -34.079  15.050  -4.541  1.00 20.00     0.086 A 
HETATM    7  O7  UNL     1     -36.048  13.700  -6.035  1.00 20.00    -0.391 OA
HETATM    8  O8  UNL     1     -32.829  15.316  -3.891  1.00 20.00    -0.375 OA
ENDROOT
TORSDOF 0
ENDMDL
MODEL 6
REMARK VINA RESULT:      -3.6     18.716     20.102
REMARK  0 active torsions:
REMARK  status: ('A' for Active; 'I' for Inactive)
ROOT
HETATM    1  C1  UNL     1     -24.329  17.809  10.052  1.00 20.00     0.066 C 
HETATM    2  C2  UNL     1     -25.416  17.875  12.331  1.00 20.00     0.066 C 
HETATM    3  C3  UNL     1     -25.110  19.080   9.728  1.00 20.00     0.170 C 
HETATM    4  C4  UNL     1     -26.130  19.142  11.867  1.00 20.00     0.170 C 
HETATM    5  C5  UNL     1     -22.805  17.928  12.175  1.00 20.00     0.207 A 
HETATM    6  C6  UNL     1     -24.156  17.708  11.537  1.00 20.00     0.086 A 
HETATM    7  O7  UNL     1     -26.346  19.107  10.451  1.00 20.00    -0.391 OA
HETATM    8  O8  UNL     1     -23.335  16.612  11.960  1.00 20.00    -0.375 OA
ENDROOT
TORSDOF 0
ENDMDL
MODEL 7
REMARK VINA RESULT:      -3.6     18.465     19.480
REMARK  0 active torsions:
REMARK  status: ('A' for Active; 'I' for Inactive)
ROOT
HETATM    1  C1  UNL     1     -23.837  18.316   8.444  1.00 20.00     0.066 C 
HETATM    2  C2  UNL     1     -23.607  16.820  10.467  1.00 20.00     0.066 C 
HETATM    3  C3  UNL     1     -24.640  19.263   9.331  1.00 20.00     0.170 C 
HETATM    4  C4  UNL     1     -24.424  17.860  11.230  1.00 20.00     0.170 C 
HETATM    5  C5  UNL     1     -21.440  17.716   9.306  1.00 20.00     0.207 A 
HETATM    6  C6  UNL     1     -22.933  17.487   9.306  1.00 20.00     0.086 A 
HETATM    7  O7  UNL     1     -25.333  18.530  10.348  1.00 20.00    -0.391 OA
HETATM    8  O8  UNL     1     -22.041  16.636   8.575  1.00 20.00    -0.375 OA
ENDROOT
TORSDOF 0
ENDMDL
MODEL 8
REMARK VINA RESULT:      -3.6     18.686     19.738
REMARK  0 active torsions:
REMARK  status: ('A' for Active; 'I' for Inactive)
ROOT
HETATM    1  C1  UNL     1     -22.686  17.752  10.807  1.00 20.00     0.066 C 
HETATM    2  C2  UNL     1     -23.684  19.263   9.045  1.00 20.00     0.066 C 
HETATM    3  C3  UNL     1     -24.109  17.285  11.102  1.00 20.00     0.170 C 
HETATM    4  C4  UNL     1     -25.045  18.703   9.448  1.00 20.00     0.170 C 
HETATM    5  C5  UNL     1     -21.900  17.489   8.325  1.00 20.00     0.207 A 
HETATM    6  C6  UNL     1     -22.622  18.265   9.400  1.00 20.00     0.086 A 
HETATM    7  O7  UNL     1     -25.046  18.334  10.833  1.00 20.00    -0.391 OA
HETATM    8  O8  UNL     1     -21.305  18.627   8.965  1.00 20.00    -0.375 OA
ENDROOT
TORSDOF 0
ENDMDL
MODEL 9
REMARK VINA RESULT:      -3.6     11.485     12.663
REMARK  0 active torsions:
REMARK  status: ('A' for Active; 'I' for Inactive)
ROOT
HETATM    1  C1  UNL     1     -34.410   6.780   4.257  1.00 20.00     0.066 C 
HETATM    2  C2  UNL     1     -33.580   5.053   2.611  1.00 20.00     0.066 C 
HETATM    3  C3  UNL     1     -34.625   5.629   5.237  1.00 20.00     0.170 C 
HETATM    4  C4  UNL     1     -33.845   4.009   3.692  1.00 20.00     0.170 C 
HETATM    5  C5  UNL     1     -31.987   7.012   3.298  1.00 20.00     0.207 A 
HETATM    6  C6  UNL     1     -33.360   6.385   3.263  1.00 20.00     0.086 A 
HETATM    7  O7  UNL     1     -34.931   4.421   4.532  1.00 20.00    -0.391 OA
HETATM    8  O8  UNL     1     -32.986   7.430   2.357  1.00 20.00    -0.375 OA
ENDROOT
TORSDOF 0
ENDMDL
