MODEL 1
REMARK VINA RESULT:      -3.4      0.000      0.000
REMARK  1 active torsions:
REMARK  status: ('A' for Active; 'I' for Inactive)
REMARK    1  A    between atoms: C1_1  and  C3_3 
ROOT
HETATM    1  C1  UNL     1     -34.187   6.373   3.737  1.00 20.00     0.181 A 
HETATM    2  C2  UNL     1     -32.835   6.454   3.087  1.00 20.00     0.247 A 
HETATM    3  O4  UNL     1     -33.061   6.947   4.414  1.00 20.00    -0.358 OA
HETATM    4 CL5  UNL     1     -32.559   7.594   1.800  1.00 20.00    -0.092 Cl
ENDROOT
BRANCH   1   5
HETATM    5  C3  UNL     1     -34.676   5.100   4.329  1.00 20.00     0.150 C 
HETATM    6 CL6  UNL     1     -34.766   5.203   6.111  1.00 20.00    -0.128 Cl
ENDBRANCH   1   5
TORSDOF 1
ENDMDL
MODEL 2
REMARK VINA RESULT:      -3.3      1.648      3.585
REMARK  1 active torsions:
REMARK  status: ('A' for Active; 'I' for Inactive)
REMARK    1  A    between atoms: C1_1  and  C3_3 
ROOT
HETATM    1  C1  UNL     1     -34.345   5.253   3.585  1.00 20.00     0.181 A 
HETATM    2  C2  UNL     1     -34.059   4.928   5.024  1.00 20.00     0.247 A 
HETATM    3  O4  UNL     1     -34.586   3.946   4.123  1.00 20.00    -0.358 OA
HETATM    4 CL5  UNL     1     -35.089   5.562   6.277  1.00 20.00    -0.092 Cl
ENDROOT
BRANCH   1   5
HETATM    5  C3  UNL     1     -33.250   5.312   2.582  1.00 20.00     0.150 C 
HETATM    6 CL6  UNL     1     -32.537   6.949   2.493  1.00 20.00    -0.128 Cl
ENDBRANCH   1   5
TORSDOF 1
ENDMDL
MODEL 3
REMARK VINA RESULT:      -3.3      1.635      1.759
REMARK  1 active torsions:
REMARK  status: ('A' for Active; 'I' for Inactive)
REMARK    1  A    between atoms: C1_1  and  C3_3 
ROOT
HETATM    1  C1  UNL     1     -33.254   6.708   2.791  1.00 20.00     0.181 A 
HETATM    2  C2  UNL     1     -32.423   7.372   1.731  1.00 20.00     0.247 A 
HETATM    3  O4  UNL     1     -31.970   7.272   3.087  1.00 20.00    -0.358 OA
HETATM    4 CL5  UNL     1     -32.892   8.931   1.111  1.00 20.00    -0.092 Cl
ENDROOT
BRANCH   1   5
HETATM    5  C3  UNL     1     -33.314   5.227   2.900  1.00 20.00     0.150 C 
HETATM    6 CL6  UNL     1     -34.573   4.710   4.058  1.00 20.00    -0.128 Cl
ENDBRANCH   1   5
TORSDOF 1
ENDMDL
MODEL 4
REMARK VINA RESULT:      -3.2      2.376      4.121
REMARK  1 active torsions:
REMARK  status: ('A' for Active; 'I' for Inactive)
REMARK    1  A    between atoms: C1_1  and  C3_3 
ROOT
HETATM    1  C1  UNL     1     -32.377   7.340   1.720  1.00 20.00     0.181 A 
HETATM    2  C2  UNL     1     -33.185   6.535   2.697  1.00 20.00     0.247 A 
HETATM    3  O4  UNL     1     -32.003   7.239   3.100  1.00 20.00    -0.358 OA
HETATM    4 CL5  UNL     1     -33.150   4.796   2.629  1.00 20.00    -0.092 Cl
ENDROOT
BRANCH   1   5
HETATM    5  C3  UNL     1     -32.814   8.696   1.299  1.00 20.00     0.150 C 
HETATM    6 CL6  UNL     1     -33.441   8.688  -0.375  1.00 20.00    -0.128 Cl
ENDBRANCH   1   5
TORSDOF 1
ENDMDL
MODEL 5
REMARK VINA RESULT:      -3.1      2.095      2.302
REMARK  1 active torsions:
REMARK  status: ('A' for Active; 'I' for Inactive)
REMARK    1  A    between atoms: C1_1  and  C3_3 
ROOT
HETATM    1  C1  UNL     1     -34.658   4.740   4.765  1.00 20.00     0.181 A 
HETATM    2  C2  UNL     1     -34.041   5.491   3.621  1.00 20.00     0.247 A 
HETATM    3  O4  UNL     1     -35.462   5.395   3.776  1.00 20.00    -0.358 OA
HETATM    4 CL5  UNL     1     -33.273   4.619   2.324  1.00 20.00    -0.092 Cl
ENDROOT
BRANCH   1   5
HETATM    5  C3  UNL     1     -34.740   5.343   6.121  1.00 20.00     0.150 C 
HETATM    6 CL6  UNL     1     -33.951   6.946   6.169  1.00 20.00    -0.128 Cl
ENDBRANCH   1   5
TORSDOF 1
ENDMDL
MODEL 6
REMARK VINA RESULT:      -2.9     16.578     17.027
REMARK  1 active torsions:
REMARK  status: ('A' for Active; 'I' for Inactive)
REMARK    1  A    between atoms: C1_1  and  C3_3 
ROOT
HETATM    1  C1  UNL     1     -23.390  18.474   9.738  1.00 20.00     0.181 A 
HETATM    2  C2  UNL     1     -23.393  18.307   8.245  1.00 20.00     0.247 A 
HETATM    3  O4  UNL     1     -22.480  19.196   8.899  1.00 20.00    -0.358 OA
HETATM    4 CL5  UNL     1     -24.692  18.978   7.299  1.00 20.00    -0.092 Cl
ENDROOT
BRANCH   1   5
HETATM    5  C3  UNL     1     -22.747  17.465  10.619  1.00 20.00     0.150 C 
HETATM    6 CL6  UNL     1     -22.781  17.980  12.330  1.00 20.00    -0.128 Cl
ENDBRANCH   1   5
TORSDOF 1
ENDMDL
MODEL 7
REMARK VINA RESULT:      -2.9      9.175      9.440
REMARK  1 active torsions:
REMARK  status: ('A' for Active; 'I' for Inactive)
REMARK    1  A    between atoms: C1_1  and  C3_3 
ROOT
HETATM    1  C1  UNL     1     -41.858   6.907  -0.595  1.00 20.00     0.181 A 
HETATM    2  C2  UNL     1     -41.180   5.609  -0.925  1.00 20.00     0.247 A 
HETATM    3  O4  UNL     1     -40.792   6.839  -1.550  1.00 20.00    -0.358 OA
HETATM    4 CL5  UNL     1     -42.016   4.409  -1.871  1.00 20.00    -0.092 Cl
ENDROOT
BRANCH   1   5
HETATM    5  C3  UNL     1     -41.523   7.650   0.648  1.00 20.00     0.150 C 
HETATM    6 CL6  UNL     1     -41.403   9.407   0.343  1.00 20.00    -0.128 Cl
ENDBRANCH   1   5
TORSDOF 1
ENDMDL
MODEL 8
REMARK VINA RESULT:      -2.9     11.503     11.698
REMARK  1 active torsions:
REMARK  status: ('A' for Active; 'I' for Inactive)
REMARK    1  A    between atoms: C1_1  and  C3_3 
ROOT
HETATM    1  C1  UNL     1     -35.044  14.041  -3.896  1.00 20.00     0.181 A 
HETATM    2  C2  UNL     1     -33.893  14.830  -4.451  1.00 20.00     0.247 A 
HETATM    3  O4  UNL     1     -33.802  13.415  -4.242  1.00 20.00    -0.358 OA
HETATM    4 CL5  UNL     1     -32.990  15.896  -3.411  1.00 20.00    -0.092 Cl
ENDROOT
BRANCH   1   5
HETATM    5  C3  UNL     1     -36.190  13.650  -4.757  1.00 20.00     0.150 C 
HETATM    6 CL6  UNL     1     -37.679  14.524  -4.295  1.00 20.00    -0.128 Cl
ENDBRANCH   1   5
TORSDOF 1
ENDMDL
MODEL 9
REMARK VINA RESULT:      -2.9     16.121     16.900
REMARK  1 active torsions:
REMARK  status: ('A' for Active; 'I' for Inactive)
REMARK    1  A    between atoms: C1_1  and  C3_3 
ROOT
HETATM    1  C1  UNL     1     -22.743  17.476  10.468  1.00 20.00     0.181 A 
HETATM    2  C2  UNL     1     -24.176  17.206  10.827  1.00 20.00     0.247 A 
HETATM    3  O4  UNL     1     -23.373  18.122  11.582  1.00 20.00    -0.358 OA
HETATM    4 CL5  UNL     1     -24.619  15.683  11.545  1.00 20.00    -0.092 Cl
ENDROOT
BRANCH   1   5
HETATM    5  C3  UNL     1     -22.393  18.387   9.347  1.00 20.00     0.150 C 
HETATM    6 CL6  UNL     1     -21.962  17.470   7.875  1.00 20.00    -0.128 Cl
ENDBRANCH   1   5
TORSDOF 1
ENDMDL
