MODEL 1
REMARK VINA RESULT:      -3.6      0.000      0.000
REMARK  1 active torsions:
REMARK  status: ('A' for Active; 'I' for Inactive)
REMARK    1  A    between atoms: C1_1  and  C3_3 
ROOT
HETATM    1  C1  UNL     1     -34.535   4.742   4.122  1.00 20.00     0.181 A 
HETATM    2  C2  UNL     1     -34.828   5.291   5.491  1.00 20.00     0.247 A 
HETATM    3  O4  UNL     1     -35.759   5.428   4.409  1.00 20.00    -0.358 OA
HETATM    4 CL5  UNL     1     -34.030   6.708   6.108  1.00 20.00    -0.092 Cl
ENDROOT
BRANCH   1   5
HETATM    5  C3  UNL     1     -33.666   5.431   3.130  1.00 20.00     0.150 C 
HETATM    6 CL6  UNL     1     -32.949   4.269   1.977  1.00 20.00    -0.128 Cl
ENDBRANCH   1   5
TORSDOF 1
ENDMDL
MODEL 2
REMARK VINA RESULT:      -3.6      1.347      3.030
REMARK  1 active torsions:
REMARK  status: ('A' for Active; 'I' for Inactive)
REMARK    1  A    between atoms: C1_1  and  C3_3 
ROOT
HETATM    1  C1  UNL     1     -35.012   4.953   4.680  1.00 20.00     0.181 A 
HETATM    2  C2  UNL     1     -34.383   5.185   3.334  1.00 20.00     0.247 A 
HETATM    3  O4  UNL     1     -34.363   3.897   3.962  1.00 20.00    -0.358 OA
HETATM    4 CL5  UNL     1     -32.893   6.063   3.151  1.00 20.00    -0.092 Cl
ENDROOT
BRANCH   1   5
HETATM    5  C3  UNL     1     -34.356   5.312   5.966  1.00 20.00     0.150 C 
HETATM    6 CL6  UNL     1     -34.104   7.077   6.095  1.00 20.00    -0.128 Cl
ENDBRANCH   1   5
TORSDOF 1
ENDMDL
MODEL 3
REMARK VINA RESULT:      -3.4      1.527      1.593
REMARK  1 active torsions:
REMARK  status: ('A' for Active; 'I' for Inactive)
REMARK    1  A    between atoms: C1_1  and  C3_3 
ROOT
HETATM    1  C1  UNL     1     -34.114   5.408   3.526  1.00 20.00     0.181 A 
HETATM    2  C2  UNL     1     -34.802   4.723   4.674  1.00 20.00     0.247 A 
HETATM    3  O4  UNL     1     -35.522   5.549   3.751  1.00 20.00    -0.358 OA
HETATM    4 CL5  UNL     1     -34.607   5.257   6.318  1.00 20.00    -0.092 Cl
ENDROOT
BRANCH   1   5
HETATM    5  C3  UNL     1     -33.342   6.672   3.668  1.00 20.00     0.150 C 
HETATM    6 CL6  UNL     1     -32.548   7.124   2.132  1.00 20.00    -0.128 Cl
ENDBRANCH   1   5
TORSDOF 1
ENDMDL
MODEL 4
REMARK VINA RESULT:      -3.2     12.282     12.857
REMARK  1 active torsions:
REMARK  status: ('A' for Active; 'I' for Inactive)
REMARK    1  A    between atoms: C1_1  and  C3_3 
ROOT
HETATM    1  C1  UNL     1     -35.313  13.966  -3.938  1.00 20.00     0.181 A 
HETATM    2  C2  UNL     1     -36.289  13.962  -5.082  1.00 20.00     0.247 A 
HETATM    3  O4  UNL     1     -35.730  12.747  -4.566  1.00 20.00    -0.358 OA
HETATM    4 CL5  UNL     1     -35.843  14.491  -6.678  1.00 20.00    -0.092 Cl
ENDROOT
BRANCH   1   5
HETATM    5  C3  UNL     1     -33.866  14.272  -4.095  1.00 20.00     0.150 C 
HETATM    6 CL6  UNL     1     -33.427  15.784  -3.250  1.00 20.00    -0.128 Cl
ENDBRANCH   1   5
TORSDOF 1
ENDMDL
MODEL 5
REMARK VINA RESULT:      -3.1      2.291      2.523
REMARK  1 active torsions:
REMARK  status: ('A' for Active; 'I' for Inactive)
REMARK    1  A    between atoms: C1_1  and  C3_3 
ROOT
HETATM    1  C1  UNL     1     -33.869   6.886   3.860  1.00 20.00     0.181 A 
HETATM    2  C2  UNL     1     -34.674   5.772   4.470  1.00 20.00     0.247 A 
HETATM    3  O4  UNL     1     -33.738   6.535   5.242  1.00 20.00    -0.358 OA
HETATM    4 CL5  UNL     1     -34.335   4.099   4.136  1.00 20.00    -0.092 Cl
ENDROOT
BRANCH   1   5
HETATM    5  C3  UNL     1     -32.639   6.664   3.053  1.00 20.00     0.150 C 
HETATM    6 CL6  UNL     1     -32.582   7.759   1.642  1.00 20.00    -0.128 Cl
ENDBRANCH   1   5
TORSDOF 1
ENDMDL
MODEL 6
REMARK VINA RESULT:      -3.0      1.973      3.231
REMARK  1 active torsions:
REMARK  status: ('A' for Active; 'I' for Inactive)
REMARK    1  A    between atoms: C1_1  and  C3_3 
ROOT
HETATM    1  C1  UNL     1     -34.347   5.489   3.510  1.00 20.00     0.181 A 
HETATM    2  C2  UNL     1     -33.334   5.764   2.433  1.00 20.00     0.247 A 
HETATM    3  O4  UNL     1     -33.215   4.635   3.308  1.00 20.00    -0.358 OA
HETATM    4 CL5  UNL     1     -32.181   7.061   2.559  1.00 20.00    -0.092 Cl
ENDROOT
BRANCH   1   5
HETATM    5  C3  UNL     1     -34.359   6.188   4.823  1.00 20.00     0.150 C 
HETATM    6 CL6  UNL     1     -34.808   5.075   6.147  1.00 20.00    -0.128 Cl
ENDBRANCH   1   5
TORSDOF 1
ENDMDL
MODEL 7
REMARK VINA RESULT:      -3.0      3.336      4.094
REMARK  1 active torsions:
REMARK  status: ('A' for Active; 'I' for Inactive)
REMARK    1  A    between atoms: C1_1  and  C3_3 
ROOT
HETATM    1  C1  UNL     1     -32.753   7.809   2.327  1.00 20.00     0.181 A 
HETATM    2  C2  UNL     1     -33.082   6.585   3.136  1.00 20.00     0.247 A 
HETATM    3  O4  UNL     1     -31.824   7.260   3.270  1.00 20.00    -0.358 OA
HETATM    4 CL5  UNL     1     -33.122   4.996   2.431  1.00 20.00    -0.092 Cl
ENDROOT
BRANCH   1   5
HETATM    5  C3  UNL     1     -32.291   7.759   0.914  1.00 20.00     0.150 C 
HETATM    6 CL6  UNL     1     -33.323   8.765  -0.142  1.00 20.00    -0.128 Cl
ENDBRANCH   1   5
TORSDOF 1
ENDMDL
MODEL 8
REMARK VINA RESULT:      -2.9     12.706     12.924
REMARK  1 active torsions:
REMARK  status: ('A' for Active; 'I' for Inactive)
REMARK    1  A    between atoms: C1_1  and  C3_3 
ROOT
HETATM    1  C1  UNL     1     -34.035  14.918  -5.292  1.00 20.00     0.181 A 
HETATM    2  C2  UNL     1     -33.310  15.234  -4.014  1.00 20.00     0.247 A 
HETATM    3  O4  UNL     1     -33.503  13.884  -4.456  1.00 20.00    -0.358 OA
HETATM    4 CL5  UNL     1     -34.144  15.789  -2.592  1.00 20.00    -0.092 Cl
ENDROOT
BRANCH   1   5
HETATM    5  C3  UNL     1     -35.518  14.904  -5.413  1.00 20.00     0.150 C 
HETATM    6 CL6  UNL     1     -36.221  13.476  -4.601  1.00 20.00    -0.128 Cl
ENDBRANCH   1   5
TORSDOF 1
ENDMDL
MODEL 9
REMARK VINA RESULT:      -2.9      9.031      9.439
REMARK  1 active torsions:
REMARK  status: ('A' for Active; 'I' for Inactive)
REMARK    1  A    between atoms: C1_1  and  C3_3 
ROOT
HETATM    1  C1  UNL     1     -41.147   6.446   0.079  1.00 20.00     0.181 A 
HETATM    2  C2  UNL     1     -41.557   5.490  -1.006  1.00 20.00     0.247 A 
HETATM    3  O4  UNL     1     -40.768   6.653  -1.287  1.00 20.00    -0.358 OA
HETATM    4 CL5  UNL     1     -43.191   5.409  -1.596  1.00 20.00    -0.092 Cl
ENDROOT
BRANCH   1   5
HETATM    5  C3  UNL     1     -42.045   7.496   0.631  1.00 20.00     0.150 C 
HETATM    6 CL6  UNL     1     -41.469   9.133   0.206  1.00 20.00    -0.128 Cl
ENDBRANCH   1   5
TORSDOF 1
ENDMDL
