MODEL 1
REMARK VINA RESULT:      -5.4      0.000      0.000
REMARK  2 active torsions:
REMARK  status: ('A' for Active; 'I' for Inactive)
REMARK    1  A    between atoms: C8_8  and  C9_9 
REMARK    2  A    between atoms: C8_8  and  O10_10 
ROOT
HETATM    1  C1  UNL     1     -32.782   8.345   0.642  1.00 20.00     0.012 C 
HETATM    2  C2  UNL     1     -32.503   7.764   1.656  1.00 20.00    -0.115 C 
HETATM    3  C9  UNL     1     -32.149   7.058   2.889  1.00 20.00     0.130 C 
ENDROOT
BRANCH   3   4
HETATM    4  C8  UNL     1     -33.400   6.717   3.701  1.00 20.00     0.068 C 
HETATM    5  C6  UNL     1     -33.151   6.963   5.197  1.00 20.00     0.038 C 
HETATM    6  C4  UNL     1     -34.345   6.549   6.060  1.00 20.00     0.003 C 
HETATM    7  C3  UNL     1     -34.753   5.103   5.797  1.00 20.00     0.000 C 
HETATM    8  C5  UNL     1     -35.025   4.855   4.317  1.00 20.00     0.003 C 
HETATM    9  C7  UNL     1     -33.832   5.263   3.450  1.00 20.00     0.038 C 
BRANCH   4  10
HETATM   10  O10 UNL     1     -34.448   7.594   3.278  1.00 20.00    -0.389 OA
HETATM   11  H24 UNL     1     -35.279   7.160   3.518  1.00 20.00     0.210 HD
ENDBRANCH   4  10
ENDBRANCH   3   4
TORSDOF 2
ENDMDL
MODEL 2
REMARK VINA RESULT:      -4.9     15.563     16.189
REMARK  2 active torsions:
REMARK  status: ('A' for Active; 'I' for Inactive)
REMARK    1  A    between atoms: C8_8  and  C9_9 
REMARK    2  A    between atoms: C8_8  and  O10_10 
ROOT
HETATM    1  C1  UNL     1     -21.640  17.387   8.147  1.00 20.00     0.012 C 
HETATM    2  C2  UNL     1     -22.629  17.919   8.571  1.00 20.00    -0.115 C 
HETATM    3  C9  UNL     1     -23.837  18.575   9.077  1.00 20.00     0.130 C 
ENDROOT
BRANCH   3   4
HETATM    4  C8  UNL     1     -24.180  18.078  10.483  1.00 20.00     0.068 C 
HETATM    5  C6  UNL     1     -24.244  16.543  10.509  1.00 20.00     0.038 C 
HETATM    6  C4  UNL     1     -24.675  16.003  11.874  1.00 20.00     0.003 C 
HETATM    7  C3  UNL     1     -25.992  16.620  12.332  1.00 20.00     0.000 C 
HETATM    8  C5  UNL     1     -25.930  18.144  12.332  1.00 20.00     0.003 C 
HETATM    9  C7  UNL     1     -25.505  18.690  10.967  1.00 20.00     0.038 C 
BRANCH   4  10
HETATM   10  O10 UNL     1     -23.128  18.491  11.360  1.00 20.00    -0.389 OA
HETATM   11  H24 UNL     1     -23.288  19.426  11.554  1.00 20.00     0.210 HD
ENDBRANCH   4  10
ENDBRANCH   3   4
TORSDOF 2
ENDMDL
MODEL 3
REMARK VINA RESULT:      -4.6     11.105     12.293
REMARK  2 active torsions:
REMARK  status: ('A' for Active; 'I' for Inactive)
REMARK    1  A    between atoms: C8_8  and  C9_9 
REMARK    2  A    between atoms: C8_8  and  O10_10 
ROOT
HETATM    1  C1  UNL     1     -34.363  17.082  -1.475  1.00 20.00     0.012 C 
HETATM    2  C2  UNL     1     -33.757  16.543  -2.360  1.00 20.00    -0.115 C 
HETATM    3  C9  UNL     1     -33.007  15.888  -3.434  1.00 20.00     0.130 C 
ENDROOT
BRANCH   3   4
HETATM    4  C8  UNL     1     -33.953  15.230  -4.439  1.00 20.00     0.068 C 
HETATM    5  C6  UNL     1     -34.712  16.298  -5.242  1.00 20.00     0.038 C 
HETATM    6  C4  UNL     1     -35.739  15.687  -6.197  1.00 20.00     0.003 C 
HETATM    7  C3  UNL     1     -36.701  14.757  -5.466  1.00 20.00     0.000 C 
HETATM    8  C5  UNL     1     -35.957  13.678  -4.686  1.00 20.00     0.003 C 
HETATM    9  C7  UNL     1     -34.932  14.284  -3.725  1.00 20.00     0.038 C 
BRANCH   4  10
HETATM   10  O10 UNL     1     -33.158  14.472  -5.356  1.00 20.00    -0.389 OA
HETATM   11  H24 UNL     1     -32.717  13.788  -4.831  1.00 20.00     0.210 HD
ENDBRANCH   4  10
ENDBRANCH   3   4
TORSDOF 2
ENDMDL
MODEL 4
REMARK VINA RESULT:      -4.5     11.501     12.879
REMARK  2 active torsions:
REMARK  status: ('A' for Active; 'I' for Inactive)
REMARK    1  A    between atoms: C8_8  and  C9_9 
REMARK    2  A    between atoms: C8_8  and  O10_10 
ROOT
HETATM    1  C1  UNL     1     -34.991  16.317  -1.721  1.00 20.00     0.012 C 
HETATM    2  C2  UNL     1     -34.228  15.934  -2.566  1.00 20.00    -0.115 C 
HETATM    3  C9  UNL     1     -33.288  15.466  -3.586  1.00 20.00     0.130 C 
ENDROOT
BRANCH   3   4
HETATM    4  C8  UNL     1     -33.988  15.292  -4.935  1.00 20.00     0.068 C 
HETATM    5  C6  UNL     1     -34.330  16.661  -5.543  1.00 20.00     0.038 C 
HETATM    6  C4  UNL     1     -35.115  16.536  -6.851  1.00 20.00     0.003 C 
HETATM    7  C3  UNL     1     -36.365  15.681  -6.676  1.00 20.00     0.000 C 
HETATM    8  C5  UNL     1     -36.032  14.310  -6.095  1.00 20.00     0.003 C 
HETATM    9  C7  UNL     1     -35.252  14.429  -4.784  1.00 20.00     0.038 C 
BRANCH   4  10
HETATM   10  O10 UNL     1     -33.077  14.631  -5.818  1.00 20.00    -0.389 OA
HETATM   11  H24 UNL     1     -32.285  15.188  -5.857  1.00 20.00     0.210 HD
ENDBRANCH   4  10
ENDBRANCH   3   4
TORSDOF 2
ENDMDL
MODEL 5
REMARK VINA RESULT:      -4.5     11.346     13.410
REMARK  2 active torsions:
REMARK  status: ('A' for Active; 'I' for Inactive)
REMARK    1  A    between atoms: C8_8  and  C9_9 
REMARK    2  A    between atoms: C8_8  and  O10_10 
ROOT
HETATM    1  C1  UNL     1     -34.110  16.031  -2.550  1.00 20.00     0.012 C 
HETATM    2  C2  UNL     1     -34.574  15.195  -3.277  1.00 20.00    -0.115 C 
HETATM    3  C9  UNL     1     -35.140  14.166  -4.153  1.00 20.00     0.130 C 
ENDROOT
BRANCH   3   4
HETATM    4  C8  UNL     1     -35.303  14.694  -5.580  1.00 20.00     0.068 C 
HETATM    5  C6  UNL     1     -33.930  14.983  -6.205  1.00 20.00     0.038 C 
HETATM    6  C4  UNL     1     -34.045  15.600  -7.600  1.00 20.00     0.003 C 
HETATM    7  C3  UNL     1     -34.924  16.846  -7.592  1.00 20.00     0.000 C 
HETATM    8  C5  UNL     1     -36.298  16.562  -6.995  1.00 20.00     0.003 C 
HETATM    9  C7  UNL     1     -36.189  15.951  -5.597  1.00 20.00     0.038 C 
BRANCH   4  10
HETATM   10  O10 UNL     1     -35.934  13.669  -6.354  1.00 20.00    -0.389 OA
HETATM   11  H24 UNL     1     -36.856  13.636  -6.060  1.00 20.00     0.210 HD
ENDBRANCH   4  10
ENDBRANCH   3   4
TORSDOF 2
ENDMDL
MODEL 6
REMARK VINA RESULT:      -4.4     11.161     12.229
REMARK  2 active torsions:
REMARK  status: ('A' for Active; 'I' for Inactive)
REMARK    1  A    between atoms: C8_8  and  C9_9 
REMARK    2  A    between atoms: C8_8  and  O10_10 
ROOT
HETATM    1  C1  UNL     1     -36.510  16.434  -7.112  1.00 20.00     0.012 C 
HETATM    2  C2  UNL     1     -36.269  15.425  -6.509  1.00 20.00    -0.115 C 
HETATM    3  C9  UNL     1     -35.981  14.186  -5.782  1.00 20.00     0.130 C 
ENDROOT
BRANCH   3   4
HETATM    4  C8  UNL     1     -35.117  14.463  -4.550  1.00 20.00     0.068 C 
HETATM    5  C6  UNL     1     -35.882  15.340  -3.546  1.00 20.00     0.038 C 
HETATM    6  C4  UNL     1     -35.025  15.720  -2.337  1.00 20.00     0.003 C 
HETATM    7  C3  UNL     1     -33.716  16.378  -2.762  1.00 20.00     0.000 C 
HETATM    8  C5  UNL     1     -32.939  15.505  -3.741  1.00 20.00     0.003 C 
HETATM    9  C7  UNL     1     -33.790  15.125  -4.955  1.00 20.00     0.038 C 
BRANCH   4  10
HETATM   10  O10 UNL     1     -34.840  13.209  -3.920  1.00 20.00    -0.389 OA
HETATM   11  H24 UNL     1     -35.292  13.230  -3.065  1.00 20.00     0.210 HD
ENDBRANCH   4  10
ENDBRANCH   3   4
TORSDOF 2
ENDMDL
MODEL 7
REMARK VINA RESULT:      -4.4     11.348     11.999
REMARK  2 active torsions:
REMARK  status: ('A' for Active; 'I' for Inactive)
REMARK    1  A    between atoms: C8_8  and  C9_9 
REMARK    2  A    between atoms: C8_8  and  O10_10 
ROOT
HETATM    1  C1  UNL     1     -36.286  13.649  -4.549  1.00 20.00     0.012 C 
HETATM    2  C2  UNL     1     -35.240  14.169  -4.268  1.00 20.00    -0.115 C 
HETATM    3  C9  UNL     1     -33.958  14.792  -3.931  1.00 20.00     0.130 C 
ENDROOT
BRANCH   3   4
HETATM    4  C8  UNL     1     -34.171  16.133  -3.227  1.00 20.00     0.068 C 
HETATM    5  C6  UNL     1     -32.821  16.754  -2.836  1.00 20.00     0.038 C 
HETATM    6  C4  UNL     1     -32.987  18.054  -2.046  1.00 20.00     0.003 C 
HETATM    7  C3  UNL     1     -33.880  17.859  -0.826  1.00 20.00     0.000 C 
HETATM    8  C5  UNL     1     -35.232  17.265  -1.207  1.00 20.00     0.003 C 
HETATM    9  C7  UNL     1     -35.072  15.962  -1.993  1.00 20.00     0.038 C 
BRANCH   4  10
HETATM   10  O10 UNL     1     -34.812  17.016  -4.153  1.00 20.00    -0.389 OA
HETATM   11  H24 UNL     1     -34.588  16.691  -5.037  1.00 20.00     0.210 HD
ENDBRANCH   4  10
ENDBRANCH   3   4
TORSDOF 2
ENDMDL
MODEL 8
REMARK VINA RESULT:      -4.2      9.204     10.286
REMARK  2 active torsions:
REMARK  status: ('A' for Active; 'I' for Inactive)
REMARK    1  A    between atoms: C8_8  and  C9_9 
REMARK    2  A    between atoms: C8_8  and  O10_10 
ROOT
HETATM    1  C1  UNL     1     -42.720   3.044  -3.272  1.00 20.00     0.012 C 
HETATM    2  C2  UNL     1     -42.976   3.674  -2.282  1.00 20.00    -0.115 C 
HETATM    3  C9  UNL     1     -43.299   4.434  -1.073  1.00 20.00     0.130 C 
ENDROOT
BRANCH   3   4
HETATM    4  C8  UNL     1     -42.268   5.538  -0.830  1.00 20.00     0.068 C 
HETATM    5  C6  UNL     1     -42.171   5.860   0.670  1.00 20.00     0.038 C 
HETATM    6  C4  UNL     1     -41.218   7.024   0.953  1.00 20.00     0.003 C 
HETATM    7  C3  UNL     1     -41.588   8.262   0.143  1.00 20.00     0.000 C 
HETATM    8  C5  UNL     1     -41.663   7.956  -1.349  1.00 20.00     0.003 C 
HETATM    9  C7  UNL     1     -42.619   6.797  -1.639  1.00 20.00     0.038 C 
BRANCH   4  10
HETATM   10  O10 UNL     1     -40.994   5.048  -1.259  1.00 20.00    -0.389 OA
HETATM   11  H24 UNL     1     -40.342   5.412  -0.643  1.00 20.00     0.210 HD
ENDBRANCH   4  10
ENDBRANCH   3   4
TORSDOF 2
ENDMDL
MODEL 9
REMARK VINA RESULT:      -4.2     15.922     17.011
REMARK  2 active torsions:
REMARK  status: ('A' for Active; 'I' for Inactive)
REMARK    1  A    between atoms: C8_8  and  C9_9 
REMARK    2  A    between atoms: C8_8  and  O10_10 
ROOT
HETATM    1  C1  UNL     1     -26.307  18.604  12.332  1.00 20.00     0.012 C 
HETATM    2  C2  UNL     1     -25.146  18.300  12.325  1.00 20.00    -0.115 C 
HETATM    3  C9  UNL     1     -23.729  17.930  12.330  1.00 20.00     0.130 C 
ENDROOT
BRANCH   3   4
HETATM    4  C8  UNL     1     -23.272  17.500  10.935  1.00 20.00     0.068 C 
HETATM    5  C6  UNL     1     -21.782  17.820  10.736  1.00 20.00     0.038 C 
HETATM    6  C4  UNL     1     -21.301  17.492   9.321  1.00 20.00     0.003 C 
HETATM    7  C3  UNL     1     -22.160  18.176   8.263  1.00 20.00     0.000 C 
HETATM    8  C5  UNL     1     -23.638  17.845   8.438  1.00 20.00     0.003 C 
HETATM    9  C7  UNL     1     -24.126  18.177   9.850  1.00 20.00     0.038 C 
BRANCH   4  10
HETATM   10  O10 UNL     1     -23.435  16.082  10.839  1.00 20.00    -0.389 OA
HETATM   11  H24 UNL     1     -23.969  15.819  11.603  1.00 20.00     0.210 HD
ENDBRANCH   4  10
ENDBRANCH   3   4
TORSDOF 2
ENDMDL
