MODEL 1
REMARK VINA RESULT:      -4.1      0.000      0.000
REMARK  0 active torsions:
REMARK  status: ('A' for Active; 'I' for Inactive)
ROOT
HETATM    1  C1  UNL     1     -34.723   5.181   5.808  1.00 20.00     0.029 C 
HETATM    2  C2  UNL     1     -35.041   5.001   4.325  1.00 20.00     0.044 C 
HETATM    3  C3  UNL     1     -34.282   6.616   6.090  1.00 20.00     0.167 C 
HETATM    4  C4  UNL     1     -33.446   6.917   3.886  1.00 20.00     0.207 C 
HETATM    5  C5  UNL     1     -33.002   4.614   2.740  1.00 20.00     0.209 A 
HETATM    6  C6  UNL     1     -33.908   5.545   3.511  1.00 20.00     0.103 A 
HETATM    7  O7  UNL     1     -33.150   6.962   5.287  1.00 20.00    -0.388 OA
HETATM    8  O8  UNL     1     -34.057   5.345   2.099  1.00 20.00    -0.373 OA
ENDROOT
TORSDOF 0
ENDMDL
MODEL 2
REMARK VINA RESULT:      -3.8     16.763     17.582
REMARK  0 active torsions:
REMARK  status: ('A' for Active; 'I' for Inactive)
ROOT
HETATM    1  C1  UNL     1     -24.803  18.895   9.459  1.00 20.00     0.029 C 
HETATM    2  C2  UNL     1     -24.624  17.758  10.464  1.00 20.00     0.044 C 
HETATM    3  C3  UNL     1     -23.721  18.833   8.382  1.00 20.00     0.167 C 
HETATM    4  C4  UNL     1     -22.171  17.769   9.835  1.00 20.00     0.207 C 
HETATM    5  C5  UNL     1     -22.838  18.135  12.332  1.00 20.00     0.209 A 
HETATM    6  C6  UNL     1     -23.198  17.730  10.922  1.00 20.00     0.103 A 
HETATM    7  O7  UNL     1     -22.420  18.885   8.973  1.00 20.00    -0.388 OA
HETATM    8  O8  UNL     1     -22.933  16.758  11.942  1.00 20.00    -0.373 OA
ENDROOT
TORSDOF 0
ENDMDL
MODEL 3
REMARK VINA RESULT:      -3.7     16.695     17.557
REMARK  0 active torsions:
REMARK  status: ('A' for Active; 'I' for Inactive)
ROOT
HETATM    1  C1  UNL     1     -24.790  17.574  10.622  1.00 20.00     0.029 C 
HETATM    2  C2  UNL     1     -23.944  18.514   9.765  1.00 20.00     0.044 C 
HETATM    3  C3  UNL     1     -24.206  17.461  12.029  1.00 20.00     0.167 C 
HETATM    4  C4  UNL     1     -22.001  17.927  11.277  1.00 20.00     0.207 C 
HETATM    5  C5  UNL     1     -21.783  17.494   8.712  1.00 20.00     0.209 A 
HETATM    6  C6  UNL     1     -22.504  18.121   9.882  1.00 20.00     0.103 A 
HETATM    7  O7  UNL     1     -22.850  17.010  11.975  1.00 20.00    -0.388 OA
HETATM    8  O8  UNL     1     -21.623  18.880   9.044  1.00 20.00    -0.373 OA
ENDROOT
TORSDOF 0
ENDMDL
MODEL 4
REMARK VINA RESULT:      -3.6      9.091      9.768
REMARK  0 active torsions:
REMARK  status: ('A' for Active; 'I' for Inactive)
ROOT
HETATM    1  C1  UNL     1     -41.178   6.276  -1.084  1.00 20.00     0.029 C 
HETATM    2  C2  UNL     1     -41.749   7.666  -1.361  1.00 20.00     0.044 C 
HETATM    3  C3  UNL     1     -42.112   5.485  -0.170  1.00 20.00     0.167 C 
HETATM    4  C4  UNL     1     -42.977   7.453   0.843  1.00 20.00     0.207 C 
HETATM    5  C5  UNL     1     -41.357   9.469   0.488  1.00 20.00     0.209 A 
HETATM    6  C6  UNL     1     -42.142   8.301  -0.063  1.00 20.00     0.103 A 
HETATM    7  O7  UNL     1     -42.334   6.191   1.054  1.00 20.00    -0.388 OA
HETATM    8  O8  UNL     1     -42.607   9.651  -0.192  1.00 20.00    -0.373 OA
ENDROOT
TORSDOF 0
ENDMDL
MODEL 5
REMARK VINA RESULT:      -3.6     16.472     17.097
REMARK  0 active torsions:
REMARK  status: ('A' for Active; 'I' for Inactive)
ROOT
HETATM    1  C1  UNL     1     -23.911  17.971  12.314  1.00 20.00     0.029 C 
HETATM    2  C2  UNL     1     -23.154  16.971  11.443  1.00 20.00     0.044 C 
HETATM    3  C3  UNL     1     -25.246  18.340  11.670  1.00 20.00     0.167 C 
HETATM    4  C4  UNL     1     -24.438  17.915   9.476  1.00 20.00     0.207 C 
HETATM    5  C5  UNL     1     -21.828  17.963   9.423  1.00 20.00     0.209 A 
HETATM    6  C6  UNL     1     -23.121  17.475  10.033  1.00 20.00     0.103 A 
HETATM    7  O7  UNL     1     -25.042  18.869  10.358  1.00 20.00    -0.388 OA
HETATM    8  O8  UNL     1     -22.353  16.658   9.140  1.00 20.00    -0.373 OA
ENDROOT
TORSDOF 0
ENDMDL
MODEL 6
REMARK VINA RESULT:      -3.6     12.257     12.712
REMARK  0 active torsions:
REMARK  status: ('A' for Active; 'I' for Inactive)
ROOT
HETATM    1  C1  UNL     1     -33.813  15.524  -3.348  1.00 20.00     0.029 C 
HETATM    2  C2  UNL     1     -34.196  14.336  -4.228  1.00 20.00     0.044 C 
HETATM    3  C3  UNL     1     -34.955  15.877  -2.397  1.00 20.00     0.167 C 
HETATM    4  C4  UNL     1     -36.607  15.026  -3.878  1.00 20.00     0.207 C 
HETATM    5  C5  UNL     1     -35.678  14.868  -6.312  1.00 20.00     0.209 A 
HETATM    6  C6  UNL     1     -35.543  14.589  -4.834  1.00 20.00     0.103 A 
HETATM    7  O7  UNL     1     -36.150  16.158  -3.129  1.00 20.00    -0.388 OA
HETATM    8  O8  UNL     1     -35.966  13.577  -5.756  1.00 20.00    -0.373 OA
ENDROOT
TORSDOF 0
ENDMDL
MODEL 7
REMARK VINA RESULT:      -3.5      1.459      2.582
REMARK  0 active torsions:
REMARK  status: ('A' for Active; 'I' for Inactive)
ROOT
HETATM    1  C1  UNL     1     -34.813   6.066   4.691  1.00 20.00     0.029 C 
HETATM    2  C2  UNL     1     -33.507   6.833   4.492  1.00 20.00     0.044 C 
HETATM    3  C3  UNL     1     -34.631   4.594   4.322  1.00 20.00     0.167 C 
HETATM    4  C4  UNL     1     -32.892   5.075   2.776  1.00 20.00     0.207 C 
HETATM    5  C5  UNL     1     -32.963   7.581   2.050  1.00 20.00     0.209 A 
HETATM    6  C6  UNL     1     -32.961   6.526   3.131  1.00 20.00     0.103 A 
HETATM    7  O7  UNL     1     -34.173   4.466   2.974  1.00 20.00    -0.388 OA
HETATM    8  O8  UNL     1     -31.780   7.266   2.797  1.00 20.00    -0.373 OA
ENDROOT
TORSDOF 0
ENDMDL
MODEL 8
REMARK VINA RESULT:      -3.5     12.085     12.830
REMARK  0 active torsions:
REMARK  status: ('A' for Active; 'I' for Inactive)
ROOT
HETATM    1  C1  UNL     1     -35.936  15.019  -3.491  1.00 20.00     0.029 C 
HETATM    2  C2  UNL     1     -34.930  15.707  -2.571  1.00 20.00     0.044 C 
HETATM    3  C3  UNL     1     -35.268  13.880  -4.259  1.00 20.00     0.167 C 
HETATM    4  C4  UNL     1     -33.131  14.915  -4.166  1.00 20.00     0.207 C 
HETATM    5  C5  UNL     1     -33.357  17.470  -3.684  1.00 20.00     0.209 A 
HETATM    6  C6  UNL     1     -33.695  16.036  -3.352  1.00 20.00     0.103 A 
HETATM    7  O7  UNL     1     -34.151  14.366  -5.008  1.00 20.00    -0.388 OA
HETATM    8  O8  UNL     1     -32.714  16.770  -2.610  1.00 20.00    -0.373 OA
ENDROOT
TORSDOF 0
ENDMDL
MODEL 9
REMARK VINA RESULT:      -3.5     12.158     12.681
REMARK  0 active torsions:
REMARK  status: ('A' for Active; 'I' for Inactive)
ROOT
HETATM    1  C1  UNL     1     -34.623  15.832  -2.487  1.00 20.00     0.029 C 
HETATM    2  C2  UNL     1     -35.804  15.794  -3.455  1.00 20.00     0.044 C 
HETATM    3  C3  UNL     1     -33.311  16.012  -3.250  1.00 20.00     0.167 C 
HETATM    4  C4  UNL     1     -34.170  14.972  -5.206  1.00 20.00     0.207 C 
HETATM    5  C5  UNL     1     -36.258  13.511  -4.640  1.00 20.00     0.209 A 
HETATM    6  C6  UNL     1     -35.507  14.819  -4.552  1.00 20.00     0.103 A 
HETATM    7  O7  UNL     1     -33.141  14.967  -4.210  1.00 20.00    -0.388 OA
HETATM    8  O8  UNL     1     -36.589  14.631  -5.473  1.00 20.00    -0.373 OA
ENDROOT
TORSDOF 0
ENDMDL
