MODEL 1
REMARK VINA RESULT:      -3.9      0.000      0.000
REMARK  0 active torsions:
REMARK  status: ('A' for Active; 'I' for Inactive)
ROOT
HETATM    1  C1  UNL     1     -33.338   6.606   3.536  1.00 20.00     0.223 C 
HETATM    2  C2  UNL     1     -34.113   6.242   4.519  1.00 20.00    -0.033 C 
HETATM    3  C3  UNL     1     -35.199   5.218   4.347  1.00 20.00     0.047 C 
HETATM    4  C4  UNL     1     -33.980   6.815   5.900  1.00 20.00     0.047 C 
HETATM    5  O5  UNL     1     -32.638   6.936   2.649  1.00 20.00    -0.284 OA
ENDROOT
TORSDOF 0
ENDMDL
MODEL 2
REMARK VINA RESULT:      -3.9      0.091      1.608
REMARK  0 active torsions:
REMARK  status: ('A' for Active; 'I' for Inactive)
ROOT
HETATM    1  C1  UNL     1     -33.376   6.589   3.579  1.00 20.00     0.223 C 
HETATM    2  C2  UNL     1     -34.123   6.177   4.566  1.00 20.00    -0.033 C 
HETATM    3  C3  UNL     1     -34.002   6.742   5.953  1.00 20.00     0.047 C 
HETATM    4  C4  UNL     1     -35.160   5.106   4.394  1.00 20.00     0.047 C 
HETATM    5  O5  UNL     1     -32.703   6.961   2.689  1.00 20.00    -0.284 OA
ENDROOT
TORSDOF 0
ENDMDL
MODEL 3
REMARK VINA RESULT:      -3.4      1.876      2.429
REMARK  0 active torsions:
REMARK  status: ('A' for Active; 'I' for Inactive)
ROOT
HETATM    1  C1  UNL     1     -34.645   5.292   4.424  1.00 20.00     0.223 C 
HETATM    2  C2  UNL     1     -33.870   6.336   4.516  1.00 20.00    -0.033 C 
HETATM    3  C3  UNL     1     -33.078   6.852   3.348  1.00 20.00     0.047 C 
HETATM    4  C4  UNL     1     -33.708   7.104   5.795  1.00 20.00     0.047 C 
HETATM    5  O5  UNL     1     -35.345   4.349   4.341  1.00 20.00    -0.284 OA
ENDROOT
TORSDOF 0
ENDMDL
MODEL 4
REMARK VINA RESULT:      -3.4      1.847      2.663
REMARK  0 active torsions:
REMARK  status: ('A' for Active; 'I' for Inactive)
ROOT
HETATM    1  C1  UNL     1     -33.653   6.560   4.313  1.00 20.00     0.223 C 
HETATM    2  C2  UNL     1     -33.202   6.271   3.124  1.00 20.00    -0.033 C 
HETATM    3  C3  UNL     1     -33.357   4.906   2.517  1.00 20.00     0.047 C 
HETATM    4  C4  UNL     1     -32.494   7.281   2.268  1.00 20.00     0.047 C 
HETATM    5  O5  UNL     1     -34.060   6.821   5.386  1.00 20.00    -0.284 OA
ENDROOT
TORSDOF 0
ENDMDL
MODEL 5
REMARK VINA RESULT:      -3.4      1.852      2.982
REMARK  0 active torsions:
REMARK  status: ('A' for Active; 'I' for Inactive)
ROOT
HETATM    1  C1  UNL     1     -33.618   6.574   4.297  1.00 20.00     0.223 C 
HETATM    2  C2  UNL     1     -33.184   6.282   3.103  1.00 20.00    -0.033 C 
HETATM    3  C3  UNL     1     -32.504   7.296   2.227  1.00 20.00     0.047 C 
HETATM    4  C4  UNL     1     -33.328   4.910   2.511  1.00 20.00     0.047 C 
HETATM    5  O5  UNL     1     -34.010   6.838   5.375  1.00 20.00    -0.284 OA
ENDROOT
TORSDOF 0
ENDMDL
MODEL 6
REMARK VINA RESULT:      -3.4     11.230     11.588
REMARK  0 active torsions:
REMARK  status: ('A' for Active; 'I' for Inactive)
ROOT
HETATM    1  C1  UNL     1     -35.267  13.635  -4.136  1.00 20.00     0.223 C 
HETATM    2  C2  UNL     1     -34.514  14.615  -3.720  1.00 20.00    -0.033 C 
HETATM    3  C3  UNL     1     -34.976  15.593  -2.677  1.00 20.00     0.047 C 
HETATM    4  C4  UNL     1     -33.129  14.843  -4.251  1.00 20.00     0.047 C 
HETATM    5  O5  UNL     1     -35.946  12.750  -4.511  1.00 20.00    -0.284 OA
ENDROOT
TORSDOF 0
ENDMDL
MODEL 7
REMARK VINA RESULT:      -3.2      1.384      1.851
REMARK  0 active torsions:
REMARK  status: ('A' for Active; 'I' for Inactive)
ROOT
HETATM    1  C1  UNL     1     -32.733   7.084   2.249  1.00 20.00     0.223 C 
HETATM    2  C2  UNL     1     -33.280   6.167   2.997  1.00 20.00    -0.033 C 
HETATM    3  C3  UNL     1     -33.284   4.715   2.610  1.00 20.00     0.047 C 
HETATM    4  C4  UNL     1     -33.947   6.489   4.302  1.00 20.00     0.047 C 
HETATM    5  O5  UNL     1     -32.240   7.913   1.574  1.00 20.00    -0.284 OA
ENDROOT
TORSDOF 0
ENDMDL
MODEL 8
REMARK VINA RESULT:      -3.2      9.205      9.292
REMARK  0 active torsions:
REMARK  status: ('A' for Active; 'I' for Inactive)
ROOT
HETATM    1  C1  UNL     1     -41.559   9.164   0.208  1.00 20.00     0.223 C 
HETATM    2  C2  UNL     1     -41.764   7.893   0.001  1.00 20.00    -0.033 C 
HETATM    3  C3  UNL     1     -42.569   7.046   0.945  1.00 20.00     0.047 C 
HETATM    4  C4  UNL     1     -41.213   7.177  -1.198  1.00 20.00     0.047 C 
HETATM    5  O5  UNL     1     -41.373  10.310   0.395  1.00 20.00    -0.284 OA
ENDROOT
TORSDOF 0
ENDMDL
MODEL 9
REMARK VINA RESULT:      -3.2      9.206      9.261
REMARK  0 active torsions:
REMARK  status: ('A' for Active; 'I' for Inactive)
ROOT
HETATM    1  C1  UNL     1     -41.560   9.163   0.208  1.00 20.00     0.223 C 
HETATM    2  C2  UNL     1     -41.766   7.891   0.002  1.00 20.00    -0.033 C 
HETATM    3  C3  UNL     1     -41.211   7.173  -1.195  1.00 20.00     0.047 C 
HETATM    4  C4  UNL     1     -42.572   7.047   0.946  1.00 20.00     0.047 C 
HETATM    5  O5  UNL     1     -41.375  10.310   0.394  1.00 20.00    -0.284 OA
ENDROOT
TORSDOF 0
ENDMDL
