MODEL 1
REMARK VINA RESULT:      -5.1      0.000      0.000
REMARK  2 active torsions:
REMARK  status: ('A' for Active; 'I' for Inactive)
REMARK    1  A    between atoms: C4_4  and  C7_7 
REMARK    2  A    between atoms: C8_8  and  O11_11 
ROOT
HETATM    1  C1  UNL     1     -33.504  14.657  -4.568  1.00 20.00    -0.019 C 
HETATM    2  C2  UNL     1     -33.867  14.792  -5.852  1.00 20.00     0.007 C 
HETATM    3  C5  UNL     1     -35.924  14.745  -3.873  1.00 20.00     0.016 C 
HETATM    4  C6  UNL     1     -36.156  15.601  -5.122  1.00 20.00     0.042 C 
HETATM    5  C7  UNL     1     -34.456  14.799  -3.410  1.00 20.00     0.036 C 
HETATM    6  C8  UNL     1     -35.265  15.140  -6.294  1.00 20.00     0.072 C 
HETATM    7  C10 UNL     1     -35.234  16.213  -7.385  1.00 20.00     0.050 C 
ENDROOT
BRANCH   5   8
HETATM    8  C4  UNL     1     -34.163  16.051  -2.634  1.00 20.00    -0.085 C 
HETATM    9  C3  UNL     1     -33.064  16.786  -2.860  1.00 20.00     0.014 C 
HETATM   10  C9  UNL     1     -35.172  16.432  -1.591  1.00 20.00     0.043 C 
ENDBRANCH   5   8
BRANCH   6  11
HETATM   11  O11 UNL     1     -35.825  13.951  -6.861  1.00 20.00    -0.386 OA
HETATM   12  H27 UNL     1     -35.564  13.949  -7.794  1.00 20.00     0.211 HD
ENDBRANCH   6  11
TORSDOF 2
ENDMDL
MODEL 2
REMARK VINA RESULT:      -4.5      1.471      1.909
REMARK  2 active torsions:
REMARK  status: ('A' for Active; 'I' for Inactive)
REMARK    1  A    between atoms: C4_4  and  C7_7 
REMARK    2  A    between atoms: C8_8  and  O11_11 
ROOT
HETATM    1  C1  UNL     1     -32.998  15.518  -3.767  1.00 20.00    -0.019 C 
HETATM    2  C2  UNL     1     -33.629  14.732  -4.653  1.00 20.00     0.007 C 
HETATM    3  C5  UNL     1     -35.101  15.651  -2.386  1.00 20.00     0.016 C 
HETATM    4  C6  UNL     1     -35.866  15.448  -3.698  1.00 20.00     0.042 C 
HETATM    5  C7  UNL     1     -33.691  16.222  -2.631  1.00 20.00     0.036 C 
HETATM    6  C8  UNL     1     -35.116  14.488  -4.643  1.00 20.00     0.072 C 
HETATM    7  C10 UNL     1     -35.687  14.590  -6.059  1.00 20.00     0.050 C 
ENDROOT
BRANCH   5   8
HETATM    8  C4  UNL     1     -33.724  17.704  -2.866  1.00 20.00    -0.085 C 
HETATM    9  C3  UNL     1     -33.362  18.245  -4.039  1.00 20.00     0.014 C 
HETATM   10  C9  UNL     1     -34.187  18.547  -1.714  1.00 20.00     0.043 C 
ENDBRANCH   5   8
BRANCH   6  11
HETATM   11  O11 UNL     1     -35.308  13.145  -4.187  1.00 20.00    -0.386 OA
HETATM   12  H27 UNL     1     -36.225  13.093  -3.882  1.00 20.00     0.211 HD
ENDBRANCH   6  11
TORSDOF 2
ENDMDL
MODEL 3
REMARK VINA RESULT:      -4.5      1.409      2.268
REMARK  2 active torsions:
REMARK  status: ('A' for Active; 'I' for Inactive)
REMARK    1  A    between atoms: C4_4  and  C7_7 
REMARK    2  A    between atoms: C8_8  and  O11_11 
ROOT
HETATM    1  C1  UNL     1     -34.046  17.243  -4.659  1.00 20.00    -0.019 C 
HETATM    2  C2  UNL     1     -34.543  16.476  -5.640  1.00 20.00     0.007 C 
HETATM    3  C5  UNL     1     -32.786  15.261  -3.746  1.00 20.00     0.016 C 
HETATM    4  C6  UNL     1     -33.901  14.395  -4.342  1.00 20.00     0.042 C 
HETATM    5  C7  UNL     1     -33.261  16.705  -3.492  1.00 20.00     0.036 C 
HETATM    6  C8  UNL     1     -34.411  14.976  -5.677  1.00 20.00     0.072 C 
HETATM    7  C10 UNL     1     -35.743  14.326  -6.058  1.00 20.00     0.050 C 
ENDROOT
BRANCH   5   8
HETATM    8  C4  UNL     1     -34.055  16.814  -2.223  1.00 20.00    -0.085 C 
HETATM    9  C3  UNL     1     -35.190  16.125  -2.034  1.00 20.00     0.014 C 
HETATM   10  C9  UNL     1     -33.505  17.738  -1.176  1.00 20.00     0.043 C 
ENDBRANCH   5   8
BRANCH   6  11
HETATM   11  O11 UNL     1     -33.464  14.672  -6.706  1.00 20.00    -0.386 OA
HETATM   12  H27 UNL     1     -32.646  15.132  -6.464  1.00 20.00     0.211 HD
ENDBRANCH   6  11
TORSDOF 2
ENDMDL
MODEL 4
REMARK VINA RESULT:      -4.5      1.256      2.400
REMARK  2 active torsions:
REMARK  status: ('A' for Active; 'I' for Inactive)
REMARK    1  A    between atoms: C4_4  and  C7_7 
REMARK    2  A    between atoms: C8_8  and  O11_11 
ROOT
HETATM    1  C1  UNL     1     -34.841  17.022  -4.525  1.00 20.00    -0.019 C 
HETATM    2  C2  UNL     1     -35.698  16.141  -5.062  1.00 20.00     0.007 C 
HETATM    3  C5  UNL     1     -33.245  15.146  -3.992  1.00 20.00     0.016 C 
HETATM    4  C6  UNL     1     -34.480  14.245  -3.900  1.00 20.00     0.042 C 
HETATM    5  C7  UNL     1     -33.602  16.628  -3.764  1.00 20.00     0.036 C 
HETATM    6  C8  UNL     1     -35.548  14.647  -4.938  1.00 20.00     0.072 C 
HETATM    7  C10 UNL     1     -36.890  13.998  -4.590  1.00 20.00     0.050 C 
ENDROOT
BRANCH   5   8
HETATM    8  C4  UNL     1     -33.753  16.945  -2.304  1.00 20.00    -0.085 C 
HETATM    9  C3  UNL     1     -34.834  16.569  -1.604  1.00 20.00     0.014 C 
HETATM   10  C9  UNL     1     -32.625  17.706  -1.673  1.00 20.00     0.043 C 
ENDBRANCH   5   8
BRANCH   6  11
HETATM   11  O11 UNL     1     -35.148  14.166  -6.225  1.00 20.00    -0.386 OA
HETATM   12  H27 UNL     1     -35.461  13.252  -6.281  1.00 20.00     0.211 HD
ENDBRANCH   6  11
TORSDOF 2
ENDMDL
MODEL 5
REMARK VINA RESULT:      -4.2      1.548      2.233
REMARK  2 active torsions:
REMARK  status: ('A' for Active; 'I' for Inactive)
REMARK    1  A    between atoms: C4_4  and  C7_7 
REMARK    2  A    between atoms: C8_8  and  O11_11 
ROOT
HETATM    1  C1  UNL     1     -34.263  17.417  -4.662  1.00 20.00    -0.019 C 
HETATM    2  C2  UNL     1     -34.468  16.621  -5.722  1.00 20.00     0.007 C 
HETATM    3  C5  UNL     1     -33.593  15.416  -3.286  1.00 20.00     0.016 C 
HETATM    4  C6  UNL     1     -34.516  14.597  -4.195  1.00 20.00     0.042 C 
HETATM    5  C7  UNL     1     -33.981  16.907  -3.274  1.00 20.00     0.036 C 
HETATM    6  C8  UNL     1     -34.479  15.116  -5.647  1.00 20.00     0.072 C 
HETATM    7  C10 UNL     1     -35.658  14.545  -6.439  1.00 20.00     0.050 C 
ENDROOT
BRANCH   5   8
HETATM    8  C4  UNL     1     -35.147  17.170  -2.365  1.00 20.00    -0.085 C 
HETATM    9  C3  UNL     1     -35.153  16.771  -1.084  1.00 20.00     0.014 C 
HETATM   10  C9  UNL     1     -36.305  17.906  -2.971  1.00 20.00     0.043 C 
ENDBRANCH   5   8
BRANCH   6  11
HETATM   11  O11 UNL     1     -33.271  14.665  -6.269  1.00 20.00    -0.386 OA
HETATM   12  H27 UNL     1     -33.446  13.762  -6.574  1.00 20.00     0.211 HD
ENDBRANCH   6  11
TORSDOF 2
ENDMDL
MODEL 6
REMARK VINA RESULT:      -4.2      1.541      2.027
REMARK  2 active torsions:
REMARK  status: ('A' for Active; 'I' for Inactive)
REMARK    1  A    between atoms: C4_4  and  C7_7 
REMARK    2  A    between atoms: C8_8  and  O11_11 
ROOT
HETATM    1  C1  UNL     1     -35.356  14.143  -4.216  1.00 20.00    -0.019 C 
HETATM    2  C2  UNL     1     -36.122  14.319  -5.303  1.00 20.00     0.007 C 
HETATM    3  C5  UNL     1     -36.100  16.379  -3.327  1.00 20.00     0.016 C 
HETATM    4  C6  UNL     1     -36.284  16.797  -4.790  1.00 20.00     0.042 C 
HETATM    5  C7  UNL     1     -35.104  15.213  -3.188  1.00 20.00     0.036 C 
HETATM    6  C8  UNL     1     -36.794  15.623  -5.650  1.00 20.00     0.072 C 
HETATM    7  C10 UNL     1     -36.616  15.943  -7.136  1.00 20.00     0.050 C 
ENDROOT
BRANCH   5   8
HETATM    8  C4  UNL     1     -33.680  15.687  -3.254  1.00 20.00    -0.085 C 
HETATM    9  C3  UNL     1     -33.247  16.734  -2.537  1.00 20.00     0.014 C 
HETATM   10  C9  UNL     1     -32.770  14.921  -4.169  1.00 20.00     0.043 C 
ENDBRANCH   5   8
BRANCH   6  11
HETATM   11  O11 UNL     1     -38.192  15.442  -5.404  1.00 20.00    -0.386 OA
HETATM   12  H27 UNL     1     -38.394  15.952  -4.606  1.00 20.00     0.211 HD
ENDBRANCH   6  11
TORSDOF 2
ENDMDL
MODEL 7
REMARK VINA RESULT:      -4.2      1.612      2.606
REMARK  2 active torsions:
REMARK  status: ('A' for Active; 'I' for Inactive)
REMARK    1  A    between atoms: C4_4  and  C7_7 
REMARK    2  A    between atoms: C8_8  and  O11_11 
ROOT
HETATM    1  C1  UNL     1     -34.693  15.474  -5.962  1.00 20.00    -0.019 C 
HETATM    2  C2  UNL     1     -35.794  14.720  -5.830  1.00 20.00     0.007 C 
HETATM    3  C5  UNL     1     -34.063  14.976  -3.574  1.00 20.00     0.016 C 
HETATM    4  C6  UNL     1     -35.564  14.823  -3.307  1.00 20.00     0.042 C 
HETATM    5  C7  UNL     1     -33.791  15.847  -4.816  1.00 20.00     0.036 C 
HETATM    6  C8  UNL     1     -36.287  14.184  -4.510  1.00 20.00     0.072 C 
HETATM    7  C10 UNL     1     -37.799  14.380  -4.380  1.00 20.00     0.050 C 
ENDROOT
BRANCH   5   8
HETATM    8  C4  UNL     1     -33.908  17.311  -4.504  1.00 20.00    -0.085 C 
HETATM    9  C3  UNL     1     -34.707  18.126  -5.209  1.00 20.00     0.014 C 
HETATM   10  C9  UNL     1     -33.080  17.811  -3.357  1.00 20.00     0.043 C 
ENDBRANCH   5   8
BRANCH   6  11
HETATM   11  O11 UNL     1     -36.025  12.777  -4.515  1.00 20.00    -0.386 OA
HETATM   12  H27 UNL     1     -35.897  12.524  -3.589  1.00 20.00     0.211 HD
ENDBRANCH   6  11
TORSDOF 2
ENDMDL
MODEL 8
REMARK VINA RESULT:      -4.1      1.298      1.542
REMARK  2 active torsions:
REMARK  status: ('A' for Active; 'I' for Inactive)
REMARK    1  A    between atoms: C4_4  and  C7_7 
REMARK    2  A    between atoms: C8_8  and  O11_11 
ROOT
HETATM    1  C1  UNL     1     -34.975  14.515  -3.560  1.00 20.00    -0.019 C 
HETATM    2  C2  UNL     1     -35.445  14.410  -4.812  1.00 20.00     0.007 C 
HETATM    3  C5  UNL     1     -36.384  16.572  -3.202  1.00 20.00     0.016 C 
HETATM    4  C6  UNL     1     -36.258  16.809  -4.710  1.00 20.00     0.042 C 
HETATM    5  C7  UNL     1     -35.236  15.697  -2.664  1.00 20.00     0.036 C 
HETATM    6  C8  UNL     1     -36.261  15.479  -5.491  1.00 20.00     0.072 C 
HETATM    7  C10 UNL     1     -35.768  15.707  -6.921  1.00 20.00     0.050 C 
ENDROOT
BRANCH   5   8
HETATM    8  C4  UNL     1     -33.980  16.493  -2.456  1.00 20.00    -0.085 C 
HETATM    9  C3  UNL     1     -32.894  16.320  -3.225  1.00 20.00     0.014 C 
HETATM   10  C9  UNL     1     -34.010  17.495  -1.340  1.00 20.00     0.043 C 
ENDBRANCH   5   8
BRANCH   6  11
HETATM   11  O11 UNL     1     -37.603  14.987  -5.562  1.00 20.00    -0.386 OA
HETATM   12  H27 UNL     1     -37.688  14.332  -4.854  1.00 20.00     0.211 HD
ENDBRANCH   6  11
TORSDOF 2
ENDMDL
MODEL 9
REMARK VINA RESULT:      -4.1      2.070      2.742
REMARK  2 active torsions:
REMARK  status: ('A' for Active; 'I' for Inactive)
REMARK    1  A    between atoms: C4_4  and  C7_7 
REMARK    2  A    between atoms: C8_8  and  O11_11 
ROOT
HETATM    1  C1  UNL     1     -35.489  14.447  -3.493  1.00 20.00    -0.019 C 
HETATM    2  C2  UNL     1     -36.607  14.668  -4.202  1.00 20.00     0.007 C 
HETATM    3  C5  UNL     1     -35.756  16.688  -2.372  1.00 20.00     0.016 C 
HETATM    4  C6  UNL     1     -36.471  17.139  -3.650  1.00 20.00     0.042 C 
HETATM    5  C7  UNL     1     -34.824  15.489  -2.633  1.00 20.00     0.036 C 
HETATM    6  C8  UNL     1     -37.313  15.998  -4.256  1.00 20.00     0.072 C 
HETATM    7  C10 UNL     1     -37.706  16.341  -5.694  1.00 20.00     0.050 C 
ENDROOT
BRANCH   5   8
HETATM    8  C4  UNL     1     -33.519  15.921  -3.238  1.00 20.00    -0.085 C 
HETATM    9  C3  UNL     1     -32.928  17.077  -2.900  1.00 20.00     0.014 C 
HETATM   10  C9  UNL     1     -32.913  14.984  -4.241  1.00 20.00     0.043 C 
ENDBRANCH   5   8
BRANCH   6  11
HETATM   11  O11 UNL     1     -38.516  15.855  -3.493  1.00 20.00    -0.386 OA
HETATM   12  H27 UNL     1     -39.163  16.452  -3.896  1.00 20.00     0.211 HD
ENDBRANCH   6  11
TORSDOF 2
ENDMDL
