MODEL 1
REMARK VINA RESULT:      -2.7      0.000      0.000
REMARK  1 active torsions:
REMARK  status: ('A' for Active; 'I' for Inactive)
REMARK    1  A    between atoms: C1_1  and  S5_5 
ROOT
HETATM    1  C1  UNL     1     -33.201   6.189   2.989  1.00 20.00     0.041 C 
HETATM    2  C2  UNL     1     -33.226   4.771   2.477  1.00 20.00     0.069 C 
HETATM    3  S4  UNL     1     -32.442   7.411   2.131  1.00 20.00    -0.078 SA
ENDROOT
BRANCH   1   4
HETATM    4  S5  UNL     1     -33.989   6.475   4.536  1.00 20.00    -0.128 SA
HETATM    5  C3  UNL     1     -35.057   5.020   4.615  1.00 20.00     0.096 C 
ENDBRANCH   1   4
TORSDOF 1
ENDMDL
MODEL 2
REMARK VINA RESULT:      -2.7      1.778      3.196
REMARK  1 active torsions:
REMARK  status: ('A' for Active; 'I' for Inactive)
REMARK    1  A    between atoms: C1_1  and  S5_5 
ROOT
HETATM    1  C1  UNL     1     -34.026   6.275   4.637  1.00 20.00     0.041 C 
HETATM    2  C2  UNL     1     -33.738   7.041   5.903  1.00 20.00     0.069 C 
HETATM    3  S4  UNL     1     -35.235   5.118   4.576  1.00 20.00    -0.078 SA
ENDROOT
BRANCH   1   4
HETATM    4  S5  UNL     1     -33.010   6.648   3.250  1.00 20.00    -0.128 SA
HETATM    5  C3  UNL     1     -33.151   5.097   2.334  1.00 20.00     0.096 C 
ENDBRANCH   1   4
TORSDOF 1
ENDMDL
MODEL 3
REMARK VINA RESULT:      -2.6      1.606      2.033
REMARK  1 active torsions:
REMARK  status: ('A' for Active; 'I' for Inactive)
REMARK    1  A    between atoms: C1_1  and  S5_5 
ROOT
HETATM    1  C1  UNL     1     -33.569   6.478   4.053  1.00 20.00     0.041 C 
HETATM    2  C2  UNL     1     -33.361   7.296   5.302  1.00 20.00     0.069 C 
HETATM    3  S4  UNL     1     -32.729   6.812   2.643  1.00 20.00    -0.078 SA
ENDROOT
BRANCH   1   4
HETATM    4  S5  UNL     1     -34.752   5.180   4.158  1.00 20.00    -0.128 SA
HETATM    5  C3  UNL     1     -34.865   5.005   5.953  1.00 20.00     0.096 C 
ENDBRANCH   1   4
TORSDOF 1
ENDMDL
MODEL 4
REMARK VINA RESULT:      -2.6      1.183      2.818
REMARK  1 active torsions:
REMARK  status: ('A' for Active; 'I' for Inactive)
REMARK    1  A    between atoms: C1_1  and  S5_5 
ROOT
HETATM    1  C1  UNL     1     -34.119   6.158   4.506  1.00 20.00     0.041 C 
HETATM    2  C2  UNL     1     -35.253   5.185   4.309  1.00 20.00     0.069 C 
HETATM    3  S4  UNL     1     -33.856   6.901   5.984  1.00 20.00    -0.078 SA
ENDROOT
BRANCH   1   4
HETATM    4  S5  UNL     1     -33.113   6.480   3.099  1.00 20.00    -0.128 SA
HETATM    5  C3  UNL     1     -33.130   4.848   2.324  1.00 20.00     0.096 C 
ENDBRANCH   1   4
TORSDOF 1
ENDMDL
MODEL 5
REMARK VINA RESULT:      -2.5     16.526     17.195
REMARK  1 active torsions:
REMARK  status: ('A' for Active; 'I' for Inactive)
REMARK    1  A    between atoms: C1_1  and  S5_5 
ROOT
HETATM    1  C1  UNL     1     -23.744  17.086  11.205  1.00 20.00     0.041 C 
HETATM    2  C2  UNL     1     -24.559  15.870  11.568  1.00 20.00     0.069 C 
HETATM    3  S4  UNL     1     -22.591  17.705  12.250  1.00 20.00    -0.078 SA
ENDROOT
BRANCH   1   4
HETATM    4  S5  UNL     1     -24.090  17.820   9.644  1.00 20.00    -0.128 SA
HETATM    5  C3  UNL     1     -22.487  18.576   9.293  1.00 20.00     0.096 C 
ENDBRANCH   1   4
TORSDOF 1
ENDMDL
MODEL 6
REMARK VINA RESULT:      -2.5     16.899     17.616
REMARK  1 active torsions:
REMARK  status: ('A' for Active; 'I' for Inactive)
REMARK    1  A    between atoms: C1_1  and  S5_5 
ROOT
HETATM    1  C1  UNL     1     -23.415  17.339  11.252  1.00 20.00     0.041 C 
HETATM    2  C2  UNL     1     -22.407  17.737  12.300  1.00 20.00     0.069 C 
HETATM    3  S4  UNL     1     -24.521  16.112  11.529  1.00 20.00    -0.078 SA
ENDROOT
BRANCH   1   4
HETATM    4  S5  UNL     1     -23.346  18.217   9.729  1.00 20.00    -0.128 SA
HETATM    5  C3  UNL     1     -21.571  18.132   9.401  1.00 20.00     0.096 C 
ENDBRANCH   1   4
TORSDOF 1
ENDMDL
MODEL 7
REMARK VINA RESULT:      -2.4     16.846     17.313
REMARK  1 active torsions:
REMARK  status: ('A' for Active; 'I' for Inactive)
REMARK    1  A    between atoms: C1_1  and  S5_5 
ROOT
HETATM    1  C1  UNL     1     -24.788  18.168  10.935  1.00 20.00     0.041 C 
HETATM    2  C2  UNL     1     -25.749  18.729  11.952  1.00 20.00     0.069 C 
HETATM    3  S4  UNL     1     -24.713  18.780   9.378  1.00 20.00    -0.078 SA
ENDROOT
BRANCH   1   4
HETATM    4  S5  UNL     1     -23.778  16.830  11.469  1.00 20.00    -0.128 SA
HETATM    5  C3  UNL     1     -22.479  17.745  12.330  1.00 20.00     0.096 C 
ENDBRANCH   1   4
TORSDOF 1
ENDMDL
MODEL 8
REMARK VINA RESULT:      -2.4      1.542      1.801
REMARK  1 active torsions:
REMARK  status: ('A' for Active; 'I' for Inactive)
REMARK    1  A    between atoms: C1_1  and  S5_5 
ROOT
HETATM    1  C1  UNL     1     -33.220   6.271   3.309  1.00 20.00     0.041 C 
HETATM    2  C2  UNL     1     -32.418   7.341   2.612  1.00 20.00     0.069 C 
HETATM    3  S4  UNL     1     -33.475   4.775   2.602  1.00 20.00    -0.078 SA
ENDROOT
BRANCH   1   4
HETATM    4  S5  UNL     1     -33.882   6.693   4.883  1.00 20.00    -0.128 SA
HETATM    5  C3  UNL     1     -34.886   5.225   5.202  1.00 20.00     0.096 C 
ENDBRANCH   1   4
TORSDOF 1
ENDMDL
MODEL 9
REMARK VINA RESULT:      -2.4     16.660     17.132
REMARK  1 active torsions:
REMARK  status: ('A' for Active; 'I' for Inactive)
REMARK    1  A    between atoms: C1_1  and  S5_5 
ROOT
HETATM    1  C1  UNL     1     -23.084  18.026  10.200  1.00 20.00     0.041 C 
HETATM    2  C2  UNL     1     -24.388  18.521   9.629  1.00 20.00     0.069 C 
HETATM    3  S4  UNL     1     -21.660  18.110   9.322  1.00 20.00    -0.078 SA
ENDROOT
BRANCH   1   4
HETATM    4  S5  UNL     1     -23.151  17.340  11.819  1.00 20.00    -0.128 SA
HETATM    5  C3  UNL     1     -24.424  16.081  11.572  1.00 20.00     0.096 C 
ENDBRANCH   1   4
TORSDOF 1
ENDMDL
