MODEL 1
REMARK VINA RESULT:      -4.7      0.000      0.000
REMARK  1 active torsions:
REMARK  status: ('A' for Active; 'I' for Inactive)
REMARK    1  A    between atoms: C1_1  and  C6_6 
ROOT
HETATM    1  C2  UNL     1     -33.081  14.670  -4.273  1.00 20.00     0.002 C 
HETATM    2  C3  UNL     1     -33.911  14.585  -5.551  1.00 20.00     0.012 C 
HETATM    3  C4  UNL     1     -33.125  16.068  -3.663  1.00 20.00     0.009 C 
HETATM    4  C5  UNL     1     -35.439  16.421  -4.641  1.00 20.00     0.021 C 
HETATM    5  C6  UNL     1     -35.348  15.077  -5.372  1.00 20.00     0.055 C 
HETATM    6  C7  UNL     1     -34.558  16.564  -3.376  1.00 20.00    -0.047 C 
HETATM    7  C9  UNL     1     -35.165  15.803  -2.181  1.00 20.00     0.015 C 
HETATM    8  C10 UNL     1     -34.496  18.055  -2.985  1.00 20.00     0.015 C 
ENDROOT
BRANCH   5   9
HETATM    9  C1  UNL     1     -36.214  14.038  -4.723  1.00 20.00     0.127 C 
HETATM   10  C8  UNL     1     -37.587  14.474  -4.291  1.00 20.00     0.091 C 
HETATM   11  O11 UNL     1     -35.821  12.884  -4.556  1.00 20.00    -0.298 OA
ENDBRANCH   5   9
TORSDOF 1
ENDMDL
MODEL 2
REMARK VINA RESULT:      -4.3      1.696      2.584
REMARK  1 active torsions:
REMARK  status: ('A' for Active; 'I' for Inactive)
REMARK    1  A    between atoms: C1_1  and  C6_6 
ROOT
HETATM    1  C2  UNL     1     -35.909  15.112  -3.256  1.00 20.00     0.002 C 
HETATM    2  C3  UNL     1     -35.135  13.946  -3.863  1.00 20.00     0.012 C 
HETATM    3  C4  UNL     1     -35.003  16.025  -2.435  1.00 20.00     0.009 C 
HETATM    4  C5  UNL     1     -33.039  15.409  -3.918  1.00 20.00     0.021 C 
HETATM    5  C6  UNL     1     -33.907  14.386  -4.661  1.00 20.00     0.055 C 
HETATM    6  C7  UNL     1     -33.801  16.571  -3.234  1.00 20.00    -0.047 C 
HETATM    7  C9  UNL     1     -34.266  17.620  -4.263  1.00 20.00     0.015 C 
HETATM    8  C10 UNL     1     -32.840  17.281  -2.258  1.00 20.00     0.015 C 
ENDROOT
BRANCH   5   9
HETATM    9  C1  UNL     1     -34.279  14.871  -6.031  1.00 20.00     0.127 C 
HETATM   10  C8  UNL     1     -35.715  14.696  -6.444  1.00 20.00     0.091 C 
HETATM   11  O11 UNL     1     -33.451  15.389  -6.778  1.00 20.00    -0.298 OA
ENDBRANCH   5   9
TORSDOF 1
ENDMDL
MODEL 3
REMARK VINA RESULT:      -4.2      1.420      2.710
REMARK  1 active torsions:
REMARK  status: ('A' for Active; 'I' for Inactive)
REMARK    1  A    between atoms: C1_1  and  C6_6 
ROOT
HETATM    1  C2  UNL     1     -36.424  15.208  -3.473  1.00 20.00     0.002 C 
HETATM    2  C3  UNL     1     -35.933  13.946  -4.177  1.00 20.00     0.012 C 
HETATM    3  C4  UNL     1     -35.303  15.896  -2.700  1.00 20.00     0.009 C 
HETATM    4  C5  UNL     1     -33.607  14.990  -4.357  1.00 20.00     0.021 C 
HETATM    5  C6  UNL     1     -34.707  14.184  -5.058  1.00 20.00     0.055 C 
HETATM    6  C7  UNL     1     -34.081  16.242  -3.577  1.00 20.00    -0.047 C 
HETATM    7  C9  UNL     1     -34.411  17.406  -4.532  1.00 20.00     0.015 C 
HETATM    8  C10 UNL     1     -32.932  16.714  -2.662  1.00 20.00     0.015 C 
ENDROOT
BRANCH   5   9
HETATM    9  C1  UNL     1     -35.080  14.792  -6.377  1.00 20.00     0.127 C 
HETATM   10  C8  UNL     1     -33.947  15.184  -7.287  1.00 20.00     0.091 C 
HETATM   11  O11 UNL     1     -36.255  14.961  -6.700  1.00 20.00    -0.298 OA
ENDBRANCH   5   9
TORSDOF 1
ENDMDL
MODEL 4
REMARK VINA RESULT:      -4.2      1.436      1.876
REMARK  1 active torsions:
REMARK  status: ('A' for Active; 'I' for Inactive)
REMARK    1  A    between atoms: C1_1  and  C6_6 
ROOT
HETATM    1  C2  UNL     1     -35.131  13.568  -4.210  1.00 20.00     0.002 C 
HETATM    2  C3  UNL     1     -35.961  14.123  -5.364  1.00 20.00     0.012 C 
HETATM    3  C4  UNL     1     -33.982  14.502  -3.841  1.00 20.00     0.009 C 
HETATM    4  C5  UNL     1     -35.349  16.491  -4.624  1.00 20.00     0.021 C 
HETATM    5  C6  UNL     1     -36.451  15.550  -5.125  1.00 20.00     0.055 C 
HETATM    6  C7  UNL     1     -34.445  15.933  -3.497  1.00 20.00    -0.047 C 
HETATM    7  C9  UNL     1     -35.168  15.956  -2.136  1.00 20.00     0.015 C 
HETATM    8  C10 UNL     1     -33.202  16.838  -3.369  1.00 20.00     0.015 C 
ENDROOT
BRANCH   5   9
HETATM    9  C1  UNL     1     -37.652  15.583  -4.226  1.00 20.00     0.127 C 
HETATM   10  C8  UNL     1     -38.122  16.938  -3.773  1.00 20.00     0.091 C 
HETATM   11  O11 UNL     1     -38.226  14.551  -3.880  1.00 20.00    -0.298 OA
ENDBRANCH   5   9
TORSDOF 1
ENDMDL
MODEL 5
REMARK VINA RESULT:      -4.1      1.066      2.265
REMARK  1 active torsions:
REMARK  status: ('A' for Active; 'I' for Inactive)
REMARK    1  A    between atoms: C1_1  and  C6_6 
ROOT
HETATM    1  C2  UNL     1     -35.650  17.143  -5.314  1.00 20.00     0.002 C 
HETATM    2  C3  UNL     1     -36.890  16.339  -4.937  1.00 20.00     0.012 C 
HETATM    3  C4  UNL     1     -34.810  17.494  -4.089  1.00 20.00     0.009 C 
HETATM    4  C5  UNL     1     -35.624  15.388  -2.931  1.00 20.00     0.021 C 
HETATM    5  C6  UNL     1     -36.575  15.101  -4.098  1.00 20.00     0.055 C 
HETATM    6  C7  UNL     1     -34.388  16.258  -3.266  1.00 20.00    -0.047 C 
HETATM    7  C9  UNL     1     -33.317  15.445  -4.019  1.00 20.00     0.015 C 
HETATM    8  C10 UNL     1     -33.752  16.738  -1.944  1.00 20.00     0.015 C 
ENDROOT
BRANCH   5   9
HETATM    9  C1  UNL     1     -36.080  13.966  -4.946  1.00 20.00     0.127 C 
HETATM   10  C8  UNL     1     -35.828  14.267  -6.398  1.00 20.00     0.091 C 
HETATM   11  O11 UNL     1     -35.887  12.847  -4.476  1.00 20.00    -0.298 OA
ENDBRANCH   5   9
TORSDOF 1
ENDMDL
MODEL 6
REMARK VINA RESULT:      -4.1      1.397      2.644
REMARK  1 active torsions:
REMARK  status: ('A' for Active; 'I' for Inactive)
REMARK    1  A    between atoms: C1_1  and  C6_6 
ROOT
HETATM    1  C2  UNL     1     -35.439  17.519  -4.908  1.00 20.00     0.002 C 
HETATM    2  C3  UNL     1     -36.054  16.180  -5.303  1.00 20.00     0.012 C 
HETATM    3  C4  UNL     1     -35.445  17.719  -3.395  1.00 20.00     0.009 C 
HETATM    4  C5  UNL     1     -35.296  15.207  -3.065  1.00 20.00     0.021 C 
HETATM    5  C6  UNL     1     -35.429  14.990  -4.577  1.00 20.00     0.055 C 
HETATM    6  C7  UNL     1     -34.736  16.583  -2.627  1.00 20.00    -0.047 C 
HETATM    7  C9  UNL     1     -33.210  16.659  -2.835  1.00 20.00     0.015 C 
HETATM    8  C10 UNL     1     -35.001  16.765  -1.118  1.00 20.00     0.015 C 
ENDROOT
BRANCH   5   9
HETATM    9  C1  UNL     1     -34.122  14.587  -5.192  1.00 20.00     0.127 C 
HETATM   10  C8  UNL     1     -33.876  15.029  -6.609  1.00 20.00     0.091 C 
HETATM   11  O11 UNL     1     -33.291  13.929  -4.568  1.00 20.00    -0.298 OA
ENDBRANCH   5   9
TORSDOF 1
ENDMDL
MODEL 7
REMARK VINA RESULT:      -4.1      2.529      3.952
REMARK  1 active torsions:
REMARK  status: ('A' for Active; 'I' for Inactive)
REMARK    1  A    between atoms: C1_1  and  C6_6 
ROOT
HETATM    1  C2  UNL     1     -32.870  17.397  -2.770  1.00 20.00     0.002 C 
HETATM    2  C3  UNL     1     -33.575  17.506  -1.421  1.00 20.00     0.012 C 
HETATM    3  C4  UNL     1     -33.041  16.011  -3.386  1.00 20.00     0.009 C 
HETATM    4  C5  UNL     1     -35.272  15.762  -2.203  1.00 20.00     0.021 C 
HETATM    5  C6  UNL     1     -35.045  17.091  -1.473  1.00 20.00     0.055 C 
HETATM    6  C7  UNL     1     -34.518  15.593  -3.545  1.00 20.00    -0.047 C 
HETATM    7  C9  UNL     1     -35.191  16.399  -4.673  1.00 20.00     0.015 C 
HETATM    8  C10 UNL     1     -34.569  14.106  -3.953  1.00 20.00     0.015 C 
ENDROOT
BRANCH   5   9
HETATM    9  C1  UNL     1     -35.912  18.181  -2.030  1.00 20.00     0.127 C 
HETATM   10  C8  UNL     1     -37.384  17.888  -2.138  1.00 20.00     0.091 C 
HETATM   11  O11 UNL     1     -35.442  19.263  -2.380  1.00 20.00    -0.298 OA
ENDBRANCH   5   9
TORSDOF 1
ENDMDL
MODEL 8
REMARK VINA RESULT:      -4.1      1.883      3.514
REMARK  1 active torsions:
REMARK  status: ('A' for Active; 'I' for Inactive)
REMARK    1  A    between atoms: C1_1  and  C6_6 
ROOT
HETATM    1  C2  UNL     1     -34.140  15.150  -5.863  1.00 20.00     0.002 C 
HETATM    2  C3  UNL     1     -33.340  14.712  -4.640  1.00 20.00     0.012 C 
HETATM    3  C4  UNL     1     -35.605  14.736  -5.758  1.00 20.00     0.009 C 
HETATM    4  C5  UNL     1     -35.464  14.886  -3.229  1.00 20.00     0.021 C 
HETATM    5  C6  UNL     1     -33.960  15.166  -3.318  1.00 20.00     0.055 C 
HETATM    6  C7  UNL     1     -36.296  15.259  -4.481  1.00 20.00    -0.047 C 
HETATM    7  C9  UNL     1     -36.522  16.781  -4.571  1.00 20.00     0.015 C 
HETATM    8  C10 UNL     1     -37.685  14.597  -4.364  1.00 20.00     0.015 C 
ENDROOT
BRANCH   5   9
HETATM    9  C1  UNL     1     -33.649  16.604  -3.024  1.00 20.00     0.127 C 
HETATM   10  C8  UNL     1     -34.168  17.157  -1.725  1.00 20.00     0.091 C 
HETATM   11  O11 UNL     1     -32.999  17.296  -3.807  1.00 20.00    -0.298 OA
ENDBRANCH   5   9
TORSDOF 1
ENDMDL
MODEL 9
REMARK VINA RESULT:      -4.0      2.979      4.161
REMARK  1 active torsions:
REMARK  status: ('A' for Active; 'I' for Inactive)
REMARK    1  A    between atoms: C1_1  and  C6_6 
ROOT
HETATM    1  C2  UNL     1     -35.352  16.162  -2.234  1.00 20.00     0.002 C 
HETATM    2  C3  UNL     1     -34.021  15.793  -2.884  1.00 20.00     0.012 C 
HETATM    3  C4  UNL     1     -35.154  16.766  -0.847  1.00 20.00     0.009 C 
HETATM    4  C5  UNL     1     -32.893  17.668  -1.563  1.00 20.00     0.021 C 
HETATM    5  C6  UNL     1     -33.021  16.949  -2.911  1.00 20.00     0.055 C 
HETATM    6  C7  UNL     1     -34.225  17.999  -0.845  1.00 20.00    -0.047 C 
HETATM    7  C9  UNL     1     -34.927  19.207  -1.494  1.00 20.00     0.015 C 
HETATM    8  C10 UNL     1     -33.913  18.381   0.617  1.00 20.00     0.015 C 
ENDROOT
BRANCH   5   9
HETATM    9  C1  UNL     1     -33.315  17.912  -4.024  1.00 20.00     0.127 C 
HETATM   10  C8  UNL     1     -34.319  17.471  -5.053  1.00 20.00     0.091 C 
HETATM   11  O11 UNL     1     -32.762  19.009  -4.089  1.00 20.00    -0.298 OA
ENDBRANCH   5   9
TORSDOF 1
ENDMDL
