MODEL 1
REMARK VINA RESULT:      -4.5      0.000      0.000
REMARK  2 active torsions:
REMARK  status: ('A' for Active; 'I' for Inactive)
REMARK    1  A    between atoms: C2_2  and  C5_5 
REMARK    2  A    between atoms: C3_3  and  C5_5 
ROOT
HETATM    1  C5  UNL     1     -33.911   4.462   3.664  1.00 20.00     0.123 C 
ENDROOT
BRANCH   1   2
HETATM    2  C2  UNL     1     -33.393   5.389   2.606  1.00 20.00    -0.022 C 
HETATM    3  C1  UNL     1     -32.896   6.608   2.862  1.00 20.00    -0.034 C 
HETATM    4  C4  UNL     1     -32.385   7.533   1.808  1.00 20.00     0.036 C 
ENDBRANCH   1   2
BRANCH   1   5
HETATM    5  C3  UNL     1     -35.005   5.129   4.482  1.00 20.00     0.222 C 
HETATM    6  O6  UNL     1     -36.064   5.523   4.001  1.00 20.00    -0.280 OA
HETATM    7 CL7  UNL     1     -34.567   5.226   6.166  1.00 20.00    -0.043 Cl
ENDBRANCH   1   5
TORSDOF 2
ENDMDL
MODEL 2
REMARK VINA RESULT:      -4.3      3.025      4.005
REMARK  2 active torsions:
REMARK  status: ('A' for Active; 'I' for Inactive)
REMARK    1  A    between atoms: C2_2  and  C5_5 
REMARK    2  A    between atoms: C3_3  and  C5_5 
ROOT
HETATM    1  C5  UNL     1     -33.229   5.818   2.252  1.00 20.00     0.123 C 
ENDROOT
BRANCH   1   2
HETATM    2  C2  UNL     1     -33.648   5.252   3.574  1.00 20.00    -0.022 C 
HETATM    3  C1  UNL     1     -34.511   5.858   4.404  1.00 20.00    -0.034 C 
HETATM    4  C4  UNL     1     -34.926   5.297   5.723  1.00 20.00     0.036 C 
ENDBRANCH   1   2
BRANCH   1   5
HETATM    5  C3  UNL     1     -32.494   7.137   2.434  1.00 20.00     0.222 C 
HETATM    6  O6  UNL     1     -31.800   7.395   3.413  1.00 20.00    -0.280 OA
HETATM    7 CL7  UNL     1     -32.746   8.195   1.072  1.00 20.00    -0.043 Cl
ENDBRANCH   1   5
TORSDOF 2
ENDMDL
MODEL 3
REMARK VINA RESULT:      -4.1      1.732      2.438
REMARK  2 active torsions:
REMARK  status: ('A' for Active; 'I' for Inactive)
REMARK    1  A    between atoms: C2_2  and  C5_5 
REMARK    2  A    between atoms: C3_3  and  C5_5 
ROOT
HETATM    1  C5  UNL     1     -32.323   7.242   3.277  1.00 20.00     0.123 C 
ENDROOT
BRANCH   1   2
HETATM    2  C2  UNL     1     -32.548   7.406   1.806  1.00 20.00    -0.022 C 
HETATM    3  C1  UNL     1     -32.923   8.560   1.233  1.00 20.00    -0.034 C 
HETATM    4  C4  UNL     1     -33.152   8.722  -0.233  1.00 20.00     0.036 C 
ENDBRANCH   1   2
BRANCH   1   5
HETATM    5  C3  UNL     1     -33.438   6.425   3.910  1.00 20.00     0.222 C 
HETATM    6  O6  UNL     1     -34.010   5.503   3.336  1.00 20.00    -0.280 OA
HETATM    7 CL7  UNL     1     -33.763   6.951   5.540  1.00 20.00    -0.043 Cl
ENDBRANCH   1   5
TORSDOF 2
ENDMDL
MODEL 4
REMARK VINA RESULT:      -4.0      1.775      1.876
REMARK  2 active torsions:
REMARK  status: ('A' for Active; 'I' for Inactive)
REMARK    1  A    between atoms: C2_2  and  C5_5 
REMARK    2  A    between atoms: C3_3  and  C5_5 
ROOT
HETATM    1  C5  UNL     1     -33.752   6.642   5.177  1.00 20.00     0.123 C 
ENDROOT
BRANCH   1   2
HETATM    2  C2  UNL     1     -33.611   6.876   3.705  1.00 20.00    -0.022 C 
HETATM    3  C1  UNL     1     -32.456   7.214   3.111  1.00 20.00    -0.034 C 
HETATM    4  C4  UNL     1     -32.316   7.452   1.644  1.00 20.00     0.036 C 
ENDBRANCH   1   2
BRANCH   1   5
HETATM    5  C3  UNL     1     -34.561   5.385   5.453  1.00 20.00     0.222 C 
HETATM    6  O6  UNL     1     -35.185   5.197   6.493  1.00 20.00    -0.280 OA
HETATM    7 CL7  UNL     1     -34.503   4.286   4.102  1.00 20.00    -0.043 Cl
ENDBRANCH   1   5
TORSDOF 2
ENDMDL
MODEL 5
REMARK VINA RESULT:      -3.9     11.621     11.983
REMARK  2 active torsions:
REMARK  status: ('A' for Active; 'I' for Inactive)
REMARK    1  A    between atoms: C2_2  and  C5_5 
REMARK    2  A    between atoms: C3_3  and  C5_5 
ROOT
HETATM    1  C5  UNL     1     -34.454  14.432  -4.009  1.00 20.00     0.123 C 
ENDROOT
BRANCH   1   2
HETATM    2  C2  UNL     1     -34.613  15.467  -2.938  1.00 20.00    -0.022 C 
HETATM    3  C1  UNL     1     -33.669  16.369  -2.627  1.00 20.00    -0.034 C 
HETATM    4  C4  UNL     1     -33.825  17.397  -1.556  1.00 20.00     0.036 C 
ENDBRANCH   1   2
BRANCH   1   5
HETATM    5  C3  UNL     1     -35.766  13.711  -4.267  1.00 20.00     0.222 C 
HETATM    6  O6  UNL     1     -35.840  12.515  -4.536  1.00 20.00    -0.280 OA
HETATM    7 CL7  UNL     1     -37.126  14.790  -4.102  1.00 20.00    -0.043 Cl
ENDBRANCH   1   5
TORSDOF 2
ENDMDL
MODEL 6
REMARK VINA RESULT:      -3.9     11.857     12.298
REMARK  2 active torsions:
REMARK  status: ('A' for Active; 'I' for Inactive)
REMARK    1  A    between atoms: C2_2  and  C5_5 
REMARK    2  A    between atoms: C3_3  and  C5_5 
ROOT
HETATM    1  C5  UNL     1     -35.010  13.930  -3.916  1.00 20.00     0.123 C 
ENDROOT
BRANCH   1   2
HETATM    2  C2  UNL     1     -34.957  15.187  -3.104  1.00 20.00    -0.022 C 
HETATM    3  C1  UNL     1     -33.829  15.870  -2.859  1.00 20.00    -0.034 C 
HETATM    4  C4  UNL     1     -33.775  17.120  -2.045  1.00 20.00     0.036 C 
ENDBRANCH   1   2
BRANCH   1   5
HETATM    5  C3  UNL     1     -36.212  13.933  -4.846  1.00 20.00     0.222 C 
HETATM    6  O6  UNL     1     -37.343  13.614  -4.490  1.00 20.00    -0.280 OA
HETATM    7 CL7  UNL     1     -35.775  14.471  -6.446  1.00 20.00    -0.043 Cl
ENDBRANCH   1   5
TORSDOF 2
ENDMDL
MODEL 7
REMARK VINA RESULT:      -3.7     11.956     12.250
REMARK  2 active torsions:
REMARK  status: ('A' for Active; 'I' for Inactive)
REMARK    1  A    between atoms: C2_2  and  C5_5 
REMARK    2  A    between atoms: C3_3  and  C5_5 
ROOT
HETATM    1  C5  UNL     1     -35.631  14.748  -3.321  1.00 20.00     0.123 C 
ENDROOT
BRANCH   1   2
HETATM    2  C2  UNL     1     -34.369  15.551  -3.226  1.00 20.00    -0.022 C 
HETATM    3  C1  UNL     1     -34.137  16.464  -2.271  1.00 20.00    -0.034 C 
HETATM    4  C4  UNL     1     -32.883  17.268  -2.179  1.00 20.00     0.036 C 
ENDBRANCH   1   2
BRANCH   1   5
HETATM    5  C3  UNL     1     -35.606  13.839  -4.539  1.00 20.00     0.222 C 
HETATM    6  O6  UNL     1     -35.865  12.640  -4.493  1.00 20.00    -0.280 OA
HETATM    7 CL7  UNL     1     -35.195  14.725  -5.983  1.00 20.00    -0.043 Cl
ENDBRANCH   1   5
TORSDOF 2
ENDMDL
MODEL 8
REMARK VINA RESULT:      -3.6     12.141     12.411
REMARK  2 active torsions:
REMARK  status: ('A' for Active; 'I' for Inactive)
REMARK    1  A    between atoms: C2_2  and  C5_5 
REMARK    2  A    between atoms: C3_3  and  C5_5 
ROOT
HETATM    1  C5  UNL     1     -35.678  14.234  -4.038  1.00 20.00     0.123 C 
ENDROOT
BRANCH   1   2
HETATM    2  C2  UNL     1     -35.013  15.246  -3.155  1.00 20.00    -0.022 C 
HETATM    3  C1  UNL     1     -33.802  15.769  -3.402  1.00 20.00    -0.034 C 
HETATM    4  C4  UNL     1     -33.137  16.772  -2.520  1.00 20.00     0.036 C 
ENDBRANCH   1   2
BRANCH   1   5
HETATM    5  C3  UNL     1     -37.124  14.616  -4.308  1.00 20.00     0.222 C 
HETATM    6  O6  UNL     1     -38.040  13.800  -4.363  1.00 20.00    -0.280 OA
HETATM    7 CL7  UNL     1     -37.301  16.340  -4.494  1.00 20.00    -0.043 Cl
ENDBRANCH   1   5
TORSDOF 2
ENDMDL
MODEL 9
REMARK VINA RESULT:      -3.6      8.893      9.379
REMARK  2 active torsions:
REMARK  status: ('A' for Active; 'I' for Inactive)
REMARK    1  A    between atoms: C2_2  and  C5_5 
REMARK    2  A    between atoms: C3_3  and  C5_5 
ROOT
HETATM    1  C5  UNL     1     -41.173   7.801   0.689  1.00 20.00     0.123 C 
ENDROOT
BRANCH   1   2
HETATM    2  C2  UNL     1     -41.742   6.612  -0.022  1.00 20.00    -0.022 C 
HETATM    3  C1  UNL     1     -41.052   5.869  -0.901  1.00 20.00    -0.034 C 
HETATM    4  C4  UNL     1     -41.620   4.687  -1.613  1.00 20.00     0.036 C 
ENDBRANCH   1   2
BRANCH   1   5
HETATM    5  C3  UNL     1     -41.848   9.084   0.229  1.00 20.00     0.222 C 
HETATM    6  O6  UNL     1     -41.355  10.198   0.377  1.00 20.00    -0.280 OA
HETATM    7 CL7  UNL     1     -43.372   8.754  -0.549  1.00 20.00    -0.043 Cl
ENDBRANCH   1   5
TORSDOF 2
ENDMDL
