MODEL 1
REMARK VINA RESULT:      -4.8      0.000      0.000
REMARK  1 active torsions:
REMARK  status: ('A' for Active; 'I' for Inactive)
REMARK    1  A    between atoms: C2_2  and  C3_3 
ROOT
HETATM    1  C1  UNL     1     -33.551   6.882   4.689  1.00 20.00    -0.012 C 
HETATM    2  C2  UNL     1     -33.557   6.047   3.641  1.00 20.00    -0.001 C 
HETATM    3  C4  UNL     1     -34.299   6.538   5.942  1.00 20.00     0.054 C 
HETATM    4  C5  UNL     1     -34.322   4.759   3.642  1.00 20.00     0.209 C 
HETATM    5  C6  UNL     1     -34.704   5.066   5.963  1.00 20.00     0.171 C 
HETATM    6  O8  UNL     1     -35.281   4.703   4.708  1.00 20.00    -0.386 OA
ENDROOT
BRANCH   2   7
HETATM    7  C3  UNL     1     -32.804   6.425   2.445  1.00 20.00     0.267 C 
HETATM    8  O7  UNL     1     -32.425   7.574   2.238  1.00 20.00    -0.302 OA
ENDBRANCH   2   7
TORSDOF 1
ENDMDL
MODEL 2
REMARK VINA RESULT:      -4.4     11.672     12.246
REMARK  1 active torsions:
REMARK  status: ('A' for Active; 'I' for Inactive)
REMARK    1  A    between atoms: C2_2  and  C3_3 
ROOT
HETATM    1  C1  UNL     1     -35.273  15.382  -2.822  1.00 20.00    -0.012 C 
HETATM    2  C2  UNL     1     -34.971  14.664  -3.912  1.00 20.00    -0.001 C 
HETATM    3  C4  UNL     1     -34.273  16.332  -2.234  1.00 20.00     0.054 C 
HETATM    4  C5  UNL     1     -33.632  14.738  -4.580  1.00 20.00     0.209 C 
HETATM    5  C6  UNL     1     -33.123  16.601  -3.203  1.00 20.00     0.171 C 
HETATM    6  O8  UNL     1     -32.649  15.368  -3.747  1.00 20.00    -0.386 OA
ENDROOT
BRANCH   2   7
HETATM    7  C3  UNL     1     -35.985  13.757  -4.452  1.00 20.00     0.267 C 
HETATM    8  O7  UNL     1     -35.848  12.538  -4.455  1.00 20.00    -0.302 OA
ENDBRANCH   2   7
TORSDOF 1
ENDMDL
MODEL 3
REMARK VINA RESULT:      -4.4      1.121      1.900
REMARK  1 active torsions:
REMARK  status: ('A' for Active; 'I' for Inactive)
REMARK    1  A    between atoms: C2_2  and  C3_3 
ROOT
HETATM    1  C1  UNL     1     -33.537   5.287   2.980  1.00 20.00    -0.012 C 
HETATM    2  C2  UNL     1     -33.168   6.512   3.378  1.00 20.00    -0.001 C 
HETATM    3  C4  UNL     1     -34.435   4.446   3.837  1.00 20.00     0.054 C 
HETATM    4  C5  UNL     1     -33.592   7.094   4.691  1.00 20.00     0.209 C 
HETATM    5  C6  UNL     1     -35.096   5.276   4.935  1.00 20.00     0.171 C 
HETATM    6  O8  UNL     1     -34.119   6.097   5.577  1.00 20.00    -0.386 OA
ENDROOT
BRANCH   2   7
HETATM    7  C3  UNL     1     -32.297   7.296   2.500  1.00 20.00     0.267 C 
HETATM    8  O7  UNL     1     -32.693   7.795   1.451  1.00 20.00    -0.302 OA
ENDBRANCH   2   7
TORSDOF 1
ENDMDL
MODEL 4
REMARK VINA RESULT:      -4.0     11.776     12.400
REMARK  1 active torsions:
REMARK  status: ('A' for Active; 'I' for Inactive)
REMARK    1  A    between atoms: C2_2  and  C3_3 
ROOT
HETATM    1  C1  UNL     1     -33.965  14.697  -4.069  1.00 20.00    -0.012 C 
HETATM    2  C2  UNL     1     -35.290  14.778  -3.890  1.00 20.00    -0.001 C 
HETATM    3  C4  UNL     1     -33.051  15.732  -3.484  1.00 20.00     0.054 C 
HETATM    4  C5  UNL     1     -35.933  15.903  -3.138  1.00 20.00     0.209 C 
HETATM    5  C6  UNL     1     -33.771  16.585  -2.442  1.00 20.00     0.171 C 
HETATM    6  O8  UNL     1     -35.037  17.007  -2.951  1.00 20.00    -0.386 OA
ENDROOT
BRANCH   2   7
HETATM    7  C3  UNL     1     -36.137  13.737  -4.474  1.00 20.00     0.267 C 
HETATM    8  O7  UNL     1     -35.810  12.556  -4.499  1.00 20.00    -0.302 OA
ENDBRANCH   2   7
TORSDOF 1
ENDMDL
MODEL 5
REMARK VINA RESULT:      -4.0     11.656     12.261
REMARK  1 active torsions:
REMARK  status: ('A' for Active; 'I' for Inactive)
REMARK    1  A    between atoms: C2_2  and  C3_3 
ROOT
HETATM    1  C1  UNL     1     -35.810  15.617  -3.320  1.00 20.00    -0.012 C 
HETATM    2  C2  UNL     1     -36.518  14.708  -4.003  1.00 20.00    -0.001 C 
HETATM    3  C4  UNL     1     -34.331  15.453  -3.140  1.00 20.00     0.054 C 
HETATM    4  C5  UNL     1     -35.896  13.478  -4.590  1.00 20.00     0.209 C 
HETATM    5  C6  UNL     1     -33.767  14.397  -4.088  1.00 20.00     0.171 C 
HETATM    6  O8  UNL     1     -34.589  13.229  -4.055  1.00 20.00    -0.386 OA
ENDROOT
BRANCH   2   7
HETATM    7  C3  UNL     1     -37.958  14.919  -4.158  1.00 20.00     0.267 C 
HETATM    8  O7  UNL     1     -38.736  14.006  -4.413  1.00 20.00    -0.302 OA
ENDBRANCH   2   7
TORSDOF 1
ENDMDL
MODEL 6
REMARK VINA RESULT:      -3.9     16.003     16.916
REMARK  1 active torsions:
REMARK  status: ('A' for Active; 'I' for Inactive)
REMARK    1  A    between atoms: C2_2  and  C3_3 
ROOT
HETATM    1  C1  UNL     1     -23.905  16.549   9.990  1.00 20.00    -0.012 C 
HETATM    2  C2  UNL     1     -22.777  17.218   9.718  1.00 20.00    -0.001 C 
HETATM    3  C4  UNL     1     -24.457  16.518  11.383  1.00 20.00     0.054 C 
HETATM    4  C5  UNL     1     -21.994  17.937  10.773  1.00 20.00     0.209 C 
HETATM    5  C6  UNL     1     -23.803  17.580  12.265  1.00 20.00     0.171 C 
HETATM    6  O8  UNL     1     -22.385  17.544  12.096  1.00 20.00    -0.386 OA
ENDROOT
BRANCH   2   7
HETATM    7  C3  UNL     1     -22.286  17.224   8.340  1.00 20.00     0.267 C 
HETATM    8  O7  UNL     1     -22.695  18.014   7.495  1.00 20.00    -0.302 OA
ENDBRANCH   2   7
TORSDOF 1
ENDMDL
MODEL 7
REMARK VINA RESULT:      -3.9      1.819      2.268
REMARK  1 active torsions:
REMARK  status: ('A' for Active; 'I' for Inactive)
REMARK    1  A    between atoms: C2_2  and  C3_3 
ROOT
HETATM    1  C1  UNL     1     -34.560   4.785   4.550  1.00 20.00    -0.012 C 
HETATM    2  C2  UNL     1     -33.869   5.557   3.701  1.00 20.00    -0.001 C 
HETATM    3  C4  UNL     1     -34.773   5.215   5.971  1.00 20.00     0.054 C 
HETATM    4  C5  UNL     1     -33.250   6.856   4.117  1.00 20.00     0.209 C 
HETATM    5  C6  UNL     1     -34.440   6.693   6.162  1.00 20.00     0.171 C 
HETATM    6  O8  UNL     1     -33.188   6.992   5.543  1.00 20.00    -0.386 OA
ENDROOT
BRANCH   2   7
HETATM    7  C3  UNL     1     -33.696   5.096   2.323  1.00 20.00     0.267 C 
HETATM    8  O7  UNL     1     -32.961   4.160   2.026  1.00 20.00    -0.302 OA
ENDBRANCH   2   7
TORSDOF 1
ENDMDL
MODEL 8
REMARK VINA RESULT:      -3.8      1.253      3.345
REMARK  1 active torsions:
REMARK  status: ('A' for Active; 'I' for Inactive)
REMARK    1  A    between atoms: C2_2  and  C3_3 
ROOT
HETATM    1  C1  UNL     1     -33.474   6.903   4.598  1.00 20.00    -0.012 C 
HETATM    2  C2  UNL     1     -34.127   5.800   4.210  1.00 20.00    -0.001 C 
HETATM    3  C4  UNL     1     -32.442   7.530   3.708  1.00 20.00     0.054 C 
HETATM    4  C5  UNL     1     -33.852   5.117   2.906  1.00 20.00     0.209 C 
HETATM    5  C6  UNL     1     -32.529   6.985   2.284  1.00 20.00     0.171 C 
HETATM    6  O8  UNL     1     -32.622   5.560   2.315  1.00 20.00    -0.386 OA
ENDROOT
BRANCH   2   7
HETATM    7  C3  UNL     1     -35.131   5.233   5.112  1.00 20.00     0.267 C 
HETATM    8  O7  UNL     1     -34.940   5.104   6.317  1.00 20.00    -0.302 OA
ENDBRANCH   2   7
TORSDOF 1
ENDMDL
MODEL 9
REMARK VINA RESULT:      -3.8     16.381     16.528
REMARK  1 active torsions:
REMARK  status: ('A' for Active; 'I' for Inactive)
REMARK    1  A    between atoms: C2_2  and  C3_3 
ROOT
HETATM    1  C1  UNL     1     -23.649  18.581   8.165  1.00 20.00    -0.012 C 
HETATM    2  C2  UNL     1     -22.820  17.673   8.696  1.00 20.00    -0.001 C 
HETATM    3  C4  UNL     1     -24.917  18.960   8.870  1.00 20.00     0.054 C 
HETATM    4  C5  UNL     1     -23.116  16.968   9.984  1.00 20.00     0.209 C 
HETATM    5  C6  UNL     1     -24.915  18.478  10.319  1.00 20.00     0.171 C 
HETATM    6  O8  UNL     1     -24.488  17.116  10.376  1.00 20.00    -0.386 OA
ENDROOT
BRANCH   2   7
HETATM    7  C3  UNL     1     -21.591  17.345   7.973  1.00 20.00     0.267 C 
HETATM    8  O7  UNL     1     -21.596  16.795   6.877  1.00 20.00    -0.302 OA
ENDBRANCH   2   7
TORSDOF 1
ENDMDL
