MODEL 1
REMARK VINA RESULT:      -5.1      0.000      0.000
REMARK  0 active torsions:
REMARK  status: ('A' for Active; 'I' for Inactive)
ROOT
HETATM    1  C1  UNL     1     -34.012   6.318   3.875  1.00 20.00     0.374 C 
HETATM    2  C2  UNL     1     -33.644   5.105   3.016  1.00 20.00     0.398 C 
HETATM    3  C3  UNL     1     -35.017   5.363   4.525  1.00 20.00     0.398 C 
HETATM    4  O4  UNL     1     -34.374   4.221   3.904  1.00 20.00    -0.252 OA
HETATM    5  F5  UNL     1     -33.034   6.783   4.685  1.00 20.00    -0.231 F 
HETATM    6  F6  UNL     1     -32.331   4.800   2.941  1.00 20.00    -0.172 F 
HETATM    7  F7  UNL     1     -34.133   5.095   1.757  1.00 20.00    -0.172 F 
HETATM    8  F8  UNL     1     -36.306   5.503   4.144  1.00 20.00    -0.172 F 
HETATM    9  F9  UNL     1     -34.999   5.301   5.874  1.00 20.00    -0.172 F 
ENDROOT
TORSDOF 0
ENDMDL
MODEL 2
REMARK VINA RESULT:      -5.0      1.753      2.860
REMARK  0 active torsions:
REMARK  status: ('A' for Active; 'I' for Inactive)
ROOT
HETATM    1  C1  UNL     1     -34.776   5.428   5.958  1.00 20.00     0.374 C 
HETATM    2  C2  UNL     1     -33.989   6.688   5.590  1.00 20.00     0.398 C 
HETATM    3  C3  UNL     1     -34.927   5.263   4.444  1.00 20.00     0.398 C 
HETATM    4  O4  UNL     1     -33.908   6.266   4.206  1.00 20.00    -0.252 OA
HETATM    5  F5  UNL     1     -34.075   4.459   6.589  1.00 20.00    -0.231 F 
HETATM    6  F6  UNL     1     -32.776   6.826   6.166  1.00 20.00    -0.172 F 
HETATM    7  F7  UNL     1     -34.640   7.862   5.737  1.00 20.00    -0.172 F 
HETATM    8  F8  UNL     1     -36.125   5.608   3.922  1.00 20.00    -0.172 F 
HETATM    9  F9  UNL     1     -34.598   4.055   3.937  1.00 20.00    -0.172 F 
ENDROOT
TORSDOF 0
ENDMDL
MODEL 3
REMARK VINA RESULT:      -5.0      1.521      2.904
REMARK  0 active torsions:
REMARK  status: ('A' for Active; 'I' for Inactive)
ROOT
HETATM    1  C1  UNL     1     -33.668   5.293   2.682  1.00 20.00     0.374 C 
HETATM    2  C2  UNL     1     -34.456   5.261   3.994  1.00 20.00     0.398 C 
HETATM    3  C3  UNL     1     -33.174   6.651   3.187  1.00 20.00     0.398 C 
HETATM    4  O4  UNL     1     -33.686   6.373   4.515  1.00 20.00    -0.252 OA
HETATM    5  F5  UNL     1     -32.721   4.339   2.540  1.00 20.00    -0.231 F 
HETATM    6  F6  UNL     1     -34.329   4.144   4.741  1.00 20.00    -0.172 F 
HETATM    7  F7  UNL     1     -35.774   5.539   3.906  1.00 20.00    -0.172 F 
HETATM    8  F8  UNL     1     -33.747   7.741   2.629  1.00 20.00    -0.172 F 
HETATM    9  F9  UNL     1     -31.838   6.846   3.174  1.00 20.00    -0.172 F 
ENDROOT
TORSDOF 0
ENDMDL
MODEL 4
REMARK VINA RESULT:      -4.9      1.455      1.467
REMARK  0 active torsions:
REMARK  status: ('A' for Active; 'I' for Inactive)
ROOT
HETATM    1  C1  UNL     1     -34.004   6.809   4.817  1.00 20.00     0.374 C 
HETATM    2  C2  UNL     1     -33.294   6.676   3.467  1.00 20.00     0.398 C 
HETATM    3  C3  UNL     1     -34.649   5.473   4.439  1.00 20.00     0.398 C 
HETATM    4  O4  UNL     1     -33.696   5.286   3.362  1.00 20.00    -0.252 OA
HETATM    5  F5  UNL     1     -33.205   6.788   5.907  1.00 20.00    -0.231 F 
HETATM    6  F6  UNL     1     -31.954   6.832   3.478  1.00 20.00    -0.172 F 
HETATM    7  F7  UNL     1     -33.780   7.433   2.460  1.00 20.00    -0.172 F 
HETATM    8  F8  UNL     1     -35.925   5.529   3.996  1.00 20.00    -0.172 F 
HETATM    9  F9  UNL     1     -34.587   4.493   5.366  1.00 20.00    -0.172 F 
ENDROOT
TORSDOF 0
ENDMDL
MODEL 5
REMARK VINA RESULT:      -4.8      1.378      2.060
REMARK  0 active torsions:
REMARK  status: ('A' for Active; 'I' for Inactive)
ROOT
HETATM    1  C1  UNL     1     -34.142   6.593   4.422  1.00 20.00     0.374 C 
HETATM    2  C2  UNL     1     -34.749   5.202   4.220  1.00 20.00     0.398 C 
HETATM    3  C3  UNL     1     -34.110   6.198   5.901  1.00 20.00     0.398 C 
HETATM    4  O4  UNL     1     -34.373   4.812   5.565  1.00 20.00    -0.252 OA
HETATM    5  F5  UNL     1     -32.938   6.799   3.842  1.00 20.00    -0.231 F 
HETATM    6  F6  UNL     1     -34.175   4.430   3.273  1.00 20.00    -0.172 F 
HETATM    7  F7  UNL     1     -36.084   5.156   4.021  1.00 20.00    -0.172 F 
HETATM    8  F8  UNL     1     -35.074   6.733   6.682  1.00 20.00    -0.172 F 
HETATM    9  F9  UNL     1     -32.933   6.366   6.541  1.00 20.00    -0.172 F 
ENDROOT
TORSDOF 0
ENDMDL
MODEL 6
REMARK VINA RESULT:      -4.7      1.602      2.546
REMARK  0 active torsions:
REMARK  status: ('A' for Active; 'I' for Inactive)
ROOT
HETATM    1  C1  UNL     1     -33.219   5.308   3.268  1.00 20.00     0.374 C 
HETATM    2  C2  UNL     1     -32.902   6.785   3.021  1.00 20.00     0.398 C 
HETATM    3  C3  UNL     1     -34.315   5.853   4.188  1.00 20.00     0.398 C 
HETATM    4  O4  UNL     1     -34.152   7.185   3.637  1.00 20.00    -0.252 OA
HETATM    5  F5  UNL     1     -33.647   4.610   2.193  1.00 20.00    -0.231 F 
HETATM    6  F6  UNL     1     -32.811   7.169   1.730  1.00 20.00    -0.172 F 
HETATM    7  F7  UNL     1     -31.824   7.280   3.666  1.00 20.00    -0.172 F 
HETATM    8  F8  UNL     1     -34.059   5.807   5.514  1.00 20.00    -0.172 F 
HETATM    9  F9  UNL     1     -35.557   5.359   3.999  1.00 20.00    -0.172 F 
ENDROOT
TORSDOF 0
ENDMDL
MODEL 7
REMARK VINA RESULT:      -4.7      1.220      3.031
REMARK  0 active torsions:
REMARK  status: ('A' for Active; 'I' for Inactive)
ROOT
HETATM    1  C1  UNL     1     -34.379   4.171   3.856  1.00 20.00     0.374 C 
HETATM    2  C2  UNL     1     -34.978   5.419   4.511  1.00 20.00     0.398 C 
HETATM    3  C3  UNL     1     -33.613   5.177   2.993  1.00 20.00     0.398 C 
HETATM    4  O4  UNL     1     -33.979   6.261   3.883  1.00 20.00    -0.252 OA
HETATM    5  F5  UNL     1     -33.623   3.390   4.660  1.00 20.00    -0.231 F 
HETATM    6  F6  UNL     1     -34.930   5.469   5.859  1.00 20.00    -0.172 F 
HETATM    7  F7  UNL     1     -36.236   5.742   4.140  1.00 20.00    -0.172 F 
HETATM    8  F8  UNL     1     -34.077   5.361   1.736  1.00 20.00    -0.172 F 
HETATM    9  F9  UNL     1     -32.278   5.000   2.908  1.00 20.00    -0.172 F 
ENDROOT
TORSDOF 0
ENDMDL
MODEL 8
REMARK VINA RESULT:      -4.7      1.607      2.807
REMARK  0 active torsions:
REMARK  status: ('A' for Active; 'I' for Inactive)
ROOT
HETATM    1  C1  UNL     1     -34.252   5.319   5.687  1.00 20.00     0.374 C 
HETATM    2  C2  UNL     1     -34.700   5.468   4.231  1.00 20.00     0.398 C 
HETATM    3  C3  UNL     1     -33.922   6.810   5.579  1.00 20.00     0.398 C 
HETATM    4  O4  UNL     1     -34.666   6.913   4.339  1.00 20.00    -0.252 OA
HETATM    5  F5  UNL     1     -35.222   4.993   6.571  1.00 20.00    -0.231 F 
HETATM    6  F6  UNL     1     -35.929   4.996   3.931  1.00 20.00    -0.172 F 
HETATM    7  F7  UNL     1     -33.849   4.998   3.293  1.00 20.00    -0.172 F 
HETATM    8  F8  UNL     1     -32.616   7.123   5.427  1.00 20.00    -0.172 F 
HETATM    9  F9  UNL     1     -34.416   7.605   6.552  1.00 20.00    -0.172 F 
ENDROOT
TORSDOF 0
ENDMDL
MODEL 9
REMARK VINA RESULT:      -4.6      1.923      3.033
REMARK  0 active torsions:
REMARK  status: ('A' for Active; 'I' for Inactive)
ROOT
HETATM    1  C1  UNL     1     -33.902   6.317   4.413  1.00 20.00     0.374 C 
HETATM    2  C2  UNL     1     -34.014   6.472   5.932  1.00 20.00     0.398 C 
HETATM    3  C3  UNL     1     -34.885   5.160   4.610  1.00 20.00     0.398 C 
HETATM    4  O4  UNL     1     -35.170   5.596   5.963  1.00 20.00    -0.252 OA
HETATM    5  F5  UNL     1     -34.357   7.357   3.680  1.00 20.00    -0.231 F 
HETATM    6  F6  UNL     1     -34.287   7.712   6.389  1.00 20.00    -0.172 F 
HETATM    7  F7  UNL     1     -32.982   5.993   6.660  1.00 20.00    -0.172 F 
HETATM    8  F8  UNL     1     -34.358   3.915   4.568  1.00 20.00    -0.172 F 
HETATM    9  F9  UNL     1     -35.979   5.162   3.820  1.00 20.00    -0.172 F 
ENDROOT
TORSDOF 0
ENDMDL
