MODEL 1
REMARK VINA RESULT:      -5.1      0.000      0.000
REMARK  2 active torsions:
REMARK  status: ('A' for Active; 'I' for Inactive)
REMARK    1  A    between atoms: C5_5  and  C6_6 
REMARK    2  A    between atoms: C6_6  and  O7_7 
ROOT
HETATM    1  C1  UNL     1     -34.051   6.478   6.005  1.00 20.00    -0.004 A 
HETATM    2  C2  UNL     1     -34.723   5.206   6.012  1.00 20.00    -0.004 A 
HETATM    3  C3  UNL     1     -33.874   6.887   4.741  1.00 20.00    -0.016 A 
HETATM    4  C4  UNL     1     -34.965   4.820   4.752  1.00 20.00    -0.016 A 
HETATM    5  C5  UNL     1     -34.445   5.862   3.795  1.00 20.00     0.054 A 
ENDROOT
BRANCH   5   6
HETATM    6  C6  UNL     1     -33.393   5.301   2.848  1.00 20.00     0.176 C 
BRANCH   6   7
HETATM    7  O7  UNL     1     -32.582   6.369   2.387  1.00 20.00    -0.400 OA
HETATM    8  H15 UNL     1     -32.287   6.861   3.172  1.00 20.00     0.209 HD
ENDBRANCH   6   7
ENDBRANCH   5   6
TORSDOF 2
ENDMDL
MODEL 2
REMARK VINA RESULT:      -4.6      1.822      3.173
REMARK  2 active torsions:
REMARK  status: ('A' for Active; 'I' for Inactive)
REMARK    1  A    between atoms: C5_5  and  C6_6 
REMARK    2  A    between atoms: C6_6  and  O7_7 
ROOT
HETATM    1  C1  UNL     1     -33.223   4.783   2.741  1.00 20.00    -0.004 A 
HETATM    2  C2  UNL     1     -33.045   6.202   2.894  1.00 20.00    -0.004 A 
HETATM    3  C3  UNL     1     -34.222   4.366   3.531  1.00 20.00    -0.016 A 
HETATM    4  C4  UNL     1     -33.934   6.673   3.780  1.00 20.00    -0.016 A 
HETATM    5  C5  UNL     1     -34.790   5.541   4.287  1.00 20.00     0.054 A 
ENDROOT
BRANCH   5   6
HETATM    6  C6  UNL     1     -34.679   5.364   5.796  1.00 20.00     0.176 C 
BRANCH   6   7
HETATM    7  O7  UNL     1     -34.218   6.578   6.362  1.00 20.00    -0.400 OA
HETATM    8  H15 UNL     1     -34.862   7.266   6.124  1.00 20.00     0.209 HD
ENDBRANCH   6   7
ENDBRANCH   5   6
TORSDOF 2
ENDMDL
MODEL 3
REMARK VINA RESULT:      -4.2     12.186     12.749
REMARK  2 active torsions:
REMARK  status: ('A' for Active; 'I' for Inactive)
REMARK    1  A    between atoms: C5_5  and  C6_6 
REMARK    2  A    between atoms: C6_6  and  O7_7 
ROOT
HETATM    1  C1  UNL     1     -35.013  15.915  -2.266  1.00 20.00    -0.004 A 
HETATM    2  C2  UNL     1     -33.742  16.577  -2.390  1.00 20.00    -0.004 A 
HETATM    3  C3  UNL     1     -35.112  14.953  -3.193  1.00 20.00    -0.016 A 
HETATM    4  C4  UNL     1     -33.046  16.028  -3.395  1.00 20.00    -0.016 A 
HETATM    5  C5  UNL     1     -33.854  14.921  -4.022  1.00 20.00     0.054 A 
ENDROOT
BRANCH   5   6
HETATM    6  C6  UNL     1     -34.129  15.171  -5.499  1.00 20.00     0.176 C 
BRANCH   6   7
HETATM    7  O7  UNL     1     -33.104  14.559  -6.262  1.00 20.00    -0.400 OA
HETATM    8  H15 UNL     1     -32.271  15.002  -6.027  1.00 20.00     0.209 HD
ENDBRANCH   6   7
ENDBRANCH   5   6
TORSDOF 2
ENDMDL
MODEL 4
REMARK VINA RESULT:      -4.0     12.014     12.458
REMARK  2 active torsions:
REMARK  status: ('A' for Active; 'I' for Inactive)
REMARK    1  A    between atoms: C5_5  and  C6_6 
REMARK    2  A    between atoms: C6_6  and  O7_7 
ROOT
HETATM    1  C1  UNL     1     -33.916  16.167  -2.702  1.00 20.00    -0.004 A 
HETATM    2  C2  UNL     1     -33.126  15.541  -3.729  1.00 20.00    -0.004 A 
HETATM    3  C3  UNL     1     -35.112  15.566  -2.625  1.00 20.00    -0.016 A 
HETATM    4  C4  UNL     1     -33.829  14.549  -4.294  1.00 20.00    -0.016 A 
HETATM    5  C5  UNL     1     -35.185  14.457  -3.643  1.00 20.00     0.054 A 
ENDROOT
BRANCH   5   6
HETATM    6  C6  UNL     1     -36.319  14.662  -4.639  1.00 20.00     0.176 C 
BRANCH   6   7
HETATM    7  O7  UNL     1     -37.258  13.613  -4.481  1.00 20.00    -0.400 OA
HETATM    8  H15 UNL     1     -36.999  13.117  -3.686  1.00 20.00     0.209 HD
ENDBRANCH   6   7
ENDBRANCH   5   6
TORSDOF 2
ENDMDL
MODEL 5
REMARK VINA RESULT:      -3.9      1.058      1.750
REMARK  2 active torsions:
REMARK  status: ('A' for Active; 'I' for Inactive)
REMARK    1  A    between atoms: C5_5  and  C6_6 
REMARK    2  A    between atoms: C6_6  and  O7_7 
ROOT
HETATM    1  C1  UNL     1     -35.055   4.984   4.883  1.00 20.00    -0.004 A 
HETATM    2  C2  UNL     1     -34.622   5.993   5.813  1.00 20.00    -0.004 A 
HETATM    3  C3  UNL     1     -34.321   5.059   3.764  1.00 20.00    -0.016 A 
HETATM    4  C4  UNL     1     -33.618   6.699   5.274  1.00 20.00    -0.016 A 
HETATM    5  C5  UNL     1     -33.314   6.173   3.895  1.00 20.00     0.054 A 
ENDROOT
BRANCH   5   6
HETATM    6  C6  UNL     1     -33.487   7.237   2.820  1.00 20.00     0.176 C 
BRANCH   6   7
HETATM    7  O7  UNL     1     -32.325   7.258   2.009  1.00 20.00    -0.400 OA
HETATM    8  H15 UNL     1     -32.277   8.140   1.604  1.00 20.00     0.209 HD
ENDBRANCH   6   7
ENDBRANCH   5   6
TORSDOF 2
ENDMDL
MODEL 6
REMARK VINA RESULT:      -3.8      8.703      9.312
REMARK  2 active torsions:
REMARK  status: ('A' for Active; 'I' for Inactive)
REMARK    1  A    between atoms: C5_5  and  C6_6 
REMARK    2  A    between atoms: C6_6  and  O7_7 
ROOT
HETATM    1  C1  UNL     1     -43.022   7.983   0.708  1.00 20.00    -0.004 A 
HETATM    2  C2  UNL     1     -42.210   8.735  -0.211  1.00 20.00    -0.004 A 
HETATM    3  C3  UNL     1     -42.542   6.736   0.817  1.00 20.00    -0.016 A 
HETATM    4  C4  UNL     1     -41.223   7.958  -0.678  1.00 20.00    -0.016 A 
HETATM    5  C5  UNL     1     -41.330   6.585  -0.066  1.00 20.00     0.054 A 
ENDROOT
BRANCH   5   6
HETATM    6  C6  UNL     1     -41.512   5.497  -1.116  1.00 20.00     0.176 C 
BRANCH   6   7
HETATM    7  O7  UNL     1     -40.327   4.723  -1.179  1.00 20.00    -0.400 OA
HETATM    8  H15 UNL     1     -39.694   5.120  -0.556  1.00 20.00     0.209 HD
ENDBRANCH   6   7
ENDBRANCH   5   6
TORSDOF 2
ENDMDL
MODEL 7
REMARK VINA RESULT:      -3.7      8.860      9.335
REMARK  2 active torsions:
REMARK  status: ('A' for Active; 'I' for Inactive)
REMARK    1  A    between atoms: C5_5  and  C6_6 
REMARK    2  A    between atoms: C6_6  and  O7_7 
ROOT
HETATM    1  C1  UNL     1     -41.584   5.887  -0.873  1.00 20.00    -0.004 A 
HETATM    2  C2  UNL     1     -42.514   5.780   0.220  1.00 20.00    -0.004 A 
HETATM    3  C3  UNL     1     -40.944   7.062  -0.806  1.00 20.00    -0.016 A 
HETATM    4  C4  UNL     1     -42.455   6.890   0.969  1.00 20.00    -0.016 A 
HETATM    5  C5  UNL     1     -41.435   7.837   0.389  1.00 20.00     0.054 A 
ENDROOT
BRANCH   5   6
HETATM    6  C6  UNL     1     -42.047   9.175  -0.002  1.00 20.00     0.176 C 
BRANCH   6   7
HETATM    7  O7  UNL     1     -41.233  10.215   0.514  1.00 20.00    -0.400 OA
HETATM    8  H15 UNL     1     -41.624  10.488   1.361  1.00 20.00     0.209 HD
ENDBRANCH   6   7
ENDBRANCH   5   6
TORSDOF 2
ENDMDL
MODEL 8
REMARK VINA RESULT:      -3.7     16.112     17.003
REMARK  2 active torsions:
REMARK  status: ('A' for Active; 'I' for Inactive)
REMARK    1  A    between atoms: C5_5  and  C6_6 
REMARK    2  A    between atoms: C6_6  and  O7_7 
ROOT
HETATM    1  C1  UNL     1     -23.444  16.752  12.027  1.00 20.00    -0.004 A 
HETATM    2  C2  UNL     1     -24.329  16.409  10.945  1.00 20.00    -0.004 A 
HETATM    3  C3  UNL     1     -22.579  17.691  11.620  1.00 20.00    -0.016 A 
HETATM    4  C4  UNL     1     -24.015  17.134   9.862  1.00 20.00    -0.016 A 
HETATM    5  C5  UNL     1     -22.854  18.040  10.180  1.00 20.00     0.054 A 
ENDROOT
BRANCH   5   6
HETATM    6  C6  UNL     1     -21.653  17.775   9.283  1.00 20.00     0.176 C 
BRANCH   6   7
HETATM    7  O7  UNL     1     -21.615  16.394   8.969  1.00 20.00    -0.400 OA
HETATM    8  H15 UNL     1     -20.961  15.985   9.561  1.00 20.00     0.209 HD
ENDBRANCH   6   7
ENDBRANCH   5   6
TORSDOF 2
ENDMDL
MODEL 9
REMARK VINA RESULT:      -3.7      8.666      9.304
REMARK  2 active torsions:
REMARK  status: ('A' for Active; 'I' for Inactive)
REMARK    1  A    between atoms: C5_5  and  C6_6 
REMARK    2  A    between atoms: C6_6  and  O7_7 
ROOT
HETATM    1  C1  UNL     1     -41.542   8.700  -0.401  1.00 20.00    -0.004 A 
HETATM    2  C2  UNL     1     -41.420   7.762  -1.484  1.00 20.00    -0.004 A 
HETATM    3  C3  UNL     1     -41.541   8.043   0.767  1.00 20.00    -0.016 A 
HETATM    4  C4  UNL     1     -41.344   6.517  -0.993  1.00 20.00    -0.016 A 
HETATM    5  C5  UNL     1     -41.413   6.563   0.512  1.00 20.00     0.054 A 
ENDROOT
BRANCH   5   6
HETATM    6  C6  UNL     1     -42.597   5.778   1.060  1.00 20.00     0.176 C 
BRANCH   6   7
HETATM    7  O7  UNL     1     -42.148   4.491   1.449  1.00 20.00    -0.400 OA
HETATM    8  H15 UNL     1     -41.407   4.260   0.864  1.00 20.00     0.209 HD
ENDBRANCH   6   7
ENDBRANCH   5   6
TORSDOF 2
ENDMDL
