MODEL 1
REMARK VINA RESULT:      -3.4      0.000      0.000
REMARK  1 active torsions:
REMARK  status: ('A' for Active; 'I' for Inactive)
REMARK    1  A    between atoms: N5_5  and  N6_6 
ROOT
HETATM    1  C1  UNL     1     -33.253   6.323   2.994  1.00 20.00     0.101 C 
HETATM    2  C2  UNL     1     -32.328   7.296   2.332  1.00 20.00     0.058 C 
HETATM    3  N5  UNL     1     -33.856   6.635   4.094  1.00 20.00    -0.217 NA
ENDROOT
BRANCH   3   4
HETATM    4  N6  UNL     1     -34.649   5.634   4.556  1.00 20.00    -0.217 NA
HETATM    5  C3  UNL     1     -34.682   5.541   6.018  1.00 20.00     0.138 C 
HETATM    6  C4  UNL     1     -34.358   4.304   4.003  1.00 20.00     0.138 C 
ENDBRANCH   3   4
TORSDOF 1
ENDMDL
MODEL 2
REMARK VINA RESULT:      -3.3      0.985      3.262
REMARK  1 active torsions:
REMARK  status: ('A' for Active; 'I' for Inactive)
REMARK    1  A    between atoms: N5_5  and  N6_6 
ROOT
HETATM    1  C1  UNL     1     -34.472   5.480   4.613  1.00 20.00     0.101 C 
HETATM    2  C2  UNL     1     -34.921   5.447   6.040  1.00 20.00     0.058 C 
HETATM    3  N5  UNL     1     -33.781   6.476   4.165  1.00 20.00    -0.217 NA
ENDROOT
BRANCH   3   4
HETATM    4  N6  UNL     1     -33.466   6.343   2.850  1.00 20.00    -0.217 NA
HETATM    5  C3  UNL     1     -33.175   4.962   2.455  1.00 20.00     0.138 C 
HETATM    6  C4  UNL     1     -32.376   7.210   2.382  1.00 20.00     0.138 C 
ENDBRANCH   3   4
TORSDOF 1
ENDMDL
MODEL 3
REMARK VINA RESULT:      -3.0     16.078     16.876
REMARK  1 active torsions:
REMARK  status: ('A' for Active; 'I' for Inactive)
REMARK    1  A    between atoms: N5_5  and  N6_6 
ROOT
HETATM    1  C1  UNL     1     -24.624  18.985   7.482  1.00 20.00     0.101 C 
HETATM    2  C2  UNL     1     -25.768  19.107   6.526  1.00 20.00     0.058 C 
HETATM    3  N5  UNL     1     -23.480  18.536   7.084  1.00 20.00    -0.217 NA
ENDROOT
BRANCH   3   4
HETATM    4  N6  UNL     1     -22.561  18.488   8.084  1.00 20.00    -0.217 NA
HETATM    5  C3  UNL     1     -21.689  17.312   8.021  1.00 20.00     0.138 C 
HETATM    6  C4  UNL     1     -23.113  18.597   9.441  1.00 20.00     0.138 C 
ENDBRANCH   3   4
TORSDOF 1
ENDMDL
MODEL 4
REMARK VINA RESULT:      -2.9     11.699     12.697
REMARK  1 active torsions:
REMARK  status: ('A' for Active; 'I' for Inactive)
REMARK    1  A    between atoms: N5_5  and  N6_6 
ROOT
HETATM    1  C1  UNL     1     -37.726  14.831  -4.492  1.00 20.00     0.101 C 
HETATM    2  C2  UNL     1     -39.135  15.025  -4.028  1.00 20.00     0.058 C 
HETATM    3  N5  UNL     1     -37.208  13.648  -4.540  1.00 20.00    -0.217 NA
ENDROOT
BRANCH   3   4
HETATM    4  N6  UNL     1     -35.922  13.659  -4.978  1.00 20.00    -0.217 NA
HETATM    5  C3  UNL     1     -34.956  14.046  -3.947  1.00 20.00     0.138 C 
HETATM    6  C4  UNL     1     -35.682  14.468  -6.181  1.00 20.00     0.138 C 
ENDBRANCH   3   4
TORSDOF 1
ENDMDL
MODEL 5
REMARK VINA RESULT:      -2.9     16.557     17.166
REMARK  1 active torsions:
REMARK  status: ('A' for Active; 'I' for Inactive)
REMARK    1  A    between atoms: N5_5  and  N6_6 
ROOT
HETATM    1  C1  UNL     1     -22.483  17.171   9.213  1.00 20.00     0.101 C 
HETATM    2  C2  UNL     1     -21.757  17.375   7.921  1.00 20.00     0.058 C 
HETATM    3  N5  UNL     1     -22.708  18.168  10.005  1.00 20.00    -0.217 NA
ENDROOT
BRANCH   3   4
HETATM    4  N6  UNL     1     -23.371  17.800  11.131  1.00 20.00    -0.217 NA
HETATM    5  C3  UNL     1     -22.517  17.744  12.321  1.00 20.00     0.138 C 
HETATM    6  C4  UNL     1     -24.123  16.542  11.028  1.00 20.00     0.138 C 
ENDBRANCH   3   4
TORSDOF 1
ENDMDL
MODEL 6
REMARK VINA RESULT:      -2.9      1.426      1.706
REMARK  1 active torsions:
REMARK  status: ('A' for Active; 'I' for Inactive)
REMARK    1  A    between atoms: N5_5  and  N6_6 
ROOT
HETATM    1  C1  UNL     1     -33.860   5.024   3.399  1.00 20.00     0.101 C 
HETATM    2  C2  UNL     1     -33.197   4.722   2.092  1.00 20.00     0.058 C 
HETATM    3  N5  UNL     1     -33.827   6.219   3.891  1.00 20.00    -0.217 NA
ENDROOT
BRANCH   3   4
HETATM    4  N6  UNL     1     -34.473   6.311   5.082  1.00 20.00    -0.217 NA
HETATM    5  C3  UNL     1     -33.734   7.075   6.091  1.00 20.00     0.138 C 
HETATM    6  C4  UNL     1     -34.884   5.027   5.667  1.00 20.00     0.138 C 
ENDBRANCH   3   4
TORSDOF 1
ENDMDL
MODEL 7
REMARK VINA RESULT:      -2.8      1.498      3.371
REMARK  1 active torsions:
REMARK  status: ('A' for Active; 'I' for Inactive)
REMARK    1  A    between atoms: N5_5  and  N6_6 
ROOT
HETATM    1  C1  UNL     1     -33.941   6.214   4.034  1.00 20.00     0.101 C 
HETATM    2  C2  UNL     1     -35.066   5.351   4.514  1.00 20.00     0.058 C 
HETATM    3  N5  UNL     1     -33.371   5.978   2.899  1.00 20.00    -0.217 NA
ENDROOT
BRANCH   3   4
HETATM    4  N6  UNL     1     -32.369   6.853   2.626  1.00 20.00    -0.217 NA
HETATM    5  C3  UNL     1     -31.938   7.631   3.791  1.00 20.00     0.138 C 
HETATM    6  C4  UNL     1     -32.633   7.773   1.512  1.00 20.00     0.138 C 
ENDBRANCH   3   4
TORSDOF 1
ENDMDL
MODEL 8
REMARK VINA RESULT:      -2.8      8.683      8.947
REMARK  1 active torsions:
REMARK  status: ('A' for Active; 'I' for Inactive)
REMARK    1  A    between atoms: N5_5  and  N6_6 
ROOT
HETATM    1  C1  UNL     1     -41.588   7.951  -0.091  1.00 20.00     0.101 C 
HETATM    2  C2  UNL     1     -41.417   9.407   0.211  1.00 20.00     0.058 C 
HETATM    3  N5  UNL     1     -41.297   7.058   0.796  1.00 20.00    -0.217 NA
ENDROOT
BRANCH   3   4
HETATM    4  N6  UNL     1     -41.506   5.792   0.351  1.00 20.00    -0.217 NA
HETATM    5  C3  UNL     1     -40.996   5.556  -1.003  1.00 20.00     0.138 C 
HETATM    6  C4  UNL     1     -42.900   5.332   0.419  1.00 20.00     0.138 C 
ENDBRANCH   3   4
TORSDOF 1
ENDMDL
MODEL 9
REMARK VINA RESULT:      -2.8     12.226     12.728
REMARK  1 active torsions:
REMARK  status: ('A' for Active; 'I' for Inactive)
REMARK    1  A    between atoms: N5_5  and  N6_6 
ROOT
HETATM    1  C1  UNL     1     -34.315  15.336  -4.101  1.00 20.00     0.101 C 
HETATM    2  C2  UNL     1     -33.167  15.939  -3.354  1.00 20.00     0.058 C 
HETATM    3  N5  UNL     1     -34.116  14.390  -4.959  1.00 20.00    -0.217 NA
ENDROOT
BRANCH   3   4
HETATM    4  N6  UNL     1     -35.266  13.967  -5.545  1.00 20.00    -0.217 NA
HETATM    5  C3  UNL     1     -35.667  14.777  -6.698  1.00 20.00     0.138 C 
HETATM    6  C4  UNL     1     -36.413  13.831  -4.638  1.00 20.00     0.138 C 
ENDBRANCH   3   4
TORSDOF 1
ENDMDL
