MODEL 1
REMARK VINA RESULT:      -4.7      0.000      0.000
REMARK  3 active torsions:
REMARK  status: ('A' for Active; 'I' for Inactive)
REMARK    1  A    between atoms: C1_1  and  C7_7 
REMARK    2  A    between atoms: C8_8  and  C10_10 
REMARK    3  A    between atoms: C9_9  and  C11_11 
ROOT
HETATM    1  C2  UNL     1     -35.650  14.543  -6.494  1.00 20.00     0.012 C 
HETATM    2  C3  UNL     1     -34.286  15.254  -6.793  1.00 20.00     0.006 C 
HETATM    3  C7  UNL     1     -36.335  15.355  -5.338  1.00 20.00     0.052 C 
HETATM    4  C10 UNL     1     -34.556  16.594  -6.167  1.00 20.00    -0.005 C 
HETATM    5  C11 UNL     1     -35.156  16.149  -4.829  1.00 20.00     0.004 C 
ENDROOT
BRANCH   3   6
HETATM    6  C1  UNL     1     -36.895  14.441  -4.298  1.00 20.00     0.236 C 
HETATM    7  O12 UNL     1     -37.944  13.822  -4.436  1.00 20.00    -0.306 OA
ENDBRANCH   3   6
BRANCH   5   8
HETATM    8  C9  UNL     1     -35.079  17.446  -4.005  1.00 20.00    -0.009 C 
HETATM    9  C5  UNL     1     -35.682  17.065  -2.628  1.00 20.00     0.005 C 
HETATM   10  C4  UNL     1     -34.689  15.989  -2.116  1.00 20.00     0.005 C 
HETATM   11  C8  UNL     1     -33.516  16.073  -3.114  1.00 20.00    -0.010 C 
HETATM   12  C6  UNL     1     -33.610  17.557  -3.557  1.00 20.00     0.010 C 
ENDBRANCH   5   8
TORSDOF 3
ENDMDL
MODEL 2
REMARK VINA RESULT:      -4.6      1.121      3.380
REMARK  3 active torsions:
REMARK  status: ('A' for Active; 'I' for Inactive)
REMARK    1  A    between atoms: C1_1  and  C7_7 
REMARK    2  A    between atoms: C8_8  and  C10_10 
REMARK    3  A    between atoms: C9_9  and  C11_11 
ROOT
HETATM    1  C2  UNL     1     -35.079  15.393  -2.655  1.00 20.00     0.012 C 
HETATM    2  C3  UNL     1     -33.816  16.213  -3.089  1.00 20.00     0.006 C 
HETATM    3  C7  UNL     1     -35.561  14.606  -3.926  1.00 20.00     0.052 C 
HETATM    4  C10 UNL     1     -33.443  15.463  -4.337  1.00 20.00    -0.005 C 
HETATM    5  C11 UNL     1     -34.818  15.355  -5.006  1.00 20.00     0.004 C 
ENDROOT
BRANCH   3   6
HETATM    6  C1  UNL     1     -37.043  14.700  -4.086  1.00 20.00     0.236 C 
HETATM    7  O12 UNL     1     -37.751  13.749  -4.399  1.00 20.00    -0.306 OA
ENDBRANCH   3   6
BRANCH   5   8
HETATM    8  C9  UNL     1     -34.437  14.960  -6.443  1.00 20.00    -0.009 C 
HETATM    9  C5  UNL     1     -35.795  14.806  -7.175  1.00 20.00     0.005 C 
HETATM   10  C4  UNL     1     -36.378  16.241  -7.100  1.00 20.00     0.005 C 
HETATM   11  C8  UNL     1     -35.195  17.087  -6.584  1.00 20.00    -0.010 C 
HETATM   12  C6  UNL     1     -33.991  16.269  -7.121  1.00 20.00     0.010 C 
ENDBRANCH   5   8
TORSDOF 3
ENDMDL
MODEL 3
REMARK VINA RESULT:      -4.4      3.749      5.913
REMARK  3 active torsions:
REMARK  status: ('A' for Active; 'I' for Inactive)
REMARK    1  A    between atoms: C1_1  and  C7_7 
REMARK    2  A    between atoms: C8_8  and  C10_10 
REMARK    3  A    between atoms: C9_9  and  C11_11 
ROOT
HETATM    1  C2  UNL     1     -33.188  18.296   1.052  1.00 20.00     0.012 C 
HETATM    2  C3  UNL     1     -34.670  17.792   1.001  1.00 20.00     0.006 C 
HETATM    3  C7  UNL     1     -32.794  18.678  -0.419  1.00 20.00     0.052 C 
HETATM    4  C10 UNL     1     -35.093  18.377  -0.317  1.00 20.00    -0.005 C 
HETATM    5  C11 UNL     1     -33.893  17.980  -1.184  1.00 20.00     0.004 C 
ENDROOT
BRANCH   3   6
HETATM    6  C1  UNL     1     -31.439  18.151  -0.766  1.00 20.00     0.236 C 
HETATM    7  O12 UNL     1     -30.409  18.517  -0.209  1.00 20.00    -0.306 OA
ENDBRANCH   3   6
BRANCH   5   8
HETATM    8  C9  UNL     1     -34.445  18.199  -2.603  1.00 20.00    -0.009 C 
HETATM    9  C5  UNL     1     -33.333  17.660  -3.538  1.00 20.00     0.005 C 
HETATM   10  C4  UNL     1     -33.278  16.157  -3.159  1.00 20.00     0.005 C 
HETATM   11  C8  UNL     1     -34.521  15.963  -2.265  1.00 20.00    -0.010 C 
HETATM   12  C6  UNL     1     -35.461  17.063  -2.824  1.00 20.00     0.010 C 
ENDBRANCH   5   8
TORSDOF 3
ENDMDL
MODEL 4
REMARK VINA RESULT:      -4.4      1.922      3.799
REMARK  3 active torsions:
REMARK  status: ('A' for Active; 'I' for Inactive)
REMARK    1  A    between atoms: C1_1  and  C7_7 
REMARK    2  A    between atoms: C8_8  and  C10_10 
REMARK    3  A    between atoms: C9_9  and  C11_11 
ROOT
HETATM    1  C2  UNL     1     -33.690  16.524  -2.431  1.00 20.00     0.012 C 
HETATM    2  C3  UNL     1     -33.039  15.765  -3.638  1.00 20.00     0.006 C 
HETATM    3  C7  UNL     1     -35.166  16.000  -2.316  1.00 20.00     0.052 C 
HETATM    4  C10 UNL     1     -33.989  14.606  -3.752  1.00 20.00    -0.005 C 
HETATM    5  C11 UNL     1     -35.327  15.347  -3.668  1.00 20.00     0.004 C 
ENDROOT
BRANCH   3   6
HETATM    6  C1  UNL     1     -36.122  17.129  -2.113  1.00 20.00     0.236 C 
HETATM    7  O12 UNL     1     -36.085  18.171  -2.758  1.00 20.00    -0.306 OA
ENDBRANCH   3   6
BRANCH   5   8
HETATM    8  C9  UNL     1     -36.310  14.277  -4.173  1.00 20.00    -0.009 C 
HETATM    9  C5  UNL     1     -37.671  15.014  -4.265  1.00 20.00     0.005 C 
HETATM   10  C4  UNL     1     -37.390  16.099  -5.336  1.00 20.00     0.005 C 
HETATM   11  C8  UNL     1     -36.018  15.694  -5.913  1.00 20.00    -0.010 C 
HETATM   12  C6  UNL     1     -36.043  14.160  -5.685  1.00 20.00     0.010 C 
ENDBRANCH   5   8
TORSDOF 3
ENDMDL
MODEL 5
REMARK VINA RESULT:      -4.4      1.605      2.628
REMARK  3 active torsions:
REMARK  status: ('A' for Active; 'I' for Inactive)
REMARK    1  A    between atoms: C1_1  and  C7_7 
REMARK    2  A    between atoms: C8_8  and  C10_10 
REMARK    3  A    between atoms: C9_9  and  C11_11 
ROOT
HETATM    1  C2  UNL     1     -36.560  17.572  -6.128  1.00 20.00     0.012 C 
HETATM    2  C3  UNL     1     -36.102  18.460  -4.922  1.00 20.00     0.006 C 
HETATM    3  C7  UNL     1     -36.454  16.079  -5.651  1.00 20.00     0.052 C 
HETATM    4  C10 UNL     1     -36.258  17.469  -3.803  1.00 20.00    -0.005 C 
HETATM    5  C11 UNL     1     -35.581  16.246  -4.431  1.00 20.00     0.004 C 
ENDROOT
BRANCH   3   6
HETATM    6  C1  UNL     1     -35.813  15.226  -6.696  1.00 20.00     0.236 C 
HETATM    7  O12 UNL     1     -35.967  14.011  -6.765  1.00 20.00    -0.306 OA
ENDBRANCH   3   6
BRANCH   5   8
HETATM    8  C9  UNL     1     -35.359  15.345  -3.205  1.00 20.00    -0.009 C 
HETATM    9  C5  UNL     1     -34.536  14.148  -3.747  1.00 20.00     0.005 C 
HETATM   10  C4  UNL     1     -33.224  14.831  -4.214  1.00 20.00     0.005 C 
HETATM   11  C8  UNL     1     -33.339  16.262  -3.650  1.00 20.00    -0.010 C 
HETATM   12  C6  UNL     1     -34.230  16.018  -2.403  1.00 20.00     0.010 C 
ENDBRANCH   5   8
TORSDOF 3
ENDMDL
MODEL 6
REMARK VINA RESULT:      -4.3      1.604      2.784
REMARK  3 active torsions:
REMARK  status: ('A' for Active; 'I' for Inactive)
REMARK    1  A    between atoms: C1_1  and  C7_7 
REMARK    2  A    between atoms: C8_8  and  C10_10 
REMARK    3  A    between atoms: C9_9  and  C11_11 
ROOT
HETATM    1  C2  UNL     1     -35.714  14.362  -6.119  1.00 20.00     0.012 C 
HETATM    2  C3  UNL     1     -36.258  13.829  -4.750  1.00 20.00     0.006 C 
HETATM    3  C7  UNL     1     -34.464  15.253  -5.789  1.00 20.00     0.052 C 
HETATM    4  C10 UNL     1     -35.044  14.048  -3.891  1.00 20.00    -0.005 C 
HETATM    5  C11 UNL     1     -34.673  15.475  -4.310  1.00 20.00     0.004 C 
ENDROOT
BRANCH   3   6
HETATM    6  C1  UNL     1     -34.494  16.529  -6.564  1.00 20.00     0.236 C 
HETATM    7  O12 UNL     1     -35.507  17.204  -6.716  1.00 20.00    -0.306 OA
ENDBRANCH   3   6
BRANCH   5   8
HETATM    8  C9  UNL     1     -33.699  15.886  -3.193  1.00 20.00    -0.009 C 
HETATM    9  C5  UNL     1     -33.316  17.349  -3.533  1.00 20.00     0.005 C 
HETATM   10  C4  UNL     1     -34.676  18.085  -3.421  1.00 20.00     0.005 C 
HETATM   11  C8  UNL     1     -35.606  17.033  -2.781  1.00 20.00    -0.010 C 
HETATM   12  C6  UNL     1     -34.586  16.191  -1.971  1.00 20.00     0.010 C 
ENDBRANCH   5   8
TORSDOF 3
ENDMDL
MODEL 7
REMARK VINA RESULT:      -4.2      1.451      2.962
REMARK  3 active torsions:
REMARK  status: ('A' for Active; 'I' for Inactive)
REMARK    1  A    between atoms: C1_1  and  C7_7 
REMARK    2  A    between atoms: C8_8  and  C10_10 
REMARK    3  A    between atoms: C9_9  and  C11_11 
ROOT
HETATM    1  C2  UNL     1     -37.940  17.378  -3.678  1.00 20.00     0.012 C 
HETATM    2  C3  UNL     1     -36.792  18.378  -3.306  1.00 20.00     0.006 C 
HETATM    3  C7  UNL     1     -37.368  15.934  -3.448  1.00 20.00     0.052 C 
HETATM    4  C10 UNL     1     -35.922  17.471  -2.481  1.00 20.00    -0.005 C 
HETATM    5  C11 UNL     1     -35.890  16.234  -3.386  1.00 20.00     0.004 C 
ENDROOT
BRANCH   3   6
HETATM    6  C1  UNL     1     -37.716  15.031  -4.586  1.00 20.00     0.236 C 
HETATM    7  O12 UNL     1     -38.016  13.850  -4.446  1.00 20.00    -0.306 OA
ENDBRANCH   3   6
BRANCH   5   8
HETATM    8  C9  UNL     1     -34.712  15.442  -2.793  1.00 20.00    -0.009 C 
HETATM    9  C5  UNL     1     -34.511  14.257  -3.772  1.00 20.00     0.005 C 
HETATM   10  C4  UNL     1     -34.124  14.976  -5.090  1.00 20.00     0.005 C 
HETATM   11  C8  UNL     1     -33.892  16.437  -4.652  1.00 20.00    -0.010 C 
HETATM   12  C6  UNL     1     -33.451  16.237  -3.178  1.00 20.00     0.010 C 
ENDBRANCH   5   8
TORSDOF 3
ENDMDL
MODEL 8
REMARK VINA RESULT:      -4.1      1.555      3.849
REMARK  3 active torsions:
REMARK  status: ('A' for Active; 'I' for Inactive)
REMARK    1  A    between atoms: C1_1  and  C7_7 
REMARK    2  A    between atoms: C8_8  and  C10_10 
REMARK    3  A    between atoms: C9_9  and  C11_11 
ROOT
HETATM    1  C2  UNL     1     -34.188  15.802  -2.575  1.00 20.00     0.012 C 
HETATM    2  C3  UNL     1     -35.482  16.676  -2.697  1.00 20.00     0.006 C 
HETATM    3  C7  UNL     1     -33.500  15.820  -3.986  1.00 20.00     0.052 C 
HETATM    4  C10 UNL     1     -35.146  17.455  -3.938  1.00 20.00    -0.005 C 
HETATM    5  C11 UNL     1     -34.641  16.322  -4.837  1.00 20.00     0.004 C 
ENDROOT
BRANCH   3   6
HETATM    6  C1  UNL     1     -33.055  14.451  -4.384  1.00 20.00     0.236 C 
HETATM    7  O12 UNL     1     -33.762  13.454  -4.282  1.00 20.00    -0.306 OA
ENDBRANCH   3   6
BRANCH   5   8
HETATM    8  C9  UNL     1     -34.663  16.989  -6.223  1.00 20.00    -0.009 C 
HETATM    9  C5  UNL     1     -34.331  15.841  -7.210  1.00 20.00     0.005 C 
HETATM   10  C4  UNL     1     -35.528  14.874  -7.010  1.00 20.00     0.005 C 
HETATM   11  C8  UNL     1     -36.515  15.691  -6.151  1.00 20.00    -0.010 C 
HETATM   12  C6  UNL     1     -36.153  17.137  -6.581  1.00 20.00     0.010 C 
ENDBRANCH   5   8
TORSDOF 3
ENDMDL
MODEL 9
REMARK VINA RESULT:      -4.1      2.437      3.309
REMARK  3 active torsions:
REMARK  status: ('A' for Active; 'I' for Inactive)
REMARK    1  A    between atoms: C1_1  and  C7_7 
REMARK    2  A    between atoms: C8_8  and  C10_10 
REMARK    3  A    between atoms: C9_9  and  C11_11 
ROOT
HETATM    1  C2  UNL     1     -35.707  17.240  -7.032  1.00 20.00     0.012 C 
HETATM    2  C3  UNL     1     -36.334  15.806  -6.958  1.00 20.00     0.006 C 
HETATM    3  C7  UNL     1     -34.397  17.201  -6.165  1.00 20.00     0.052 C 
HETATM    4  C10 UNL     1     -35.131  15.026  -6.504  1.00 20.00    -0.005 C 
HETATM    5  C11 UNL     1     -34.632  15.935  -5.377  1.00 20.00     0.004 C 
ENDROOT
BRANCH   3   6
HETATM    6  C1  UNL     1     -34.299  18.406  -5.288  1.00 20.00     0.236 C 
HETATM    7  O12 UNL     1     -33.242  18.977  -5.038  1.00 20.00    -0.306 OA
ENDBRANCH   3   6
BRANCH   5   8
HETATM    8  C9  UNL     1     -33.660  15.005  -4.631  1.00 20.00    -0.009 C 
HETATM    9  C5  UNL     1     -33.189  15.836  -3.410  1.00 20.00     0.005 C 
HETATM   10  C4  UNL     1     -34.509  16.052  -2.625  1.00 20.00     0.005 C 
HETATM   11  C8  UNL     1     -35.509  15.113  -3.330  1.00 20.00    -0.010 C 
HETATM   12  C6  UNL     1     -34.554  14.012  -3.865  1.00 20.00     0.010 C 
ENDBRANCH   5   8
TORSDOF 3
ENDMDL
