MODEL 1
REMARK VINA RESULT:      -3.9      0.000      0.000
REMARK  0 active torsions:
REMARK  status: ('A' for Active; 'I' for Inactive)
ROOT
HETATM    1  C1  UNL     1     -34.358  14.422  -3.797  1.00 20.00     0.029 C 
HETATM    2  C2  UNL     1     -35.708  15.046  -3.452  1.00 20.00     0.044 C 
HETATM    3  C3  UNL     1     -33.923  14.825  -5.202  1.00 20.00     0.167 C 
HETATM    4  C4  UNL     1     -36.162  15.097  -5.950  1.00 20.00     0.207 C 
HETATM    5  C5  UNL     1     -38.158  14.821  -4.303  1.00 20.00     0.209 A 
HETATM    6  C6  UNL     1     -36.675  14.812  -4.573  1.00 20.00     0.103 A 
HETATM    7  O7  UNL     1     -34.910  14.436  -6.160  1.00 20.00    -0.388 OA
HETATM    8  O8  UNL     1     -37.426  13.595  -4.462  1.00 20.00    -0.373 OA
ENDROOT
TORSDOF 0
ENDMDL
MODEL 2
REMARK VINA RESULT:      -3.8      1.815      2.258
REMARK  0 active torsions:
REMARK  status: ('A' for Active; 'I' for Inactive)
ROOT
HETATM    1  C1  UNL     1     -34.443  15.871  -2.339  1.00 20.00     0.029 C 
HETATM    2  C2  UNL     1     -35.599  15.535  -3.276  1.00 20.00     0.044 C 
HETATM    3  C3  UNL     1     -33.206  16.275  -3.135  1.00 20.00     0.167 C 
HETATM    4  C4  UNL     1     -33.838  14.966  -5.014  1.00 20.00     0.207 C 
HETATM    5  C5  UNL     1     -36.111  13.700  -5.052  1.00 20.00     0.209 A 
HETATM    6  C6  UNL     1     -35.126  14.600  -4.348  1.00 20.00     0.103 A 
HETATM    7  O7  UNL     1     -32.829  15.230  -4.033  1.00 20.00    -0.388 OA
HETATM    8  O8  UNL     1     -35.245  13.210  -4.015  1.00 20.00    -0.373 OA
ENDROOT
TORSDOF 0
ENDMDL
MODEL 3
REMARK VINA RESULT:      -3.8     12.249     13.107
REMARK  0 active torsions:
REMARK  status: ('A' for Active; 'I' for Inactive)
ROOT
HETATM    1  C1  UNL     1     -34.703   5.168   5.812  1.00 20.00     0.029 C 
HETATM    2  C2  UNL     1     -35.016   4.950   4.333  1.00 20.00     0.044 C 
HETATM    3  C3  UNL     1     -34.289   6.613   6.066  1.00 20.00     0.167 C 
HETATM    4  C4  UNL     1     -33.443   6.887   3.863  1.00 20.00     0.207 C 
HETATM    5  C5  UNL     1     -33.675   4.986   2.102  1.00 20.00     0.209 A 
HETATM    6  C6  UNL     1     -33.909   5.514   3.495  1.00 20.00     0.103 A 
HETATM    7  O7  UNL     1     -33.157   6.955   5.264  1.00 20.00    -0.388 OA
HETATM    8  O8  UNL     1     -32.851   4.588   3.210  1.00 20.00    -0.373 OA
ENDROOT
TORSDOF 0
ENDMDL
MODEL 4
REMARK VINA RESULT:      -3.7     19.334     20.341
REMARK  0 active torsions:
REMARK  status: ('A' for Active; 'I' for Inactive)
ROOT
HETATM    1  C1  UNL     1     -21.920  17.725  11.747  1.00 20.00     0.029 C 
HETATM    2  C2  UNL     1     -23.334  17.860  12.306  1.00 20.00     0.044 C 
HETATM    3  C3  UNL     1     -21.925  17.877  10.230  1.00 20.00     0.167 C 
HETATM    4  C4  UNL     1     -24.153  17.075  10.035  1.00 20.00     0.207 C 
HETATM    5  C5  UNL     1     -25.555  16.511  12.153  1.00 20.00     0.209 A 
HETATM    6  C6  UNL     1     -24.272  16.992  11.524  1.00 20.00     0.103 A 
HETATM    7  O7  UNL     1     -22.789  16.906   9.635  1.00 20.00    -0.388 OA
HETATM    8  O8  UNL     1     -24.406  15.657  12.031  1.00 20.00    -0.373 OA
ENDROOT
TORSDOF 0
ENDMDL
MODEL 5
REMARK VINA RESULT:      -3.7     18.610     19.766
REMARK  0 active torsions:
REMARK  status: ('A' for Active; 'I' for Inactive)
ROOT
HETATM    1  C1  UNL     1     -24.921  18.701   9.367  1.00 20.00     0.029 C 
HETATM    2  C2  UNL     1     -23.456  18.907   8.991  1.00 20.00     0.044 C 
HETATM    3  C3  UNL     1     -25.060  18.437  10.863  1.00 20.00     0.167 C 
HETATM    4  C4  UNL     1     -22.885  17.496  11.023  1.00 20.00     0.207 C 
HETATM    5  C5  UNL     1     -21.298  17.451   8.961  1.00 20.00     0.209 A 
HETATM    6  C6  UNL     1     -22.623  17.812   9.584  1.00 20.00     0.103 A 
HETATM    7  O7  UNL     1     -24.285  17.298  11.241  1.00 20.00    -0.388 OA
HETATM    8  O8  UNL     1     -22.477  16.658   8.744  1.00 20.00    -0.373 OA
ENDROOT
TORSDOF 0
ENDMDL
MODEL 6
REMARK VINA RESULT:      -3.6     19.639     20.010
REMARK  0 active torsions:
REMARK  status: ('A' for Active; 'I' for Inactive)
ROOT
HETATM    1  C1  UNL     1     -24.679  15.890  11.884  1.00 20.00     0.029 C 
HETATM    2  C2  UNL     1     -24.208  16.311  10.494  1.00 20.00     0.044 C 
HETATM    3  C3  UNL     1     -25.862  16.741  12.331  1.00 20.00     0.167 C 
HETATM    4  C4  UNL     1     -25.180  18.598  11.015  1.00 20.00     0.207 C 
HETATM    5  C5  UNL     1     -23.117  18.427   9.439  1.00 20.00     0.209 A 
HETATM    6  C6  UNL     1     -24.050  17.801  10.445  1.00 20.00     0.103 A 
HETATM    7  O7  UNL     1     -25.509  18.126  12.326  1.00 20.00    -0.388 OA
HETATM    8  O8  UNL     1     -22.748  18.271  10.819  1.00 20.00    -0.373 OA
ENDROOT
TORSDOF 0
ENDMDL
MODEL 7
REMARK VINA RESULT:      -3.6      9.834     10.696
REMARK  0 active torsions:
REMARK  status: ('A' for Active; 'I' for Inactive)
ROOT
HETATM    1  C1  UNL     1     -42.055   8.963   0.137  1.00 20.00     0.029 C 
HETATM    2  C2  UNL     1     -41.644   7.539   0.504  1.00 20.00     0.044 C 
HETATM    3  C3  UNL     1     -43.417   8.969  -0.549  1.00 20.00     0.167 C 
HETATM    4  C4  UNL     1     -43.133   6.770  -1.403  1.00 20.00     0.207 C 
HETATM    5  C5  UNL     1     -41.031   5.365  -0.790  1.00 20.00     0.209 A 
HETATM    6  C6  UNL     1     -41.831   6.638  -0.679  1.00 20.00     0.103 A 
HETATM    7  O7  UNL     1     -43.391   8.143  -1.715  1.00 20.00    -0.388 OA
HETATM    8  O8  UNL     1     -40.685   6.543  -1.537  1.00 20.00    -0.373 OA
ENDROOT
TORSDOF 0
ENDMDL
MODEL 8
REMARK VINA RESULT:      -3.6      9.447     10.615
REMARK  0 active torsions:
REMARK  status: ('A' for Active; 'I' for Inactive)
ROOT
HETATM    1  C1  UNL     1     -42.096   5.812   0.365  1.00 20.00     0.029 C 
HETATM    2  C2  UNL     1     -41.203   7.022   0.627  1.00 20.00     0.044 C 
HETATM    3  C3  UNL     1     -42.311   5.617  -1.132  1.00 20.00     0.167 C 
HETATM    4  C4  UNL     1     -42.023   7.929  -1.599  1.00 20.00     0.207 C 
HETATM    5  C5  UNL     1     -41.378   9.598   0.291  1.00 20.00     0.209 A 
HETATM    6  C6  UNL     1     -41.698   8.196  -0.163  1.00 20.00     0.103 A 
HETATM    7  O7  UNL     1     -42.886   6.792  -1.709  1.00 20.00    -0.388 OA
HETATM    8  O8  UNL     1     -42.666   9.004   0.521  1.00 20.00    -0.373 OA
ENDROOT
TORSDOF 0
ENDMDL
MODEL 9
REMARK VINA RESULT:      -3.5     11.675     12.761
REMARK  0 active torsions:
REMARK  status: ('A' for Active; 'I' for Inactive)
ROOT
HETATM    1  C1  UNL     1     -34.380   6.590   5.940  1.00 20.00     0.029 C 
HETATM    2  C2  UNL     1     -33.123   6.861   5.118  1.00 20.00     0.044 C 
HETATM    3  C3  UNL     1     -34.886   5.172   5.697  1.00 20.00     0.167 C 
HETATM    4  C4  UNL     1     -33.967   5.088   3.508  1.00 20.00     0.207 C 
HETATM    5  C5  UNL     1     -32.533   7.056   2.589  1.00 20.00     0.209 A 
HETATM    6  C6  UNL     1     -33.346   6.436   3.698  1.00 20.00     0.103 A 
HETATM    7  O7  UNL     1     -35.148   4.968   4.307  1.00 20.00    -0.388 OA
HETATM    8  O8  UNL     1     -33.887   7.459   2.852  1.00 20.00    -0.373 OA
ENDROOT
TORSDOF 0
ENDMDL
