MODEL 1
REMARK VINA RESULT:      -4.7      0.000      0.000
REMARK  2 active torsions:
REMARK  status: ('A' for Active; 'I' for Inactive)
REMARK    1  A    between atoms: C2_2  and  C6_6 
REMARK    2  A    between atoms: C6_6  and  O7_7 
ROOT
HETATM    1  C4  UNL     1     -34.149   3.994   4.087  1.00 20.00     0.050 C 
HETATM    2  C5  UNL     1     -34.595   5.540   6.021  1.00 20.00     0.050 C 
HETATM    3  C6  UNL     1     -34.700   5.360   4.504  1.00 20.00     0.068 C 
ENDROOT
BRANCH   3   4
HETATM    4  C2  UNL     1     -33.932   6.458   3.803  1.00 20.00     0.005 C 
HETATM    5  C1  UNL     1     -33.038   6.300   2.813  1.00 20.00    -0.032 C 
HETATM    6  C3  UNL     1     -32.313   7.433   2.163  1.00 20.00     0.036 C 
ENDBRANCH   3   4
BRANCH   3   7
HETATM    7  O7  UNL     1     -36.083   5.403   4.149  1.00 20.00    -0.387 OA
HETATM    8  H19 UNL     1     -36.184   6.147   3.536  1.00 20.00     0.211 HD
ENDBRANCH   3   7
TORSDOF 2
ENDMDL
MODEL 2
REMARK VINA RESULT:      -3.9     11.830     12.311
REMARK  2 active torsions:
REMARK  status: ('A' for Active; 'I' for Inactive)
REMARK    1  A    between atoms: C2_2  and  C6_6 
REMARK    2  A    between atoms: C6_6  and  O7_7 
ROOT
HETATM    1  C4  UNL     1     -37.415  14.424  -4.265  1.00 20.00     0.050 C 
HETATM    2  C5  UNL     1     -35.695  14.428  -6.103  1.00 20.00     0.050 C 
HETATM    3  C6  UNL     1     -35.983  14.040  -4.650  1.00 20.00     0.068 C 
ENDROOT
BRANCH   3   4
HETATM    4  C2  UNL     1     -35.002  14.732  -3.730  1.00 20.00     0.005 C 
HETATM    5  C1  UNL     1     -35.262  15.775  -2.926  1.00 20.00    -0.032 C 
HETATM    6  C3  UNL     1     -34.242  16.413  -2.041  1.00 20.00     0.036 C 
ENDBRANCH   3   4
BRANCH   3   7
HETATM    7  O7  UNL     1     -35.864  12.620  -4.541  1.00 20.00    -0.387 OA
HETATM    8  H19 UNL     1     -35.665  12.433  -3.611  1.00 20.00     0.211 HD
ENDBRANCH   3   7
TORSDOF 2
ENDMDL
MODEL 3
REMARK VINA RESULT:      -3.9      8.473      8.908
REMARK  2 active torsions:
REMARK  status: ('A' for Active; 'I' for Inactive)
REMARK    1  A    between atoms: C2_2  and  C6_6 
REMARK    2  A    between atoms: C6_6  and  O7_7 
ROOT
HETATM    1  C4  UNL     1     -43.357   5.788  -0.464  1.00 20.00     0.050 C 
HETATM    2  C5  UNL     1     -40.913   5.441  -0.952  1.00 20.00     0.050 C 
HETATM    3  C6  UNL     1     -41.939   5.848   0.109  1.00 20.00     0.068 C 
ENDROOT
BRANCH   3   4
HETATM    4  C2  UNL     1     -41.642   7.248   0.599  1.00 20.00     0.005 C 
HETATM    5  C1  UNL     1     -41.545   8.353  -0.157  1.00 20.00    -0.032 C 
HETATM    6  C3  UNL     1     -41.247   9.710   0.393  1.00 20.00     0.036 C 
ENDBRANCH   3   4
BRANCH   3   7
HETATM    7  O7  UNL     1     -41.858   4.909   1.183  1.00 20.00    -0.387 OA
HETATM    8  H19 UNL     1     -40.946   4.582   1.192  1.00 20.00     0.211 HD
ENDBRANCH   3   7
TORSDOF 2
ENDMDL
MODEL 4
REMARK VINA RESULT:      -3.9     16.923     17.563
REMARK  2 active torsions:
REMARK  status: ('A' for Active; 'I' for Inactive)
REMARK    1  A    between atoms: C2_2  and  C6_6 
REMARK    2  A    between atoms: C6_6  and  O7_7 
ROOT
HETATM    1  C4  UNL     1     -23.224  17.009  10.158  1.00 20.00     0.050 C 
HETATM    2  C5  UNL     1     -21.977  17.746  12.216  1.00 20.00     0.050 C 
HETATM    3  C6  UNL     1     -23.282  17.149  11.682  1.00 20.00     0.068 C 
ENDROOT
BRANCH   3   4
HETATM    4  C2  UNL     1     -24.447  18.031  12.073  1.00 20.00     0.005 C 
HETATM    5  C1  UNL     1     -25.478  18.384  11.288  1.00 20.00    -0.032 C 
HETATM    6  C3  UNL     1     -26.599  19.263  11.739  1.00 20.00     0.036 C 
ENDBRANCH   3   4
BRANCH   3   7
HETATM    7  O7  UNL     1     -23.429  15.841  12.239  1.00 20.00    -0.387 OA
HETATM    8  H19 UNL     1     -22.704  15.308  11.879  1.00 20.00     0.211 HD
ENDBRANCH   3   7
TORSDOF 2
ENDMDL
MODEL 5
REMARK VINA RESULT:      -3.8     11.576     12.574
REMARK  2 active torsions:
REMARK  status: ('A' for Active; 'I' for Inactive)
REMARK    1  A    between atoms: C2_2  and  C6_6 
REMARK    2  A    between atoms: C6_6  and  O7_7 
ROOT
HETATM    1  C4  UNL     1     -34.888  13.895  -3.908  1.00 20.00     0.050 C 
HETATM    2  C5  UNL     1     -33.972  15.106  -5.915  1.00 20.00     0.050 C 
HETATM    3  C6  UNL     1     -33.663  14.593  -4.505  1.00 20.00     0.068 C 
ENDROOT
BRANCH   3   4
HETATM    4  C2  UNL     1     -33.248  15.748  -3.620  1.00 20.00     0.005 C 
HETATM    5  C1  UNL     1     -33.935  16.239  -2.576  1.00 20.00    -0.032 C 
HETATM    6  C3  UNL     1     -33.466  17.386  -1.742  1.00 20.00     0.036 C 
ENDBRANCH   3   4
BRANCH   3   7
HETATM    7  O7  UNL     1     -32.612  13.630  -4.606  1.00 20.00    -0.387 OA
HETATM    8  H19 UNL     1     -32.650  13.278  -5.508  1.00 20.00     0.211 HD
ENDBRANCH   3   7
TORSDOF 2
ENDMDL
MODEL 6
REMARK VINA RESULT:      -3.8     16.779     17.243
REMARK  2 active torsions:
REMARK  status: ('A' for Active; 'I' for Inactive)
REMARK    1  A    between atoms: C2_2  and  C6_6 
REMARK    2  A    between atoms: C6_6  and  O7_7 
ROOT
HETATM    1  C4  UNL     1     -22.610  17.854  12.332  1.00 20.00     0.050 C 
HETATM    2  C5  UNL     1     -25.065  17.513  11.894  1.00 20.00     0.050 C 
HETATM    3  C6  UNL     1     -23.652  17.001  11.603  1.00 20.00     0.068 C 
ENDROOT
BRANCH   3   4
HETATM    4  C2  UNL     1     -23.391  17.034  10.113  1.00 20.00     0.005 C 
HETATM    5  C1  UNL     1     -22.240  17.378   9.513  1.00 20.00    -0.032 C 
HETATM    6  C3  UNL     1     -22.051  17.391   8.031  1.00 20.00     0.036 C 
ENDBRANCH   3   4
BRANCH   3   7
HETATM    7  O7  UNL     1     -23.555  15.666  12.104  1.00 20.00    -0.387 OA
HETATM    8  H19 UNL     1     -24.464  15.348  12.211  1.00 20.00     0.211 HD
ENDBRANCH   3   7
TORSDOF 2
ENDMDL
MODEL 7
REMARK VINA RESULT:      -3.7     11.759     12.178
REMARK  2 active torsions:
REMARK  status: ('A' for Active; 'I' for Inactive)
REMARK    1  A    between atoms: C2_2  and  C6_6 
REMARK    2  A    between atoms: C6_6  and  O7_7 
ROOT
HETATM    1  C4  UNL     1     -35.303  14.685  -5.483  1.00 20.00     0.050 C 
HETATM    2  C5  UNL     1     -33.041  14.579  -4.383  1.00 20.00     0.050 C 
HETATM    3  C6  UNL     1     -34.545  14.366  -4.191  1.00 20.00     0.068 C 
ENDROOT
BRANCH   3   4
HETATM    4  C2  UNL     1     -35.049  15.248  -3.070  1.00 20.00     0.005 C 
HETATM    5  C1  UNL     1     -34.314  16.092  -2.328  1.00 20.00    -0.032 C 
HETATM    6  C3  UNL     1     -34.877  16.936  -1.232  1.00 20.00     0.036 C 
ENDBRANCH   3   4
BRANCH   3   7
HETATM    7  O7  UNL     1     -34.760  12.986  -3.885  1.00 20.00    -0.387 OA
HETATM    8  H19 UNL     1     -34.057  12.731  -3.269  1.00 20.00     0.211 HD
ENDBRANCH   3   7
TORSDOF 2
ENDMDL
MODEL 8
REMARK VINA RESULT:      -3.6     16.471     17.384
REMARK  2 active torsions:
REMARK  status: ('A' for Active; 'I' for Inactive)
REMARK    1  A    between atoms: C2_2  and  C6_6 
REMARK    2  A    between atoms: C6_6  and  O7_7 
ROOT
HETATM    1  C4  UNL     1     -24.390  16.431  11.121  1.00 20.00     0.050 C 
HETATM    2  C5  UNL     1     -22.642  17.778  12.331  1.00 20.00     0.050 C 
HETATM    3  C6  UNL     1     -23.645  17.767  11.174  1.00 20.00     0.068 C 
ENDROOT
BRANCH   3   4
HETATM    4  C2  UNL     1     -22.921  18.003   9.867  1.00 20.00     0.005 C 
HETATM    5  C1  UNL     1     -22.460  17.060   9.029  1.00 20.00    -0.032 C 
HETATM    6  C3  UNL     1     -21.750  17.364   7.751  1.00 20.00     0.036 C 
ENDBRANCH   3   4
BRANCH   3   7
HETATM    7  O7  UNL     1     -24.606  18.798  11.413  1.00 20.00    -0.387 OA
HETATM    8  H19 UNL     1     -24.232  19.364  12.105  1.00 20.00     0.211 HD
ENDBRANCH   3   7
TORSDOF 2
ENDMDL
MODEL 9
REMARK VINA RESULT:      -3.6     16.149     16.746
REMARK  2 active torsions:
REMARK  status: ('A' for Active; 'I' for Inactive)
REMARK    1  A    between atoms: C2_2  and  C6_6 
REMARK    2  A    between atoms: C6_6  and  O7_7 
ROOT
HETATM    1  C4  UNL     1     -22.566  17.834  11.180  1.00 20.00     0.050 C 
HETATM    2  C5  UNL     1     -24.379  16.089  11.234  1.00 20.00     0.050 C 
HETATM    3  C6  UNL     1     -23.532  16.998  10.338  1.00 20.00     0.068 C 
ENDROOT
BRANCH   3   4
HETATM    4  C2  UNL     1     -24.433  17.909   9.534  1.00 20.00     0.005 C 
HETATM    5  C1  UNL     1     -24.206  18.361   8.290  1.00 20.00    -0.032 C 
HETATM    6  C3  UNL     1     -25.141  19.263   7.553  1.00 20.00     0.036 C 
ENDBRANCH   3   4
BRANCH   3   7
HETATM    7  O7  UNL     1     -22.755  16.165   9.474  1.00 20.00    -0.387 OA
HETATM    8  H19 UNL     1     -22.034  16.718   9.138  1.00 20.00     0.211 HD
ENDBRANCH   3   7
TORSDOF 2
ENDMDL
