MODEL 1
REMARK VINA RESULT:      -3.9      0.000      0.000
REMARK  1 active torsions:
REMARK  status: ('A' for Active; 'I' for Inactive)
REMARK    1  A    between atoms: C2_2  and  C4_4 
ROOT
HETATM    1  C3  UNL     1     -32.966   5.716   2.647  1.00 20.00     0.205 A 
HETATM    2  C4  UNL     1     -33.857   6.586   3.458  1.00 20.00     0.173 A 
HETATM    3  O6  UNL     1     -32.508   6.942   3.228  1.00 20.00    -0.377 OA
ENDROOT
BRANCH   2   4
HETATM    4  C2  UNL     1     -34.297   6.059   4.791  1.00 20.00    -0.062 C 
HETATM    5  C1  UNL     1     -35.052   4.956   4.904  1.00 20.00     0.016 C 
HETATM    6  C5  UNL     1     -33.843   6.835   5.992  1.00 20.00     0.045 C 
ENDBRANCH   2   4
TORSDOF 1
ENDMDL
MODEL 2
REMARK VINA RESULT:      -3.9      1.890      2.901
REMARK  1 active torsions:
REMARK  status: ('A' for Active; 'I' for Inactive)
REMARK    1  A    between atoms: C2_2  and  C4_4 
ROOT
HETATM    1  C3  UNL     1     -34.556   5.481   5.506  1.00 20.00     0.205 A 
HETATM    2  C4  UNL     1     -34.776   5.655   4.047  1.00 20.00     0.173 A 
HETATM    3  O6  UNL     1     -35.180   4.472   4.704  1.00 20.00    -0.377 OA
ENDROOT
BRANCH   2   4
HETATM    4  C2  UNL     1     -33.560   5.671   3.169  1.00 20.00    -0.062 C 
HETATM    5  C1  UNL     1     -33.179   4.594   2.465  1.00 20.00     0.016 C 
HETATM    6  C5  UNL     1     -32.795   6.960   3.122  1.00 20.00     0.045 C 
ENDBRANCH   2   4
TORSDOF 1
ENDMDL
MODEL 3
REMARK VINA RESULT:      -3.9      1.873      3.192
REMARK  1 active torsions:
REMARK  status: ('A' for Active; 'I' for Inactive)
REMARK    1  A    between atoms: C2_2  and  C4_4 
ROOT
HETATM    1  C3  UNL     1     -34.562   5.410   5.538  1.00 20.00     0.205 A 
HETATM    2  C4  UNL     1     -34.770   5.678   4.092  1.00 20.00     0.173 A 
HETATM    3  O6  UNL     1     -35.121   4.431   4.656  1.00 20.00    -0.377 OA
ENDROOT
BRANCH   2   4
HETATM    4  C2  UNL     1     -33.544   5.820   3.239  1.00 20.00    -0.062 C 
HETATM    5  C1  UNL     1     -32.837   6.959   3.197  1.00 20.00     0.016 C 
HETATM    6  C5  UNL     1     -33.153   4.614   2.438  1.00 20.00     0.045 C 
ENDBRANCH   2   4
TORSDOF 1
ENDMDL
MODEL 4
REMARK VINA RESULT:      -3.9      0.209      1.445
REMARK  1 active torsions:
REMARK  status: ('A' for Active; 'I' for Inactive)
REMARK    1  A    between atoms: C2_2  and  C4_4 
ROOT
HETATM    1  C3  UNL     1     -32.905   5.923   2.621  1.00 20.00     0.205 A 
HETATM    2  C4  UNL     1     -33.739   6.766   3.517  1.00 20.00     0.173 A 
HETATM    3  O6  UNL     1     -32.367   7.049   3.325  1.00 20.00    -0.377 OA
ENDROOT
BRANCH   2   4
HETATM    4  C2  UNL     1     -34.225   6.139   4.789  1.00 20.00    -0.062 C 
HETATM    5  C1  UNL     1     -33.951   6.669   5.991  1.00 20.00     0.016 C 
HETATM    6  C5  UNL     1     -35.035   4.885   4.641  1.00 20.00     0.045 C 
ENDBRANCH   2   4
TORSDOF 1
ENDMDL
MODEL 5
REMARK VINA RESULT:      -3.5      1.707      2.918
REMARK  1 active torsions:
REMARK  status: ('A' for Active; 'I' for Inactive)
REMARK    1  A    between atoms: C2_2  and  C4_4 
ROOT
HETATM    1  C3  UNL     1     -34.791   4.780   5.676  1.00 20.00     0.205 A 
HETATM    2  C4  UNL     1     -34.843   5.607   4.443  1.00 20.00     0.173 A 
HETATM    3  O6  UNL     1     -34.712   4.202   4.368  1.00 20.00    -0.377 OA
ENDROOT
BRANCH   2   4
HETATM    4  C2  UNL     1     -33.673   6.505   4.172  1.00 20.00    -0.062 C 
HETATM    5  C1  UNL     1     -33.239   7.398   5.075  1.00 20.00     0.016 C 
HETATM    6  C5  UNL     1     -33.014   6.347   2.834  1.00 20.00     0.045 C 
ENDBRANCH   2   4
TORSDOF 1
ENDMDL
MODEL 6
REMARK VINA RESULT:      -3.3      1.351      2.004
REMARK  1 active torsions:
REMARK  status: ('A' for Active; 'I' for Inactive)
REMARK    1  A    between atoms: C2_2  and  C4_4 
ROOT
HETATM    1  C3  UNL     1     -32.582   7.431   2.048  1.00 20.00     0.205 A 
HETATM    2  C4  UNL     1     -33.237   6.923   3.281  1.00 20.00     0.173 A 
HETATM    3  O6  UNL     1     -31.857   7.226   3.266  1.00 20.00    -0.377 OA
ENDROOT
BRANCH   2   4
HETATM    4  C2  UNL     1     -33.713   5.500   3.265  1.00 20.00    -0.062 C 
HETATM    5  C1  UNL     1     -33.171   4.580   2.453  1.00 20.00     0.016 C 
HETATM    6  C5  UNL     1     -34.829   5.166   4.209  1.00 20.00     0.045 C 
ENDBRANCH   2   4
TORSDOF 1
ENDMDL
MODEL 7
REMARK VINA RESULT:      -3.2     11.574     12.004
REMARK  1 active torsions:
REMARK  status: ('A' for Active; 'I' for Inactive)
REMARK    1  A    between atoms: C2_2  and  C4_4 
ROOT
HETATM    1  C3  UNL     1     -36.211  14.106  -5.387  1.00 20.00     0.205 A 
HETATM    2  C4  UNL     1     -35.438  13.777  -4.161  1.00 20.00     0.173 A 
HETATM    3  O6  UNL     1     -36.852  13.792  -4.145  1.00 20.00    -0.377 OA
ENDROOT
BRANCH   2   4
HETATM    4  C2  UNL     1     -34.650  14.887  -3.531  1.00 20.00    -0.062 C 
HETATM    5  C1  UNL     1     -35.162  15.659  -2.562  1.00 20.00     0.016 C 
HETATM    6  C5  UNL     1     -33.255  15.082  -4.047  1.00 20.00     0.045 C 
ENDBRANCH   2   4
TORSDOF 1
ENDMDL
MODEL 8
REMARK VINA RESULT:      -3.2     11.735     12.260
REMARK  1 active torsions:
REMARK  status: ('A' for Active; 'I' for Inactive)
REMARK    1  A    between atoms: C2_2  and  C4_4 
ROOT
HETATM    1  C3  UNL     1     -34.004  14.982  -5.466  1.00 20.00     0.205 A 
HETATM    2  C4  UNL     1     -33.383  14.894  -4.119  1.00 20.00     0.173 A 
HETATM    3  O6  UNL     1     -34.232  13.869  -4.594  1.00 20.00    -0.377 OA
ENDROOT
BRANCH   2   4
HETATM    4  C2  UNL     1     -33.859  15.869  -3.083  1.00 20.00    -0.062 C 
HETATM    5  C1  UNL     1     -35.016  15.699  -2.427  1.00 20.00     0.016 C 
HETATM    6  C5  UNL     1     -32.964  17.045  -2.822  1.00 20.00     0.045 C 
ENDBRANCH   2   4
TORSDOF 1
ENDMDL
MODEL 9
REMARK VINA RESULT:      -3.2     16.151     17.102
REMARK  1 active torsions:
REMARK  status: ('A' for Active; 'I' for Inactive)
REMARK    1  A    between atoms: C2_2  and  C4_4 
ROOT
HETATM    1  C3  UNL     1     -22.011  17.738   8.365  1.00 20.00     0.205 A 
HETATM    2  C4  UNL     1     -22.931  18.321   9.376  1.00 20.00     0.173 A 
HETATM    3  O6  UNL     1     -21.691  18.934   9.086  1.00 20.00    -0.377 OA
ENDROOT
BRANCH   2   4
HETATM    4  C2  UNL     1     -23.130  17.548  10.646  1.00 20.00    -0.062 C 
HETATM    5  C1  UNL     1     -22.395  17.785  11.743  1.00 20.00     0.016 C 
HETATM    6  C5  UNL     1     -24.198  16.495  10.619  1.00 20.00     0.045 C 
ENDBRANCH   2   4
TORSDOF 1
ENDMDL
