MODEL 1
REMARK VINA RESULT:      -4.6      0.000      0.000
REMARK  3 active torsions:
REMARK  status: ('A' for Active; 'I' for Inactive)
REMARK    1  A    between atoms: C2_2  and  C6_6 
REMARK    2  A    between atoms: C6_6  and  C7_7 
REMARK    3  A    between atoms: C6_6  and  O8_8 
ROOT
HETATM    1  C6  UNL     1     -32.721   6.658   3.296  1.00 20.00     0.144 C 
ENDROOT
BRANCH   1   2
HETATM    2  C2  UNL     1     -32.971   7.087   1.877  1.00 20.00     0.000 C 
HETATM    3  C1  UNL     1     -32.742   8.329   1.423  1.00 20.00    -0.033 C 
HETATM    4  C3  UNL     1     -32.985   8.758   0.015  1.00 20.00     0.036 C 
ENDBRANCH   1   2
BRANCH   1   5
HETATM    5  C7  UNL     1     -33.995   6.505   4.160  1.00 20.00     0.010 C 
HETATM    6  C4  UNL     1     -33.768   6.832   5.641  1.00 20.00     0.012 C 
HETATM    7  C5  UNL     1     -34.618   5.115   4.015  1.00 20.00     0.012 C 
ENDBRANCH   1   5
BRANCH   1   8
HETATM    8  O8  UNL     1     -31.861   7.632   3.890  1.00 20.00    -0.391 OA
HETATM    9  H22 UNL     1     -31.318   7.991   3.172  1.00 20.00     0.210 HD
ENDBRANCH   1   8
TORSDOF 3
ENDMDL
MODEL 2
REMARK VINA RESULT:      -4.3      1.880      2.260
REMARK  3 active torsions:
REMARK  status: ('A' for Active; 'I' for Inactive)
REMARK    1  A    between atoms: C2_2  and  C6_6 
REMARK    2  A    between atoms: C6_6  and  C7_7 
REMARK    3  A    between atoms: C6_6  and  O8_8 
ROOT
HETATM    1  C6  UNL     1     -34.433   5.359   3.767  1.00 20.00     0.144 C 
ENDROOT
BRANCH   1   2
HETATM    2  C2  UNL     1     -33.244   5.936   3.051  1.00 20.00     0.000 C 
HETATM    3  C1  UNL     1     -33.305   7.016   2.257  1.00 20.00    -0.033 C 
HETATM    4  C3  UNL     1     -32.127   7.594   1.547  1.00 20.00     0.036 C 
ENDBRANCH   1   2
BRANCH   1   5
HETATM    5  C7  UNL     1     -34.686   5.943   5.178  1.00 20.00     0.010 C 
HETATM    6  C4  UNL     1     -33.633   6.970   5.608  1.00 20.00     0.012 C 
HETATM    7  C5  UNL     1     -34.815   4.844   6.234  1.00 20.00     0.012 C 
ENDBRANCH   1   5
BRANCH   1   8
HETATM    8  O8  UNL     1     -34.226   3.949   3.868  1.00 20.00    -0.391 OA
HETATM    9  H22 UNL     1     -33.375   3.767   3.443  1.00 20.00     0.210 HD
ENDBRANCH   1   8
TORSDOF 3
ENDMDL
MODEL 3
REMARK VINA RESULT:      -4.2      1.159      1.372
REMARK  3 active torsions:
REMARK  status: ('A' for Active; 'I' for Inactive)
REMARK    1  A    between atoms: C2_2  and  C6_6 
REMARK    2  A    between atoms: C6_6  and  C7_7 
REMARK    3  A    between atoms: C6_6  and  O8_8 
ROOT
HETATM    1  C6  UNL     1     -33.231   6.491   4.319  1.00 20.00     0.144 C 
ENDROOT
BRANCH   1   2
HETATM    2  C2  UNL     1     -33.292   7.415   3.135  1.00 20.00     0.000 C 
HETATM    3  C1  UNL     1     -32.491   7.308   2.064  1.00 20.00    -0.033 C 
HETATM    4  C3  UNL     1     -32.550   8.221   0.885  1.00 20.00     0.036 C 
ENDBRANCH   1   2
BRANCH   1   5
HETATM    5  C7  UNL     1     -34.497   5.627   4.532  1.00 20.00     0.010 C 
HETATM    6  C4  UNL     1     -34.866   5.444   6.008  1.00 20.00     0.012 C 
HETATM    7  C5  UNL     1     -34.381   4.266   3.843  1.00 20.00     0.012 C 
ENDBRANCH   1   5
BRANCH   1   8
HETATM    8  O8  UNL     1     -33.007   7.297   5.477  1.00 20.00    -0.391 OA
HETATM    9  H22 UNL     1     -32.846   6.684   6.210  1.00 20.00     0.210 HD
ENDBRANCH   1   8
TORSDOF 3
ENDMDL
MODEL 4
REMARK VINA RESULT:      -3.9     10.468     11.606
REMARK  3 active torsions:
REMARK  status: ('A' for Active; 'I' for Inactive)
REMARK    1  A    between atoms: C2_2  and  C6_6 
REMARK    2  A    between atoms: C6_6  and  C7_7 
REMARK    3  A    between atoms: C6_6  and  O8_8 
ROOT
HETATM    1  C6  UNL     1     -33.554  14.795  -4.722  1.00 20.00     0.144 C 
ENDROOT
BRANCH   1   2
HETATM    2  C2  UNL     1     -34.352  15.049  -3.474  1.00 20.00     0.000 C 
HETATM    3  C1  UNL     1     -34.254  16.170  -2.743  1.00 20.00    -0.033 C 
HETATM    4  C3  UNL     1     -35.047  16.428  -1.505  1.00 20.00     0.036 C 
ENDBRANCH   1   2
BRANCH   1   5
HETATM    5  C7  UNL     1     -34.375  14.830  -6.033  1.00 20.00     0.010 C 
HETATM    6  C4  UNL     1     -34.336  16.191  -6.737  1.00 20.00     0.012 C 
HETATM    7  C5  UNL     1     -35.823  14.389  -5.812  1.00 20.00     0.012 C 
ENDBRANCH   1   5
BRANCH   1   8
HETATM    8  O8  UNL     1     -32.941  13.512  -4.581  1.00 20.00    -0.391 OA
HETATM    9  H22 UNL     1     -32.177  13.637  -3.999  1.00 20.00     0.210 HD
ENDBRANCH   1   8
TORSDOF 3
ENDMDL
MODEL 5
REMARK VINA RESULT:      -3.8     10.240     11.466
REMARK  3 active torsions:
REMARK  status: ('A' for Active; 'I' for Inactive)
REMARK    1  A    between atoms: C2_2  and  C6_6 
REMARK    2  A    between atoms: C6_6  and  C7_7 
REMARK    3  A    between atoms: C6_6  and  O8_8 
ROOT
HETATM    1  C6  UNL     1     -35.784  14.067  -4.486  1.00 20.00     0.144 C 
ENDROOT
BRANCH   1   2
HETATM    2  C2  UNL     1     -35.721  14.560  -5.904  1.00 20.00     0.000 C 
HETATM    3  C1  UNL     1     -36.368  15.650  -6.343  1.00 20.00    -0.033 C 
HETATM    4  C3  UNL     1     -36.306  16.145  -7.749  1.00 20.00     0.036 C 
ENDBRANCH   1   2
BRANCH   1   5
HETATM    5  C7  UNL     1     -34.566  14.451  -3.612  1.00 20.00     0.010 C 
HETATM    6  C4  UNL     1     -34.818  15.676  -2.725  1.00 20.00     0.012 C 
HETATM    7  C5  UNL     1     -33.304  14.657  -4.452  1.00 20.00     0.012 C 
ENDBRANCH   1   5
BRANCH   1   8
HETATM    8  O8  UNL     1     -35.901  12.644  -4.535  1.00 20.00    -0.391 OA
HETATM    9  H22 UNL     1     -34.998  12.296  -4.582  1.00 20.00     0.210 HD
ENDBRANCH   1   8
TORSDOF 3
ENDMDL
MODEL 6
REMARK VINA RESULT:      -3.8     15.844     16.759
REMARK  3 active torsions:
REMARK  status: ('A' for Active; 'I' for Inactive)
REMARK    1  A    between atoms: C2_2  and  C6_6 
REMARK    2  A    between atoms: C6_6  and  C7_7 
REMARK    3  A    between atoms: C6_6  and  O8_8 
ROOT
HETATM    1  C6  UNL     1     -23.071  17.520  11.836  1.00 20.00     0.144 C 
ENDROOT
BRANCH   1   2
HETATM    2  C2  UNL     1     -24.352  18.138  12.322  1.00 20.00     0.000 C 
HETATM    3  C1  UNL     1     -25.377  18.457  11.517  1.00 20.00    -0.033 C 
HETATM    4  C3  UNL     1     -26.652  19.067  11.995  1.00 20.00     0.036 C 
ENDBRANCH   1   2
BRANCH   1   5
HETATM    5  C7  UNL     1     -22.770  17.747  10.336  1.00 20.00     0.010 C 
HETATM    6  C4  UNL     1     -23.217  16.583   9.444  1.00 20.00     0.012 C 
HETATM    7  C5  UNL     1     -21.293  18.062  10.092  1.00 20.00     0.012 C 
ENDBRANCH   1   5
BRANCH   1   8
HETATM    8  O8  UNL     1     -23.150  16.117  12.097  1.00 20.00    -0.391 OA
HETATM    9  H22 UNL     1     -22.238  15.807  12.200  1.00 20.00     0.210 HD
ENDBRANCH   1   8
TORSDOF 3
ENDMDL
MODEL 7
REMARK VINA RESULT:      -3.8     15.530     16.161
REMARK  3 active torsions:
REMARK  status: ('A' for Active; 'I' for Inactive)
REMARK    1  A    between atoms: C2_2  and  C6_6 
REMARK    2  A    between atoms: C6_6  and  C7_7 
REMARK    3  A    between atoms: C6_6  and  O8_8 
ROOT
HETATM    1  C6  UNL     1     -24.019  18.272  10.400  1.00 20.00     0.144 C 
ENDROOT
BRANCH   1   2
HETATM    2  C2  UNL     1     -22.813  18.240   9.503  1.00 20.00     0.000 C 
HETATM    3  C1  UNL     1     -22.602  17.298   8.572  1.00 20.00    -0.033 C 
HETATM    4  C3  UNL     1     -21.408  17.265   7.677  1.00 20.00     0.036 C 
ENDBRANCH   1   2
BRANCH   1   5
HETATM    5  C7  UNL     1     -23.828  17.574  11.768  1.00 20.00     0.010 C 
HETATM    6  C4  UNL     1     -22.405  17.704  12.322  1.00 20.00     0.012 C 
HETATM    7  C5  UNL     1     -24.246  16.103  11.721  1.00 20.00     0.012 C 
ENDBRANCH   1   5
BRANCH   1   8
HETATM    8  O8  UNL     1     -25.091  17.644   9.694  1.00 20.00    -0.391 OA
HETATM    9  H22 UNL     1     -25.188  18.126   8.859  1.00 20.00     0.210 HD
ENDBRANCH   1   8
TORSDOF 3
ENDMDL
MODEL 8
REMARK VINA RESULT:      -3.8     10.552     11.673
REMARK  3 active torsions:
REMARK  status: ('A' for Active; 'I' for Inactive)
REMARK    1  A    between atoms: C2_2  and  C6_6 
REMARK    2  A    between atoms: C6_6  and  C7_7 
REMARK    3  A    between atoms: C6_6  and  O8_8 
ROOT
HETATM    1  C6  UNL     1     -35.226  14.040  -4.673  1.00 20.00     0.144 C 
ENDROOT
BRANCH   1   2
HETATM    2  C2  UNL     1     -35.593  14.929  -3.519  1.00 20.00     0.000 C 
HETATM    3  C1  UNL     1     -34.693  15.574  -2.760  1.00 20.00    -0.033 C 
HETATM    4  C3  UNL     1     -35.053  16.460  -1.615  1.00 20.00     0.036 C 
ENDBRANCH   1   2
BRANCH   1   5
HETATM    5  C7  UNL     1     -35.533  14.631  -6.070  1.00 20.00     0.010 C 
HETATM    6  C4  UNL     1     -34.284  15.136  -6.803  1.00 20.00     0.012 C 
HETATM    7  C5  UNL     1     -36.589  15.736  -6.001  1.00 20.00     0.012 C 
ENDBRANCH   1   5
BRANCH   1   8
HETATM    8  O8  UNL     1     -35.942  12.814  -4.511  1.00 20.00    -0.391 OA
HETATM    9  H22 UNL     1     -35.439  12.138  -4.988  1.00 20.00     0.210 HD
ENDBRANCH   1   8
TORSDOF 3
ENDMDL
MODEL 9
REMARK VINA RESULT:      -3.8     10.608     11.605
REMARK  3 active torsions:
REMARK  status: ('A' for Active; 'I' for Inactive)
REMARK    1  A    between atoms: C2_2  and  C6_6 
REMARK    2  A    between atoms: C6_6  and  C7_7 
REMARK    3  A    between atoms: C6_6  and  O8_8 
ROOT
HETATM    1  C6  UNL     1     -33.528  14.779  -4.198  1.00 20.00     0.144 C 
ENDROOT
BRANCH   1   2
HETATM    2  C2  UNL     1     -34.284  15.155  -5.441  1.00 20.00     0.000 C 
HETATM    3  C1  UNL     1     -33.780  15.048  -6.680  1.00 20.00    -0.033 C 
HETATM    4  C3  UNL     1     -34.529  15.417  -7.917  1.00 20.00     0.036 C 
ENDBRANCH   1   2
BRANCH   1   5
HETATM    5  C7  UNL     1     -33.563  15.840  -3.072  1.00 20.00     0.010 C 
HETATM    6  C4  UNL     1     -34.902  15.893  -2.329  1.00 20.00     0.012 C 
HETATM    7  C5  UNL     1     -33.188  17.231  -3.588  1.00 20.00     0.012 C 
ENDBRANCH   1   5
BRANCH   1   8
HETATM    8  O8  UNL     1     -32.172  14.539  -4.581  1.00 20.00    -0.391 OA
HETATM    9  H22 UNL     1     -31.629  15.153  -4.065  1.00 20.00     0.210 HD
ENDBRANCH   1   8
TORSDOF 3
ENDMDL
