MODEL 1
REMARK VINA RESULT:      -3.6      0.000      0.000
REMARK  4 active torsions:
REMARK  status: ('A' for Active; 'I' for Inactive)
REMARK    1  A    between atoms: C5_5  and  C7_7 
REMARK    2  A    between atoms: C5_5  and  C8_8 
REMARK    3  A    between atoms: C6_6  and  C7_7 
REMARK    4  A    between atoms: C6_6  and  S9_9 
ROOT
HETATM    1  C5  UNL     1     -24.283  17.398  10.060  1.00 20.00     0.013 C 
ENDROOT
BRANCH   1   2
HETATM    2  C7  UNL     1     -24.042  18.766   9.374  1.00 20.00    -0.009 C 
HETATM    3  C1  UNL     1     -24.978  19.044   8.197  1.00 20.00     0.011 C 
BRANCH   2   4
HETATM    4  C6  UNL     1     -22.561  18.932   8.956  1.00 20.00     0.075 C 
BRANCH   4   5
HETATM    5  S9  UNL     1     -21.666  17.387   8.592  1.00 20.00    -0.182 SA
HETATM    6  H27 UNL     1     -22.722  16.734   8.088  1.00 20.00     0.101 HD
ENDBRANCH   4   5
ENDBRANCH   2   4
ENDBRANCH   1   2
BRANCH   1   7
HETATM    7  C8  UNL     1     -24.431  17.337  11.610  1.00 20.00    -0.051 C 
HETATM    8  C2  UNL     1     -23.144  17.761  12.332  1.00 20.00     0.014 C 
HETATM    9  C3  UNL     1     -25.609  18.189  12.111  1.00 20.00     0.014 C 
HETATM   10  C4  UNL     1     -24.736  15.869  11.991  1.00 20.00     0.014 C 
ENDBRANCH   1   7
TORSDOF 4
ENDMDL
MODEL 2
REMARK VINA RESULT:      -3.4     15.671     17.647
REMARK  4 active torsions:
REMARK  status: ('A' for Active; 'I' for Inactive)
REMARK    1  A    between atoms: C5_5  and  C7_7 
REMARK    2  A    between atoms: C5_5  and  C8_8 
REMARK    3  A    between atoms: C6_6  and  C7_7 
REMARK    4  A    between atoms: C6_6  and  S9_9 
ROOT
HETATM    1  C5  UNL     1     -34.420  16.301  -3.864  1.00 20.00     0.013 C 
ENDROOT
BRANCH   1   2
HETATM    2  C7  UNL     1     -33.966  16.383  -2.385  1.00 20.00    -0.009 C 
HETATM    3  C1  UNL     1     -35.115  16.575  -1.392  1.00 20.00     0.011 C 
BRANCH   2   4
HETATM    4  C6  UNL     1     -32.878  17.466  -2.190  1.00 20.00     0.075 C 
BRANCH   4   5
HETATM    5  S9  UNL     1     -32.858  18.798  -3.433  1.00 20.00    -0.182 SA
HETATM    6  H27 UNL     1     -32.026  18.178  -4.282  1.00 20.00     0.101 HD
ENDBRANCH   4   5
ENDBRANCH   2   4
ENDBRANCH   1   2
BRANCH   1   7
HETATM    7  C8  UNL     1     -34.291  14.949  -4.628  1.00 20.00    -0.051 C 
HETATM    8  C2  UNL     1     -35.294  13.901  -4.124  1.00 20.00     0.014 C 
HETATM    9  C3  UNL     1     -34.450  15.128  -6.147  1.00 20.00     0.014 C 
HETATM   10  C4  UNL     1     -32.863  14.409  -4.379  1.00 20.00     0.014 C 
ENDBRANCH   1   7
TORSDOF 4
ENDMDL
MODEL 3
REMARK VINA RESULT:      -3.4     16.353     18.004
REMARK  4 active torsions:
REMARK  status: ('A' for Active; 'I' for Inactive)
REMARK    1  A    between atoms: C5_5  and  C7_7 
REMARK    2  A    between atoms: C5_5  and  C8_8 
REMARK    3  A    between atoms: C6_6  and  C7_7 
REMARK    4  A    between atoms: C6_6  and  S9_9 
ROOT
HETATM    1  C5  UNL     1     -34.573  15.238  -3.015  1.00 20.00     0.013 C 
ENDROOT
BRANCH   1   2
HETATM    2  C7  UNL     1     -35.110  14.958  -4.441  1.00 20.00    -0.009 C 
HETATM    3  C1  UNL     1     -36.074  13.773  -4.520  1.00 20.00     0.011 C 
BRANCH   2   4
HETATM    4  C6  UNL     1     -33.952  14.801  -5.456  1.00 20.00     0.075 C 
BRANCH   4   5
HETATM    5  S9  UNL     1     -34.291  15.408  -7.140  1.00 20.00    -0.182 SA
HETATM    6  H27 UNL     1     -35.391  14.667  -7.332  1.00 20.00     0.101 HD
ENDBRANCH   4   5
ENDBRANCH   2   4
ENDBRANCH   1   2
BRANCH   1   7
HETATM    7  C8  UNL     1     -34.483  16.709  -2.508  1.00 20.00    -0.051 C 
HETATM    8  C2  UNL     1     -33.029  17.181  -2.355  1.00 20.00     0.014 C 
HETATM    9  C3  UNL     1     -35.247  17.681  -3.422  1.00 20.00     0.014 C 
HETATM   10  C4  UNL     1     -35.157  16.765  -1.117  1.00 20.00     0.014 C 
ENDBRANCH   1   7
TORSDOF 4
ENDMDL
MODEL 4
REMARK VINA RESULT:      -3.4     15.678     17.633
REMARK  4 active torsions:
REMARK  status: ('A' for Active; 'I' for Inactive)
REMARK    1  A    between atoms: C5_5  and  C7_7 
REMARK    2  A    between atoms: C5_5  and  C8_8 
REMARK    3  A    between atoms: C6_6  and  C7_7 
REMARK    4  A    between atoms: C6_6  and  S9_9 
ROOT
HETATM    1  C5  UNL     1     -34.496  16.296  -3.810  1.00 20.00     0.013 C 
ENDROOT
BRANCH   1   2
HETATM    2  C7  UNL     1     -34.013  16.387  -2.341  1.00 20.00    -0.009 C 
HETATM    3  C1  UNL     1     -35.140  16.607  -1.330  1.00 20.00     0.011 C 
BRANCH   2   4
HETATM    4  C6  UNL     1     -32.905  17.455  -2.179  1.00 20.00     0.075 C 
BRANCH   4   5
HETATM    5  S9  UNL     1     -32.858  18.745  -3.464  1.00 20.00    -0.182 SA
HETATM    6  H27 UNL     1     -31.522  18.792  -3.560  1.00 20.00     0.101 HD
ENDBRANCH   4   5
ENDBRANCH   2   4
ENDBRANCH   1   2
BRANCH   1   7
HETATM    7  C8  UNL     1     -34.245  14.985  -4.616  1.00 20.00    -0.051 C 
HETATM    8  C2  UNL     1     -34.477  15.177  -6.122  1.00 20.00     0.014 C 
HETATM    9  C3  UNL     1     -32.833  14.423  -4.378  1.00 20.00     0.014 C 
HETATM   10  C4  UNL     1     -35.249  13.925  -4.105  1.00 20.00     0.014 C 
ENDBRANCH   1   7
TORSDOF 4
ENDMDL
MODEL 5
REMARK VINA RESULT:      -3.4     15.426     17.305
REMARK  4 active torsions:
REMARK  status: ('A' for Active; 'I' for Inactive)
REMARK    1  A    between atoms: C5_5  and  C7_7 
REMARK    2  A    between atoms: C5_5  and  C8_8 
REMARK    3  A    between atoms: C6_6  and  C7_7 
REMARK    4  A    between atoms: C6_6  and  S9_9 
ROOT
HETATM    1  C5  UNL     1     -34.654  15.537  -2.550  1.00 20.00     0.013 C 
ENDROOT
BRANCH   1   2
HETATM    2  C7  UNL     1     -34.435  17.025  -2.177  1.00 20.00    -0.009 C 
HETATM    3  C1  UNL     1     -32.965  17.414  -2.010  1.00 20.00     0.011 C 
BRANCH   2   4
HETATM    4  C6  UNL     1     -35.259  17.418  -0.927  1.00 20.00     0.075 C 
BRANCH   4   5
HETATM    5  S9  UNL     1     -34.317  18.187   0.430  1.00 20.00    -0.182 SA
HETATM    6  H27 UNL     1     -34.626  17.264   1.350  1.00 20.00     0.101 HD
ENDBRANCH   4   5
ENDBRANCH   2   4
ENDBRANCH   1   2
BRANCH   1   7
HETATM    7  C8  UNL     1     -34.554  15.102  -4.043  1.00 20.00    -0.051 C 
HETATM    8  C2  UNL     1     -34.913  16.246  -5.005  1.00 20.00     0.014 C 
HETATM    9  C3  UNL     1     -33.161  14.552  -4.392  1.00 20.00     0.014 C 
HETATM   10  C4  UNL     1     -35.566  13.953  -4.262  1.00 20.00     0.014 C 
ENDBRANCH   1   7
TORSDOF 4
ENDMDL
MODEL 6
REMARK VINA RESULT:      -3.3     15.441     17.459
REMARK  4 active torsions:
REMARK  status: ('A' for Active; 'I' for Inactive)
REMARK    1  A    between atoms: C5_5  and  C7_7 
REMARK    2  A    between atoms: C5_5  and  C8_8 
REMARK    3  A    between atoms: C6_6  and  C7_7 
REMARK    4  A    between atoms: C6_6  and  S9_9 
ROOT
HETATM    1  C5  UNL     1     -34.720  15.618  -2.541  1.00 20.00     0.013 C 
ENDROOT
BRANCH   1   2
HETATM    2  C7  UNL     1     -34.546  17.134  -2.276  1.00 20.00    -0.009 C 
HETATM    3  C1  UNL     1     -33.160  17.518  -1.753  1.00 20.00     0.011 C 
BRANCH   2   4
HETATM    4  C6  UNL     1     -35.659  17.674  -1.346  1.00 20.00     0.075 C 
BRANCH   4   5
HETATM    5  S9  UNL     1     -35.422  17.360   0.433  1.00 20.00    -0.182 SA
HETATM    6  H27 UNL     1     -34.252  16.719   0.303  1.00 20.00     0.101 HD
ENDBRANCH   4   5
ENDBRANCH   2   4
ENDBRANCH   1   2
BRANCH   1   7
HETATM    7  C8  UNL     1     -34.653  15.086  -4.005  1.00 20.00    -0.051 C 
HETATM    8  C2  UNL     1     -35.541  13.850  -4.213  1.00 20.00     0.014 C 
HETATM    9  C3  UNL     1     -35.029  16.170  -5.029  1.00 20.00     0.014 C 
HETATM   10  C4  UNL     1     -33.187  14.681  -4.286  1.00 20.00     0.014 C 
ENDBRANCH   1   7
TORSDOF 4
ENDMDL
MODEL 7
REMARK VINA RESULT:      -3.2     16.148     17.677
REMARK  4 active torsions:
REMARK  status: ('A' for Active; 'I' for Inactive)
REMARK    1  A    between atoms: C5_5  and  C7_7 
REMARK    2  A    between atoms: C5_5  and  C8_8 
REMARK    3  A    between atoms: C6_6  and  C7_7 
REMARK    4  A    between atoms: C6_6  and  S9_9 
ROOT
HETATM    1  C5  UNL     1     -34.510  16.334  -3.801  1.00 20.00     0.013 C 
ENDROOT
BRANCH   1   2
HETATM    2  C7  UNL     1     -34.206  14.818  -3.698  1.00 20.00    -0.009 C 
HETATM    3  C1  UNL     1     -32.934  14.389  -4.431  1.00 20.00     0.011 C 
BRANCH   2   4
HETATM    4  C6  UNL     1     -35.420  13.970  -4.148  1.00 20.00     0.075 C 
BRANCH   4   5
HETATM    5  S9  UNL     1     -37.002  14.864  -4.283  1.00 20.00    -0.182 SA
HETATM    6  H27 UNL     1     -37.753  13.892  -3.748  1.00 20.00     0.101 HD
ENDBRANCH   4   5
ENDBRANCH   2   4
ENDBRANCH   1   2
BRANCH   1   7
HETATM    7  C8  UNL     1     -34.424  17.218  -2.521  1.00 20.00    -0.051 C 
HETATM    8  C2  UNL     1     -35.005  18.622  -2.746  1.00 20.00     0.014 C 
HETATM    9  C3  UNL     1     -35.119  16.560  -1.317  1.00 20.00     0.014 C 
HETATM   10  C4  UNL     1     -32.928  17.368  -2.158  1.00 20.00     0.014 C 
ENDBRANCH   1   7
TORSDOF 4
ENDMDL
MODEL 8
REMARK VINA RESULT:      -3.2     23.870     24.801
REMARK  4 active torsions:
REMARK  status: ('A' for Active; 'I' for Inactive)
REMARK    1  A    between atoms: C5_5  and  C7_7 
REMARK    2  A    between atoms: C5_5  and  C8_8 
REMARK    3  A    between atoms: C6_6  and  C7_7 
REMARK    4  A    between atoms: C6_6  and  S9_9 
ROOT
HETATM    1  C5  UNL     1     -42.559   6.721  -1.179  1.00 20.00     0.013 C 
ENDROOT
BRANCH   1   2
HETATM    2  C7  UNL     1     -42.375   5.183  -1.150  1.00 20.00    -0.009 C 
HETATM    3  C1  UNL     1     -40.928   4.727  -1.349  1.00 20.00     0.011 C 
BRANCH   2   4
HETATM    4  C6  UNL     1     -43.320   4.486  -2.158  1.00 20.00     0.075 C 
BRANCH   4   5
HETATM    5  S9  UNL     1     -42.615   3.057  -3.042  1.00 20.00    -0.182 SA
HETATM    6  H27 UNL     1     -42.364   3.714  -4.183  1.00 20.00     0.101 HD
ENDBRANCH   4   5
ENDBRANCH   2   4
ENDBRANCH   1   2
BRANCH   1   7
HETATM    7  C8  UNL     1     -42.687   7.499   0.166  1.00 20.00    -0.051 C 
HETATM    8  C2  UNL     1     -43.416   8.840  -0.007  1.00 20.00     0.014 C 
HETATM    9  C3  UNL     1     -43.390   6.665   1.250  1.00 20.00     0.014 C 
HETATM   10  C4  UNL     1     -41.255   7.791   0.673  1.00 20.00     0.014 C 
ENDBRANCH   1   7
TORSDOF 4
ENDMDL
MODEL 9
REMARK VINA RESULT:      -3.2     17.033     18.663
REMARK  4 active torsions:
REMARK  status: ('A' for Active; 'I' for Inactive)
REMARK    1  A    between atoms: C5_5  and  C7_7 
REMARK    2  A    between atoms: C5_5  and  C8_8 
REMARK    3  A    between atoms: C6_6  and  C7_7 
REMARK    4  A    between atoms: C6_6  and  S9_9 
ROOT
HETATM    1  C5  UNL     1     -34.805  16.483  -4.820  1.00 20.00     0.013 C 
ENDROOT
BRANCH   1   2
HETATM    2  C7  UNL     1     -34.569  15.580  -6.057  1.00 20.00    -0.009 C 
HETATM    3  C1  UNL     1     -34.297  16.353  -7.348  1.00 20.00     0.011 C 
BRANCH   2   4
HETATM    4  C6  UNL     1     -35.728  14.572  -6.247  1.00 20.00     0.075 C 
BRANCH   4   5
HETATM    5  S9  UNL     1     -36.384  13.825  -4.720  1.00 20.00    -0.182 SA
HETATM    6  H27 UNL     1     -35.806  12.629  -4.895  1.00 20.00     0.101 HD
ENDBRANCH   4   5
ENDBRANCH   2   4
ENDBRANCH   1   2
BRANCH   1   7
HETATM    7  C8  UNL     1     -33.842  16.372  -3.599  1.00 20.00    -0.051 C 
HETATM    8  C2  UNL     1     -33.011  17.648  -3.400  1.00 20.00     0.014 C 
HETATM    9  C3  UNL     1     -34.594  16.038  -2.300  1.00 20.00     0.014 C 
HETATM   10  C4  UNL     1     -32.870  15.202  -3.878  1.00 20.00     0.014 C 
ENDBRANCH   1   7
TORSDOF 4
ENDMDL
