MODEL 1
REMARK VINA RESULT:      -4.7      0.000      0.000
REMARK  5 active torsions:
REMARK  status: ('A' for Active; 'I' for Inactive)
REMARK    1  A    between atoms: C1_1  and  C4_4 
REMARK    2  A    between atoms: C2_2  and  C7_7 
REMARK    3  A    between atoms: C7_7  and  C9_9 
REMARK    4  A    between atoms: C8_8  and  C9_9 
REMARK    5  A    between atoms: C9_9  and  O10_10 
ROOT
HETATM    1  C7  UNL     1     -33.566   5.218   3.643  1.00 20.00     0.126 C 
ENDROOT
BRANCH   1   2
HETATM    2  C2  UNL     1     -33.193   6.273   2.688  1.00 20.00    -0.099 C 
HETATM    3  C1  UNL     1     -32.890   7.136   1.908  1.00 20.00    -0.072 C 
BRANCH   3   4
HETATM    4  C4  UNL     1     -32.534   8.159   0.979  1.00 20.00    -0.018 C 
HETATM    5  C3  UNL     1     -31.679   7.874  -0.014  1.00 20.00     0.028 C 
HETATM    6  C5  UNL     1     -33.127   9.527   1.144  1.00 20.00     0.057 C 
ENDBRANCH   3   4
ENDBRANCH   1   2
BRANCH   1   7
HETATM    7  C9  UNL     1     -34.812   5.565   4.467  1.00 20.00     0.129 C 
BRANCH   7   8
HETATM    8  C8  UNL     1     -34.502   5.874   5.937  1.00 20.00     0.028 C 
HETATM    9  C6  UNL     1     -33.657   7.131   6.093  1.00 20.00     0.007 C 
ENDBRANCH   7   8
BRANCH   7  10
HETATM   10  O10 UNL     1     -35.753   4.496   4.396  1.00 20.00    -0.395 OA
HETATM   11  H24 UNL     1     -36.010   4.294   5.309  1.00 20.00     0.210 HD
ENDBRANCH   7  10
ENDBRANCH   1   7
TORSDOF 5
ENDMDL
MODEL 2
REMARK VINA RESULT:      -4.6      0.081      1.112
REMARK  5 active torsions:
REMARK  status: ('A' for Active; 'I' for Inactive)
REMARK    1  A    between atoms: C1_1  and  C4_4 
REMARK    2  A    between atoms: C2_2  and  C7_7 
REMARK    3  A    between atoms: C7_7  and  C9_9 
REMARK    4  A    between atoms: C8_8  and  C9_9 
REMARK    5  A    between atoms: C9_9  and  O10_10 
ROOT
HETATM    1  C7  UNL     1     -33.585   5.191   3.572  1.00 20.00     0.126 C 
ENDROOT
BRANCH   1   2
HETATM    2  C2  UNL     1     -33.211   6.265   2.639  1.00 20.00    -0.099 C 
HETATM    3  C1  UNL     1     -32.905   7.143   1.877  1.00 20.00    -0.072 C 
BRANCH   3   4
HETATM    4  C4  UNL     1     -32.547   8.184   0.970  1.00 20.00    -0.018 C 
HETATM    5  C3  UNL     1     -33.085   9.403   1.126  1.00 20.00     0.028 C 
HETATM    6  C5  UNL     1     -31.578   7.882  -0.135  1.00 20.00     0.057 C 
ENDBRANCH   3   4
ENDBRANCH   1   2
BRANCH   1   7
HETATM    7  C9  UNL     1     -34.793   5.549   4.447  1.00 20.00     0.129 C 
BRANCH   7   8
HETATM    8  C8  UNL     1     -34.424   5.821   5.911  1.00 20.00     0.028 C 
HETATM    9  C6  UNL     1     -33.686   7.143   6.079  1.00 20.00     0.007 C 
ENDBRANCH   7   8
BRANCH   7  10
HETATM   10  O10 UNL     1     -35.760   4.502   4.390  1.00 20.00    -0.395 OA
HETATM   11  H24 UNL     1     -36.548   4.878   3.969  1.00 20.00     0.210 HD
ENDBRANCH   7  10
ENDBRANCH   1   7
TORSDOF 5
ENDMDL
MODEL 3
REMARK VINA RESULT:      -4.4     11.382     12.206
REMARK  5 active torsions:
REMARK  status: ('A' for Active; 'I' for Inactive)
REMARK    1  A    between atoms: C1_1  and  C4_4 
REMARK    2  A    between atoms: C2_2  and  C7_7 
REMARK    3  A    between atoms: C7_7  and  C9_9 
REMARK    4  A    between atoms: C8_8  and  C9_9 
REMARK    5  A    between atoms: C9_9  and  O10_10 
ROOT
HETATM    1  C7  UNL     1     -33.564  14.579  -4.443  1.00 20.00     0.126 C 
ENDROOT
BRANCH   1   2
HETATM    2  C2  UNL     1     -33.466  15.654  -3.444  1.00 20.00    -0.099 C 
HETATM    3  C1  UNL     1     -33.386  16.531  -2.626  1.00 20.00    -0.072 C 
BRANCH   3   4
HETATM    4  C4  UNL     1     -33.296  17.574  -1.656  1.00 20.00    -0.018 C 
HETATM    5  C3  UNL     1     -32.217  18.370  -1.647  1.00 20.00     0.028 C 
HETATM    6  C5  UNL     1     -34.416  17.748  -0.673  1.00 20.00     0.057 C 
ENDBRANCH   3   4
ENDBRANCH   1   2
BRANCH   1   7
HETATM    7  C9  UNL     1     -34.139  15.054  -5.783  1.00 20.00     0.129 C 
BRANCH   7   8
HETATM    8  C8  UNL     1     -35.589  14.615  -6.013  1.00 20.00     0.028 C 
HETATM    9  C6  UNL     1     -36.117  13.758  -4.870  1.00 20.00     0.007 C 
ENDBRANCH   7   8
BRANCH   7  10
HETATM   10  O10 UNL     1     -33.325  14.580  -6.855  1.00 20.00    -0.395 OA
HETATM   11  H24 UNL     1     -32.505  15.096  -6.827  1.00 20.00     0.210 HD
ENDBRANCH   7  10
ENDBRANCH   1   7
TORSDOF 5
ENDMDL
MODEL 4
REMARK VINA RESULT:      -4.3     10.572     11.775
REMARK  5 active torsions:
REMARK  status: ('A' for Active; 'I' for Inactive)
REMARK    1  A    between atoms: C1_1  and  C4_4 
REMARK    2  A    between atoms: C2_2  and  C7_7 
REMARK    3  A    between atoms: C7_7  and  C9_9 
REMARK    4  A    between atoms: C8_8  and  C9_9 
REMARK    5  A    between atoms: C9_9  and  O10_10 
ROOT
HETATM    1  C7  UNL     1     -33.174  15.802  -3.460  1.00 20.00     0.126 C 
ENDROOT
BRANCH   1   2
HETATM    2  C2  UNL     1     -34.078  16.355  -2.439  1.00 20.00    -0.099 C 
HETATM    3  C1  UNL     1     -34.815  16.807  -1.604  1.00 20.00    -0.072 C 
BRANCH   3   4
HETATM    4  C4  UNL     1     -35.692  17.338  -0.611  1.00 20.00    -0.018 C 
HETATM    5  C3  UNL     1     -35.390  17.174   0.685  1.00 20.00     0.028 C 
HETATM    6  C5  UNL     1     -36.929  18.063  -1.050  1.00 20.00     0.057 C 
ENDBRANCH   3   4
ENDBRANCH   1   2
BRANCH   1   7
HETATM    7  C9  UNL     1     -33.901  14.956  -4.512  1.00 20.00     0.129 C 
BRANCH   7   8
HETATM    8  C8  UNL     1     -34.787  13.861  -3.906  1.00 20.00     0.028 C 
HETATM    9  C6  UNL     1     -36.140  13.770  -4.600  1.00 20.00     0.007 C 
ENDBRANCH   7   8
BRANCH   7  10
HETATM   10  O10 UNL     1     -32.952  14.362  -5.396  1.00 20.00    -0.395 OA
HETATM   11  H24 UNL     1     -33.432  13.688  -5.902  1.00 20.00     0.210 HD
ENDBRANCH   7  10
ENDBRANCH   1   7
TORSDOF 5
ENDMDL
MODEL 5
REMARK VINA RESULT:      -4.3     10.553     11.833
REMARK  5 active torsions:
REMARK  status: ('A' for Active; 'I' for Inactive)
REMARK    1  A    between atoms: C1_1  and  C4_4 
REMARK    2  A    between atoms: C2_2  and  C7_7 
REMARK    3  A    between atoms: C7_7  and  C9_9 
REMARK    4  A    between atoms: C8_8  and  C9_9 
REMARK    5  A    between atoms: C9_9  and  O10_10 
ROOT
HETATM    1  C7  UNL     1     -35.141  13.614  -4.168  1.00 20.00     0.126 C 
ENDROOT
BRANCH   1   2
HETATM    2  C2  UNL     1     -34.829  14.766  -3.308  1.00 20.00    -0.099 C 
HETATM    3  C1  UNL     1     -34.576  15.707  -2.605  1.00 20.00    -0.072 C 
BRANCH   3   4
HETATM    4  C4  UNL     1     -34.275  16.828  -1.775  1.00 20.00    -0.018 C 
HETATM    5  C3  UNL     1     -35.141  17.185  -0.816  1.00 20.00     0.028 C 
HETATM    6  C5  UNL     1     -32.995  17.576  -2.004  1.00 20.00     0.057 C 
ENDBRANCH   3   4
ENDBRANCH   1   2
BRANCH   1   7
HETATM    7  C9  UNL     1     -36.318  13.872  -5.116  1.00 20.00     0.129 C 
BRANCH   7   8
HETATM    8  C8  UNL     1     -36.234  15.222  -5.838  1.00 20.00     0.028 C 
HETATM    9  C6  UNL     1     -35.300  15.171  -7.040  1.00 20.00     0.007 C 
ENDBRANCH   7   8
BRANCH   7  10
HETATM   10  O10 UNL     1     -37.547  13.797  -4.394  1.00 20.00    -0.395 OA
HETATM   11  H24 UNL     1     -37.360  13.300  -3.583  1.00 20.00     0.210 HD
ENDBRANCH   7  10
ENDBRANCH   1   7
TORSDOF 5
ENDMDL
MODEL 6
REMARK VINA RESULT:      -4.3     10.828     11.948
REMARK  5 active torsions:
REMARK  status: ('A' for Active; 'I' for Inactive)
REMARK    1  A    between atoms: C1_1  and  C4_4 
REMARK    2  A    between atoms: C2_2  and  C7_7 
REMARK    3  A    between atoms: C7_7  and  C9_9 
REMARK    4  A    between atoms: C8_8  and  C9_9 
REMARK    5  A    between atoms: C9_9  and  O10_10 
ROOT
HETATM    1  C7  UNL     1     -34.794  14.566  -3.793  1.00 20.00     0.126 C 
ENDROOT
BRANCH   1   2
HETATM    2  C2  UNL     1     -34.773  15.549  -2.699  1.00 20.00    -0.099 C 
HETATM    3  C1  UNL     1     -34.757  16.353  -1.805  1.00 20.00    -0.072 C 
BRANCH   3   4
HETATM    4  C4  UNL     1     -34.735  17.311  -0.748  1.00 20.00    -0.018 C 
HETATM    5  C3  UNL     1     -35.776  17.383   0.093  1.00 20.00     0.028 C 
HETATM    6  C5  UNL     1     -33.544  18.213  -0.612  1.00 20.00     0.057 C 
ENDBRANCH   3   4
ENDBRANCH   1   2
BRANCH   1   7
HETATM    7  C9  UNL     1     -33.570  14.661  -4.711  1.00 20.00     0.129 C 
BRANCH   7   8
HETATM    8  C8  UNL     1     -33.929  14.917  -6.179  1.00 20.00     0.028 C 
HETATM    9  C6  UNL     1     -35.421  14.756  -6.441  1.00 20.00     0.007 C 
ENDBRANCH   7   8
BRANCH   7  10
HETATM   10  O10 UNL     1     -32.798  13.465  -4.615  1.00 20.00    -0.395 OA
HETATM   11  H24 UNL     1     -32.375  13.480  -3.742  1.00 20.00     0.210 HD
ENDBRANCH   7  10
ENDBRANCH   1   7
TORSDOF 5
ENDMDL
MODEL 7
REMARK VINA RESULT:      -4.1     11.209     12.057
REMARK  5 active torsions:
REMARK  status: ('A' for Active; 'I' for Inactive)
REMARK    1  A    between atoms: C1_1  and  C4_4 
REMARK    2  A    between atoms: C2_2  and  C7_7 
REMARK    3  A    between atoms: C7_7  and  C9_9 
REMARK    4  A    between atoms: C8_8  and  C9_9 
REMARK    5  A    between atoms: C9_9  and  O10_10 
ROOT
HETATM    1  C7  UNL     1     -32.320  18.573  -1.593  1.00 20.00     0.126 C 
ENDROOT
BRANCH   1   2
HETATM    2  C2  UNL     1     -32.913  17.411  -2.272  1.00 20.00    -0.099 C 
HETATM    3  C1  UNL     1     -33.396  16.461  -2.828  1.00 20.00    -0.072 C 
BRANCH   3   4
HETATM    4  C4  UNL     1     -33.975  15.337  -3.490  1.00 20.00    -0.018 C 
HETATM    5  C3  UNL     1     -35.263  15.037  -3.267  1.00 20.00     0.028 C 
HETATM    6  C5  UNL     1     -33.122  14.522  -4.416  1.00 20.00     0.057 C 
ENDBRANCH   3   4
ENDBRANCH   1   2
BRANCH   1   7
HETATM    7  C9  UNL     1     -31.679  18.220  -0.245  1.00 20.00     0.129 C 
BRANCH   7   8
HETATM    8  C8  UNL     1     -32.270  19.003   0.933  1.00 20.00     0.028 C 
HETATM    9  C6  UNL     1     -31.998  18.322   2.268  1.00 20.00     0.007 C 
ENDBRANCH   7   8
BRANCH   7  10
HETATM   10  O10 UNL     1     -30.272  18.445  -0.304  1.00 20.00    -0.395 OA
HETATM   11  H24 UNL     1     -30.114  19.002  -1.082  1.00 20.00     0.210 HD
ENDBRANCH   7  10
ENDBRANCH   1   7
TORSDOF 5
ENDMDL
MODEL 8
REMARK VINA RESULT:      -4.1      9.653     10.388
REMARK  5 active torsions:
REMARK  status: ('A' for Active; 'I' for Inactive)
REMARK    1  A    between atoms: C1_1  and  C4_4 
REMARK    2  A    between atoms: C2_2  and  C7_7 
REMARK    3  A    between atoms: C7_7  and  C9_9 
REMARK    4  A    between atoms: C8_8  and  C9_9 
REMARK    5  A    between atoms: C9_9  and  O10_10 
ROOT
HETATM    1  C7  UNL     1     -41.122   5.597  -0.862  1.00 20.00     0.126 C 
ENDROOT
BRANCH   1   2
HETATM    2  C2  UNL     1     -41.592   4.544  -1.775  1.00 20.00    -0.099 C 
HETATM    3  C1  UNL     1     -41.977   3.684  -2.522  1.00 20.00    -0.072 C 
BRANCH   3   4
HETATM    4  C4  UNL     1     -42.438   2.662  -3.405  1.00 20.00    -0.018 C 
HETATM    5  C3  UNL     1     -43.406   1.830  -2.995  1.00 20.00     0.028 C 
HETATM    6  C5  UNL     1     -41.820   2.547  -4.767  1.00 20.00     0.057 C 
ENDBRANCH   3   4
ENDBRANCH   1   2
BRANCH   1   7
HETATM    7  C9  UNL     1     -42.109   5.893   0.273  1.00 20.00     0.129 C 
BRANCH   7   8
HETATM    8  C8  UNL     1     -42.050   7.343   0.768  1.00 20.00     0.028 C 
HETATM    9  C6  UNL     1     -41.358   8.261  -0.231  1.00 20.00     0.007 C 
ENDBRANCH   7   8
BRANCH   7  10
HETATM   10  O10 UNL     1     -41.868   5.009   1.367  1.00 20.00    -0.395 OA
HETATM   11  H24 UNL     1     -41.212   4.365   1.061  1.00 20.00     0.210 HD
ENDBRANCH   7  10
ENDBRANCH   1   7
TORSDOF 5
ENDMDL
MODEL 9
REMARK VINA RESULT:      -4.1     10.909     11.803
REMARK  5 active torsions:
REMARK  status: ('A' for Active; 'I' for Inactive)
REMARK    1  A    between atoms: C1_1  and  C4_4 
REMARK    2  A    between atoms: C2_2  and  C7_7 
REMARK    3  A    between atoms: C7_7  and  C9_9 
REMARK    4  A    between atoms: C8_8  and  C9_9 
REMARK    5  A    between atoms: C9_9  and  O10_10 
ROOT
HETATM    1  C7  UNL     1     -36.111  14.847  -3.508  1.00 20.00     0.126 C 
ENDROOT
BRANCH   1   2
HETATM    2  C2  UNL     1     -35.242  15.772  -2.764  1.00 20.00    -0.099 C 
HETATM    3  C1  UNL     1     -34.533  16.529  -2.157  1.00 20.00    -0.072 C 
BRANCH   3   4
HETATM    4  C4  UNL     1     -33.686  17.426  -1.440  1.00 20.00    -0.018 C 
HETATM    5  C3  UNL     1     -32.487  17.744  -1.949  1.00 20.00     0.028 C 
HETATM    6  C5  UNL     1     -34.164  17.986  -0.133  1.00 20.00     0.057 C 
ENDBRANCH   3   4
ENDBRANCH   1   2
BRANCH   1   7
HETATM    7  C9  UNL     1     -35.355  14.028  -4.561  1.00 20.00     0.129 C 
BRANCH   7   8
HETATM    8  C8  UNL     1     -35.483  14.595  -5.980  1.00 20.00     0.028 C 
HETATM    9  C6  UNL     1     -34.147  15.085  -6.524  1.00 20.00     0.007 C 
ENDBRANCH   7   8
BRANCH   7  10
HETATM   10  O10 UNL     1     -35.817  12.678  -4.548  1.00 20.00    -0.395 OA
HETATM   11  H24 UNL     1     -35.691  12.353  -3.643  1.00 20.00     0.210 HD
ENDBRANCH   7  10
ENDBRANCH   1   7
TORSDOF 5
ENDMDL
