MODEL 1
REMARK VINA RESULT:      -4.0      0.000      0.000
REMARK  1 active torsions:
REMARK  status: ('A' for Active; 'I' for Inactive)
REMARK    1  A    between atoms: C2_2  and  C4_4 
ROOT
HETATM    1  C3  UNL     1     -33.990   5.089   3.411  1.00 20.00     0.204 A 
HETATM    2  C4  UNL     1     -35.001   5.025   4.501  1.00 20.00     0.167 A 
HETATM    3  O5  UNL     1     -34.416   3.846   3.980  1.00 20.00    -0.377 OA
ENDROOT
BRANCH   2   4
HETATM    4  C2  UNL     1     -34.605   5.559   5.837  1.00 20.00    -0.003 C 
HETATM    5  C1  UNL     1     -34.074   6.770   6.032  1.00 20.00     0.009 C 
ENDBRANCH   2   4
TORSDOF 1
ENDMDL
MODEL 2
REMARK VINA RESULT:      -3.8      1.565      2.744
REMARK  1 active torsions:
REMARK  status: ('A' for Active; 'I' for Inactive)
REMARK    1  A    between atoms: C2_2  and  C4_4 
ROOT
HETATM    1  C3  UNL     1     -34.780   5.275   6.011  1.00 20.00     0.204 A 
HETATM    2  C4  UNL     1     -34.886   5.559   4.553  1.00 20.00     0.167 A 
HETATM    3  O5  UNL     1     -34.177   6.429   5.415  1.00 20.00    -0.377 OA
ENDROOT
BRANCH   2   4
HETATM    4  C2  UNL     1     -34.169   4.640   3.621  1.00 20.00    -0.003 C 
HETATM    5  C1  UNL     1     -33.417   5.053   2.595  1.00 20.00     0.009 C 
ENDBRANCH   2   4
TORSDOF 1
ENDMDL
MODEL 3
REMARK VINA RESULT:      -3.6      1.587      1.827
REMARK  1 active torsions:
REMARK  status: ('A' for Active; 'I' for Inactive)
REMARK    1  A    between atoms: C2_2  and  C4_4 
ROOT
HETATM    1  C3  UNL     1     -32.760   6.831   3.103  1.00 20.00     0.204 A 
HETATM    2  C4  UNL     1     -34.035   6.519   3.805  1.00 20.00     0.167 A 
HETATM    3  O5  UNL     1     -33.417   5.566   2.960  1.00 20.00    -0.377 OA
ENDROOT
BRANCH   2   4
HETATM    4  C2  UNL     1     -33.985   6.382   5.290  1.00 20.00    -0.003 C 
HETATM    5  C1  UNL     1     -34.697   5.488   5.984  1.00 20.00     0.009 C 
ENDBRANCH   2   4
TORSDOF 1
ENDMDL
MODEL 4
REMARK VINA RESULT:      -3.3     12.535     12.702
REMARK  1 active torsions:
REMARK  status: ('A' for Active; 'I' for Inactive)
REMARK    1  A    between atoms: C2_2  and  C4_4 
ROOT
HETATM    1  C3  UNL     1     -35.988  13.975  -5.558  1.00 20.00     0.204 A 
HETATM    2  C4  UNL     1     -35.966  14.192  -4.086  1.00 20.00     0.167 A 
HETATM    3  O5  UNL     1     -35.962  12.885  -4.629  1.00 20.00    -0.377 OA
ENDROOT
BRANCH   2   4
HETATM    4  C2  UNL     1     -34.730  14.788  -3.498  1.00 20.00    -0.003 C 
HETATM    5  C1  UNL     1     -34.730  15.721  -2.540  1.00 20.00     0.009 C 
ENDBRANCH   2   4
TORSDOF 1
ENDMDL
MODEL 5
REMARK VINA RESULT:      -3.1      8.683      9.051
REMARK  1 active torsions:
REMARK  status: ('A' for Active; 'I' for Inactive)
REMARK    1  A    between atoms: C2_2  and  C4_4 
ROOT
HETATM    1  C3  UNL     1     -42.099   5.602  -1.018  1.00 20.00     0.204 A 
HETATM    2  C4  UNL     1     -41.246   6.595  -0.310  1.00 20.00     0.167 A 
HETATM    3  O5  UNL     1     -40.676   5.627  -1.171  1.00 20.00    -0.377 OA
ENDROOT
BRANCH   2   4
HETATM    4  C2  UNL     1     -41.367   8.024  -0.726  1.00 20.00    -0.003 C 
HETATM    5  C1  UNL     1     -41.526   9.041   0.127  1.00 20.00     0.009 C 
ENDBRANCH   2   4
TORSDOF 1
ENDMDL
MODEL 6
REMARK VINA RESULT:      -3.1      9.223      9.548
REMARK  1 active torsions:
REMARK  status: ('A' for Active; 'I' for Inactive)
REMARK    1  A    between atoms: C2_2  and  C4_4 
ROOT
HETATM    1  C3  UNL     1     -41.356   9.465   0.341  1.00 20.00     0.204 A 
HETATM    2  C4  UNL     1     -41.718   8.022   0.334  1.00 20.00     0.167 A 
HETATM    3  O5  UNL     1     -42.718   9.024   0.333  1.00 20.00    -0.377 OA
ENDROOT
BRANCH   2   4
HETATM    4  C2  UNL     1     -41.406   7.241  -0.899  1.00 20.00    -0.003 C 
HETATM    5  C1  UNL     1     -41.092   5.941  -0.903  1.00 20.00     0.009 C 
ENDBRANCH   2   4
TORSDOF 1
ENDMDL
MODEL 7
REMARK VINA RESULT:      -3.1     18.215     18.549
REMARK  1 active torsions:
REMARK  status: ('A' for Active; 'I' for Inactive)
REMARK    1  A    between atoms: C2_2  and  C4_4 
ROOT
HETATM    1  C3  UNL     1     -22.168  17.731   8.459  1.00 20.00     0.204 A 
HETATM    2  C4  UNL     1     -21.722  17.929   9.865  1.00 20.00     0.167 A 
HETATM    3  O5  UNL     1     -21.779  19.015   8.959  1.00 20.00    -0.377 OA
ENDROOT
BRANCH   2   4
HETATM    4  C2  UNL     1     -22.745  17.765  10.940  1.00 20.00    -0.003 C 
HETATM    5  C1  UNL     1     -22.459  17.719  12.245  1.00 20.00     0.009 C 
ENDBRANCH   2   4
TORSDOF 1
ENDMDL
MODEL 8
REMARK VINA RESULT:      -3.1     12.697     12.962
REMARK  1 active torsions:
REMARK  status: ('A' for Active; 'I' for Inactive)
REMARK    1  A    between atoms: C2_2  and  C4_4 
ROOT
HETATM    1  C3  UNL     1     -34.158  14.860  -5.318  1.00 20.00     0.204 A 
HETATM    2  C4  UNL     1     -34.468  14.599  -3.886  1.00 20.00     0.167 A 
HETATM    3  O5  UNL     1     -33.444  13.884  -4.552  1.00 20.00    -0.377 OA
ENDROOT
BRANCH   2   4
HETATM    4  C2  UNL     1     -34.145  15.678  -2.906  1.00 20.00    -0.003 C 
HETATM    5  C1  UNL     1     -34.996  16.124  -1.977  1.00 20.00     0.009 C 
ENDBRANCH   2   4
TORSDOF 1
ENDMDL
MODEL 9
REMARK VINA RESULT:      -3.0      3.854      4.799
REMARK  1 active torsions:
REMARK  status: ('A' for Active; 'I' for Inactive)
REMARK    1  A    between atoms: C2_2  and  C4_4 
ROOT
HETATM    1  C3  UNL     1     -32.093   7.360   3.263  1.00 20.00     0.204 A 
HETATM    2  C4  UNL     1     -32.357   7.339   1.798  1.00 20.00     0.167 A 
HETATM    3  O5  UNL     1     -33.145   6.574   2.692  1.00 20.00    -0.377 OA
ENDROOT
BRANCH   2   4
HETATM    4  C2  UNL     1     -32.886   8.589   1.178  1.00 20.00    -0.003 C 
HETATM    5  C1  UNL     1     -33.230   8.698  -0.109  1.00 20.00     0.009 C 
ENDBRANCH   2   4
TORSDOF 1
ENDMDL
