MODEL 1
REMARK VINA RESULT:      -4.3      0.000      0.000
REMARK  3 active torsions:
REMARK  status: ('A' for Active; 'I' for Inactive)
REMARK    1  A    between atoms: C1_1  and  C2_2 
REMARK    2  A    between atoms: C3_3  and  C8_8 
REMARK    3  A    between atoms: C8_8  and  C9_9 
ROOT
HETATM    1  C1  UNL     1     -35.625  14.367  -4.635  1.00 20.00     0.043 C 
HETATM    2  C3  UNL     1     -34.543  14.730  -3.922  1.00 20.00    -0.080 C 
HETATM    3  C4  UNL     1     -33.127  14.526  -4.386  1.00 20.00     0.043 C 
ENDROOT
BRANCH   2   4
HETATM    4  C8  UNL     1     -34.727  15.463  -2.603  1.00 20.00     0.042 C 
BRANCH   4   5
HETATM    5  C9  UNL     1     -34.437  16.992  -2.587  1.00 20.00    -0.048 C 
HETATM    6  C5  UNL     1     -32.954  17.272  -2.289  1.00 20.00     0.015 C 
HETATM    7  C6  UNL     1     -34.818  17.664  -3.917  1.00 20.00     0.015 C 
HETATM    8  C7  UNL     1     -35.288  17.626  -1.468  1.00 20.00     0.015 C 
ENDBRANCH   4   5
ENDBRANCH   2   4
BRANCH   1   9
HETATM    9  C2  UNL     1     -37.019  14.567  -4.182  1.00 20.00     0.259 C 
HETATM   10  O10 UNL     1     -37.895  13.740  -4.411  1.00 20.00    -0.302 OA
ENDBRANCH   1   9
TORSDOF 3
ENDMDL
MODEL 2
REMARK VINA RESULT:      -4.2      0.228      1.301
REMARK  3 active torsions:
REMARK  status: ('A' for Active; 'I' for Inactive)
REMARK    1  A    between atoms: C1_1  and  C2_2 
REMARK    2  A    between atoms: C3_3  and  C8_8 
REMARK    3  A    between atoms: C8_8  and  C9_9 
ROOT
HETATM    1  C1  UNL     1     -35.528  14.302  -4.593  1.00 20.00     0.043 C 
HETATM    2  C3  UNL     1     -34.443  14.717  -3.913  1.00 20.00    -0.080 C 
HETATM    3  C4  UNL     1     -33.029  14.491  -4.373  1.00 20.00     0.043 C 
ENDROOT
BRANCH   2   4
HETATM    4  C8  UNL     1     -34.623  15.534  -2.644  1.00 20.00     0.042 C 
BRANCH   4   5
HETATM    5  C9  UNL     1     -34.387  17.070  -2.743  1.00 20.00    -0.048 C 
HETATM    6  C5  UNL     1     -34.509  17.557  -4.197  1.00 20.00     0.015 C 
HETATM    7  C6  UNL     1     -35.370  17.861  -1.864  1.00 20.00     0.015 C 
HETATM    8  C7  UNL     1     -32.956  17.364  -2.248  1.00 20.00     0.015 C 
ENDBRANCH   4   5
ENDBRANCH   2   4
BRANCH   1   9
HETATM    9  C2  UNL     1     -36.919  14.523  -4.144  1.00 20.00     0.259 C 
HETATM   10  O10 UNL     1     -37.821  13.745  -4.435  1.00 20.00    -0.302 OA
ENDBRANCH   1   9
TORSDOF 3
ENDMDL
MODEL 3
REMARK VINA RESULT:      -4.2      1.706      2.171
REMARK  3 active torsions:
REMARK  status: ('A' for Active; 'I' for Inactive)
REMARK    1  A    between atoms: C1_1  and  C2_2 
REMARK    2  A    between atoms: C3_3  and  C8_8 
REMARK    3  A    between atoms: C8_8  and  C9_9 
ROOT
HETATM    1  C1  UNL     1     -35.654  14.476  -6.014  1.00 20.00     0.043 C 
HETATM    2  C3  UNL     1     -35.081  15.691  -5.924  1.00 20.00    -0.080 C 
HETATM    3  C4  UNL     1     -34.405  16.385  -7.075  1.00 20.00     0.043 C 
ENDROOT
BRANCH   2   4
HETATM    4  C8  UNL     1     -35.175  16.469  -4.622  1.00 20.00     0.042 C 
BRANCH   4   5
HETATM    5  C9  UNL     1     -34.010  16.301  -3.602  1.00 20.00    -0.048 C 
HETATM    6  C5  UNL     1     -33.069  15.158  -4.020  1.00 20.00     0.015 C 
HETATM    7  C6  UNL     1     -33.193  17.594  -3.443  1.00 20.00     0.015 C 
HETATM    8  C7  UNL     1     -34.626  15.951  -2.232  1.00 20.00     0.015 C 
ENDBRANCH   4   5
ENDBRANCH   2   4
BRANCH   1   9
HETATM    9  C2  UNL     1     -36.320  13.792  -4.884  1.00 20.00     0.259 C 
HETATM   10  O10 UNL     1     -35.929  12.707  -4.468  1.00 20.00    -0.302 OA
ENDBRANCH   1   9
TORSDOF 3
ENDMDL
MODEL 4
REMARK VINA RESULT:      -4.2      1.722      2.362
REMARK  3 active torsions:
REMARK  status: ('A' for Active; 'I' for Inactive)
REMARK    1  A    between atoms: C1_1  and  C2_2 
REMARK    2  A    between atoms: C3_3  and  C8_8 
REMARK    3  A    between atoms: C8_8  and  C9_9 
ROOT
HETATM    1  C1  UNL     1     -35.635  14.438  -6.038  1.00 20.00     0.043 C 
HETATM    2  C3  UNL     1     -35.057  15.652  -5.967  1.00 20.00    -0.080 C 
HETATM    3  C4  UNL     1     -34.366  16.320  -7.125  1.00 20.00     0.043 C 
ENDROOT
BRANCH   2   4
HETATM    4  C8  UNL     1     -35.159  16.456  -4.681  1.00 20.00     0.042 C 
BRANCH   4   5
HETATM    5  C9  UNL     1     -34.033  16.260  -3.623  1.00 20.00    -0.048 C 
HETATM    6  C5  UNL     1     -34.623  15.943  -2.238  1.00 20.00     0.015 C 
HETATM    7  C6  UNL     1     -33.057  15.141  -4.022  1.00 20.00     0.015 C 
HETATM    8  C7  UNL     1     -33.238  17.578  -3.526  1.00 20.00     0.015 C 
ENDBRANCH   4   5
ENDBRANCH   2   4
BRANCH   1   9
HETATM    9  C2  UNL     1     -36.315  13.779  -4.902  1.00 20.00     0.259 C 
HETATM   10  O10 UNL     1     -35.943  12.694  -4.471  1.00 20.00    -0.302 OA
ENDBRANCH   1   9
TORSDOF 3
ENDMDL
MODEL 5
REMARK VINA RESULT:      -3.9      1.481      2.648
REMARK  3 active torsions:
REMARK  status: ('A' for Active; 'I' for Inactive)
REMARK    1  A    between atoms: C1_1  and  C2_2 
REMARK    2  A    between atoms: C3_3  and  C8_8 
REMARK    3  A    between atoms: C8_8  and  C9_9 
ROOT
HETATM    1  C1  UNL     1     -37.057  14.727  -4.346  1.00 20.00     0.043 C 
HETATM    2  C3  UNL     1     -36.662  16.001  -4.167  1.00 20.00    -0.080 C 
HETATM    3  C4  UNL     1     -37.496  17.047  -3.478  1.00 20.00     0.043 C 
ENDROOT
BRANCH   2   4
HETATM    4  C8  UNL     1     -35.268  16.422  -4.601  1.00 20.00     0.042 C 
BRANCH   4   5
HETATM    5  C9  UNL     1     -34.123  16.293  -3.554  1.00 20.00    -0.048 C 
HETATM    6  C5  UNL     1     -34.684  15.987  -2.154  1.00 20.00     0.015 C 
HETATM    7  C6  UNL     1     -33.111  15.202  -3.940  1.00 20.00     0.015 C 
HETATM    8  C7  UNL     1     -33.377  17.642  -3.498  1.00 20.00     0.015 C 
ENDBRANCH   4   5
ENDBRANCH   2   4
BRANCH   1   9
HETATM    9  C2  UNL     1     -36.239  13.697  -5.023  1.00 20.00     0.259 C 
HETATM   10  O10 UNL     1     -35.875  12.681  -4.442  1.00 20.00    -0.302 OA
ENDBRANCH   1   9
TORSDOF 3
ENDMDL
MODEL 6
REMARK VINA RESULT:      -3.9      1.576      2.026
REMARK  3 active torsions:
REMARK  status: ('A' for Active; 'I' for Inactive)
REMARK    1  A    between atoms: C1_1  and  C2_2 
REMARK    2  A    between atoms: C3_3  and  C8_8 
REMARK    3  A    between atoms: C8_8  and  C9_9 
ROOT
HETATM    1  C1  UNL     1     -34.495  14.478  -3.996  1.00 20.00     0.043 C 
HETATM    2  C3  UNL     1     -34.366  15.564  -3.211  1.00 20.00    -0.080 C 
HETATM    3  C4  UNL     1     -33.064  16.285  -2.987  1.00 20.00     0.043 C 
ENDROOT
BRANCH   2   4
HETATM    4  C8  UNL     1     -35.599  16.171  -2.563  1.00 20.00     0.042 C 
BRANCH   4   5
HETATM    5  C9  UNL     1     -36.195  17.451  -3.218  1.00 20.00    -0.048 C 
HETATM    6  C5  UNL     1     -35.725  18.720  -2.485  1.00 20.00     0.015 C 
HETATM    7  C6  UNL     1     -35.823  17.564  -4.706  1.00 20.00     0.015 C 
HETATM    8  C7  UNL     1     -37.731  17.368  -3.113  1.00 20.00     0.015 C 
ENDBRANCH   4   5
ENDBRANCH   2   4
BRANCH   1   9
HETATM    9  C2  UNL     1     -35.773  13.768  -4.219  1.00 20.00     0.259 C 
HETATM   10  O10 UNL     1     -35.805  12.578  -4.511  1.00 20.00    -0.302 OA
ENDBRANCH   1   9
TORSDOF 3
ENDMDL
MODEL 7
REMARK VINA RESULT:      -3.9      1.178      2.456
REMARK  3 active torsions:
REMARK  status: ('A' for Active; 'I' for Inactive)
REMARK    1  A    between atoms: C1_1  and  C2_2 
REMARK    2  A    between atoms: C3_3  and  C8_8 
REMARK    3  A    between atoms: C8_8  and  C9_9 
ROOT
HETATM    1  C1  UNL     1     -37.331  15.904  -4.028  1.00 20.00     0.043 C 
HETATM    2  C3  UNL     1     -36.488  16.502  -3.166  1.00 20.00    -0.080 C 
HETATM    3  C4  UNL     1     -36.772  17.817  -2.493  1.00 20.00     0.043 C 
ENDROOT
BRANCH   2   4
HETATM    4  C8  UNL     1     -35.203  15.797  -2.765  1.00 20.00     0.042 C 
BRANCH   4   5
HETATM    5  C9  UNL     1     -33.903  16.194  -3.525  1.00 20.00    -0.048 C 
HETATM    6  C5  UNL     1     -33.191  14.953  -4.091  1.00 20.00     0.015 C 
HETATM    7  C6  UNL     1     -34.183  17.179  -4.672  1.00 20.00     0.015 C 
HETATM    8  C7  UNL     1     -32.957  16.883  -2.520  1.00 20.00     0.015 C 
ENDBRANCH   4   5
ENDBRANCH   2   4
BRANCH   1   9
HETATM    9  C2  UNL     1     -37.055  14.612  -4.691  1.00 20.00     0.259 C 
HETATM   10  O10 UNL     1     -37.684  13.597  -4.412  1.00 20.00    -0.302 OA
ENDBRANCH   1   9
TORSDOF 3
ENDMDL
MODEL 8
REMARK VINA RESULT:      -3.9      1.559      2.136
REMARK  3 active torsions:
REMARK  status: ('A' for Active; 'I' for Inactive)
REMARK    1  A    between atoms: C1_1  and  C2_2 
REMARK    2  A    between atoms: C3_3  and  C8_8 
REMARK    3  A    between atoms: C8_8  and  C9_9 
ROOT
HETATM    1  C1  UNL     1     -34.454  14.511  -4.055  1.00 20.00     0.043 C 
HETATM    2  C3  UNL     1     -34.317  15.568  -3.232  1.00 20.00    -0.080 C 
HETATM    3  C4  UNL     1     -33.017  16.291  -3.009  1.00 20.00     0.043 C 
ENDROOT
BRANCH   2   4
HETATM    4  C8  UNL     1     -35.541  16.139  -2.536  1.00 20.00     0.042 C 
BRANCH   4   5
HETATM    5  C9  UNL     1     -36.201  17.399  -3.168  1.00 20.00    -0.048 C 
HETATM    6  C5  UNL     1     -35.765  17.578  -4.633  1.00 20.00     0.015 C 
HETATM    7  C6  UNL     1     -37.737  17.337  -3.105  1.00 20.00     0.015 C 
HETATM    8  C7  UNL     1     -35.738  18.632  -2.366  1.00 20.00     0.015 C 
ENDBRANCH   4   5
ENDBRANCH   2   4
BRANCH   1   9
HETATM    9  C2  UNL     1     -35.731  13.798  -4.277  1.00 20.00     0.259 C 
HETATM   10  O10 UNL     1     -35.771  12.583  -4.434  1.00 20.00    -0.302 OA
ENDBRANCH   1   9
TORSDOF 3
ENDMDL
MODEL 9
REMARK VINA RESULT:      -3.8      2.078      3.039
REMARK  3 active torsions:
REMARK  status: ('A' for Active; 'I' for Inactive)
REMARK    1  A    between atoms: C1_1  and  C2_2 
REMARK    2  A    between atoms: C3_3  and  C8_8 
REMARK    3  A    between atoms: C8_8  and  C9_9 
ROOT
HETATM    1  C1  UNL     1     -35.462  14.690  -6.201  1.00 20.00     0.043 C 
HETATM    2  C3  UNL     1     -35.721  14.613  -4.883  1.00 20.00    -0.080 C 
HETATM    3  C4  UNL     1     -37.071  14.273  -4.313  1.00 20.00     0.043 C 
ENDROOT
BRANCH   2   4
HETATM    4  C8  UNL     1     -34.589  14.796  -3.885  1.00 20.00     0.042 C 
BRANCH   4   5
HETATM    5  C9  UNL     1     -34.484  16.173  -3.166  1.00 20.00    -0.048 C 
HETATM    6  C5  UNL     1     -35.143  17.286  -4.000  1.00 20.00     0.015 C 
HETATM    7  C6  UNL     1     -35.126  16.144  -1.769  1.00 20.00     0.015 C 
HETATM    8  C7  UNL     1     -32.988  16.509  -2.999  1.00 20.00     0.015 C 
ENDBRANCH   4   5
ENDBRANCH   2   4
BRANCH   1   9
HETATM    9  C2  UNL     1     -34.136  15.024  -6.764  1.00 20.00     0.259 C 
HETATM   10  O10 UNL     1     -33.953  16.043  -7.421  1.00 20.00    -0.302 OA
ENDBRANCH   1   9
TORSDOF 3
ENDMDL
