MODEL 1
REMARK VINA RESULT:      -4.7      0.000      0.000
REMARK  1 active torsions:
REMARK  status: ('A' for Active; 'I' for Inactive)
REMARK    1  A    between atoms: C3_3  and  C8_8 
ROOT
HETATM    1  C1  UNL     1     -25.098  19.119   9.117  1.00 20.00     0.048 A 
HETATM    2  C2  UNL     1     -24.605  19.222   7.802  1.00 20.00     0.141 A 
HETATM    3  C3  UNL     1     -24.243  18.240   9.737  1.00 20.00     0.039 A 
HETATM    4  C7  UNL     1     -22.213  16.977   8.960  1.00 20.00     0.179 C 
HETATM    5  N9  UNL     1     -23.520  18.470   7.598  1.00 20.00    -0.185 NA
HETATM    6  N10 UNL     1     -23.324  17.885   8.793  1.00 20.00    -0.278 N 
ENDROOT
BRANCH   3   7
HETATM    7  C8  UNL     1     -24.219  17.698  11.175  1.00 20.00    -0.007 C 
HETATM    8  C4  UNL     1     -24.512  16.182  11.164  1.00 20.00     0.021 C 
HETATM    9  C5  UNL     1     -25.294  18.417  12.020  1.00 20.00     0.021 C 
HETATM   10  C6  UNL     1     -22.866  17.896  11.896  1.00 20.00     0.021 C 
ENDBRANCH   3   7
TORSDOF 1
ENDMDL
MODEL 2
REMARK VINA RESULT:      -4.1     16.700     18.190
REMARK  1 active torsions:
REMARK  status: ('A' for Active; 'I' for Inactive)
REMARK    1  A    between atoms: C3_3  and  C8_8 
ROOT
HETATM    1  C1  UNL     1     -34.962  13.934  -3.999  1.00 20.00     0.048 A 
HETATM    2  C2  UNL     1     -36.075  13.250  -4.524  1.00 20.00     0.141 A 
HETATM    3  C3  UNL     1     -35.453  15.166  -3.641  1.00 20.00     0.039 A 
HETATM    4  C7  UNL     1     -37.733  16.214  -3.772  1.00 20.00     0.179 C 
HETATM    5  N9  UNL     1     -37.189  13.986  -4.502  1.00 20.00    -0.185 NA
HETATM    6  N10 UNL     1     -36.779  15.145  -3.959  1.00 20.00    -0.278 N 
ENDROOT
BRANCH   3   7
HETATM    7  C8  UNL     1     -34.761  16.385  -3.010  1.00 20.00    -0.007 C 
HETATM    8  C4  UNL     1     -33.228  16.207  -3.082  1.00 20.00     0.021 C 
HETATM    9  C5  UNL     1     -35.187  16.517  -1.531  1.00 20.00     0.021 C 
HETATM   10  C6  UNL     1     -35.098  17.725  -3.703  1.00 20.00     0.021 C 
ENDBRANCH   3   7
TORSDOF 1
ENDMDL
MODEL 3
REMARK VINA RESULT:      -4.0      2.204      3.456
REMARK  1 active torsions:
REMARK  status: ('A' for Active; 'I' for Inactive)
REMARK    1  A    between atoms: C3_3  and  C8_8 
ROOT
HETATM    1  C1  UNL     1     -25.709  19.109  10.970  1.00 20.00     0.048 A 
HETATM    2  C2  UNL     1     -26.735  18.661  11.824  1.00 20.00     0.141 A 
HETATM    3  C3  UNL     1     -24.821  18.063  10.922  1.00 20.00     0.039 A 
HETATM    4  C7  UNL     1     -24.781  15.789  11.991  1.00 20.00     0.179 C 
HETATM    5  N9  UNL     1     -26.519  17.426  12.284  1.00 20.00    -0.185 NA
HETATM    6  N10 UNL     1     -25.348  17.089  11.717  1.00 20.00    -0.278 N 
ENDROOT
BRANCH   3   7
HETATM    7  C8  UNL     1     -23.489  17.903  10.171  1.00 20.00    -0.007 C 
HETATM    8  C4  UNL     1     -22.318  17.936  11.177  1.00 20.00     0.021 C 
HETATM    9  C5  UNL     1     -23.320  19.056   9.157  1.00 20.00     0.021 C 
HETATM   10  C6  UNL     1     -23.373  16.580   9.379  1.00 20.00     0.021 C 
ENDBRANCH   3   7
TORSDOF 1
ENDMDL
MODEL 4
REMARK VINA RESULT:      -3.9     16.732     18.280
REMARK  1 active torsions:
REMARK  status: ('A' for Active; 'I' for Inactive)
REMARK    1  A    between atoms: C3_3  and  C8_8 
ROOT
HETATM    1  C1  UNL     1     -36.288  14.641  -3.718  1.00 20.00     0.048 A 
HETATM    2  C2  UNL     1     -36.792  13.861  -4.776  1.00 20.00     0.141 A 
HETATM    3  C3  UNL     1     -35.150  15.216  -4.227  1.00 20.00     0.039 A 
HETATM    4  C7  UNL     1     -34.010  15.090  -6.464  1.00 20.00     0.179 C 
HETATM    5  N9  UNL     1     -36.037  13.934  -5.875  1.00 20.00    -0.185 NA
HETATM    6  N10 UNL     1     -35.046  14.766  -5.510  1.00 20.00    -0.278 N 
ENDROOT
BRANCH   3   7
HETATM    7  C8  UNL     1     -34.132  16.177  -3.591  1.00 20.00    -0.007 C 
HETATM    8  C4  UNL     1     -32.719  15.556  -3.658  1.00 20.00     0.021 C 
HETATM    9  C5  UNL     1     -34.507  16.429  -2.114  1.00 20.00     0.021 C 
HETATM   10  C6  UNL     1     -34.056  17.557  -4.284  1.00 20.00     0.021 C 
ENDBRANCH   3   7
TORSDOF 1
ENDMDL
MODEL 5
REMARK VINA RESULT:      -3.9     16.731     18.251
REMARK  1 active torsions:
REMARK  status: ('A' for Active; 'I' for Inactive)
REMARK    1  A    between atoms: C3_3  and  C8_8 
ROOT
HETATM    1  C1  UNL     1     -36.515  14.733  -3.722  1.00 20.00     0.048 A 
HETATM    2  C2  UNL     1     -36.897  13.904  -4.794  1.00 20.00     0.141 A 
HETATM    3  C3  UNL     1     -35.321  15.282  -4.121  1.00 20.00     0.039 A 
HETATM    4  C7  UNL     1     -33.927  15.046  -6.199  1.00 20.00     0.179 C 
HETATM    5  N9  UNL     1     -36.017  13.922  -5.798  1.00 20.00    -0.185 NA
HETATM    6  N10 UNL     1     -35.070  14.770  -5.360  1.00 20.00    -0.278 N 
ENDROOT
BRANCH   3   7
HETATM    7  C8  UNL     1     -34.379  16.271  -3.416  1.00 20.00    -0.007 C 
HETATM    8  C4  UNL     1     -34.788  16.412  -1.934  1.00 20.00     0.021 C 
HETATM    9  C5  UNL     1     -34.467  17.653  -4.101  1.00 20.00     0.021 C 
HETATM   10  C6  UNL     1     -32.893  15.846  -3.441  1.00 20.00     0.021 C 
ENDBRANCH   3   7
TORSDOF 1
ENDMDL
MODEL 6
REMARK VINA RESULT:      -3.8     17.347     18.951
REMARK  1 active torsions:
REMARK  status: ('A' for Active; 'I' for Inactive)
REMARK    1  A    between atoms: C3_3  and  C8_8 
ROOT
HETATM    1  C1  UNL     1     -38.019  16.243  -3.918  1.00 20.00     0.048 A 
HETATM    2  C2  UNL     1     -38.857  15.145  -4.194  1.00 20.00     0.141 A 
HETATM    3  C3  UNL     1     -36.747  15.727  -3.972  1.00 20.00     0.039 A 
HETATM    4  C7  UNL     1     -35.841  13.428  -4.432  1.00 20.00     0.179 C 
HETATM    5  N9  UNL     1     -38.174  14.018  -4.409  1.00 20.00    -0.185 NA
HETATM    6  N10 UNL     1     -36.894  14.404  -4.268  1.00 20.00    -0.278 N 
ENDROOT
BRANCH   3   7
HETATM    7  C8  UNL     1     -35.377  16.393  -3.765  1.00 20.00    -0.007 C 
HETATM    8  C4  UNL     1     -34.689  15.791  -2.521  1.00 20.00     0.021 C 
HETATM    9  C5  UNL     1     -35.563  17.912  -3.558  1.00 20.00     0.021 C 
HETATM   10  C6  UNL     1     -34.408  16.212  -4.955  1.00 20.00     0.021 C 
ENDBRANCH   3   7
TORSDOF 1
ENDMDL
MODEL 7
REMARK VINA RESULT:      -3.7     15.473     17.028
REMARK  1 active torsions:
REMARK  status: ('A' for Active; 'I' for Inactive)
REMARK    1  A    between atoms: C3_3  and  C8_8 
ROOT
HETATM    1  C1  UNL     1     -32.876  15.411  -3.738  1.00 20.00     0.048 A 
HETATM    2  C2  UNL     1     -33.255  14.348  -4.581  1.00 20.00     0.141 A 
HETATM    3  C3  UNL     1     -34.064  15.918  -3.269  1.00 20.00     0.039 A 
HETATM    4  C7  UNL     1     -36.469  15.298  -3.651  1.00 20.00     0.179 C 
HETATM    5  N9  UNL     1     -34.579  14.189  -4.644  1.00 20.00    -0.185 NA
HETATM    6  N10 UNL     1     -35.044  15.157  -3.836  1.00 20.00    -0.278 N 
ENDROOT
BRANCH   3   7
HETATM    7  C8  UNL     1     -34.357  17.083  -2.310  1.00 20.00    -0.007 C 
HETATM    8  C4  UNL     1     -35.101  18.205  -3.067  1.00 20.00     0.021 C 
HETATM    9  C5  UNL     1     -33.030  17.642  -1.750  1.00 20.00     0.021 C 
HETATM   10  C6  UNL     1     -35.233  16.691  -1.099  1.00 20.00     0.021 C 
ENDBRANCH   3   7
TORSDOF 1
ENDMDL
MODEL 8
REMARK VINA RESULT:      -3.7     17.335     18.798
REMARK  1 active torsions:
REMARK  status: ('A' for Active; 'I' for Inactive)
REMARK    1  A    between atoms: C3_3  and  C8_8 
ROOT
HETATM    1  C1  UNL     1     -35.103  16.807  -6.252  1.00 20.00     0.048 A 
HETATM    2  C2  UNL     1     -36.121  16.301  -7.084  1.00 20.00     0.141 A 
HETATM    3  C3  UNL     1     -35.008  15.893  -5.231  1.00 20.00     0.039 A 
HETATM    4  C7  UNL     1     -36.220  13.752  -4.720  1.00 20.00     0.179 C 
HETATM    5  N9  UNL     1     -36.633  15.155  -6.631  1.00 20.00    -0.185 NA
HETATM    6  N10 UNL     1     -35.936  14.932  -5.504  1.00 20.00    -0.278 N 
ENDROOT
BRANCH   3   7
HETATM    7  C8  UNL     1     -34.094  15.850  -3.996  1.00 20.00    -0.007 C 
HETATM    8  C4  UNL     1     -33.385  17.212  -3.826  1.00 20.00     0.021 C 
HETATM    9  C5  UNL     1     -33.031  14.743  -4.173  1.00 20.00     0.021 C 
HETATM   10  C6  UNL     1     -34.841  15.557  -2.674  1.00 20.00     0.021 C 
ENDBRANCH   3   7
TORSDOF 1
ENDMDL
MODEL 9
REMARK VINA RESULT:      -3.6     17.108     18.485
REMARK  1 active torsions:
REMARK  status: ('A' for Active; 'I' for Inactive)
REMARK    1  A    between atoms: C3_3  and  C8_8 
ROOT
HETATM    1  C1  UNL     1     -35.939  17.484  -4.668  1.00 20.00     0.048 A 
HETATM    2  C2  UNL     1     -36.144  17.884  -6.002  1.00 20.00     0.141 A 
HETATM    3  C3  UNL     1     -35.124  16.382  -4.762  1.00 20.00     0.039 A 
HETATM    4  C7  UNL     1     -34.096  15.162  -6.704  1.00 20.00     0.179 C 
HETATM    5  N9  UNL     1     -35.510  17.102  -6.878  1.00 20.00    -0.185 NA
HETATM    6  N10 UNL     1     -34.898  16.198  -6.094  1.00 20.00    -0.278 N 
ENDROOT
BRANCH   3   7
HETATM    7  C8  UNL     1     -34.527  15.471  -3.676  1.00 20.00    -0.007 C 
HETATM    8  C4  UNL     1     -35.070  15.889  -2.292  1.00 20.00     0.021 C 
HETATM    9  C5  UNL     1     -32.988  15.599  -3.678  1.00 20.00     0.021 C 
HETATM   10  C6  UNL     1     -34.860  13.973  -3.864  1.00 20.00     0.021 C 
ENDBRANCH   3   7
TORSDOF 1
ENDMDL
