MODEL 1
REMARK VINA RESULT:      -3.8      0.000      0.000
REMARK  0 active torsions:
REMARK  status: ('A' for Active; 'I' for Inactive)
ROOT
HETATM    1  C1  UNL     1     -34.354  16.822  -1.554  1.00 20.00     0.145 C 
HETATM    2  C2  UNL     1     -32.712  18.353  -2.702  1.00 20.00     0.061 C 
HETATM    3  C3  UNL     1     -33.172  18.460  -0.046  1.00 20.00     0.061 C 
HETATM    4  C4  UNL     1     -33.097  16.895  -2.426  1.00 20.00     0.103 C 
HETATM    5  C5  UNL     1     -34.532  17.960  -0.545  1.00 20.00     0.103 C 
HETATM    6  C6  UNL     1     -33.233  15.993  -3.654  1.00 20.00     0.024 C 
HETATM    7  C7  UNL     1     -35.543  17.577   0.535  1.00 20.00     0.024 C 
HETATM    8  O8  UNL     1     -35.170  15.906  -1.658  1.00 20.00    -0.296 OA
HETATM    9  S9  UNL     1     -32.810  19.105  -4.197  1.00 20.00    -0.076 SA
HETATM   10  S10 UNL     1     -32.584  18.252   1.510  1.00 20.00    -0.076 SA
HETATM   11  S11 UNL     1     -32.180  19.263  -1.277  1.00 20.00    -0.074 SA
ENDROOT
TORSDOF 0
ENDMDL
MODEL 2
REMARK VINA RESULT:      -3.8      0.088      3.636
REMARK  0 active torsions:
REMARK  status: ('A' for Active; 'I' for Inactive)
ROOT
HETATM    1  C1  UNL     1     -34.356  16.812  -1.590  1.00 20.00     0.145 C 
HETATM    2  C2  UNL     1     -33.151  18.406  -0.050  1.00 20.00     0.061 C 
HETATM    3  C3  UNL     1     -32.758  18.402  -2.719  1.00 20.00     0.061 C 
HETATM    4  C4  UNL     1     -34.518  17.910  -0.534  1.00 20.00     0.103 C 
HETATM    5  C5  UNL     1     -33.121  16.931  -2.489  1.00 20.00     0.103 C 
HETATM    6  C6  UNL     1     -35.498  17.474   0.557  1.00 20.00     0.024 C 
HETATM    7  C7  UNL     1     -33.278  16.074  -3.745  1.00 20.00     0.024 C 
HETATM    8  O8  UNL     1     -35.165  15.893  -1.709  1.00 20.00    -0.296 OA
HETATM    9  S9  UNL     1     -32.524  18.149   1.483  1.00 20.00    -0.076 SA
HETATM   10  S10 UNL     1     -32.904  19.210  -4.181  1.00 20.00    -0.076 SA
HETATM   11  S11 UNL     1     -32.197  19.263  -1.274  1.00 20.00    -0.074 SA
ENDROOT
TORSDOF 0
ENDMDL
MODEL 3
REMARK VINA RESULT:      -3.7      2.997      4.799
REMARK  0 active torsions:
REMARK  status: ('A' for Active; 'I' for Inactive)
ROOT
HETATM    1  C1  UNL     1     -33.259  18.079  -3.709  1.00 20.00     0.145 C 
HETATM    2  C2  UNL     1     -34.443  16.675  -1.980  1.00 20.00     0.061 C 
HETATM    3  C3  UNL     1     -34.558  16.119  -4.617  1.00 20.00     0.061 C 
HETATM    4  C4  UNL     1     -33.092  17.233  -2.443  1.00 20.00     0.103 C 
HETATM    5  C5  UNL     1     -34.376  17.640  -4.661  1.00 20.00     0.103 C 
HETATM    6  C6  UNL     1     -32.280  17.986  -1.389  1.00 20.00     0.024 C 
HETATM    7  C7  UNL     1     -34.181  18.253  -6.048  1.00 20.00     0.024 C 
HETATM    8  O8  UNL     1     -32.541  19.050  -3.946  1.00 20.00    -0.296 OA
HETATM    9  S9  UNL     1     -35.247  17.143  -0.586  1.00 20.00    -0.076 SA
HETATM   10  S10 UNL     1     -34.180  15.070  -5.869  1.00 20.00    -0.076 SA
HETATM   11  S11 UNL     1     -35.172  15.489  -3.078  1.00 20.00    -0.074 SA
ENDROOT
TORSDOF 0
ENDMDL
MODEL 4
REMARK VINA RESULT:      -3.7      2.998      3.691
REMARK  0 active torsions:
REMARK  status: ('A' for Active; 'I' for Inactive)
ROOT
HETATM    1  C1  UNL     1     -33.260  18.081  -3.710  1.00 20.00     0.145 C 
HETATM    2  C2  UNL     1     -34.554  16.117  -4.620  1.00 20.00     0.061 C 
HETATM    3  C3  UNL     1     -34.441  16.674  -1.983  1.00 20.00     0.061 C 
HETATM    4  C4  UNL     1     -34.374  17.639  -4.663  1.00 20.00     0.103 C 
HETATM    5  C5  UNL     1     -33.091  17.234  -2.444  1.00 20.00     0.103 C 
HETATM    6  C6  UNL     1     -34.178  18.252  -6.050  1.00 20.00     0.024 C 
HETATM    7  C7  UNL     1     -32.282  17.987  -1.389  1.00 20.00     0.024 C 
HETATM    8  O8  UNL     1     -32.546  19.055  -3.945  1.00 20.00    -0.296 OA
HETATM    9  S9  UNL     1     -34.175  15.070  -5.873  1.00 20.00    -0.076 SA
HETATM   10  S10 UNL     1     -35.250  17.141  -0.591  1.00 20.00    -0.076 SA
HETATM   11  S11 UNL     1     -35.166  15.485  -3.081  1.00 20.00    -0.074 SA
ENDROOT
TORSDOF 0
ENDMDL
MODEL 5
REMARK VINA RESULT:      -3.7      3.740      5.056
REMARK  0 active torsions:
REMARK  status: ('A' for Active; 'I' for Inactive)
ROOT
HETATM    1  C1  UNL     1     -34.531  15.160  -5.574  1.00 20.00     0.145 C 
HETATM    2  C2  UNL     1     -36.645  15.819  -4.367  1.00 20.00     0.061 C 
HETATM    3  C3  UNL     1     -34.203  16.092  -3.254  1.00 20.00     0.061 C 
HETATM    4  C4  UNL     1     -35.789  16.032  -5.620  1.00 20.00     0.103 C 
HETATM    5  C5  UNL     1     -33.956  14.895  -4.179  1.00 20.00     0.103 C 
HETATM    6  C6  UNL     1     -36.510  15.876  -6.959  1.00 20.00     0.024 C 
HETATM    7  C7  UNL     1     -32.511  14.405  -4.270  1.00 20.00     0.024 C 
HETATM    8  O8  UNL     1     -34.015  14.702  -6.592  1.00 20.00    -0.296 OA
HETATM    9  S9  UNL     1     -38.146  15.071  -4.345  1.00 20.00    -0.076 SA
HETATM   10  S10 UNL     1     -33.011  17.116  -2.670  1.00 20.00    -0.076 SA
HETATM   11  S11 UNL     1     -35.906  16.384  -2.858  1.00 20.00    -0.074 SA
ENDROOT
TORSDOF 0
ENDMDL
MODEL 6
REMARK VINA RESULT:      -3.7      3.738      5.221
REMARK  0 active torsions:
REMARK  status: ('A' for Active; 'I' for Inactive)
ROOT
HETATM    1  C1  UNL     1     -34.524  15.161  -5.571  1.00 20.00     0.145 C 
HETATM    2  C2  UNL     1     -34.200  16.094  -3.251  1.00 20.00     0.061 C 
HETATM    3  C3  UNL     1     -36.640  15.814  -4.366  1.00 20.00     0.061 C 
HETATM    4  C4  UNL     1     -33.949  14.899  -4.177  1.00 20.00     0.103 C 
HETATM    5  C5  UNL     1     -35.784  16.030  -5.619  1.00 20.00     0.103 C 
HETATM    6  C6  UNL     1     -32.501  14.413  -4.268  1.00 20.00     0.024 C 
HETATM    7  C7  UNL     1     -36.504  15.873  -6.958  1.00 20.00     0.024 C 
HETATM    8  O8  UNL     1     -34.008  14.702  -6.590  1.00 20.00    -0.296 OA
HETATM    9  S9  UNL     1     -33.010  17.120  -2.664  1.00 20.00    -0.076 SA
HETATM   10  S10 UNL     1     -38.137  15.060  -4.344  1.00 20.00    -0.076 SA
HETATM   11  S11 UNL     1     -35.903  16.383  -2.857  1.00 20.00    -0.074 SA
ENDROOT
TORSDOF 0
ENDMDL
MODEL 7
REMARK VINA RESULT:      -3.6      3.960      4.843
REMARK  0 active torsions:
REMARK  status: ('A' for Active; 'I' for Inactive)
ROOT
HETATM    1  C1  UNL     1     -35.579  14.989  -6.030  1.00 20.00     0.145 C 
HETATM    2  C2  UNL     1     -34.561  17.272  -6.365  1.00 20.00     0.061 C 
HETATM    3  C3  UNL     1     -35.390  16.402  -3.950  1.00 20.00     0.061 C 
HETATM    4  C4  UNL     1     -34.353  15.762  -6.525  1.00 20.00     0.103 C 
HETATM    5  C5  UNL     1     -36.345  15.629  -4.868  1.00 20.00     0.103 C 
HETATM    6  C6  UNL     1     -33.937  15.286  -7.918  1.00 20.00     0.024 C 
HETATM    7  C7  UNL     1     -37.251  14.606  -4.183  1.00 20.00     0.024 C 
HETATM    8  O8  UNL     1     -35.927  13.921  -6.533  1.00 20.00    -0.296 OA
HETATM    9  S9  UNL     1     -34.749  18.355  -7.631  1.00 20.00    -0.076 SA
HETATM   10  S10 UNL     1     -34.992  15.955  -2.384  1.00 20.00    -0.076 SA
HETATM   11  S11 UNL     1     -34.651  17.835  -4.687  1.00 20.00    -0.074 SA
ENDROOT
TORSDOF 0
ENDMDL
MODEL 8
REMARK VINA RESULT:      -3.6      3.952      5.959
REMARK  0 active torsions:
REMARK  status: ('A' for Active; 'I' for Inactive)
ROOT
HETATM    1  C1  UNL     1     -35.581  14.997  -6.030  1.00 20.00     0.145 C 
HETATM    2  C2  UNL     1     -35.379  16.400  -3.945  1.00 20.00     0.061 C 
HETATM    3  C3  UNL     1     -34.546  17.273  -6.357  1.00 20.00     0.061 C 
HETATM    4  C4  UNL     1     -36.339  15.638  -4.864  1.00 20.00     0.103 C 
HETATM    5  C5  UNL     1     -34.349  15.762  -6.524  1.00 20.00     0.103 C 
HETATM    6  C6  UNL     1     -37.253  14.618  -4.184  1.00 20.00     0.024 C 
HETATM    7  C7  UNL     1     -33.937  15.289  -7.918  1.00 20.00     0.024 C 
HETATM    8  O8  UNL     1     -35.939  13.935  -6.539  1.00 20.00    -0.296 OA
HETATM    9  S9  UNL     1     -34.985  15.946  -2.379  1.00 20.00    -0.076 SA
HETATM   10  S10 UNL     1     -34.730  18.362  -7.618  1.00 20.00    -0.076 SA
HETATM   11  S11 UNL     1     -34.628  17.830  -4.676  1.00 20.00    -0.074 SA
ENDROOT
TORSDOF 0
ENDMDL
MODEL 9
REMARK VINA RESULT:      -3.6      4.573      5.811
REMARK  0 active torsions:
REMARK  status: ('A' for Active; 'I' for Inactive)
ROOT
HETATM    1  C1  UNL     1     -37.486  14.830  -4.258  1.00 20.00     0.145 C 
HETATM    2  C2  UNL     1     -38.378  17.111  -3.658  1.00 20.00     0.061 C 
HETATM    3  C3  UNL     1     -35.818  16.714  -4.407  1.00 20.00     0.061 C 
HETATM    4  C4  UNL     1     -38.541  15.894  -4.575  1.00 20.00     0.103 C 
HETATM    5  C5  UNL     1     -36.135  15.358  -3.768  1.00 20.00     0.103 C 
HETATM    6  C6  UNL     1     -39.939  15.276  -4.628  1.00 20.00     0.024 C 
HETATM    7  C7  UNL     1     -35.052  14.286  -3.897  1.00 20.00     0.024 C 
HETATM    8  O8  UNL     1     -37.710  13.627  -4.389  1.00 20.00    -0.296 OA
HETATM    9  S9  UNL     1     -39.459  17.559  -2.456  1.00 20.00    -0.076 SA
HETATM   10  S10 UNL     1     -34.606  16.985  -5.533  1.00 20.00    -0.076 SA
HETATM   11  S11 UNL     1     -36.888  18.037  -3.910  1.00 20.00    -0.074 SA
ENDROOT
TORSDOF 0
ENDMDL
