MODEL 1
REMARK VINA RESULT:      -3.9      0.000      0.000
REMARK  2 active torsions:
REMARK  status: ('A' for Active; 'I' for Inactive)
REMARK    1  A    between atoms: C4_4  and  C5_5 
REMARK    2  A    between atoms: C4_4  and  N6_6 
ROOT
HETATM    1  C1  UNL     1     -34.387  16.665  -4.903  1.00 20.00     0.016 C 
HETATM    2  C2  UNL     1     -32.876  14.777  -4.269  1.00 20.00     0.016 C 
HETATM    3  C3  UNL     1     -33.829  16.253  -2.490  1.00 20.00     0.016 C 
HETATM    4  C5  UNL     1     -34.116  15.583  -3.844  1.00 20.00    -0.036 C 
ENDROOT
BRANCH   4   5
HETATM    5  C4  UNL     1     -35.314  14.616  -3.733  1.00 20.00     0.154 C 
BRANCH   5   6
HETATM    6  N6  UNL     1     -34.923  13.250  -4.092  1.00 20.00    -0.063 NA
HETATM    7  O7  UNL     1     -35.868  12.582  -4.543  1.00 20.00    -0.101 OA
ENDBRANCH   5   6
ENDBRANCH   4   5
TORSDOF 2
ENDMDL
MODEL 2
REMARK VINA RESULT:      -3.8      0.176      1.650
REMARK  2 active torsions:
REMARK  status: ('A' for Active; 'I' for Inactive)
REMARK    1  A    between atoms: C4_4  and  C5_5 
REMARK    2  A    between atoms: C4_4  and  N6_6 
ROOT
HETATM    1  C1  UNL     1     -34.065  16.256  -2.347  1.00 20.00     0.016 C 
HETATM    2  C2  UNL     1     -34.498  16.787  -4.751  1.00 20.00     0.016 C 
HETATM    3  C3  UNL     1     -32.901  14.958  -4.154  1.00 20.00     0.016 C 
HETATM    4  C5  UNL     1     -34.214  15.651  -3.753  1.00 20.00    -0.036 C 
ENDROOT
BRANCH   4   5
HETATM    5  C4  UNL     1     -35.393  14.656  -3.797  1.00 20.00     0.154 C 
BRANCH   5   6
HETATM    6  N6  UNL     1     -34.931  13.306  -4.136  1.00 20.00    -0.063 NA
HETATM    7  O7  UNL     1     -35.855  12.559  -4.498  1.00 20.00    -0.101 OA
ENDBRANCH   5   6
ENDBRANCH   4   5
TORSDOF 2
ENDMDL
MODEL 3
REMARK VINA RESULT:      -3.8      1.446      1.464
REMARK  2 active torsions:
REMARK  status: ('A' for Active; 'I' for Inactive)
REMARK    1  A    between atoms: C4_4  and  C5_5 
REMARK    2  A    between atoms: C4_4  and  N6_6 
ROOT
HETATM    1  C1  UNL     1     -35.241  15.935  -5.140  1.00 20.00     0.016 C 
HETATM    2  C2  UNL     1     -33.290  14.556  -4.404  1.00 20.00     0.016 C 
HETATM    3  C3  UNL     1     -34.811  15.566  -2.694  1.00 20.00     0.016 C 
HETATM    4  C5  UNL     1     -34.752  14.924  -4.090  1.00 20.00    -0.036 C 
ENDROOT
BRANCH   4   5
HETATM    5  C4  UNL     1     -35.601  13.636  -4.136  1.00 20.00     0.154 C 
BRANCH   5   6
HETATM    6  N6  UNL     1     -36.779  13.811  -4.991  1.00 20.00    -0.063 NA
HETATM    7  O7  UNL     1     -37.846  13.737  -4.361  1.00 20.00    -0.101 OA
ENDBRANCH   5   6
ENDBRANCH   4   5
TORSDOF 2
ENDMDL
MODEL 4
REMARK VINA RESULT:      -3.8      1.507      2.188
REMARK  2 active torsions:
REMARK  status: ('A' for Active; 'I' for Inactive)
REMARK    1  A    between atoms: C4_4  and  C5_5 
REMARK    2  A    between atoms: C4_4  and  N6_6 
ROOT
HETATM    1  C1  UNL     1     -34.960  15.576  -2.722  1.00 20.00     0.016 C 
HETATM    2  C2  UNL     1     -35.265  15.910  -5.181  1.00 20.00     0.016 C 
HETATM    3  C3  UNL     1     -33.318  14.585  -4.341  1.00 20.00     0.016 C 
HETATM    4  C5  UNL     1     -34.800  14.916  -4.101  1.00 20.00    -0.036 C 
ENDROOT
BRANCH   4   5
HETATM    5  C4  UNL     1     -35.668  13.644  -4.202  1.00 20.00     0.154 C 
BRANCH   5   6
HETATM    6  N6  UNL     1     -36.873  13.890  -5.000  1.00 20.00    -0.063 NA
HETATM    7  O7  UNL     1     -37.919  13.761  -4.344  1.00 20.00    -0.101 OA
ENDBRANCH   5   6
ENDBRANCH   4   5
TORSDOF 2
ENDMDL
MODEL 5
REMARK VINA RESULT:      -3.7      0.993      1.032
REMARK  2 active torsions:
REMARK  status: ('A' for Active; 'I' for Inactive)
REMARK    1  A    between atoms: C4_4  and  C5_5 
REMARK    2  A    between atoms: C4_4  and  N6_6 
ROOT
HETATM    1  C1  UNL     1     -35.030  16.412  -4.733  1.00 20.00     0.016 C 
HETATM    2  C2  UNL     1     -32.962  16.126  -3.356  1.00 20.00     0.016 C 
HETATM    3  C3  UNL     1     -35.209  15.924  -2.276  1.00 20.00     0.016 C 
HETATM    4  C5  UNL     1     -34.408  15.638  -3.558  1.00 20.00    -0.036 C 
ENDROOT
BRANCH   4   5
HETATM    5  C4  UNL     1     -34.377  14.124  -3.856  1.00 20.00     0.154 C 
BRANCH   5   6
HETATM    6  N6  UNL     1     -35.550  13.716  -4.636  1.00 20.00    -0.063 NA
HETATM    7  O7  UNL     1     -35.822  12.512  -4.500  1.00 20.00    -0.101 OA
ENDBRANCH   5   6
ENDBRANCH   4   5
TORSDOF 2
ENDMDL
MODEL 6
REMARK VINA RESULT:      -3.6     11.678     12.368
REMARK  2 active torsions:
REMARK  status: ('A' for Active; 'I' for Inactive)
REMARK    1  A    between atoms: C4_4  and  C5_5 
REMARK    2  A    between atoms: C4_4  and  N6_6 
ROOT
HETATM    1  C1  UNL     1     -34.051   4.078   3.949  1.00 20.00     0.016 C 
HETATM    2  C2  UNL     1     -35.951   5.702   3.894  1.00 20.00     0.016 C 
HETATM    3  C3  UNL     1     -34.653   5.383   6.008  1.00 20.00     0.016 C 
HETATM    4  C5  UNL     1     -34.550   5.434   4.474  1.00 20.00    -0.036 C 
ENDROOT
BRANCH   4   5
HETATM    5  C4  UNL     1     -33.609   6.573   4.027  1.00 20.00     0.154 C 
BRANCH   5   6
HETATM    6  N6  UNL     1     -32.933   6.234   2.770  1.00 20.00    -0.063 NA
HETATM    7  O7  UNL     1     -32.575   7.238   2.132  1.00 20.00    -0.101 OA
ENDBRANCH   5   6
ENDBRANCH   4   5
TORSDOF 2
ENDMDL
MODEL 7
REMARK VINA RESULT:      -3.6     10.624     11.573
REMARK  2 active torsions:
REMARK  status: ('A' for Active; 'I' for Inactive)
REMARK    1  A    between atoms: C4_4  and  C5_5 
REMARK    2  A    between atoms: C4_4  and  N6_6 
ROOT
HETATM    1  C1  UNL     1     -41.025   5.832  -0.767  1.00 20.00     0.016 C 
HETATM    2  C2  UNL     1     -42.993   7.296  -1.252  1.00 20.00     0.016 C 
HETATM    3  C3  UNL     1     -42.850   6.096   0.937  1.00 20.00     0.016 C 
HETATM    4  C5  UNL     1     -42.033   6.816  -0.149  1.00 20.00    -0.036 C 
ENDROOT
BRANCH   4   5
HETATM    5  C4  UNL     1     -41.307   8.045   0.437  1.00 20.00     0.154 C 
BRANCH   5   6
HETATM    6  N6  UNL     1     -42.079   9.271   0.208  1.00 20.00    -0.063 NA
HETATM    7  O7  UNL     1     -41.406  10.301   0.374  1.00 20.00    -0.101 OA
ENDBRANCH   5   6
ENDBRANCH   4   5
TORSDOF 2
ENDMDL
MODEL 8
REMARK VINA RESULT:      -3.6     10.724     11.624
REMARK  2 active torsions:
REMARK  status: ('A' for Active; 'I' for Inactive)
REMARK    1  A    between atoms: C4_4  and  C5_5 
REMARK    2  A    between atoms: C4_4  and  N6_6 
ROOT
HETATM    1  C1  UNL     1     -43.168   7.265  -1.150  1.00 20.00     0.016 C 
HETATM    2  C2  UNL     1     -42.775   5.959   0.946  1.00 20.00     0.016 C 
HETATM    3  C3  UNL     1     -41.075   5.902  -0.888  1.00 20.00     0.016 C 
HETATM    4  C5  UNL     1     -42.094   6.792  -0.155  1.00 20.00    -0.036 C 
ENDROOT
BRANCH   4   5
HETATM    5  C4  UNL     1     -41.393   7.997   0.506  1.00 20.00     0.154 C 
BRANCH   5   6
HETATM    6  N6  UNL     1     -42.146   9.234   0.280  1.00 20.00    -0.063 NA
HETATM    7  O7  UNL     1     -41.434  10.250   0.346  1.00 20.00    -0.101 OA
ENDBRANCH   5   6
ENDBRANCH   4   5
TORSDOF 2
ENDMDL
MODEL 9
REMARK VINA RESULT:      -3.5     18.322     19.012
REMARK  2 active torsions:
REMARK  status: ('A' for Active; 'I' for Inactive)
REMARK    1  A    between atoms: C4_4  and  C5_5 
REMARK    2  A    between atoms: C4_4  and  N6_6 
ROOT
HETATM    1  C1  UNL     1     -25.016  18.378  12.316  1.00 20.00     0.016 C 
HETATM    2  C2  UNL     1     -22.615  17.679  12.266  1.00 20.00     0.016 C 
HETATM    3  C3  UNL     1     -24.371  16.150  11.354  1.00 20.00     0.016 C 
HETATM    4  C5  UNL     1     -23.951  17.622  11.503  1.00 20.00    -0.036 C 
ENDROOT
BRANCH   4   5
HETATM    5  C4  UNL     1     -23.753  18.277  10.120  1.00 20.00     0.154 C 
BRANCH   5   6
HETATM    6  N6  UNL     1     -22.344  18.242   9.717  1.00 20.00    -0.063 NA
HETATM    7  O7  UNL     1     -22.024  19.203   8.999  1.00 20.00    -0.101 OA
ENDBRANCH   5   6
ENDBRANCH   4   5
TORSDOF 2
ENDMDL
