MODEL 1
REMARK VINA RESULT:      -5.0      0.000      0.000
REMARK  3 active torsions:
REMARK  status: ('A' for Active; 'I' for Inactive)
REMARK    1  A    between atoms: C3_3  and  C9_9 
REMARK    2  A    between atoms: C8_8  and  C10_10 
REMARK    3  A    between atoms: C9_9  and  C10_10 
ROOT
HETATM    1  C1  UNL     1     -33.936   5.192   5.805  1.00 20.00    -0.026 C 
HETATM    2  C2  UNL     1     -34.079   6.506   5.578  1.00 20.00    -0.025 C 
HETATM    3  C4  UNL     1     -35.675   5.427   4.304  1.00 20.00     0.017 C 
HETATM    4  C5  UNL     1     -33.587   4.696   3.412  1.00 20.00     0.013 C 
HETATM    5  C6  UNL     1     -34.525   4.466   4.620  1.00 20.00     0.009 C 
HETATM    6  C7  UNL     1     -34.757   6.655   4.235  1.00 20.00     0.012 C 
HETATM    7  C8  UNL     1     -33.790   6.213   3.105  1.00 20.00    -0.006 C 
ENDROOT
BRANCH   7   8
HETATM    8  C10 UNL     1     -32.489   6.997   3.024  1.00 20.00     0.012 C 
BRANCH   8   9
HETATM    9  C9  UNL     1     -32.160   7.382   1.587  1.00 20.00     0.070 C 
BRANCH   9  10
HETATM   10  C3  UNL     1     -32.899   8.619   1.136  1.00 20.00     0.231 C 
HETATM   11  O11 UNL     1     -33.243   8.844  -0.019  1.00 20.00    -0.307 OA
ENDBRANCH   9  10
ENDBRANCH   8   9
ENDBRANCH   7   8
TORSDOF 3
ENDMDL
MODEL 2
REMARK VINA RESULT:      -4.8     11.165     12.341
REMARK  3 active torsions:
REMARK  status: ('A' for Active; 'I' for Inactive)
REMARK    1  A    between atoms: C3_3  and  C9_9 
REMARK    2  A    between atoms: C8_8  and  C10_10 
REMARK    3  A    between atoms: C9_9  and  C10_10 
ROOT
HETATM    1  C1  UNL     1     -35.610  16.197  -4.618  1.00 20.00    -0.026 C 
HETATM    2  C2  UNL     1     -34.328  16.298  -4.999  1.00 20.00    -0.025 C 
HETATM    3  C4  UNL     1     -34.531  14.302  -3.857  1.00 20.00     0.017 C 
HETATM    4  C5  UNL     1     -35.005  15.985  -2.234  1.00 20.00     0.013 C 
HETATM    5  C6  UNL     1     -35.652  15.258  -3.436  1.00 20.00     0.009 C 
HETATM    6  C7  UNL     1     -33.514  15.432  -4.066  1.00 20.00     0.012 C 
HETATM    7  C8  UNL     1     -33.502  16.057  -2.645  1.00 20.00    -0.006 C 
ENDROOT
BRANCH   7   8
HETATM    8  C10 UNL     1     -32.915  17.457  -2.561  1.00 20.00     0.012 C 
BRANCH   8   9
HETATM    9  C9  UNL     1     -32.953  17.992  -1.134  1.00 20.00     0.070 C 
BRANCH   9  10
HETATM   10  C3  UNL     1     -31.719  18.788  -0.781  1.00 20.00     0.231 C 
HETATM   11  O11 UNL     1     -30.606  18.308  -0.603  1.00 20.00    -0.307 OA
ENDBRANCH   9  10
ENDBRANCH   8   9
ENDBRANCH   7   8
TORSDOF 3
ENDMDL
MODEL 3
REMARK VINA RESULT:      -4.7     11.150     12.390
REMARK  3 active torsions:
REMARK  status: ('A' for Active; 'I' for Inactive)
REMARK    1  A    between atoms: C3_3  and  C9_9 
REMARK    2  A    between atoms: C8_8  and  C10_10 
REMARK    3  A    between atoms: C9_9  and  C10_10 
ROOT
HETATM    1  C1  UNL     1     -33.987  18.549  -3.487  1.00 20.00    -0.026 C 
HETATM    2  C2  UNL     1     -35.042  18.289  -2.701  1.00 20.00    -0.025 C 
HETATM    3  C4  UNL     1     -33.155  17.746  -1.487  1.00 20.00     0.017 C 
HETATM    4  C5  UNL     1     -33.152  16.231  -3.329  1.00 20.00     0.013 C 
HETATM    5  C6  UNL     1     -32.839  17.706  -2.985  1.00 20.00     0.009 C 
HETATM    6  C7  UNL     1     -34.600  17.266  -1.681  1.00 20.00     0.012 C 
HETATM    7  C8  UNL     1     -34.346  15.903  -2.378  1.00 20.00    -0.006 C 
ENDROOT
BRANCH   7   8
HETATM    8  C10 UNL     1     -35.549  15.309  -3.095  1.00 20.00     0.012 C 
BRANCH   8   9
HETATM    9  C9  UNL     1     -35.130  14.227  -4.083  1.00 20.00     0.070 C 
BRANCH   9  10
HETATM   10  C3  UNL     1     -36.297  13.680  -4.869  1.00 20.00     0.231 C 
HETATM   11  O11 UNL     1     -37.453  13.633  -4.463  1.00 20.00    -0.307 OA
ENDBRANCH   9  10
ENDBRANCH   8   9
ENDBRANCH   7   8
TORSDOF 3
ENDMDL
MODEL 4
REMARK VINA RESULT:      -4.6     11.177     12.287
REMARK  3 active torsions:
REMARK  status: ('A' for Active; 'I' for Inactive)
REMARK    1  A    between atoms: C3_3  and  C9_9 
REMARK    2  A    between atoms: C8_8  and  C10_10 
REMARK    3  A    between atoms: C9_9  and  C10_10 
ROOT
HETATM    1  C1  UNL     1     -35.810  17.195  -2.472  1.00 20.00    -0.026 C 
HETATM    2  C2  UNL     1     -35.054  16.274  -1.855  1.00 20.00    -0.025 C 
HETATM    3  C4  UNL     1     -33.683  18.078  -2.299  1.00 20.00     0.017 C 
HETATM    4  C5  UNL     1     -34.327  17.260  -4.444  1.00 20.00     0.013 C 
HETATM    5  C6  UNL     1     -34.877  18.085  -3.257  1.00 20.00     0.009 C 
HETATM    6  C7  UNL     1     -33.617  16.546  -2.237  1.00 20.00     0.012 C 
HETATM    7  C8  UNL     1     -33.402  16.220  -3.739  1.00 20.00    -0.006 C 
ENDROOT
BRANCH   7   8
HETATM    8  C10 UNL     1     -33.692  14.780  -4.136  1.00 20.00     0.012 C 
BRANCH   8   9
HETATM    9  C9  UNL     1     -34.859  14.696  -5.112  1.00 20.00     0.070 C 
BRANCH   9  10
HETATM   10  C3  UNL     1     -35.977  13.817  -4.602  1.00 20.00     0.231 C 
HETATM   11  O11 UNL     1     -35.907  12.599  -4.479  1.00 20.00    -0.307 OA
ENDBRANCH   9  10
ENDBRANCH   8   9
ENDBRANCH   7   8
TORSDOF 3
ENDMDL
MODEL 5
REMARK VINA RESULT:      -4.6      8.769     10.046
REMARK  3 active torsions:
REMARK  status: ('A' for Active; 'I' for Inactive)
REMARK    1  A    between atoms: C3_3  and  C9_9 
REMARK    2  A    between atoms: C8_8  and  C10_10 
REMARK    3  A    between atoms: C9_9  and  C10_10 
ROOT
HETATM    1  C1  UNL     1     -43.417   7.728   0.664  1.00 20.00    -0.026 C 
HETATM    2  C2  UNL     1     -42.425   6.993   1.186  1.00 20.00    -0.025 C 
HETATM    3  C4  UNL     1     -41.444   8.827   0.182  1.00 20.00     0.017 C 
HETATM    4  C5  UNL     1     -42.459   7.622  -1.608  1.00 20.00     0.013 C 
HETATM    5  C6  UNL     1     -42.820   8.568  -0.439  1.00 20.00     0.009 C 
HETATM    6  C7  UNL     1     -41.165   7.337   0.424  1.00 20.00     0.012 C 
HETATM    7  C8  UNL     1     -41.266   6.799  -1.028  1.00 20.00    -0.006 C 
ENDROOT
BRANCH   7   8
HETATM    8  C10 UNL     1     -41.449   5.294  -1.148  1.00 20.00     0.012 C 
BRANCH   8   9
HETATM    9  C9  UNL     1     -42.854   4.940  -1.620  1.00 20.00     0.070 C 
BRANCH   9  10
HETATM   10  C3  UNL     1     -42.857   3.836  -2.650  1.00 20.00     0.231 C 
HETATM   11  O11 UNL     1     -41.888   3.137  -2.928  1.00 20.00    -0.307 OA
ENDBRANCH   9  10
ENDBRANCH   8   9
ENDBRANCH   7   8
TORSDOF 3
ENDMDL
MODEL 6
REMARK VINA RESULT:      -4.5     11.304     12.638
REMARK  3 active torsions:
REMARK  status: ('A' for Active; 'I' for Inactive)
REMARK    1  A    between atoms: C3_3  and  C9_9 
REMARK    2  A    between atoms: C8_8  and  C10_10 
REMARK    3  A    between atoms: C9_9  and  C10_10 
ROOT
HETATM    1  C1  UNL     1     -34.075  16.837  -1.919  1.00 20.00    -0.026 C 
HETATM    2  C2  UNL     1     -34.933  15.854  -2.232  1.00 20.00    -0.025 C 
HETATM    3  C4  UNL     1     -33.083  15.586  -3.588  1.00 20.00     0.017 C 
HETATM    4  C5  UNL     1     -34.016  17.683  -4.237  1.00 20.00     0.013 C 
HETATM    5  C6  UNL     1     -33.173  17.040  -3.112  1.00 20.00     0.009 C 
HETATM    6  C7  UNL     1     -34.606  15.408  -3.639  1.00 20.00     0.012 C 
HETATM    7  C8  UNL     1     -34.981  16.527  -4.646  1.00 20.00    -0.006 C 
ENDROOT
BRANCH   7   8
HETATM    8  C10 UNL     1     -36.448  16.930  -4.648  1.00 20.00     0.012 C 
BRANCH   8   9
HETATM    9  C9  UNL     1     -37.309  15.894  -5.360  1.00 20.00     0.070 C 
BRANCH   9  10
HETATM   10  C3  UNL     1     -38.119  15.056  -4.400  1.00 20.00     0.231 C 
HETATM   11  O11 UNL     1     -38.087  13.832  -4.343  1.00 20.00    -0.307 OA
ENDBRANCH   9  10
ENDBRANCH   8   9
ENDBRANCH   7   8
TORSDOF 3
ENDMDL
MODEL 7
REMARK VINA RESULT:      -4.3      8.897     10.299
REMARK  3 active torsions:
REMARK  status: ('A' for Active; 'I' for Inactive)
REMARK    1  A    between atoms: C3_3  and  C9_9 
REMARK    2  A    between atoms: C8_8  and  C10_10 
REMARK    3  A    between atoms: C9_9  and  C10_10 
ROOT
HETATM    1  C1  UNL     1     -42.649   8.289  -1.004  1.00 20.00    -0.026 C 
HETATM    2  C2  UNL     1     -43.417   7.799  -0.019  1.00 20.00    -0.025 C 
HETATM    3  C4  UNL     1     -41.236   7.726   0.734  1.00 20.00     0.017 C 
HETATM    4  C5  UNL     1     -41.290   6.232  -1.124  1.00 20.00     0.013 C 
HETATM    5  C6  UNL     1     -41.257   7.743  -0.798  1.00 20.00     0.009 C 
HETATM    6  C7  UNL     1     -42.537   6.920   0.839  1.00 20.00     0.012 C 
HETATM    7  C8  UNL     1     -42.136   5.646   0.049  1.00 20.00    -0.006 C 
ENDROOT
BRANCH   7   8
HETATM    8  C10 UNL     1     -43.298   4.779  -0.412  1.00 20.00     0.012 C 
BRANCH   8   9
HETATM    9  C9  UNL     1     -43.349   4.680  -1.932  1.00 20.00     0.070 C 
BRANCH   9  10
HETATM   10  C3  UNL     1     -43.082   3.280  -2.430  1.00 20.00     0.231 C 
HETATM   11  O11 UNL     1     -42.124   2.955  -3.123  1.00 20.00    -0.307 OA
ENDBRANCH   9  10
ENDBRANCH   8   9
ENDBRANCH   7   8
TORSDOF 3
ENDMDL
MODEL 8
REMARK VINA RESULT:      -4.3     11.250     12.399
REMARK  3 active torsions:
REMARK  status: ('A' for Active; 'I' for Inactive)
REMARK    1  A    between atoms: C3_3  and  C9_9 
REMARK    2  A    between atoms: C8_8  and  C10_10 
REMARK    3  A    between atoms: C9_9  and  C10_10 
ROOT
HETATM    1  C1  UNL     1     -34.608  18.334  -3.326  1.00 20.00    -0.026 C 
HETATM    2  C2  UNL     1     -35.693  17.638  -2.957  1.00 20.00    -0.025 C 
HETATM    3  C4  UNL     1     -34.164  17.456  -1.237  1.00 20.00     0.017 C 
HETATM    4  C5  UNL     1     -33.126  16.374  -3.092  1.00 20.00     0.013 C 
HETATM    5  C6  UNL     1     -33.438  17.786  -2.545  1.00 20.00     0.009 C 
HETATM    6  C7  UNL     1     -35.244  16.619  -1.935  1.00 20.00     0.012 C 
HETATM    7  C8  UNL     1     -34.360  15.543  -2.619  1.00 20.00    -0.006 C 
ENDROOT
BRANCH   7   8
HETATM    8  C10 UNL     1     -35.036  14.766  -3.738  1.00 20.00     0.012 C 
BRANCH   8   9
HETATM    9  C9  UNL     1     -34.261  14.884  -5.045  1.00 20.00     0.070 C 
BRANCH   9  10
HETATM   10  C3  UNL     1     -35.160  14.827  -6.257  1.00 20.00     0.231 C 
HETATM   11  O11 UNL     1     -35.985  13.946  -6.474  1.00 20.00    -0.307 OA
ENDBRANCH   9  10
ENDBRANCH   8   9
ENDBRANCH   7   8
TORSDOF 3
ENDMDL
MODEL 9
REMARK VINA RESULT:      -4.3     10.961     12.660
REMARK  3 active torsions:
REMARK  status: ('A' for Active; 'I' for Inactive)
REMARK    1  A    between atoms: C3_3  and  C9_9 
REMARK    2  A    between atoms: C8_8  and  C10_10 
REMARK    3  A    between atoms: C9_9  and  C10_10 
ROOT
HETATM    1  C1  UNL     1     -34.470  14.516  -3.426  1.00 20.00    -0.026 C 
HETATM    2  C2  UNL     1     -33.405  15.040  -4.050  1.00 20.00    -0.025 C 
HETATM    3  C4  UNL     1     -33.910  16.450  -2.293  1.00 20.00     0.017 C 
HETATM    4  C5  UNL     1     -35.807  16.568  -3.734  1.00 20.00     0.013 C 
HETATM    5  C6  UNL     1     -35.151  15.641  -2.684  1.00 20.00     0.009 C 
HETATM    6  C7  UNL     1     -33.382  16.517  -3.732  1.00 20.00     0.012 C 
HETATM    7  C8  UNL     1     -34.574  17.225  -4.430  1.00 20.00    -0.006 C 
ENDROOT
BRANCH   7   8
HETATM    8  C10 UNL     1     -34.597  17.108  -5.946  1.00 20.00     0.012 C 
BRANCH   8   9
HETATM    9  C9  UNL     1     -35.876  16.439  -6.434  1.00 20.00     0.070 C 
BRANCH   9  10
HETATM   10  C3  UNL     1     -35.622  15.082  -7.046  1.00 20.00     0.231 C 
HETATM   11  O11 UNL     1     -35.917  14.013  -6.522  1.00 20.00    -0.307 OA
ENDBRANCH   9  10
ENDBRANCH   8   9
ENDBRANCH   7   8
TORSDOF 3
ENDMDL
