MODEL 1
REMARK VINA RESULT:      -4.5      0.000      0.000
REMARK  4 active torsions:
REMARK  status: ('A' for Active; 'I' for Inactive)
REMARK    1  A    between atoms: C1_1  and  C7_7 
REMARK    2  A    between atoms: C2_2  and  C9_9 
REMARK    3  A    between atoms: C9_9  and  C11_11 
REMARK    4  A    between atoms: C10_10  and  C11_11 
ROOT
HETATM    1  C3  UNL     1     -35.658  14.006  -4.139  1.00 20.00     0.006 C 
HETATM    2  C4  UNL     1     -35.602  14.570  -5.554  1.00 20.00     0.026 C 
HETATM    3  C5  UNL     1     -35.135  15.028  -3.133  1.00 20.00     0.045 C 
HETATM    4  C6  UNL     1     -34.219  15.130  -5.856  1.00 20.00     0.169 C 
HETATM    5  C7  UNL     1     -33.767  15.563  -3.565  1.00 20.00     0.200 C 
HETATM    6  O12 UNL     1     -33.846  16.108  -4.884  1.00 20.00    -0.374 OA
ENDROOT
BRANCH   5   7
HETATM    7  C1  UNL     1     -33.311  16.614  -2.646  1.00 20.00    -0.074 C 
HETATM    8  C2  UNL     1     -32.940  17.474  -1.896  1.00 20.00    -0.104 C 
BRANCH   8   9
HETATM    9  C9  UNL     1     -32.482  18.528  -0.979  1.00 20.00     0.094 C 
BRANCH   9  10
HETATM   10  C11 UNL     1     -31.060  18.250  -0.488  1.00 20.00     0.012 C 
BRANCH  10  11
HETATM   11  C10 UNL     1     -30.873  18.706   0.960  1.00 20.00    -0.004 C 
HETATM   12  C8  UNL     1     -32.044  18.281   1.832  1.00 20.00     0.005 C 
ENDBRANCH  10  11
ENDBRANCH   9  10
ENDBRANCH   8   9
ENDBRANCH   5   7
TORSDOF 4
ENDMDL
MODEL 2
REMARK VINA RESULT:      -4.5      1.208      1.948
REMARK  4 active torsions:
REMARK  status: ('A' for Active; 'I' for Inactive)
REMARK    1  A    between atoms: C1_1  and  C7_7 
REMARK    2  A    between atoms: C2_2  and  C9_9 
REMARK    3  A    between atoms: C9_9  and  C11_11 
REMARK    4  A    between atoms: C10_10  and  C11_11 
ROOT
HETATM    1  C3  UNL     1     -33.666  14.775  -4.574  1.00 20.00     0.006 C 
HETATM    2  C4  UNL     1     -34.855  14.221  -3.799  1.00 20.00     0.026 C 
HETATM    3  C5  UNL     1     -32.797  15.648  -3.673  1.00 20.00     0.045 C 
HETATM    4  C6  UNL     1     -35.591  15.337  -3.071  1.00 20.00     0.169 C 
HETATM    5  C7  UNL     1     -33.648  16.697  -2.952  1.00 20.00     0.200 C 
HETATM    6  O12 UNL     1     -34.700  16.060  -2.221  1.00 20.00    -0.374 OA
ENDROOT
BRANCH   5   7
HETATM    7  C1  UNL     1     -32.825  17.472  -2.014  1.00 20.00    -0.074 C 
HETATM    8  C2  UNL     1     -32.153  18.105  -1.247  1.00 20.00    -0.104 C 
BRANCH   8   9
HETATM    9  C9  UNL     1     -31.331  18.882  -0.308  1.00 20.00     0.094 C 
BRANCH   9  10
HETATM   10  C11 UNL     1     -31.139  18.130   1.009  1.00 20.00     0.012 C 
BRANCH  10  11
HETATM   11  C10 UNL     1     -32.021  18.711   2.115  1.00 20.00    -0.004 C 
HETATM   12  C8  UNL     1     -32.637  17.614   2.968  1.00 20.00     0.005 C 
ENDBRANCH  10  11
ENDBRANCH   9  10
ENDBRANCH   8   9
ENDBRANCH   5   7
TORSDOF 4
ENDMDL
MODEL 3
REMARK VINA RESULT:      -4.4     12.160     15.699
REMARK  4 active torsions:
REMARK  status: ('A' for Active; 'I' for Inactive)
REMARK    1  A    between atoms: C1_1  and  C7_7 
REMARK    2  A    between atoms: C2_2  and  C9_9 
REMARK    3  A    between atoms: C9_9  and  C11_11 
REMARK    4  A    between atoms: C10_10  and  C11_11 
ROOT
HETATM    1  C3  UNL     1     -41.223   7.482   0.598  1.00 20.00     0.006 C 
HETATM    2  C4  UNL     1     -41.610   8.651  -0.299  1.00 20.00     0.026 C 
HETATM    3  C5  UNL     1     -41.377   6.159  -0.147  1.00 20.00     0.045 C 
HETATM    4  C6  UNL     1     -42.974   8.417  -0.932  1.00 20.00     0.169 C 
HETATM    5  C7  UNL     1     -42.764   6.056  -0.787  1.00 20.00     0.200 C 
HETATM    6  O12 UNL     1     -42.996   7.178  -1.642  1.00 20.00    -0.374 OA
ENDROOT
BRANCH   5   7
HETATM    7  C1  UNL     1     -42.875   4.826  -1.583  1.00 20.00    -0.074 C 
HETATM    8  C2  UNL     1     -42.964   3.821  -2.233  1.00 20.00    -0.104 C 
BRANCH   8   9
HETATM    9  C9  UNL     1     -43.077   2.592  -3.030  1.00 20.00     0.094 C 
BRANCH   9  10
HETATM   10  C11 UNL     1     -41.853   2.402  -3.926  1.00 20.00     0.012 C 
BRANCH  10  11
HETATM   11  C10 UNL     1     -42.151   2.814  -5.369  1.00 20.00    -0.004 C 
HETATM   12  C8  UNL     1     -43.417   2.150  -5.886  1.00 20.00     0.005 C 
ENDBRANCH  10  11
ENDBRANCH   9  10
ENDBRANCH   8   9
ENDBRANCH   5   7
TORSDOF 4
ENDMDL
MODEL 4
REMARK VINA RESULT:      -4.3      2.078      6.632
REMARK  4 active torsions:
REMARK  status: ('A' for Active; 'I' for Inactive)
REMARK    1  A    between atoms: C1_1  and  C7_7 
REMARK    2  A    between atoms: C2_2  and  C9_9 
REMARK    3  A    between atoms: C9_9  and  C11_11 
REMARK    4  A    between atoms: C10_10  and  C11_11 
ROOT
HETATM    1  C3  UNL     1     -32.578  19.241   2.132  1.00 20.00     0.006 C 
HETATM    2  C4  UNL     1     -31.114  18.922   2.410  1.00 20.00     0.026 C 
HETATM    3  C5  UNL     1     -33.080  18.454   0.925  1.00 20.00     0.045 C 
HETATM    4  C6  UNL     1     -30.280  19.069   1.145  1.00 20.00     0.169 C 
HETATM    5  C7  UNL     1     -32.138  18.632  -0.268  1.00 20.00     0.200 C 
HETATM    6  O12 UNL     1     -30.807  18.257   0.094  1.00 20.00    -0.374 OA
ENDROOT
BRANCH   5   7
HETATM    7  C1  UNL     1     -32.572  17.797  -1.396  1.00 20.00    -0.074 C 
HETATM    8  C2  UNL     1     -32.927  17.114  -2.318  1.00 20.00    -0.104 C 
BRANCH   8   9
HETATM    9  C9  UNL     1     -33.358  16.278  -3.446  1.00 20.00     0.094 C 
BRANCH   9  10
HETATM   10  C11 UNL     1     -34.560  15.413  -3.063  1.00 20.00     0.012 C 
BRANCH  10  11
HETATM   11  C10 UNL     1     -34.580  14.106  -3.856  1.00 20.00    -0.004 C 
HETATM   12  C8  UNL     1     -35.965  13.813  -4.411  1.00 20.00     0.005 C 
ENDBRANCH  10  11
ENDBRANCH   9  10
ENDBRANCH   8   9
ENDBRANCH   5   7
TORSDOF 4
ENDMDL
MODEL 5
REMARK VINA RESULT:      -4.3     11.173     15.403
REMARK  4 active torsions:
REMARK  status: ('A' for Active; 'I' for Inactive)
REMARK    1  A    between atoms: C1_1  and  C7_7 
REMARK    2  A    between atoms: C2_2  and  C9_9 
REMARK    3  A    between atoms: C9_9  and  C11_11 
REMARK    4  A    between atoms: C10_10  and  C11_11 
ROOT
HETATM    1  C3  UNL     1     -24.658  16.708  11.939  1.00 20.00     0.006 C 
HETATM    2  C4  UNL     1     -23.147  16.564  12.072  1.00 20.00     0.026 C 
HETATM    3  C5  UNL     1     -25.036  17.115  10.518  1.00 20.00     0.045 C 
HETATM    4  C6  UNL     1     -22.439  17.802  11.541  1.00 20.00     0.169 C 
HETATM    5  C7  UNL     1     -24.225  18.334  10.070  1.00 20.00     0.200 C 
HETATM    6  O12 UNL     1     -22.826  18.067  10.192  1.00 20.00    -0.374 OA
ENDROOT
BRANCH   5   7
HETATM    7  C1  UNL     1     -24.522  18.664   8.670  1.00 20.00    -0.074 C 
HETATM    8  C2  UNL     1     -24.764  18.933   7.525  1.00 20.00    -0.104 C 
BRANCH   8   9
HETATM    9  C9  UNL     1     -25.058  19.262   6.123  1.00 20.00     0.094 C 
BRANCH   9  10
HETATM   10  C11 UNL     1     -26.411  18.692   5.696  1.00 20.00     0.012 C 
BRANCH  10  11
HETATM   11  C10 UNL     1     -26.552  18.677   4.174  1.00 20.00    -0.004 C 
HETATM   12  C8  UNL     1     -25.262  19.105   3.491  1.00 20.00     0.005 C 
ENDBRANCH  10  11
ENDBRANCH   9  10
ENDBRANCH   8   9
ENDBRANCH   5   7
TORSDOF 4
ENDMDL
MODEL 6
REMARK VINA RESULT:      -4.2      1.690      6.235
REMARK  4 active torsions:
REMARK  status: ('A' for Active; 'I' for Inactive)
REMARK    1  A    between atoms: C1_1  and  C7_7 
REMARK    2  A    between atoms: C2_2  and  C9_9 
REMARK    3  A    between atoms: C9_9  and  C11_11 
REMARK    4  A    between atoms: C10_10  and  C11_11 
ROOT
HETATM    1  C3  UNL     1     -33.957  18.760   0.568  1.00 20.00     0.006 C 
HETATM    2  C4  UNL     1     -32.475  18.875   0.900  1.00 20.00     0.026 C 
HETATM    3  C5  UNL     1     -34.194  17.655  -0.458  1.00 20.00     0.045 C 
HETATM    4  C6  UNL     1     -31.644  18.980  -0.372  1.00 20.00     0.169 C 
HETATM    5  C7  UNL     1     -33.269  17.830  -1.666  1.00 20.00     0.200 C 
HETATM    6  O12 UNL     1     -31.905  17.876  -1.239  1.00 20.00    -0.374 OA
ENDROOT
BRANCH   5   7
HETATM    7  C1  UNL     1     -33.432  16.712  -2.605  1.00 20.00    -0.074 C 
HETATM    8  C2  UNL     1     -33.564  15.799  -3.374  1.00 20.00    -0.104 C 
BRANCH   8   9
HETATM    9  C9  UNL     1     -33.729  14.682  -4.314  1.00 20.00     0.094 C 
BRANCH   9  10
HETATM   10  C11 UNL     1     -34.880  13.770  -3.889  1.00 20.00     0.012 C 
BRANCH  10  11
HETATM   11  C10 UNL     1     -36.103  13.963  -4.786  1.00 20.00    -0.004 C 
HETATM   12  C8  UNL     1     -35.712  14.519  -6.146  1.00 20.00     0.005 C 
ENDBRANCH  10  11
ENDBRANCH   9  10
ENDBRANCH   8   9
ENDBRANCH   5   7
TORSDOF 4
ENDMDL
MODEL 7
REMARK VINA RESULT:      -4.2      1.361      1.828
REMARK  4 active torsions:
REMARK  status: ('A' for Active; 'I' for Inactive)
REMARK    1  A    between atoms: C1_1  and  C7_7 
REMARK    2  A    between atoms: C2_2  and  C9_9 
REMARK    3  A    between atoms: C9_9  and  C11_11 
REMARK    4  A    between atoms: C10_10  and  C11_11 
ROOT
HETATM    1  C3  UNL     1     -36.321  14.054  -5.132  1.00 20.00     0.006 C 
HETATM    2  C4  UNL     1     -35.356  14.640  -6.155  1.00 20.00     0.026 C 
HETATM    3  C5  UNL     1     -36.328  14.894  -3.857  1.00 20.00     0.045 C 
HETATM    4  C6  UNL     1     -33.990  14.885  -5.530  1.00 20.00     0.169 C 
HETATM    5  C7  UNL     1     -34.902  15.121  -3.350  1.00 20.00     0.200 C 
HETATM    6  O12 UNL     1     -34.104  15.718  -4.376  1.00 20.00    -0.374 OA
ENDROOT
BRANCH   5   7
HETATM    7  C1  UNL     1     -34.906  16.009  -2.180  1.00 20.00    -0.074 C 
HETATM    8  C2  UNL     1     -34.911  16.734  -1.223  1.00 20.00    -0.104 C 
BRANCH   8   9
HETATM    9  C9  UNL     1     -34.914  17.625  -0.054  1.00 20.00     0.094 C 
BRANCH   9  10
HETATM   10  C11 UNL     1     -33.947  18.793  -0.249  1.00 20.00     0.012 C 
BRANCH  10  11
HETATM   11  C10 UNL     1     -32.592  18.507   0.397  1.00 20.00    -0.004 C 
HETATM   12  C8  UNL     1     -31.500  18.344  -0.649  1.00 20.00     0.005 C 
ENDBRANCH  10  11
ENDBRANCH   9  10
ENDBRANCH   8   9
ENDBRANCH   5   7
TORSDOF 4
ENDMDL
MODEL 8
REMARK VINA RESULT:      -4.2     12.971     16.498
REMARK  4 active torsions:
REMARK  status: ('A' for Active; 'I' for Inactive)
REMARK    1  A    between atoms: C1_1  and  C7_7 
REMARK    2  A    between atoms: C2_2  and  C9_9 
REMARK    3  A    between atoms: C9_9  and  C11_11 
REMARK    4  A    between atoms: C10_10  and  C11_11 
ROOT
HETATM    1  C3  UNL     1     -41.205   6.705   0.188  1.00 20.00     0.006 C 
HETATM    2  C4  UNL     1     -42.038   7.814  -0.444  1.00 20.00     0.026 C 
HETATM    3  C5  UNL     1     -41.043   5.537  -0.780  1.00 20.00     0.045 C 
HETATM    4  C6  UNL     1     -43.335   7.256  -1.013  1.00 20.00     0.169 C 
HETATM    5  C7  UNL     1     -42.403   5.095  -1.329  1.00 20.00     0.200 C 
HETATM    6  O12 UNL     1     -43.070   6.203  -1.939  1.00 20.00    -0.374 OA
ENDROOT
BRANCH   5   7
HETATM    7  C1  UNL     1     -42.234   4.035  -2.331  1.00 20.00    -0.074 C 
HETATM    8  C2  UNL     1     -42.096   3.169  -3.151  1.00 20.00    -0.104 C 
BRANCH   8   9
HETATM    9  C9  UNL     1     -41.928   2.110  -4.156  1.00 20.00     0.094 C 
BRANCH   9  10
HETATM   10  C11 UNL     1     -42.706   0.853  -3.766  1.00 20.00     0.012 C 
BRANCH  10  11
HETATM   11  C10 UNL     1     -42.451  -0.287  -4.754  1.00 20.00    -0.004 C 
HETATM   12  C8  UNL     1     -41.201  -1.071  -4.387  1.00 20.00     0.005 C 
ENDBRANCH  10  11
ENDBRANCH   9  10
ENDBRANCH   8   9
ENDBRANCH   5   7
TORSDOF 4
ENDMDL
MODEL 9
REMARK VINA RESULT:      -4.1      1.590      2.475
REMARK  4 active torsions:
REMARK  status: ('A' for Active; 'I' for Inactive)
REMARK    1  A    between atoms: C1_1  and  C7_7 
REMARK    2  A    between atoms: C2_2  and  C9_9 
REMARK    3  A    between atoms: C9_9  and  C11_11 
REMARK    4  A    between atoms: C10_10  and  C11_11 
ROOT
HETATM    1  C3  UNL     1     -33.318  15.562  -4.062  1.00 20.00     0.006 C 
HETATM    2  C4  UNL     1     -34.442  14.538  -3.960  1.00 20.00     0.026 C 
HETATM    3  C5  UNL     1     -33.154  16.315  -2.745  1.00 20.00     0.045 C 
HETATM    4  C6  UNL     1     -35.710  15.183  -3.418  1.00 20.00     0.169 C 
HETATM    5  C7  UNL     1     -34.498  16.872  -2.269  1.00 20.00     0.200 C 
HETATM    6  O12 UNL     1     -35.459  15.818  -2.163  1.00 20.00    -0.374 OA
ENDROOT
BRANCH   5   7
HETATM    7  C1  UNL     1     -34.355  17.512  -0.955  1.00 20.00    -0.074 C 
HETATM    8  C2  UNL     1     -34.236  18.035   0.119  1.00 20.00    -0.104 C 
BRANCH   8   9
HETATM    9  C9  UNL     1     -34.092  18.673   1.436  1.00 20.00     0.094 C 
BRANCH   9  10
HETATM   10  C11 UNL     1     -32.882  18.117   2.187  1.00 20.00     0.012 C 
BRANCH  10  11
HETATM   11  C10 UNL     1     -31.619  18.922   1.879  1.00 20.00    -0.004 C 
HETATM   12  C8  UNL     1     -30.716  18.187   0.900  1.00 20.00     0.005 C 
ENDBRANCH  10  11
ENDBRANCH   9  10
ENDBRANCH   8   9
ENDBRANCH   5   7
TORSDOF 4
ENDMDL
