MODEL 1
REMARK VINA RESULT:      -4.5      0.000      0.000
REMARK  3 active torsions:
REMARK  status: ('A' for Active; 'I' for Inactive)
REMARK    1  A    between atoms: C1_1  and  C3_3 
REMARK    2  A    between atoms: C2_2  and  C7_7 
REMARK    3  A    between atoms: C7_7  and  C8_8 
ROOT
HETATM    1  C1  UNL     1     -34.654  14.490  -3.849  1.00 20.00     0.045 C 
HETATM    2  C2  UNL     1     -34.772  15.582  -3.081  1.00 20.00    -0.023 C 
ENDROOT
BRANCH   2   3
HETATM    3  C7  UNL     1     -33.595  16.384  -2.600  1.00 20.00     0.031 C 
BRANCH   3   4
HETATM    4  C8  UNL     1     -33.995  17.545  -1.670  1.00 20.00    -0.019 C 
HETATM    5  C5  UNL     1     -35.073  17.079  -0.689  1.00 20.00     0.010 C 
HETATM    6  C6  UNL     1     -32.797  18.103  -0.895  1.00 20.00     0.010 C 
ENDBRANCH   3   4
ENDBRANCH   2   3
BRANCH   1   7
HETATM    7  C3  UNL     1     -35.862  13.738  -4.287  1.00 20.00     0.145 C 
HETATM    8  C4  UNL     1     -37.149  14.518  -4.376  1.00 20.00     0.096 C 
HETATM    9  O9  UNL     1     -35.830  12.538  -4.545  1.00 20.00    -0.294 OA
ENDBRANCH   1   7
TORSDOF 3
ENDMDL
MODEL 2
REMARK VINA RESULT:      -4.5     10.484     11.133
REMARK  3 active torsions:
REMARK  status: ('A' for Active; 'I' for Inactive)
REMARK    1  A    between atoms: C1_1  and  C3_3 
REMARK    2  A    between atoms: C2_2  and  C7_7 
REMARK    3  A    between atoms: C7_7  and  C8_8 
ROOT
HETATM    1  C1  UNL     1     -33.782   6.526   4.024  1.00 20.00     0.045 C 
HETATM    2  C2  UNL     1     -32.946   6.395   2.985  1.00 20.00    -0.023 C 
ENDROOT
BRANCH   2   3
HETATM    3  C7  UNL     1     -32.198   7.549   2.376  1.00 20.00     0.031 C 
BRANCH   3   4
HETATM    4  C8  UNL     1     -32.787   8.003   1.027  1.00 20.00    -0.019 C 
HETATM    5  C5  UNL     1     -33.146   9.490   1.089  1.00 20.00     0.010 C 
HETATM    6  C6  UNL     1     -31.822   7.753  -0.136  1.00 20.00     0.010 C 
ENDBRANCH   3   4
ENDBRANCH   2   3
BRANCH   1   7
HETATM    7  C3  UNL     1     -34.495   5.342   4.578  1.00 20.00     0.145 C 
HETATM    8  C4  UNL     1     -34.886   5.407   6.031  1.00 20.00     0.096 C 
HETATM    9  O9  UNL     1     -34.737   4.346   3.900  1.00 20.00    -0.294 OA
ENDBRANCH   1   7
TORSDOF 3
ENDMDL
MODEL 3
REMARK VINA RESULT:      -4.5     10.379     11.014
REMARK  3 active torsions:
REMARK  status: ('A' for Active; 'I' for Inactive)
REMARK    1  A    between atoms: C1_1  and  C3_3 
REMARK    2  A    between atoms: C2_2  and  C7_7 
REMARK    3  A    between atoms: C7_7  and  C8_8 
ROOT
HETATM    1  C1  UNL     1     -32.452   7.332   2.237  1.00 20.00     0.045 C 
HETATM    2  C2  UNL     1     -33.287   6.286   2.308  1.00 20.00    -0.023 C 
ENDROOT
BRANCH   2   3
HETATM    3  C7  UNL     1     -33.448   5.441   3.542  1.00 20.00     0.031 C 
BRANCH   3   4
HETATM    4  C8  UNL     1     -34.397   6.067   4.582  1.00 20.00    -0.019 C 
HETATM    5  C5  UNL     1     -35.117   4.964   5.361  1.00 20.00     0.010 C 
HETATM    6  C6  UNL     1     -33.656   6.989   5.555  1.00 20.00     0.010 C 
ENDBRANCH   3   4
ENDBRANCH   2   3
BRANCH   1   7
HETATM    7  C3  UNL     1     -32.337   8.126   0.983  1.00 20.00     0.145 C 
HETATM    8  C4  UNL     1     -33.190   9.364   0.886  1.00 20.00     0.096 C 
HETATM    9  O9  UNL     1     -31.605   7.787   0.057  1.00 20.00    -0.294 OA
ENDBRANCH   1   7
TORSDOF 3
ENDMDL
MODEL 4
REMARK VINA RESULT:      -4.4      0.725      1.364
REMARK  3 active torsions:
REMARK  status: ('A' for Active; 'I' for Inactive)
REMARK    1  A    between atoms: C1_1  and  C3_3 
REMARK    2  A    between atoms: C2_2  and  C7_7 
REMARK    3  A    between atoms: C7_7  and  C8_8 
ROOT
HETATM    1  C1  UNL     1     -34.428  14.395  -4.035  1.00 20.00     0.045 C 
HETATM    2  C2  UNL     1     -34.362  15.577  -3.409  1.00 20.00    -0.023 C 
ENDROOT
BRANCH   2   3
HETATM    3  C7  UNL     1     -33.070  16.299  -3.140  1.00 20.00     0.031 C 
BRANCH   3   4
HETATM    4  C8  UNL     1     -33.148  17.243  -1.925  1.00 20.00    -0.019 C 
HETATM    5  C5  UNL     1     -32.666  18.641  -2.319  1.00 20.00     0.010 C 
HETATM    6  C6  UNL     1     -34.566  17.327  -1.351  1.00 20.00     0.010 C 
ENDBRANCH   3   4
ENDBRANCH   2   3
BRANCH   1   7
HETATM    7  C3  UNL     1     -35.741  13.732  -4.267  1.00 20.00     0.145 C 
HETATM    8  C4  UNL     1     -36.965  14.605  -4.170  1.00 20.00     0.096 C 
HETATM    9  O9  UNL     1     -35.836  12.531  -4.504  1.00 20.00    -0.294 OA
ENDBRANCH   1   7
TORSDOF 3
ENDMDL
MODEL 5
REMARK VINA RESULT:      -4.1      2.795      5.278
REMARK  3 active torsions:
REMARK  status: ('A' for Active; 'I' for Inactive)
REMARK    1  A    between atoms: C1_1  and  C3_3 
REMARK    2  A    between atoms: C2_2  and  C7_7 
REMARK    3  A    between atoms: C7_7  and  C8_8 
ROOT
HETATM    1  C1  UNL     1     -33.397  17.503  -1.718  1.00 20.00     0.045 C 
HETATM    2  C2  UNL     1     -33.528  16.531  -2.631  1.00 20.00    -0.023 C 
ENDROOT
BRANCH   2   3
HETATM    3  C7  UNL     1     -34.716  15.611  -2.693  1.00 20.00     0.031 C 
BRANCH   3   4
HETATM    4  C8  UNL     1     -34.512  14.427  -3.657  1.00 20.00    -0.019 C 
HETATM    5  C5  UNL     1     -35.841  14.064  -4.325  1.00 20.00     0.010 C 
HETATM    6  C6  UNL     1     -33.460  14.730  -4.728  1.00 20.00     0.010 C 
ENDBRANCH   3   4
ENDBRANCH   2   3
BRANCH   1   7
HETATM    7  C3  UNL     1     -32.192  18.378  -1.711  1.00 20.00     0.145 C 
HETATM    8  C4  UNL     1     -31.307  18.299  -0.494  1.00 20.00     0.096 C 
HETATM    9  O9  UNL     1     -31.933  19.146  -2.634  1.00 20.00    -0.294 OA
ENDBRANCH   1   7
TORSDOF 3
ENDMDL
MODEL 6
REMARK VINA RESULT:      -4.1     13.916     16.338
REMARK  3 active torsions:
REMARK  status: ('A' for Active; 'I' for Inactive)
REMARK    1  A    between atoms: C1_1  and  C3_3 
REMARK    2  A    between atoms: C2_2  and  C7_7 
REMARK    3  A    between atoms: C7_7  and  C8_8 
ROOT
HETATM    1  C1  UNL     1     -25.161  19.237   8.188  1.00 20.00     0.045 C 
HETATM    2  C2  UNL     1     -24.480  18.371   8.949  1.00 20.00    -0.023 C 
ENDROOT
BRANCH   2   3
HETATM    3  C7  UNL     1     -24.624  18.295  10.444  1.00 20.00     0.031 C 
BRANCH   3   4
HETATM    4  C8  UNL     1     -23.745  17.201  11.080  1.00 20.00    -0.019 C 
HETATM    5  C5  UNL     1     -22.905  17.799  12.212  1.00 20.00     0.010 C 
HETATM    6  C6  UNL     1     -24.577  16.032  11.615  1.00 20.00     0.010 C 
ENDBRANCH   3   4
ENDBRANCH   2   3
BRANCH   1   7
HETATM    7  C3  UNL     1     -24.969  19.262   6.711  1.00 20.00     0.145 C 
HETATM    8  C4  UNL     1     -26.217  19.263   5.867  1.00 20.00     0.096 C 
HETATM    9  O9  UNL     1     -23.855  19.260   6.195  1.00 20.00    -0.294 OA
ENDBRANCH   1   7
TORSDOF 3
ENDMDL
MODEL 7
REMARK VINA RESULT:      -4.1     10.045     10.718
REMARK  3 active torsions:
REMARK  status: ('A' for Active; 'I' for Inactive)
REMARK    1  A    between atoms: C1_1  and  C3_3 
REMARK    2  A    between atoms: C2_2  and  C7_7 
REMARK    3  A    between atoms: C7_7  and  C8_8 
ROOT
HETATM    1  C1  UNL     1     -33.483   5.809   3.050  1.00 20.00     0.045 C 
HETATM    2  C2  UNL     1     -33.028   7.020   2.703  1.00 20.00    -0.023 C 
ENDROOT
BRANCH   2   3
HETATM    3  C7  UNL     1     -32.163   7.264   1.497  1.00 20.00     0.031 C 
BRANCH   3   4
HETATM    4  C8  UNL     1     -32.512   8.570   0.759  1.00 20.00    -0.019 C 
HETATM    5  C5  UNL     1     -33.373   8.261  -0.469  1.00 20.00     0.010 C 
HETATM    6  C6  UNL     1     -33.241   9.567   1.664  1.00 20.00     0.010 C 
ENDBRANCH   3   4
ENDBRANCH   2   3
BRANCH   1   7
HETATM    7  C3  UNL     1     -34.333   5.636   4.260  1.00 20.00     0.145 C 
HETATM    8  C4  UNL     1     -34.095   6.596   5.396  1.00 20.00     0.096 C 
HETATM    9  O9  UNL     1     -35.175   4.746   4.348  1.00 20.00    -0.294 OA
ENDBRANCH   1   7
TORSDOF 3
ENDMDL
MODEL 8
REMARK VINA RESULT:      -4.0     16.517     17.612
REMARK  3 active torsions:
REMARK  status: ('A' for Active; 'I' for Inactive)
REMARK    1  A    between atoms: C1_1  and  C3_3 
REMARK    2  A    between atoms: C2_2  and  C7_7 
REMARK    3  A    between atoms: C7_7  and  C8_8 
ROOT
HETATM    1  C1  UNL     1     -23.274  18.495   9.464  1.00 20.00     0.045 C 
HETATM    2  C2  UNL     1     -22.924  17.684  10.472  1.00 20.00    -0.023 C 
ENDROOT
BRANCH   2   3
HETATM    3  C7  UNL     1     -23.278  17.952  11.909  1.00 20.00     0.031 C 
BRANCH   3   4
HETATM    4  C8  UNL     1     -24.612  17.307  12.332  1.00 20.00    -0.019 C 
HETATM    5  C5  UNL     1     -25.774  18.242  11.990  1.00 20.00     0.010 C 
HETATM    6  C6  UNL     1     -24.830  15.945  11.666  1.00 20.00     0.010 C 
ENDBRANCH   3   4
ENDBRANCH   2   3
BRANCH   1   7
HETATM    7  C3  UNL     1     -22.889  18.172   8.063  1.00 20.00     0.145 C 
HETATM    8  C4  UNL     1     -21.628  17.368   7.877  1.00 20.00     0.096 C 
HETATM    9  O9  UNL     1     -23.544  18.556   7.098  1.00 20.00    -0.294 OA
ENDBRANCH   1   7
TORSDOF 3
ENDMDL
MODEL 9
REMARK VINA RESULT:      -4.0      1.158      1.833
REMARK  3 active torsions:
REMARK  status: ('A' for Active; 'I' for Inactive)
REMARK    1  A    between atoms: C1_1  and  C3_3 
REMARK    2  A    between atoms: C2_2  and  C7_7 
REMARK    3  A    between atoms: C7_7  and  C8_8 
ROOT
HETATM    1  C1  UNL     1     -35.238  15.237  -3.100  1.00 20.00     0.045 C 
HETATM    2  C2  UNL     1     -34.513  15.963  -2.239  1.00 20.00    -0.023 C 
ENDROOT
BRANCH   2   3
HETATM    3  C7  UNL     1     -35.102  17.034  -1.362  1.00 20.00     0.031 C 
BRANCH   3   4
HETATM    4  C8  UNL     1     -34.075  18.105  -0.947  1.00 20.00    -0.019 C 
HETATM    5  C5  UNL     1     -33.972  18.164   0.580  1.00 20.00     0.010 C 
HETATM    6  C6  UNL     1     -32.691  17.841  -1.548  1.00 20.00     0.010 C 
ENDBRANCH   3   4
ENDBRANCH   2   3
BRANCH   1   7
HETATM    7  C3  UNL     1     -34.592  14.193  -3.942  1.00 20.00     0.145 C 
HETATM    8  C4  UNL     1     -33.225  14.515  -4.488  1.00 20.00     0.096 C 
HETATM    9  O9  UNL     1     -35.145  13.128  -4.206  1.00 20.00    -0.294 OA
ENDBRANCH   1   7
TORSDOF 3
ENDMDL
