MODEL 1
REMARK VINA RESULT:      -5.6      0.000      0.000
REMARK  3 active torsions:
REMARK  status: ('A' for Active; 'I' for Inactive)
REMARK    1  A    between atoms: C3_3  and  C9_9 
REMARK    2  A    between atoms: C8_8  and  C10_10 
REMARK    3  A    between atoms: C9_9  and  C10_10 
ROOT
HETATM    1  C1  UNL     1     -34.706   5.122   5.980  1.00 20.00    -0.026 C 
HETATM    2  C2  UNL     1     -34.109   6.316   5.861  1.00 20.00    -0.025 C 
HETATM    3  C4  UNL     1     -35.534   6.100   4.057  1.00 20.00     0.017 C 
HETATM    4  C5  UNL     1     -33.929   4.378   3.749  1.00 20.00     0.013 C 
HETATM    5  C6  UNL     1     -35.173   4.716   4.601  1.00 20.00     0.009 C 
HETATM    6  C7  UNL     1     -34.164   6.701   4.398  1.00 20.00     0.012 C 
HETATM    7  C8  UNL     1     -33.195   5.752   3.643  1.00 20.00    -0.006 C 
ENDROOT
BRANCH   7   8
HETATM    8  C10 UNL     1     -32.956   6.173   2.198  1.00 20.00     0.012 C 
BRANCH   8   9
HETATM    9  C9  UNL     1     -32.431   7.599   2.114  1.00 20.00     0.070 C 
BRANCH   9  10
HETATM   10  C3  UNL     1     -32.793   8.272   0.812  1.00 20.00     0.231 C 
HETATM   11  O11 UNL     1     -32.756   9.482   0.617  1.00 20.00    -0.307 OA
ENDBRANCH   9  10
ENDBRANCH   8   9
ENDBRANCH   7   8
TORSDOF 3
ENDMDL
MODEL 2
REMARK VINA RESULT:      -5.0     15.829     16.771
REMARK  3 active torsions:
REMARK  status: ('A' for Active; 'I' for Inactive)
REMARK    1  A    between atoms: C3_3  and  C9_9 
REMARK    2  A    between atoms: C8_8  and  C10_10 
REMARK    3  A    between atoms: C9_9  and  C10_10 
ROOT
HETATM    1  C1  UNL     1     -25.606  16.855  12.292  1.00 20.00    -0.026 C 
HETATM    2  C2  UNL     1     -24.661  16.159  11.644  1.00 20.00    -0.025 C 
HETATM    3  C4  UNL     1     -23.681  18.133  12.332  1.00 20.00     0.017 C 
HETATM    4  C5  UNL     1     -25.358  18.813  10.796  1.00 20.00     0.013 C 
HETATM    5  C6  UNL     1     -25.199  18.309  12.248  1.00 20.00     0.009 C 
HETATM    6  C7  UNL     1     -23.630  17.152  11.154  1.00 20.00     0.012 C 
HETATM    7  C8  UNL     1     -24.296  17.973  10.018  1.00 20.00    -0.006 C 
ENDROOT
BRANCH   7   8
HETATM    8  C10 UNL     1     -23.308  18.850   9.258  1.00 20.00     0.012 C 
BRANCH   8   9
HETATM    9  C9  UNL     1     -21.940  18.189   9.161  1.00 20.00     0.070 C 
BRANCH   9  10
HETATM   10  C3  UNL     1     -21.783  17.365   7.907  1.00 20.00     0.231 C 
HETATM   11  O11 UNL     1     -22.038  17.761   6.774  1.00 20.00    -0.307 OA
ENDBRANCH   9  10
ENDBRANCH   8   9
ENDBRANCH   7   8
TORSDOF 3
ENDMDL
MODEL 3
REMARK VINA RESULT:      -4.8     11.315     12.214
REMARK  3 active torsions:
REMARK  status: ('A' for Active; 'I' for Inactive)
REMARK    1  A    between atoms: C3_3  and  C9_9 
REMARK    2  A    between atoms: C8_8  and  C10_10 
REMARK    3  A    between atoms: C9_9  and  C10_10 
ROOT
HETATM    1  C1  UNL     1     -33.506  18.113  -0.858  1.00 20.00    -0.026 C 
HETATM    2  C2  UNL     1     -32.534  17.807  -1.731  1.00 20.00    -0.025 C 
HETATM    3  C4  UNL     1     -34.432  18.246  -2.971  1.00 20.00     0.017 C 
HETATM    4  C5  UNL     1     -34.991  16.320  -1.701  1.00 20.00     0.013 C 
HETATM    5  C6  UNL     1     -34.824  17.848  -1.547  1.00 20.00     0.009 C 
HETATM    6  C7  UNL     1     -33.207  17.323  -2.997  1.00 20.00     0.012 C 
HETATM    7  C8  UNL     1     -33.834  15.940  -2.678  1.00 20.00    -0.006 C 
ENDROOT
BRANCH   7   8
HETATM    8  C10 UNL     1     -34.337  15.213  -3.920  1.00 20.00     0.012 C 
BRANCH   8   9
HETATM    9  C9  UNL     1     -35.813  14.861  -3.797  1.00 20.00     0.070 C 
BRANCH   9  10
HETATM   10  C3  UNL     1     -36.209  13.713  -4.693  1.00 20.00     0.231 C 
HETATM   11  O11 UNL     1     -35.864  12.548  -4.529  1.00 20.00    -0.307 OA
ENDBRANCH   9  10
ENDBRANCH   8   9
ENDBRANCH   7   8
TORSDOF 3
ENDMDL
MODEL 4
REMARK VINA RESULT:      -4.5     11.219     12.579
REMARK  3 active torsions:
REMARK  status: ('A' for Active; 'I' for Inactive)
REMARK    1  A    between atoms: C3_3  and  C9_9 
REMARK    2  A    between atoms: C8_8  and  C10_10 
REMARK    3  A    between atoms: C9_9  and  C10_10 
ROOT
HETATM    1  C1  UNL     1     -33.209  16.052  -3.029  1.00 20.00    -0.026 C 
HETATM    2  C2  UNL     1     -34.335  16.227  -2.322  1.00 20.00    -0.025 C 
HETATM    3  C4  UNL     1     -34.712  14.450  -3.746  1.00 20.00     0.017 C 
HETATM    4  C5  UNL     1     -34.386  16.304  -5.193  1.00 20.00     0.013 C 
HETATM    5  C6  UNL     1     -33.587  15.328  -4.300  1.00 20.00     0.009 C 
HETATM    6  C7  UNL     1     -35.468  15.634  -3.131  1.00 20.00     0.012 C 
HETATM    7  C8  UNL     1     -35.682  16.558  -4.358  1.00 20.00    -0.006 C 
ENDROOT
BRANCH   7   8
HETATM    8  C10 UNL     1     -36.949  16.228  -5.139  1.00 20.00     0.012 C 
BRANCH   8   9
HETATM    9  C9  UNL     1     -38.176  16.244  -4.239  1.00 20.00     0.070 C 
BRANCH   9  10
HETATM   10  C3  UNL     1     -38.857  14.900  -4.168  1.00 20.00     0.231 C 
HETATM   11  O11 UNL     1     -38.309  13.825  -4.389  1.00 20.00    -0.307 OA
ENDBRANCH   9  10
ENDBRANCH   8   9
ENDBRANCH   7   8
TORSDOF 3
ENDMDL
MODEL 5
REMARK VINA RESULT:      -4.5     11.344     12.382
REMARK  3 active torsions:
REMARK  status: ('A' for Active; 'I' for Inactive)
REMARK    1  A    between atoms: C3_3  and  C9_9 
REMARK    2  A    between atoms: C8_8  and  C10_10 
REMARK    3  A    between atoms: C9_9  and  C10_10 
ROOT
HETATM    1  C1  UNL     1     -34.754  14.471  -4.352  1.00 20.00    -0.026 C 
HETATM    2  C2  UNL     1     -35.640  14.747  -3.384  1.00 20.00    -0.025 C 
HETATM    3  C4  UNL     1     -35.063  16.761  -4.355  1.00 20.00     0.017 C 
HETATM    4  C5  UNL     1     -33.044  15.977  -3.381  1.00 20.00     0.013 C 
HETATM    5  C6  UNL     1     -33.958  15.731  -4.602  1.00 20.00     0.009 C 
HETATM    6  C7  UNL     1     -35.424  16.189  -2.978  1.00 20.00     0.012 C 
HETATM    7  C8  UNL     1     -34.065  16.252  -2.232  1.00 20.00    -0.006 C 
ENDROOT
BRANCH   7   8
HETATM    8  C10 UNL     1     -33.822  17.593  -1.549  1.00 20.00     0.012 C 
BRANCH   8   9
HETATM    9  C9  UNL     1     -32.432  18.130  -1.858  1.00 20.00     0.070 C 
BRANCH   9  10
HETATM   10  C3  UNL     1     -31.650  18.460  -0.610  1.00 20.00     0.231 C 
HETATM   11  O11 UNL     1     -30.438  18.316  -0.486  1.00 20.00    -0.307 OA
ENDBRANCH   9  10
ENDBRANCH   8   9
ENDBRANCH   7   8
TORSDOF 3
ENDMDL
MODEL 6
REMARK VINA RESULT:      -4.4     11.332     12.439
REMARK  3 active torsions:
REMARK  status: ('A' for Active; 'I' for Inactive)
REMARK    1  A    between atoms: C3_3  and  C9_9 
REMARK    2  A    between atoms: C8_8  and  C10_10 
REMARK    3  A    between atoms: C9_9  and  C10_10 
ROOT
HETATM    1  C1  UNL     1     -34.557  17.532  -1.708  1.00 20.00    -0.026 C 
HETATM    2  C2  UNL     1     -34.910  16.239  -1.724  1.00 20.00    -0.025 C 
HETATM    3  C4  UNL     1     -32.963  16.414  -2.953  1.00 20.00     0.017 C 
HETATM    4  C5  UNL     1     -34.550  17.684  -4.180  1.00 20.00     0.013 C 
HETATM    5  C6  UNL     1     -33.673  17.769  -2.910  1.00 20.00     0.009 C 
HETATM    6  C7  UNL     1     -34.273  15.616  -2.948  1.00 20.00     0.012 C 
HETATM    7  C8  UNL     1     -35.011  16.192  -4.186  1.00 20.00    -0.006 C 
ENDROOT
BRANCH   7   8
HETATM    8  C10 UNL     1     -34.646  15.478  -5.482  1.00 20.00     0.012 C 
BRANCH   8   9
HETATM    9  C9  UNL     1     -35.781  14.583  -5.960  1.00 20.00     0.070 C 
BRANCH   9  10
HETATM   10  C3  UNL     1     -36.329  13.707  -4.861  1.00 20.00     0.231 C 
HETATM   11  O11 UNL     1     -35.857  12.624  -4.529  1.00 20.00    -0.307 OA
ENDBRANCH   9  10
ENDBRANCH   8   9
ENDBRANCH   7   8
TORSDOF 3
ENDMDL
MODEL 7
REMARK VINA RESULT:      -4.4     11.462     12.680
REMARK  3 active torsions:
REMARK  status: ('A' for Active; 'I' for Inactive)
REMARK    1  A    between atoms: C3_3  and  C9_9 
REMARK    2  A    between atoms: C8_8  and  C10_10 
REMARK    3  A    between atoms: C9_9  and  C10_10 
ROOT
HETATM    1  C1  UNL     1     -35.235  15.758  -4.755  1.00 20.00    -0.026 C 
HETATM    2  C2  UNL     1     -34.579  16.920  -4.891  1.00 20.00    -0.025 C 
HETATM    3  C4  UNL     1     -33.203  15.514  -3.682  1.00 20.00     0.017 C 
HETATM    4  C5  UNL     1     -35.096  15.832  -2.284  1.00 20.00     0.013 C 
HETATM    5  C6  UNL     1     -34.658  15.058  -3.548  1.00 20.00     0.009 C 
HETATM    6  C7  UNL     1     -33.573  17.000  -3.763  1.00 20.00     0.012 C 
HETATM    7  C8  UNL     1     -34.378  17.208  -2.453  1.00 20.00    -0.006 C 
ENDROOT
BRANCH   7   8
HETATM    8  C10 UNL     1     -33.494  17.552  -1.259  1.00 20.00     0.012 C 
BRANCH   8   9
HETATM    9  C9  UNL     1     -32.317  18.424  -1.672  1.00 20.00     0.070 C 
BRANCH   9  10
HETATM   10  C3  UNL     1     -31.419  18.771  -0.510  1.00 20.00     0.231 C 
HETATM   11  O11 UNL     1     -30.292  18.320  -0.340  1.00 20.00    -0.307 OA
ENDBRANCH   9  10
ENDBRANCH   8   9
ENDBRANCH   7   8
TORSDOF 3
ENDMDL
MODEL 8
REMARK VINA RESULT:      -4.4     11.209     12.310
REMARK  3 active torsions:
REMARK  status: ('A' for Active; 'I' for Inactive)
REMARK    1  A    between atoms: C3_3  and  C9_9 
REMARK    2  A    between atoms: C8_8  and  C10_10 
REMARK    3  A    between atoms: C9_9  and  C10_10 
ROOT
HETATM    1  C1  UNL     1     -34.627  18.836  -1.802  1.00 20.00    -0.026 C 
HETATM    2  C2  UNL     1     -35.543  18.410  -2.684  1.00 20.00    -0.025 C 
HETATM    3  C4  UNL     1     -35.121  16.646  -1.256  1.00 20.00     0.017 C 
HETATM    4  C5  UNL     1     -33.056  17.008  -2.369  1.00 20.00     0.013 C 
HETATM    5  C6  UNL     1     -33.934  17.612  -1.251  1.00 20.00     0.009 C 
HETATM    6  C7  UNL     1     -35.449  16.900  -2.732  1.00 20.00     0.012 C 
HETATM    7  C8  UNL     1     -34.108  16.551  -3.429  1.00 20.00    -0.006 C 
ENDROOT
BRANCH   7   8
HETATM    8  C10 UNL     1     -33.981  15.071  -3.771  1.00 20.00     0.012 C 
BRANCH   8   9
HETATM    9  C9  UNL     1     -34.905  14.685  -4.918  1.00 20.00     0.070 C 
BRANCH   9  10
HETATM   10  C3  UNL     1     -35.973  13.707  -4.495  1.00 20.00     0.231 C 
HETATM   11  O11 UNL     1     -35.826  12.491  -4.443  1.00 20.00    -0.307 OA
ENDBRANCH   9  10
ENDBRANCH   8   9
ENDBRANCH   7   8
TORSDOF 3
ENDMDL
MODEL 9
REMARK VINA RESULT:      -4.3     11.464     12.294
REMARK  3 active torsions:
REMARK  status: ('A' for Active; 'I' for Inactive)
REMARK    1  A    between atoms: C3_3  and  C9_9 
REMARK    2  A    between atoms: C8_8  and  C10_10 
REMARK    3  A    between atoms: C9_9  and  C10_10 
ROOT
HETATM    1  C1  UNL     1     -35.709  14.055  -5.065  1.00 20.00    -0.026 C 
HETATM    2  C2  UNL     1     -36.585  14.397  -4.109  1.00 20.00    -0.025 C 
HETATM    3  C4  UNL     1     -35.591  16.351  -4.834  1.00 20.00     0.017 C 
HETATM    4  C5  UNL     1     -33.812  15.109  -3.871  1.00 20.00     0.013 C 
HETATM    5  C6  UNL     1     -34.682  15.160  -5.147  1.00 20.00     0.009 C 
HETATM    6  C7  UNL     1     -36.132  15.726  -3.543  1.00 20.00     0.012 C 
HETATM    7  C8  UNL     1     -34.831  15.457  -2.741  1.00 20.00    -0.006 C 
ENDROOT
BRANCH   7   8
HETATM    8  C10 UNL     1     -34.387  16.654  -1.908  1.00 20.00     0.012 C 
BRANCH   8   9
HETATM    9  C9  UNL     1     -32.992  17.117  -2.302  1.00 20.00     0.070 C 
BRANCH   9  10
HETATM   10  C3  UNL     1     -32.527  18.304  -1.493  1.00 20.00     0.231 C 
HETATM   11  O11 UNL     1     -31.490  18.925  -1.696  1.00 20.00    -0.307 OA
ENDBRANCH   9  10
ENDBRANCH   8   9
ENDBRANCH   7   8
TORSDOF 3
ENDMDL
