MODEL 1
REMARK VINA RESULT:      -5.2      0.000      0.000
REMARK  2 active torsions:
REMARK  status: ('A' for Active; 'I' for Inactive)
REMARK    1  A    between atoms: C6_6  and  C8_8 
REMARK    2  A    between atoms: C7_7  and  C8_8 
ROOT
HETATM    1  C1  UNL     1     -33.968  14.812  -5.610  1.00 20.00     0.075 C 
HETATM    2  C8  UNL     1     -34.264  14.397  -4.218  1.00 20.00     0.186 C 
HETATM    3  N9  UNL     1     -33.729  15.150  -6.695  1.00 20.00    -0.196 NA
ENDROOT
BRANCH   2   4
HETATM    4  C6  UNL     1     -34.126  15.520  -3.247  1.00 20.00    -0.031 A 
HETATM    5  C2  UNL     1     -32.990  16.323  -3.266  1.00 20.00     0.028 A 
HETATM    6  C4  UNL     1     -32.910  17.354  -2.343  1.00 20.00     0.116 A 
HETATM    7  N10 UNL     1     -33.867  17.626  -1.427  1.00 20.00    -0.273 NA
HETATM    8  C5  UNL     1     -34.955  16.824  -1.440  1.00 20.00     0.116 A 
HETATM    9  C3  UNL     1     -35.131  15.768  -2.320  1.00 20.00     0.028 A 
ENDBRANCH   2   4
BRANCH   2  10
HETATM   10  C7  UNL     1     -35.636  13.736  -4.127  1.00 20.00     0.255 C 
HETATM   11  O11 UNL     1     -35.905  12.602  -4.511  1.00 20.00    -0.305 OA
ENDBRANCH   2  10
TORSDOF 2
ENDMDL
MODEL 2
REMARK VINA RESULT:      -5.1      0.066      1.419
REMARK  2 active torsions:
REMARK  status: ('A' for Active; 'I' for Inactive)
REMARK    1  A    between atoms: C6_6  and  C8_8 
REMARK    2  A    between atoms: C7_7  and  C8_8 
ROOT
HETATM    1  C1  UNL     1     -33.937  14.764  -5.632  1.00 20.00     0.075 C 
HETATM    2  C8  UNL     1     -34.267  14.375  -4.241  1.00 20.00     0.186 C 
HETATM    3  N9  UNL     1     -33.671  15.082  -6.717  1.00 20.00    -0.196 NA
ENDROOT
BRANCH   2   4
HETATM    4  C6  UNL     1     -34.139  15.513  -3.285  1.00 20.00    -0.031 A 
HETATM    5  C2  UNL     1     -35.171  15.799  -2.398  1.00 20.00     0.028 A 
HETATM    6  C4  UNL     1     -35.003  16.866  -1.530  1.00 20.00     0.116 A 
HETATM    7  N10 UNL     1     -33.899  17.646  -1.495  1.00 20.00    -0.273 NA
HETATM    8  C5  UNL     1     -32.917  17.337  -2.371  1.00 20.00     0.116 A 
HETATM    9  C3  UNL     1     -32.988  16.292  -3.279  1.00 20.00     0.028 A 
ENDBRANCH   2   4
BRANCH   2  10
HETATM   10  C7  UNL     1     -35.646  13.728  -4.168  1.00 20.00     0.255 C 
HETATM   11  O11 UNL     1     -35.918  12.590  -4.543  1.00 20.00    -0.305 OA
ENDBRANCH   2  10
TORSDOF 2
ENDMDL
MODEL 3
REMARK VINA RESULT:      -4.9     15.639     17.067
REMARK  2 active torsions:
REMARK  status: ('A' for Active; 'I' for Inactive)
REMARK    1  A    between atoms: C6_6  and  C8_8 
REMARK    2  A    between atoms: C7_7  and  C8_8 
ROOT
HETATM    1  C1  UNL     1     -24.196  18.638   7.820  1.00 20.00     0.075 C 
HETATM    2  C8  UNL     1     -23.372  18.309   9.007  1.00 20.00     0.186 C 
HETATM    3  N9  UNL     1     -24.854  18.896   6.899  1.00 20.00    -0.196 NA
ENDROOT
BRANCH   2   4
HETATM    4  C6  UNL     1     -24.188  17.777  10.136  1.00 20.00    -0.031 A 
HETATM    5  C2  UNL     1     -25.127  18.589  10.763  1.00 20.00     0.028 A 
HETATM    6  C4  UNL     1     -25.859  18.047  11.807  1.00 20.00     0.116 A 
HETATM    7  N10 UNL     1     -25.716  16.778  12.253  1.00 20.00    -0.273 NA
HETATM    8  C5  UNL     1     -24.794  16.019  11.620  1.00 20.00     0.116 A 
HETATM    9  C3  UNL     1     -24.012  16.467  10.567  1.00 20.00     0.028 A 
ENDBRANCH   2   4
BRANCH   2  10
HETATM   10  C7  UNL     1     -22.235  17.362   8.635  1.00 20.00     0.255 C 
HETATM   11  O11 UNL     1     -22.032  16.902   7.516  1.00 20.00    -0.305 OA
ENDBRANCH   2  10
TORSDOF 2
ENDMDL
MODEL 4
REMARK VINA RESULT:      -4.7      1.583      1.793
REMARK  2 active torsions:
REMARK  status: ('A' for Active; 'I' for Inactive)
REMARK    1  A    between atoms: C6_6  and  C8_8 
REMARK    2  A    between atoms: C7_7  and  C8_8 
ROOT
HETATM    1  C1  UNL     1     -35.941  14.425  -5.983  1.00 20.00     0.075 C 
HETATM    2  C8  UNL     1     -36.078  14.276  -4.515  1.00 20.00     0.186 C 
HETATM    3  N9  UNL     1     -35.819  14.549  -7.131  1.00 20.00    -0.196 NA
ENDROOT
BRANCH   2   4
HETATM    4  C6  UNL     1     -35.094  15.106  -3.763  1.00 20.00    -0.031 A 
HETATM    5  C2  UNL     1     -33.774  15.185  -4.193  1.00 20.00     0.028 A 
HETATM    6  C4  UNL     1     -32.898  15.971  -3.460  1.00 20.00     0.116 A 
HETATM    7  N10 UNL     1     -33.250  16.664  -2.354  1.00 20.00    -0.273 NA
HETATM    8  C5  UNL     1     -34.541  16.563  -1.966  1.00 20.00     0.116 A 
HETATM    9  C3  UNL     1     -35.493  15.805  -2.629  1.00 20.00     0.028 A 
ENDBRANCH   2   4
BRANCH   2  10
HETATM   10  C7  UNL     1     -37.510  14.555  -4.070  1.00 20.00     0.255 C 
HETATM   11  O11 UNL     1     -38.500  13.920  -4.423  1.00 20.00    -0.305 OA
ENDBRANCH   2  10
TORSDOF 2
ENDMDL
MODEL 5
REMARK VINA RESULT:      -4.7     15.832     17.360
REMARK  2 active torsions:
REMARK  status: ('A' for Active; 'I' for Inactive)
REMARK    1  A    between atoms: C6_6  and  C8_8 
REMARK    2  A    between atoms: C7_7  and  C8_8 
ROOT
HETATM    1  C1  UNL     1     -24.610  16.641  11.653  1.00 20.00     0.075 C 
HETATM    2  C8  UNL     1     -24.515  18.047  11.196  1.00 20.00     0.186 C 
HETATM    3  N9  UNL     1     -24.674  15.534  11.998  1.00 20.00    -0.196 NA
ENDROOT
BRANCH   2   4
HETATM    4  C6  UNL     1     -24.032  18.159   9.790  1.00 20.00    -0.031 A 
HETATM    5  C2  UNL     1     -22.837  17.557   9.412  1.00 20.00     0.028 A 
HETATM    6  C4  UNL     1     -22.432  17.689   8.093  1.00 20.00     0.116 A 
HETATM    7  N10 UNL     1     -23.128  18.368   7.153  1.00 20.00    -0.273 NA
HETATM    8  C5  UNL     1     -24.284  18.939   7.557  1.00 20.00     0.116 A 
HETATM    9  C3  UNL     1     -24.776  18.866   8.852  1.00 20.00     0.028 A 
ENDBRANCH   2   4
BRANCH   2  10
HETATM   10  C7  UNL     1     -25.840  18.776  11.399  1.00 20.00     0.255 C 
HETATM   11  O11 UNL     1     -26.765  18.384  12.104  1.00 20.00    -0.305 OA
ENDBRANCH   2  10
TORSDOF 2
ENDMDL
MODEL 6
REMARK VINA RESULT:      -4.5      1.673      1.911
REMARK  2 active torsions:
REMARK  status: ('A' for Active; 'I' for Inactive)
REMARK    1  A    between atoms: C6_6  and  C8_8 
REMARK    2  A    between atoms: C7_7  and  C8_8 
ROOT
HETATM    1  C1  UNL     1     -35.850  14.531  -4.219  1.00 20.00     0.075 C 
HETATM    2  C8  UNL     1     -34.615  15.347  -4.284  1.00 20.00     0.186 C 
HETATM    3  N9  UNL     1     -36.823  13.901  -4.157  1.00 20.00    -0.196 NA
ENDROOT
BRANCH   2   4
HETATM    4  C6  UNL     1     -34.393  16.144  -3.043  1.00 20.00    -0.031 A 
HETATM    5  C2  UNL     1     -33.215  16.864  -2.877  1.00 20.00     0.028 A 
HETATM    6  C4  UNL     1     -33.057  17.589  -1.706  1.00 20.00     0.116 A 
HETATM    7  N10 UNL     1     -33.977  17.637  -0.717  1.00 20.00    -0.273 NA
HETATM    8  C5  UNL     1     -35.108  16.924  -0.913  1.00 20.00     0.116 A 
HETATM    9  C3  UNL     1     -35.362  16.168  -2.047  1.00 20.00     0.028 A 
ENDBRANCH   2   4
BRANCH   2  10
HETATM   10  C7  UNL     1     -33.407  14.481  -4.624  1.00 20.00     0.255 C 
HETATM   11  O11 UNL     1     -33.246  13.316  -4.271  1.00 20.00    -0.305 OA
ENDBRANCH   2  10
TORSDOF 2
ENDMDL
MODEL 7
REMARK VINA RESULT:      -4.5      3.156      5.093
REMARK  2 active torsions:
REMARK  status: ('A' for Active; 'I' for Inactive)
REMARK    1  A    between atoms: C6_6  and  C8_8 
REMARK    2  A    between atoms: C7_7  and  C8_8 
ROOT
HETATM    1  C1  UNL     1     -31.824  18.283  -0.756  1.00 20.00     0.075 C 
HETATM    2  C8  UNL     1     -33.282  18.257  -1.017  1.00 20.00     0.186 C 
HETATM    3  N9  UNL     1     -30.678  18.294  -0.565  1.00 20.00    -0.196 NA
ENDROOT
BRANCH   2   4
HETATM    4  C6  UNL     1     -33.680  17.136  -1.917  1.00 20.00    -0.031 A 
HETATM    5  C2  UNL     1     -34.908  16.507  -1.748  1.00 20.00     0.028 A 
HETATM    6  C4  UNL     1     -35.231  15.472  -2.610  1.00 20.00     0.116 A 
HETATM    7  N10 UNL     1     -34.425  15.036  -3.605  1.00 20.00    -0.273 NA
HETATM    8  C5  UNL     1     -33.240  15.672  -3.739  1.00 20.00     0.116 A 
HETATM    9  C3  UNL     1     -32.823  16.717  -2.928  1.00 20.00     0.028 A 
ENDBRANCH   2   4
BRANCH   2  10
HETATM   10  C7  UNL     1     -34.069  18.239   0.289  1.00 20.00     0.255 C 
HETATM   11  O11 UNL     1     -33.578  18.258   1.415  1.00 20.00    -0.305 OA
ENDBRANCH   2  10
TORSDOF 2
ENDMDL
MODEL 8
REMARK VINA RESULT:      -4.3      2.655      4.835
REMARK  2 active torsions:
REMARK  status: ('A' for Active; 'I' for Inactive)
REMARK    1  A    between atoms: C6_6  and  C8_8 
REMARK    2  A    between atoms: C7_7  and  C8_8 
ROOT
HETATM    1  C1  UNL     1     -34.672  17.441  -0.920  1.00 20.00     0.075 C 
HETATM    2  C8  UNL     1     -33.545  17.109  -1.824  1.00 20.00     0.186 C 
HETATM    3  N9  UNL     1     -35.561  17.687  -0.215  1.00 20.00    -0.196 NA
ENDROOT
BRANCH   2   4
HETATM    4  C6  UNL     1     -33.900  16.050  -2.811  1.00 20.00    -0.031 A 
HETATM    5  C2  UNL     1     -35.190  15.533  -2.848  1.00 20.00     0.028 A 
HETATM    6  C4  UNL     1     -35.469  14.550  -3.784  1.00 20.00     0.116 A 
HETATM    7  N10 UNL     1     -34.564  14.063  -4.662  1.00 20.00    -0.273 NA
HETATM    8  C5  UNL     1     -33.320  14.589  -4.597  1.00 20.00     0.116 A 
HETATM    9  C3  UNL     1     -32.941  15.574  -3.698  1.00 20.00     0.028 A 
ENDBRANCH   2   4
BRANCH   2  10
HETATM   10  C7  UNL     1     -33.009  18.363  -2.508  1.00 20.00     0.255 C 
HETATM   11  O11 UNL     1     -31.948  18.919  -2.239  1.00 20.00    -0.305 OA
ENDBRANCH   2  10
TORSDOF 2
ENDMDL
MODEL 9
REMARK VINA RESULT:      -4.3      2.677      4.621
REMARK  2 active torsions:
REMARK  status: ('A' for Active; 'I' for Inactive)
REMARK    1  A    between atoms: C6_6  and  C8_8 
REMARK    2  A    between atoms: C7_7  and  C8_8 
ROOT
HETATM    1  C1  UNL     1     -34.666  17.596  -1.085  1.00 20.00     0.075 C 
HETATM    2  C8  UNL     1     -33.503  17.127  -1.874  1.00 20.00     0.186 C 
HETATM    3  N9  UNL     1     -35.586  17.951  -0.471  1.00 20.00    -0.196 NA
ENDROOT
BRANCH   2   4
HETATM    4  C6  UNL     1     -33.863  16.041  -2.830  1.00 20.00    -0.031 A 
HETATM    5  C2  UNL     1     -32.915  15.555  -3.724  1.00 20.00     0.028 A 
HETATM    6  C4  UNL     1     -33.299  14.545  -4.592  1.00 20.00     0.116 A 
HETATM    7  N10 UNL     1     -34.539  14.005  -4.622  1.00 20.00    -0.273 NA
HETATM    8  C5  UNL     1     -35.433  14.503  -3.739  1.00 20.00     0.116 A 
HETATM    9  C3  UNL     1     -35.148  15.511  -2.831  1.00 20.00     0.028 A 
ENDBRANCH   2   4
BRANCH   2  10
HETATM   10  C7  UNL     1     -32.814  18.293  -2.576  1.00 20.00     0.255 C 
HETATM   11  O11 UNL     1     -31.870  18.936  -2.125  1.00 20.00    -0.305 OA
ENDBRANCH   2  10
TORSDOF 2
ENDMDL
