MODEL 1
REMARK VINA RESULT:      -4.8      0.000      0.000
REMARK  2 active torsions:
REMARK  status: ('A' for Active; 'I' for Inactive)
REMARK    1  A    between atoms: C6_6  and  O8_8 
REMARK    2  A    between atoms: N7_7  and  O8_8 
ROOT
HETATM    1  C1  UNL     1     -32.946   8.753   0.344  1.00 20.00     0.014 C 
HETATM    2  C2  UNL     1     -32.637   8.090   1.294  1.00 20.00    -0.089 C 
HETATM    3  C6  UNL     1     -32.259   7.282   2.455  1.00 20.00     0.296 C 
ENDROOT
BRANCH   3   4
HETATM    4  O8  UNL     1     -33.278   6.344   2.762  1.00 20.00    -0.244 OA
BRANCH   4   5
HETATM    5  N7  UNL     1     -33.751   6.621   4.051  1.00 20.00    -0.143 NA
HETATM    6  C3  UNL     1     -34.270   5.562   4.594  1.00 20.00     0.032 C 
HETATM    7  C4  UNL     1     -34.868   5.528   5.979  1.00 20.00     0.067 C 
HETATM    8  C5  UNL     1     -34.285   4.285   3.797  1.00 20.00     0.067 C 
ENDBRANCH   4   5
ENDBRANCH   3   4
TORSDOF 2
ENDMDL
MODEL 2
REMARK VINA RESULT:      -4.2      1.029      4.399
REMARK  2 active torsions:
REMARK  status: ('A' for Active; 'I' for Inactive)
REMARK    1  A    between atoms: C6_6  and  O8_8 
REMARK    2  A    between atoms: N7_7  and  O8_8 
ROOT
HETATM    1  C1  UNL     1     -34.866   5.390   6.011  1.00 20.00     0.014 C 
HETATM    2  C2  UNL     1     -34.604   5.097   4.878  1.00 20.00    -0.089 C 
HETATM    3  C6  UNL     1     -34.287   4.738   3.495  1.00 20.00     0.296 C 
ENDROOT
BRANCH   3   4
HETATM    4  O8  UNL     1     -33.018   5.255   3.126  1.00 20.00    -0.244 OA
BRANCH   4   5
HETATM    5  N7  UNL     1     -33.188   6.054   1.986  1.00 20.00    -0.143 NA
HETATM    6  C3  UNL     1     -32.620   7.210   2.140  1.00 20.00     0.032 C 
HETATM    7  C4  UNL     1     -32.621   8.299   1.095  1.00 20.00     0.067 C 
HETATM    8  C5  UNL     1     -31.917   7.495   3.440  1.00 20.00     0.067 C 
ENDBRANCH   4   5
ENDBRANCH   3   4
TORSDOF 2
ENDMDL
MODEL 3
REMARK VINA RESULT:      -3.9      1.556      3.995
REMARK  2 active torsions:
REMARK  status: ('A' for Active; 'I' for Inactive)
REMARK    1  A    between atoms: C6_6  and  O8_8 
REMARK    2  A    between atoms: N7_7  and  O8_8 
ROOT
HETATM    1  C1  UNL     1     -33.753   7.204   6.441  1.00 20.00     0.014 C 
HETATM    2  C2  UNL     1     -34.279   6.231   5.978  1.00 20.00    -0.089 C 
HETATM    3  C6  UNL     1     -34.922   5.043   5.415  1.00 20.00     0.296 C 
ENDROOT
BRANCH   3   4
HETATM    4  O8  UNL     1     -34.779   5.022   4.003  1.00 20.00    -0.244 OA
BRANCH   4   5
HETATM    5  N7  UNL     1     -34.187   6.229   3.607  1.00 20.00    -0.143 NA
HETATM    6  C3  UNL     1     -33.265   6.025   2.716  1.00 20.00     0.032 C 
HETATM    7  C4  UNL     1     -32.440   7.119   2.086  1.00 20.00     0.067 C 
HETATM    8  C5  UNL     1     -32.993   4.610   2.281  1.00 20.00     0.067 C 
ENDBRANCH   4   5
ENDBRANCH   3   4
TORSDOF 2
ENDMDL
MODEL 4
REMARK VINA RESULT:      -3.7     11.454     12.273
REMARK  2 active torsions:
REMARK  status: ('A' for Active; 'I' for Inactive)
REMARK    1  A    between atoms: C6_6  and  O8_8 
REMARK    2  A    between atoms: N7_7  and  O8_8 
ROOT
HETATM    1  C1  UNL     1     -34.422  16.258  -2.259  1.00 20.00     0.014 C 
HETATM    2  C2  UNL     1     -33.769  15.697  -3.096  1.00 20.00    -0.089 C 
HETATM    3  C6  UNL     1     -32.971  15.014  -4.114  1.00 20.00     0.296 C 
ENDROOT
BRANCH   3   4
HETATM    4  O8  UNL     1     -33.777  14.115  -4.858  1.00 20.00    -0.244 OA
BRANCH   4   5
HETATM    5  N7  UNL     1     -34.023  14.686  -6.114  1.00 20.00    -0.143 NA
HETATM    6  C3  UNL     1     -35.294  14.698  -6.379  1.00 20.00     0.032 C 
HETATM    7  C4  UNL     1     -35.887  15.247  -7.653  1.00 20.00     0.067 C 
HETATM    8  C5  UNL     1     -36.242  14.124  -5.361  1.00 20.00     0.067 C 
ENDBRANCH   4   5
ENDBRANCH   3   4
TORSDOF 2
ENDMDL
MODEL 5
REMARK VINA RESULT:      -3.5     11.074     12.066
REMARK  2 active torsions:
REMARK  status: ('A' for Active; 'I' for Inactive)
REMARK    1  A    between atoms: C6_6  and  O8_8 
REMARK    2  A    between atoms: N7_7  and  O8_8 
ROOT
HETATM    1  C1  UNL     1     -34.148  15.139  -3.495  1.00 20.00     0.014 C 
HETATM    2  C2  UNL     1     -34.911  14.342  -3.967  1.00 20.00    -0.089 C 
HETATM    3  C6  UNL     1     -35.840  13.369  -4.541  1.00 20.00     0.296 C 
ENDROOT
BRANCH   3   4
HETATM    4  O8  UNL     1     -36.853  14.026  -5.286  1.00 20.00    -0.244 OA
BRANCH   4   5
HETATM    5  N7  UNL     1     -38.030  14.017  -4.525  1.00 20.00    -0.143 NA
HETATM    6  C3  UNL     1     -38.585  15.190  -4.511  1.00 20.00     0.032 C 
HETATM    7  C4  UNL     1     -39.865  15.512  -3.781  1.00 20.00     0.067 C 
HETATM    8  C5  UNL     1     -37.913  16.307  -5.264  1.00 20.00     0.067 C 
ENDBRANCH   4   5
ENDBRANCH   3   4
TORSDOF 2
ENDMDL
MODEL 6
REMARK VINA RESULT:      -3.5     15.708     16.366
REMARK  2 active torsions:
REMARK  status: ('A' for Active; 'I' for Inactive)
REMARK    1  A    between atoms: C6_6  and  O8_8 
REMARK    2  A    between atoms: N7_7  and  O8_8 
ROOT
HETATM    1  C1  UNL     1     -25.642  19.206   6.111  1.00 20.00     0.014 C 
HETATM    2  C2  UNL     1     -25.260  19.216   7.248  1.00 20.00    -0.089 C 
HETATM    3  C6  UNL     1     -24.796  19.229   8.636  1.00 20.00     0.296 C 
ENDROOT
BRANCH   3   4
HETATM    4  O8  UNL     1     -23.969  18.106   8.895  1.00 20.00    -0.244 OA
BRANCH   4   5
HETATM    5  N7  UNL     1     -23.104  18.435   9.948  1.00 20.00    -0.143 NA
HETATM    6  C3  UNL     1     -23.215  17.586  10.924  1.00 20.00     0.032 C 
HETATM    7  C4  UNL     1     -22.421  17.660  12.204  1.00 20.00     0.067 C 
HETATM    8  C5  UNL     1     -24.199  16.456  10.780  1.00 20.00     0.067 C 
ENDBRANCH   4   5
ENDBRANCH   3   4
TORSDOF 2
ENDMDL
MODEL 7
REMARK VINA RESULT:      -3.5     11.342     12.063
REMARK  2 active torsions:
REMARK  status: ('A' for Active; 'I' for Inactive)
REMARK    1  A    between atoms: C6_6  and  O8_8 
REMARK    2  A    between atoms: N7_7  and  O8_8 
ROOT
HETATM    1  C1  UNL     1     -30.692  18.315   1.054  1.00 20.00     0.014 C 
HETATM    2  C2  UNL     1     -31.197  18.396  -0.031  1.00 20.00    -0.089 C 
HETATM    3  C6  UNL     1     -31.811  18.494  -1.356  1.00 20.00     0.296 C 
ENDROOT
BRANCH   3   4
HETATM    4  O8  UNL     1     -33.035  17.778  -1.392  1.00 20.00    -0.244 OA
BRANCH   4   5
HETATM    5  N7  UNL     1     -32.979  16.872  -2.460  1.00 20.00    -0.143 NA
HETATM    6  C3  UNL     1     -34.058  16.153  -2.518  1.00 20.00     0.032 C 
HETATM    7  C4  UNL     1     -34.309  15.086  -3.554  1.00 20.00     0.067 C 
HETATM    8  C5  UNL     1     -35.130  16.388  -1.487  1.00 20.00     0.067 C 
ENDBRANCH   4   5
ENDBRANCH   3   4
TORSDOF 2
ENDMDL
MODEL 8
REMARK VINA RESULT:      -3.4     11.068     12.793
REMARK  2 active torsions:
REMARK  status: ('A' for Active; 'I' for Inactive)
REMARK    1  A    between atoms: C6_6  and  O8_8 
REMARK    2  A    between atoms: N7_7  and  O8_8 
ROOT
HETATM    1  C1  UNL     1     -34.122  15.846  -2.840  1.00 20.00     0.014 C 
HETATM    2  C2  UNL     1     -34.704  14.944  -3.376  1.00 20.00    -0.089 C 
HETATM    3  C6  UNL     1     -35.415  13.844  -4.029  1.00 20.00     0.296 C 
ENDROOT
BRANCH   3   4
HETATM    4  O8  UNL     1     -35.133  13.825  -5.419  1.00 20.00    -0.244 OA
BRANCH   4   5
HETATM    5  N7  UNL     1     -36.169  14.497  -6.083  1.00 20.00    -0.143 NA
HETATM    6  C3  UNL     1     -35.699  15.276  -7.010  1.00 20.00     0.032 C 
HETATM    7  C4  UNL     1     -36.556  16.137  -7.905  1.00 20.00     0.067 C 
HETATM    8  C5  UNL     1     -34.208  15.334  -7.207  1.00 20.00     0.067 C 
ENDBRANCH   4   5
ENDBRANCH   3   4
TORSDOF 2
ENDMDL
MODEL 9
REMARK VINA RESULT:      -3.4     11.139     11.885
REMARK  2 active torsions:
REMARK  status: ('A' for Active; 'I' for Inactive)
REMARK    1  A    between atoms: C6_6  and  O8_8 
REMARK    2  A    between atoms: N7_7  and  O8_8 
ROOT
HETATM    1  C1  UNL     1     -34.003  15.513  -7.785  1.00 20.00     0.014 C 
HETATM    2  C2  UNL     1     -34.732  15.019  -6.970  1.00 20.00    -0.089 C 
HETATM    3  C6  UNL     1     -35.623  14.416  -5.978  1.00 20.00     0.296 C 
ENDROOT
BRANCH   3   4
HETATM    4  O8  UNL     1     -34.900  14.064  -4.809  1.00 20.00    -0.244 OA
BRANCH   4   5
HETATM    5  N7  UNL     1     -35.518  14.681  -3.712  1.00 20.00    -0.143 NA
HETATM    6  C3  UNL     1     -34.684  15.446  -3.077  1.00 20.00     0.032 C 
HETATM    7  C4  UNL     1     -35.039  16.251  -1.851  1.00 20.00     0.067 C 
HETATM    8  C5  UNL     1     -33.270  15.538  -3.586  1.00 20.00     0.067 C 
ENDBRANCH   4   5
ENDBRANCH   3   4
TORSDOF 2
ENDMDL
