MODEL 1
REMARK VINA RESULT:      -4.3      0.000      0.000
REMARK  2 active torsions:
REMARK  status: ('A' for Active; 'I' for Inactive)
REMARK    1  A    between atoms: C2_2  and  C3_3 
REMARK    2  A    between atoms: N7_7  and  N8_8 
ROOT
HETATM    1  C2  UNL     1     -33.257   6.333   2.464  1.00 20.00     0.138 C 
HETATM    2  N7  UNL     1     -32.532   7.405   2.433  1.00 20.00    -0.214 NA
ENDROOT
BRANCH   1   3
HETATM    3  C3  UNL     1     -33.796   5.752   3.729  1.00 20.00    -0.047 C 
HETATM    4  C1  UNL     1     -33.877   6.604   4.767  1.00 20.00    -0.023 C 
HETATM    5  C4  UNL     1     -34.374   6.308   6.146  1.00 20.00     0.036 C 
HETATM    6  C5  UNL     1     -34.179   4.306   3.707  1.00 20.00     0.049 C 
ENDBRANCH   1   3
BRANCH   2   7
HETATM    7  N8  UNL     1     -32.156   7.756   1.185  1.00 20.00    -0.222 NA
HETATM    8  C6  UNL     1     -32.900   8.852   0.589  1.00 20.00     0.135 C 
HETATM    9  H20 UNL     1     -32.151   6.951   0.558  1.00 20.00     0.148 HD
ENDBRANCH   2   7
TORSDOF 2
ENDMDL
MODEL 2
REMARK VINA RESULT:      -4.3     11.090     11.658
REMARK  2 active torsions:
REMARK  status: ('A' for Active; 'I' for Inactive)
REMARK    1  A    between atoms: C2_2  and  C3_3 
REMARK    2  A    between atoms: N7_7  and  N8_8 
ROOT
HETATM    1  C2  UNL     1     -36.694  14.938  -3.803  1.00 20.00     0.138 C 
HETATM    2  N7  UNL     1     -37.196  13.877  -4.351  1.00 20.00    -0.214 NA
ENDROOT
BRANCH   1   3
HETATM    3  C3  UNL     1     -35.236  15.095  -3.524  1.00 20.00    -0.047 C 
HETATM    4  C1  UNL     1     -34.411  14.499  -4.403  1.00 20.00    -0.023 C 
HETATM    5  C4  UNL     1     -32.916  14.487  -4.380  1.00 20.00     0.036 C 
HETATM    6  C5  UNL     1     -34.856  15.887  -2.312  1.00 20.00     0.049 C 
ENDBRANCH   1   3
BRANCH   2   7
HETATM    7  N8  UNL     1     -38.533  13.947  -4.516  1.00 20.00    -0.222 NA
HETATM    8  C6  UNL     1     -39.148  15.207  -4.134  1.00 20.00     0.135 C 
HETATM    9  H20 UNL     1     -39.007  13.170  -4.055  1.00 20.00     0.148 HD
ENDBRANCH   2   7
TORSDOF 2
ENDMDL
MODEL 3
REMARK VINA RESULT:      -4.1     10.852     11.599
REMARK  2 active torsions:
REMARK  status: ('A' for Active; 'I' for Inactive)
REMARK    1  A    between atoms: C2_2  and  C3_3 
REMARK    2  A    between atoms: N7_7  and  N8_8 
ROOT
HETATM    1  C2  UNL     1     -36.758  14.936  -3.796  1.00 20.00     0.138 C 
HETATM    2  N7  UNL     1     -37.273  13.890  -4.359  1.00 20.00    -0.214 NA
ENDROOT
BRANCH   1   3
HETATM    3  C3  UNL     1     -35.297  15.077  -3.527  1.00 20.00    -0.047 C 
HETATM    4  C1  UNL     1     -34.943  16.154  -2.802  1.00 20.00    -0.023 C 
HETATM    5  C4  UNL     1     -33.565  16.550  -2.380  1.00 20.00     0.036 C 
HETATM    6  C5  UNL     1     -34.396  14.021  -4.085  1.00 20.00     0.049 C 
ENDBRANCH   1   3
BRANCH   2   7
HETATM    7  N8  UNL     1     -38.612  13.974  -4.511  1.00 20.00    -0.222 NA
HETATM    8  C6  UNL     1     -39.214  15.231  -4.100  1.00 20.00     0.135 C 
HETATM    9  H20 UNL     1     -39.088  13.192  -4.062  1.00 20.00     0.148 HD
ENDBRANCH   2   7
TORSDOF 2
ENDMDL
MODEL 4
REMARK VINA RESULT:      -4.0     10.999     11.728
REMARK  2 active torsions:
REMARK  status: ('A' for Active; 'I' for Inactive)
REMARK    1  A    between atoms: C2_2  and  C3_3 
REMARK    2  A    between atoms: N7_7  and  N8_8 
ROOT
HETATM    1  C2  UNL     1     -33.617  15.924  -4.074  1.00 20.00     0.138 C 
HETATM    2  N7  UNL     1     -33.126  14.745  -4.284  1.00 20.00    -0.214 NA
ENDROOT
BRANCH   1   3
HETATM    3  C3  UNL     1     -33.803  16.495  -2.707  1.00 20.00    -0.047 C 
HETATM    4  C1  UNL     1     -32.842  17.342  -2.299  1.00 20.00    -0.023 C 
HETATM    5  C4  UNL     1     -32.763  18.061  -0.990  1.00 20.00     0.036 C 
HETATM    6  C5  UNL     1     -35.021  16.067  -1.950  1.00 20.00     0.049 C 
ENDBRANCH   1   3
BRANCH   2   7
HETATM    7  N8  UNL     1     -33.041  14.431  -5.594  1.00 20.00    -0.222 NA
HETATM    8  C6  UNL     1     -34.055  15.024  -6.450  1.00 20.00     0.135 C 
HETATM    9  H20 UNL     1     -33.008  13.422  -5.734  1.00 20.00     0.148 HD
ENDBRANCH   2   7
TORSDOF 2
ENDMDL
MODEL 5
REMARK VINA RESULT:      -4.0     11.091     11.582
REMARK  2 active torsions:
REMARK  status: ('A' for Active; 'I' for Inactive)
REMARK    1  A    between atoms: C2_2  and  C3_3 
REMARK    2  A    between atoms: N7_7  and  N8_8 
ROOT
HETATM    1  C2  UNL     1     -33.777  15.879  -3.935  1.00 20.00     0.138 C 
HETATM    2  N7  UNL     1     -32.964  14.898  -4.162  1.00 20.00    -0.214 NA
ENDROOT
BRANCH   1   3
HETATM    3  C3  UNL     1     -33.863  16.575  -2.617  1.00 20.00    -0.047 C 
HETATM    4  C1  UNL     1     -34.979  16.332  -1.907  1.00 20.00    -0.023 C 
HETATM    5  C4  UNL     1     -35.338  16.883  -0.564  1.00 20.00     0.036 C 
HETATM    6  C5  UNL     1     -32.715  17.456  -2.234  1.00 20.00     0.049 C 
ENDBRANCH   1   3
BRANCH   2   7
HETATM    7  N8  UNL     1     -33.047  14.420  -5.421  1.00 20.00    -0.222 NA
HETATM    8  C6  UNL     1     -34.081  15.015  -6.252  1.00 20.00     0.135 C 
HETATM    9  H20 UNL     1     -33.130  13.403  -5.429  1.00 20.00     0.148 HD
ENDBRANCH   2   7
TORSDOF 2
ENDMDL
MODEL 6
REMARK VINA RESULT:      -4.0     15.418     16.000
REMARK  2 active torsions:
REMARK  status: ('A' for Active; 'I' for Inactive)
REMARK    1  A    between atoms: C2_2  and  C3_3 
REMARK    2  A    between atoms: N7_7  and  N8_8 
ROOT
HETATM    1  C2  UNL     1     -23.825  18.601   8.598  1.00 20.00     0.138 C 
HETATM    2  N7  UNL     1     -23.435  18.370   7.385  1.00 20.00    -0.214 NA
ENDROOT
BRANCH   1   3
HETATM    3  C3  UNL     1     -23.409  17.759   9.759  1.00 20.00    -0.047 C 
HETATM    4  C1  UNL     1     -24.374  16.985  10.287  1.00 20.00    -0.023 C 
HETATM    5  C4  UNL     1     -24.251  16.046  11.444  1.00 20.00     0.036 C 
HETATM    6  C5  UNL     1     -21.985  17.870  10.205  1.00 20.00     0.049 C 
ENDBRANCH   1   3
BRANCH   2   7
HETATM    7  N8  UNL     1     -23.926  19.255   6.492  1.00 20.00    -0.222 NA
HETATM    8  C6  UNL     1     -25.372  19.263   6.345  1.00 20.00     0.135 C 
HETATM    9  H20 UNL     1     -23.480  19.152   5.581  1.00 20.00     0.148 HD
ENDBRANCH   2   7
TORSDOF 2
ENDMDL
MODEL 7
REMARK VINA RESULT:      -3.9      2.456      4.293
REMARK  2 active torsions:
REMARK  status: ('A' for Active; 'I' for Inactive)
REMARK    1  A    between atoms: C2_2  and  C3_3 
REMARK    2  A    between atoms: N7_7  and  N8_8 
ROOT
HETATM    1  C2  UNL     1     -34.036   5.685   3.948  1.00 20.00     0.138 C 
HETATM    2  N7  UNL     1     -34.735   4.623   4.196  1.00 20.00    -0.214 NA
ENDROOT
BRANCH   1   3
HETATM    3  C3  UNL     1     -33.274   5.877   2.679  1.00 20.00    -0.047 C 
HETATM    4  C1  UNL     1     -32.903   7.142   2.413  1.00 20.00    -0.023 C 
HETATM    5  C4  UNL     1     -32.137   7.633   1.227  1.00 20.00     0.036 C 
HETATM    6  C5  UNL     1     -33.011   4.659   1.850  1.00 20.00     0.049 C 
ENDBRANCH   1   3
BRANCH   2   7
HETATM    7  N8  UNL     1     -35.345   4.660   5.400  1.00 20.00    -0.222 NA
HETATM    8  C6  UNL     1     -34.850   5.663   6.326  1.00 20.00     0.135 C 
HETATM    9  H20 UNL     1     -35.349   3.741   5.844  1.00 20.00     0.148 HD
ENDBRANCH   2   7
TORSDOF 2
ENDMDL
MODEL 8
REMARK VINA RESULT:      -3.8      0.870      1.716
REMARK  2 active torsions:
REMARK  status: ('A' for Active; 'I' for Inactive)
REMARK    1  A    between atoms: C2_2  and  C3_3 
REMARK    2  A    between atoms: N7_7  and  N8_8 
ROOT
HETATM    1  C2  UNL     1     -32.835   7.373   3.184  1.00 20.00     0.138 C 
HETATM    2  N7  UNL     1     -32.849   7.048   1.930  1.00 20.00    -0.214 NA
ENDROOT
BRANCH   1   3
HETATM    3  C3  UNL     1     -33.568   6.600   4.231  1.00 20.00    -0.047 C 
HETATM    4  C1  UNL     1     -34.220   5.508   3.794  1.00 20.00    -0.023 C 
HETATM    5  C4  UNL     1     -35.030   4.550   4.606  1.00 20.00     0.036 C 
HETATM    6  C5  UNL     1     -33.500   7.119   5.633  1.00 20.00     0.049 C 
ENDBRANCH   1   3
BRANCH   2   7
HETATM    7  N8  UNL     1     -32.116   7.879   1.160  1.00 20.00    -0.222 NA
HETATM    8  C6  UNL     1     -32.848   8.971   0.540  1.00 20.00     0.135 C 
HETATM    9  H20 UNL     1     -31.588   7.365   0.455  1.00 20.00     0.148 HD
ENDBRANCH   2   7
TORSDOF 2
ENDMDL
MODEL 9
REMARK VINA RESULT:      -3.8     15.579     16.114
REMARK  2 active torsions:
REMARK  status: ('A' for Active; 'I' for Inactive)
REMARK    1  A    between atoms: C2_2  and  C3_3 
REMARK    2  A    between atoms: N7_7  and  N8_8 
ROOT
HETATM    1  C2  UNL     1     -23.244  17.122  10.637  1.00 20.00     0.138 C 
HETATM    2  N7  UNL     1     -23.120  16.557   9.478  1.00 20.00    -0.214 NA
ENDROOT
BRANCH   1   3
HETATM    3  C3  UNL     1     -24.547  17.220  11.358  1.00 20.00    -0.047 C 
HETATM    4  C1  UNL     1     -25.151  18.420  11.302  1.00 20.00    -0.023 C 
HETATM    5  C4  UNL     1     -26.454  18.809  11.923  1.00 20.00     0.036 C 
HETATM    6  C5  UNL     1     -25.032  15.989  12.057  1.00 20.00     0.049 C 
ENDBRANCH   1   3
BRANCH   2   7
HETATM    7  N8  UNL     1     -21.854  16.576   9.011  1.00 20.00    -0.222 NA
HETATM    8  C6  UNL     1     -21.644  17.341   7.794  1.00 20.00     0.135 C 
HETATM    9  H20 UNL     1     -21.482  15.632   8.903  1.00 20.00     0.148 HD
ENDBRANCH   2   7
TORSDOF 2
ENDMDL
