MODEL 1
REMARK VINA RESULT:      -5.6      0.000      0.000
REMARK  1 active torsions:
REMARK  status: ('A' for Active; 'I' for Inactive)
REMARK    1  A    between atoms: C3_3  and  C7_7 
ROOT
HETATM    1  C1  UNL     1     -33.568  16.532  -2.541  1.00 20.00    -0.082 C 
HETATM    2  C2  UNL     1     -34.839  16.361  -2.110  1.00 20.00    -0.081 C 
HETATM    3  C4  UNL     1     -33.007  15.755  -3.712  1.00 20.00     0.035 C 
HETATM    4  C5  UNL     1     -35.803  15.418  -2.804  1.00 20.00     0.050 C 
HETATM    5  C6  UNL     1     -33.880  14.589  -4.179  1.00 20.00     0.021 C 
HETATM    6  C7  UNL     1     -35.369  14.954  -4.208  1.00 20.00     0.013 C 
HETATM    7  C8  UNL     1     -32.582  17.502  -1.944  1.00 20.00     0.043 C 
HETATM    8  C9  UNL     1     -35.438  17.046  -0.910  1.00 20.00     0.043 C 
HETATM    9  C10 UNL     1     -35.670  16.023  -5.269  1.00 20.00     0.023 C 
ENDROOT
BRANCH   6  10
HETATM   10  C3  UNL     1     -36.167  13.723  -4.557  1.00 20.00     0.240 C 
HETATM   11  O11 UNL     1     -35.736  12.581  -4.436  1.00 20.00    -0.306 OA
ENDBRANCH   6  10
TORSDOF 1
ENDMDL
MODEL 2
REMARK VINA RESULT:      -4.7      1.329      2.395
REMARK  1 active torsions:
REMARK  status: ('A' for Active; 'I' for Inactive)
REMARK    1  A    between atoms: C3_3  and  C7_7 
ROOT
HETATM    1  C1  UNL     1     -33.635  17.511  -3.497  1.00 20.00    -0.082 C 
HETATM    2  C2  UNL     1     -34.194  17.351  -4.718  1.00 20.00    -0.081 C 
HETATM    3  C4  UNL     1     -33.804  16.484  -2.397  1.00 20.00     0.035 C 
HETATM    4  C5  UNL     1     -34.983  16.107  -5.085  1.00 20.00     0.050 C 
HETATM    5  C6  UNL     1     -34.860  15.416  -2.680  1.00 20.00     0.021 C 
HETATM    6  C7  UNL     1     -34.804  14.913  -4.128  1.00 20.00     0.013 C 
HETATM    7  C8  UNL     1     -32.783  18.684  -3.089  1.00 20.00     0.043 C 
HETATM    8  C9  UNL     1     -34.127  18.362  -5.832  1.00 20.00     0.043 C 
HETATM    9  C10 UNL     1     -33.499  14.155  -4.414  1.00 20.00     0.023 C 
ENDROOT
BRANCH   6  10
HETATM   10  C3  UNL     1     -35.949  13.959  -4.358  1.00 20.00     0.240 C 
HETATM   11  O11 UNL     1     -35.805  12.749  -4.488  1.00 20.00    -0.306 OA
ENDBRANCH   6  10
TORSDOF 1
ENDMDL
MODEL 3
REMARK VINA RESULT:      -4.7      2.679      4.631
REMARK  1 active torsions:
REMARK  status: ('A' for Active; 'I' for Inactive)
REMARK    1  A    between atoms: C3_3  and  C7_7 
ROOT
HETATM    1  C1  UNL     1     -35.079  15.481  -3.144  1.00 20.00    -0.082 C 
HETATM    2  C2  UNL     1     -33.777  15.497  -3.509  1.00 20.00    -0.081 C 
HETATM    3  C4  UNL     1     -35.620  16.391  -2.061  1.00 20.00     0.035 C 
HETATM    4  C5  UNL     1     -32.782  16.465  -2.898  1.00 20.00     0.050 C 
HETATM    5  C6  UNL     1     -34.548  17.113  -1.243  1.00 20.00     0.021 C 
HETATM    6  C7  UNL     1     -33.405  17.639  -2.120  1.00 20.00     0.013 C 
HETATM    7  C8  UNL     1     -36.133  14.597  -3.757  1.00 20.00     0.043 C 
HETATM    8  C9  UNL     1     -33.160  14.571  -4.524  1.00 20.00     0.043 C 
HETATM    9  C10 UNL     1     -33.883  18.749  -3.068  1.00 20.00     0.023 C 
ENDROOT
BRANCH   6  10
HETATM   10  C3  UNL     1     -32.337  18.224  -1.230  1.00 20.00     0.240 C 
HETATM   11  O11 UNL     1     -31.464  18.985  -1.633  1.00 20.00    -0.306 OA
ENDBRANCH   6  10
TORSDOF 1
ENDMDL
MODEL 4
REMARK VINA RESULT:      -4.5      1.392      2.358
REMARK  1 active torsions:
REMARK  status: ('A' for Active; 'I' for Inactive)
REMARK    1  A    between atoms: C3_3  and  C7_7 
ROOT
HETATM    1  C1  UNL     1     -34.001  17.134  -2.440  1.00 20.00    -0.082 C 
HETATM    2  C2  UNL     1     -33.716  17.546  -3.696  1.00 20.00    -0.081 C 
HETATM    3  C4  UNL     1     -34.798  15.875  -2.170  1.00 20.00     0.035 C 
HETATM    4  C5  UNL     1     -34.127  16.746  -4.918  1.00 20.00     0.050 C 
HETATM    5  C6  UNL     1     -35.474  15.274  -3.402  1.00 20.00     0.021 C 
HETATM    6  C7  UNL     1     -34.561  15.296  -4.635  1.00 20.00     0.013 C 
HETATM    7  C8  UNL     1     -33.563  17.841  -1.184  1.00 20.00     0.043 C 
HETATM    8  C9  UNL     1     -32.992  18.822  -4.037  1.00 20.00     0.043 C 
HETATM    9  C10 UNL     1     -33.346  14.372  -4.455  1.00 20.00     0.023 C 
ENDROOT
BRANCH   6  10
HETATM   10  C3  UNL     1     -35.340  14.803  -5.828  1.00 20.00     0.240 C 
HETATM   11  O11 UNL     1     -35.983  13.759  -5.831  1.00 20.00    -0.306 OA
ENDBRANCH   6  10
TORSDOF 1
ENDMDL
MODEL 5
REMARK VINA RESULT:      -4.4      1.478      1.900
REMARK  1 active torsions:
REMARK  status: ('A' for Active; 'I' for Inactive)
REMARK    1  A    between atoms: C3_3  and  C7_7 
ROOT
HETATM    1  C1  UNL     1     -33.909  17.586  -4.271  1.00 20.00    -0.082 C 
HETATM    2  C2  UNL     1     -33.761  16.915  -3.107  1.00 20.00    -0.081 C 
HETATM    3  C4  UNL     1     -34.447  16.919  -5.519  1.00 20.00     0.035 C 
HETATM    4  C5  UNL     1     -34.176  15.463  -2.957  1.00 20.00     0.050 C 
HETATM    5  C6  UNL     1     -34.546  15.396  -5.434  1.00 20.00     0.021 C 
HETATM    6  C7  UNL     1     -35.084  14.923  -4.078  1.00 20.00     0.013 C 
HETATM    7  C8  UNL     1     -33.584  19.044  -4.470  1.00 20.00     0.043 C 
HETATM    8  C9  UNL     1     -33.166  17.495  -1.851  1.00 20.00     0.043 C 
HETATM    9  C10 UNL     1     -36.545  15.349  -3.870  1.00 20.00     0.023 C 
ENDROOT
BRANCH   6  10
HETATM   10  C3  UNL     1     -35.034  13.417  -4.031  1.00 20.00     0.240 C 
HETATM   11  O11 UNL     1     -35.899  12.696  -4.518  1.00 20.00    -0.306 OA
ENDBRANCH   6  10
TORSDOF 1
ENDMDL
MODEL 6
REMARK VINA RESULT:      -4.2      1.451      2.678
REMARK  1 active torsions:
REMARK  status: ('A' for Active; 'I' for Inactive)
REMARK    1  A    between atoms: C3_3  and  C7_7 
ROOT
HETATM    1  C1  UNL     1     -34.879  16.801  -1.755  1.00 20.00    -0.082 C 
HETATM    2  C2  UNL     1     -33.670  17.004  -2.327  1.00 20.00    -0.081 C 
HETATM    3  C4  UNL     1     -36.028  16.170  -2.512  1.00 20.00     0.035 C 
HETATM    4  C5  UNL     1     -33.368  16.564  -3.747  1.00 20.00     0.050 C 
HETATM    5  C6  UNL     1     -35.803  16.040  -4.019  1.00 20.00     0.021 C 
HETATM    6  C7  UNL     1     -34.380  15.575  -4.355  1.00 20.00     0.013 C 
HETATM    7  C8  UNL     1     -35.225  17.148  -0.331  1.00 20.00     0.043 C 
HETATM    8  C9  UNL     1     -32.508  17.690  -1.657  1.00 20.00     0.043 C 
HETATM    9  C10 UNL     1     -34.123  14.140  -3.869  1.00 20.00     0.023 C 
ENDROOT
BRANCH   6  10
HETATM   10  C3  UNL     1     -34.202  15.591  -5.853  1.00 20.00     0.240 C 
HETATM   11  O11 UNL     1     -33.755  14.644  -6.491  1.00 20.00    -0.306 OA
ENDBRANCH   6  10
TORSDOF 1
ENDMDL
MODEL 7
REMARK VINA RESULT:      -4.2      1.540      2.569
REMARK  1 active torsions:
REMARK  status: ('A' for Active; 'I' for Inactive)
REMARK    1  A    between atoms: C3_3  and  C7_7 
ROOT
HETATM    1  C1  UNL     1     -36.098  17.350  -3.090  1.00 20.00    -0.082 C 
HETATM    2  C2  UNL     1     -35.299  16.710  -2.207  1.00 20.00    -0.081 C 
HETATM    3  C4  UNL     1     -35.994  17.115  -4.582  1.00 20.00     0.035 C 
HETATM    4  C5  UNL     1     -34.282  15.674  -2.646  1.00 20.00     0.050 C 
HETATM    5  C6  UNL     1     -34.758  16.328  -5.017  1.00 20.00     0.021 C 
HETATM    6  C7  UNL     1     -34.462  15.148  -4.083  1.00 20.00     0.013 C 
HETATM    7  C8  UNL     1     -37.175  18.336  -2.718  1.00 20.00     0.043 C 
HETATM    8  C9  UNL     1     -35.300  16.949  -0.719  1.00 20.00     0.043 C 
HETATM    9  C10 UNL     1     -35.564  14.079  -4.154  1.00 20.00     0.023 C 
ENDROOT
BRANCH   6  10
HETATM   10  C3  UNL     1     -33.168  14.502  -4.506  1.00 20.00     0.240 C 
HETATM   11  O11 UNL     1     -32.922  13.311  -4.347  1.00 20.00    -0.306 OA
ENDBRANCH   6  10
TORSDOF 1
ENDMDL
MODEL 8
REMARK VINA RESULT:      -4.2      1.633      2.364
REMARK  1 active torsions:
REMARK  status: ('A' for Active; 'I' for Inactive)
REMARK    1  A    between atoms: C3_3  and  C7_7 
ROOT
HETATM    1  C1  UNL     1     -34.054  14.902  -4.083  1.00 20.00    -0.082 C 
HETATM    2  C2  UNL     1     -34.721  15.691  -3.210  1.00 20.00    -0.081 C 
HETATM    3  C4  UNL     1     -34.775  14.045  -5.102  1.00 20.00     0.035 C 
HETATM    4  C5  UNL     1     -36.233  15.812  -3.229  1.00 20.00     0.050 C 
HETATM    5  C6  UNL     1     -36.284  13.933  -4.886  1.00 20.00     0.021 C 
HETATM    6  C7  UNL     1     -36.917  15.276  -4.501  1.00 20.00     0.013 C 
HETATM    7  C8  UNL     1     -32.554  14.789  -4.166  1.00 20.00     0.043 C 
HETATM    8  C9  UNL     1     -34.072  16.512  -2.127  1.00 20.00     0.043 C 
HETATM    9  C10 UNL     1     -36.834  16.291  -5.652  1.00 20.00     0.023 C 
ENDROOT
BRANCH   6  10
HETATM   10  C3  UNL     1     -38.375  15.057  -4.187  1.00 20.00     0.240 C 
HETATM   11  O11 UNL     1     -38.963  14.003  -4.407  1.00 20.00    -0.306 OA
ENDBRANCH   6  10
TORSDOF 1
ENDMDL
MODEL 9
REMARK VINA RESULT:      -4.1     17.222     17.712
REMARK  1 active torsions:
REMARK  status: ('A' for Active; 'I' for Inactive)
REMARK    1  A    between atoms: C3_3  and  C7_7 
ROOT
HETATM    1  C1  UNL     1     -25.330  16.912  11.349  1.00 20.00    -0.082 C 
HETATM    2  C2  UNL     1     -25.275  18.190  10.910  1.00 20.00    -0.081 C 
HETATM    3  C4  UNL     1     -24.338  15.864  10.890  1.00 20.00     0.035 C 
HETATM    4  C5  UNL     1     -24.184  18.673   9.973  1.00 20.00     0.050 C 
HETATM    5  C6  UNL     1     -23.464  16.288   9.710  1.00 20.00     0.021 C 
HETATM    6  C7  UNL     1     -22.970  17.734   9.843  1.00 20.00     0.013 C 
HETATM    7  C8  UNL     1     -26.341  16.383  12.332  1.00 20.00     0.043 C 
HETATM    8  C9  UNL     1     -26.270  19.263  11.268  1.00 20.00     0.043 C 
HETATM    9  C10 UNL     1     -22.007  17.896  11.029  1.00 20.00     0.023 C 
ENDROOT
BRANCH   6  10
HETATM   10  C3  UNL     1     -22.223  18.112   8.589  1.00 20.00     0.240 C 
HETATM   11  O11 UNL     1     -22.738  18.134   7.476  1.00 20.00    -0.306 OA
ENDBRANCH   6  10
TORSDOF 1
ENDMDL
