MODEL 1
REMARK VINA RESULT:      -3.7      0.000      0.000
REMARK  0 active torsions:
REMARK  status: ('A' for Active; 'I' for Inactive)
ROOT
HETATM    1  C1  UNL     1     -24.712  18.660   9.780  1.00 20.00     0.062 C 
HETATM    2  C2  UNL     1     -24.932  18.467  12.267  1.00 20.00     0.113 C 
HETATM    3  C3  UNL     1     -23.855  17.595  11.604  1.00 20.00     0.056 C 
HETATM    4  C4  UNL     1     -24.852  19.191   8.395  1.00 20.00     0.078 C 
HETATM    5  C5  UNL     1     -22.517  17.758  12.332  1.00 20.00     0.041 C 
HETATM    6  C6  UNL     1     -24.246  16.110  11.590  1.00 20.00     0.041 C 
HETATM    7  N7  UNL     1     -23.662  18.037  10.200  1.00 20.00    -0.277 NA
HETATM    8  S8  UNL     1     -26.018  18.931  10.902  1.00 20.00    -0.113 SA
ENDROOT
TORSDOF 0
ENDMDL
MODEL 2
REMARK VINA RESULT:      -3.7      1.973      2.083
REMARK  0 active torsions:
REMARK  status: ('A' for Active; 'I' for Inactive)
ROOT
HETATM    1  C1  UNL     1     -22.759  17.579   8.889  1.00 20.00     0.062 C 
HETATM    2  C2  UNL     1     -24.555  18.571  10.325  1.00 20.00     0.113 C 
HETATM    3  C3  UNL     1     -23.700  17.466  10.962  1.00 20.00     0.056 C 
HETATM    4  C4  UNL     1     -21.790  17.408   7.770  1.00 20.00     0.078 C 
HETATM    5  C5  UNL     1     -23.182  17.918  12.332  1.00 20.00     0.041 C 
HETATM    6  C6  UNL     1     -24.483  16.154  11.124  1.00 20.00     0.041 C 
HETATM    7  N7  UNL     1     -22.521  17.199  10.100  1.00 20.00    -0.277 NA
HETATM    8  S8  UNL     1     -24.274  18.371   8.553  1.00 20.00    -0.113 SA
ENDROOT
TORSDOF 0
ENDMDL
MODEL 3
REMARK VINA RESULT:      -3.6      2.254      2.726
REMARK  0 active torsions:
REMARK  status: ('A' for Active; 'I' for Inactive)
ROOT
HETATM    1  C1  UNL     1     -22.666  17.278   9.512  1.00 20.00     0.062 C 
HETATM    2  C2  UNL     1     -22.790  17.289  12.013  1.00 20.00     0.113 C 
HETATM    3  C3  UNL     1     -24.094  16.980  11.263  1.00 20.00     0.056 C 
HETATM    4  C4  UNL     1     -22.100  17.244   8.134  1.00 20.00     0.078 C 
HETATM    5  C5  UNL     1     -24.746  15.715  11.830  1.00 20.00     0.041 C 
HETATM    6  C6  UNL     1     -25.093  18.145  11.343  1.00 20.00     0.041 C 
HETATM    7  N7  UNL     1     -23.790  16.728   9.832  1.00 20.00    -0.277 NA
HETATM    8  S8  UNL     1     -21.742  18.063  10.763  1.00 20.00    -0.113 SA
ENDROOT
TORSDOF 0
ENDMDL
MODEL 4
REMARK VINA RESULT:      -3.5     22.956     23.706
REMARK  0 active torsions:
REMARK  status: ('A' for Active; 'I' for Inactive)
ROOT
HETATM    1  C1  UNL     1     -41.831   8.302   0.016  1.00 20.00     0.062 C 
HETATM    2  C2  UNL     1     -43.375   6.485  -0.748  1.00 20.00     0.113 C 
HETATM    3  C3  UNL     1     -42.107   6.039  -0.003  1.00 20.00     0.056 C 
HETATM    4  C4  UNL     1     -41.328   9.657   0.378  1.00 20.00     0.078 C 
HETATM    5  C5  UNL     1     -42.466   5.057   1.116  1.00 20.00     0.041 C 
HETATM    6  C6  UNL     1     -41.087   5.384  -0.946  1.00 20.00     0.041 C 
HETATM    7  N7  UNL     1     -41.466   7.223   0.624  1.00 20.00    -0.277 NA
HETATM    8  S8  UNL     1     -43.006   8.175  -1.264  1.00 20.00    -0.113 SA
ENDROOT
TORSDOF 0
ENDMDL
MODEL 5
REMARK VINA RESULT:      -3.5      1.631      2.251
REMARK  0 active torsions:
REMARK  status: ('A' for Active; 'I' for Inactive)
ROOT
HETATM    1  C1  UNL     1     -24.606  18.479   9.411  1.00 20.00     0.062 C 
HETATM    2  C2  UNL     1     -22.718  17.011  10.153  1.00 20.00     0.113 C 
HETATM    3  C3  UNL     1     -23.863  17.217  11.157  1.00 20.00     0.056 C 
HETATM    4  C4  UNL     1     -25.511  19.261   8.522  1.00 20.00     0.078 C 
HETATM    5  C5  UNL     1     -24.341  15.867  11.702  1.00 20.00     0.041 C 
HETATM    6  C6  UNL     1     -23.445  18.117  12.329  1.00 20.00     0.041 C 
HETATM    7  N7  UNL     1     -25.011  17.857  10.467  1.00 20.00    -0.277 NA
HETATM    8  S8  UNL     1     -22.923  18.365   8.976  1.00 20.00    -0.113 SA
ENDROOT
TORSDOF 0
ENDMDL
MODEL 6
REMARK VINA RESULT:      -3.5     23.015     23.890
REMARK  0 active torsions:
REMARK  status: ('A' for Active; 'I' for Inactive)
ROOT
HETATM    1  C1  UNL     1     -42.572   6.063   0.592  1.00 20.00     0.062 C 
HETATM    2  C2  UNL     1     -41.246   7.299  -1.136  1.00 20.00     0.113 C 
HETATM    3  C3  UNL     1     -42.189   8.141  -0.263  1.00 20.00     0.056 C 
HETATM    4  C4  UNL     1     -43.012   4.977   1.512  1.00 20.00     0.078 C 
HETATM    5  C5  UNL     1     -41.442   9.348   0.314  1.00 20.00     0.041 C 
HETATM    6  C6  UNL     1     -43.415   8.631  -1.048  1.00 20.00     0.041 C 
HETATM    7  N7  UNL     1     -42.667   7.319   0.877  1.00 20.00    -0.277 NA
HETATM    8  S8  UNL     1     -41.853   5.611  -0.930  1.00 20.00    -0.113 SA
ENDROOT
TORSDOF 0
ENDMDL
MODEL 7
REMARK VINA RESULT:      -3.4      2.162      3.407
REMARK  0 active torsions:
REMARK  status: ('A' for Active; 'I' for Inactive)
ROOT
HETATM    1  C1  UNL     1     -23.971  16.904  10.377  1.00 20.00     0.062 C 
HETATM    2  C2  UNL     1     -23.640  18.778   8.750  1.00 20.00     0.113 C 
HETATM    3  C3  UNL     1     -22.468  17.799   8.916  1.00 20.00     0.056 C 
HETATM    4  C4  UNL     1     -24.648  15.937  11.287  1.00 20.00     0.078 C 
HETATM    5  C5  UNL     1     -21.982  17.316   7.546  1.00 20.00     0.041 C 
HETATM    6  C6  UNL     1     -21.294  18.433   9.677  1.00 20.00     0.041 C 
HETATM    7  N7  UNL     1     -22.927  16.610   9.677  1.00 20.00    -0.277 NA
HETATM    8  S8  UNL     1     -24.651  18.500  10.220  1.00 20.00    -0.113 SA
ENDROOT
TORSDOF 0
ENDMDL
MODEL 8
REMARK VINA RESULT:      -3.3     16.930     18.112
REMARK  0 active torsions:
REMARK  status: ('A' for Active; 'I' for Inactive)
ROOT
HETATM    1  C1  UNL     1     -35.754  14.927  -3.950  1.00 20.00     0.062 C 
HETATM    2  C2  UNL     1     -35.282  17.377  -3.734  1.00 20.00     0.113 C 
HETATM    3  C3  UNL     1     -34.563  16.449  -2.742  1.00 20.00     0.056 C 
HETATM    4  C4  UNL     1     -36.209  13.630  -4.525  1.00 20.00     0.078 C 
HETATM    5  C5  UNL     1     -33.064  16.764  -2.711  1.00 20.00     0.041 C 
HETATM    6  C6  UNL     1     -35.137  16.573  -1.322  1.00 20.00     0.041 C 
HETATM    7  N7  UNL     1     -34.720  15.041  -3.185  1.00 20.00    -0.277 NA
HETATM    8  S8  UNL     1     -36.639  16.368  -4.367  1.00 20.00    -0.113 SA
ENDROOT
TORSDOF 0
ENDMDL
MODEL 9
REMARK VINA RESULT:      -3.2     15.307     17.146
REMARK  0 active torsions:
REMARK  status: ('A' for Active; 'I' for Inactive)
ROOT
HETATM    1  C1  UNL     1     -33.373  17.129  -2.116  1.00 20.00     0.062 C 
HETATM    2  C2  UNL     1     -34.982  15.362  -2.865  1.00 20.00     0.113 C 
HETATM    3  C3  UNL     1     -33.892  15.768  -3.869  1.00 20.00     0.056 C 
HETATM    4  C4  UNL     1     -32.613  18.050  -1.224  1.00 20.00     0.078 C 
HETATM    5  C5  UNL     1     -33.191  14.523  -4.423  1.00 20.00     0.041 C 
HETATM    6  C6  UNL     1     -34.462  16.590  -5.034  1.00 20.00     0.041 C 
HETATM    7  N7  UNL     1     -32.869  16.591  -3.177  1.00 20.00    -0.277 NA
HETATM    8  S8  UNL     1     -35.010  16.724  -1.680  1.00 20.00    -0.113 SA
ENDROOT
TORSDOF 0
ENDMDL
