MODEL 1
REMARK VINA RESULT:      -4.5      0.000      0.000
REMARK  6 active torsions:
REMARK  status: ('A' for Active; 'I' for Inactive)
REMARK    1  A    between atoms: C1_1  and  C5_5 
REMARK    2  A    between atoms: C1_1  and  C8_8 
REMARK    3  A    between atoms: C6_6  and  O10_10 
REMARK    4  A    between atoms: C7_7  and  O11_11 
REMARK    5  A    between atoms: C8_8  and  O10_10 
REMARK    6  A    between atoms: C8_8  and  O11_11 
ROOT
HETATM    1  C8  UNL     1     -36.321  14.345  -4.992  1.00 20.00     0.329 C 
ENDROOT
BRANCH   1   2
HETATM    2  C1  UNL     1     -35.160  13.854  -4.134  1.00 20.00     0.181 C 
HETATM    3  O9  UNL     1     -34.955  12.655  -3.945  1.00 20.00    -0.293 OA
BRANCH   2   4
HETATM    4  C5  UNL     1     -34.281  14.931  -3.515  1.00 20.00     0.079 C 
HETATM    5  C2  UNL     1     -35.007  15.739  -2.454  1.00 20.00     0.013 C 
ENDBRANCH   2   4
ENDBRANCH   1   2
BRANCH   1   6
HETATM    6  O10 UNL     1     -35.971  13.957  -6.321  1.00 20.00    -0.355 OA
BRANCH   6   7
HETATM    7  C6  UNL     1     -35.672  15.077  -7.144  1.00 20.00     0.167 C 
HETATM    8  C3  UNL     1     -34.172  15.167  -7.329  1.00 20.00     0.033 C 
ENDBRANCH   6   7
ENDBRANCH   1   6
BRANCH   1   9
HETATM    9  O11 UNL     1     -37.529  13.729  -4.569  1.00 20.00    -0.355 OA
BRANCH   9  10
HETATM   10  C7  UNL     1     -38.514  14.675  -4.173  1.00 20.00     0.167 C 
HETATM   11  C4  UNL     1     -38.054  16.061  -4.573  1.00 20.00     0.033 C 
ENDBRANCH   9  10
ENDBRANCH   1   9
TORSDOF 6
ENDMDL
MODEL 2
REMARK VINA RESULT:      -4.1      1.301      3.667
REMARK  6 active torsions:
REMARK  status: ('A' for Active; 'I' for Inactive)
REMARK    1  A    between atoms: C1_1  and  C5_5 
REMARK    2  A    between atoms: C1_1  and  C8_8 
REMARK    3  A    between atoms: C6_6  and  O10_10 
REMARK    4  A    between atoms: C7_7  and  O11_11 
REMARK    5  A    between atoms: C8_8  and  O10_10 
REMARK    6  A    between atoms: C8_8  and  O11_11 
ROOT
HETATM    1  C8  UNL     1     -34.895  14.798  -4.685  1.00 20.00     0.329 C 
ENDROOT
BRANCH   1   2
HETATM    2  C1  UNL     1     -36.041  13.807  -4.512  1.00 20.00     0.181 C 
HETATM    3  O9  UNL     1     -35.855  12.591  -4.539  1.00 20.00    -0.293 OA
BRANCH   2   4
HETATM    4  C5  UNL     1     -37.426  14.410  -4.321  1.00 20.00     0.079 C 
HETATM    5  C2  UNL     1     -37.477  15.883  -4.684  1.00 20.00     0.013 C 
ENDBRANCH   2   4
ENDBRANCH   1   2
BRANCH   1   6
HETATM    6  O10 UNL     1     -34.150  14.696  -3.472  1.00 20.00    -0.355 OA
BRANCH   6   7
HETATM    7  C6  UNL     1     -33.915  15.967  -2.879  1.00 20.00     0.167 C 
HETATM    8  C3  UNL     1     -35.005  16.247  -1.866  1.00 20.00     0.033 C 
ENDBRANCH   6   7
ENDBRANCH   1   6
BRANCH   1   9
HETATM    9  O11 UNL     1     -34.110  14.438  -5.813  1.00 20.00    -0.355 OA
BRANCH   9  10
HETATM   10  C7  UNL     1     -34.470  15.162  -6.982  1.00 20.00     0.167 C 
HETATM   11  C4  UNL     1     -34.466  16.643  -6.665  1.00 20.00     0.033 C 
ENDBRANCH   9  10
ENDBRANCH   1   9
TORSDOF 6
ENDMDL
MODEL 3
REMARK VINA RESULT:      -4.1      1.022      1.198
REMARK  6 active torsions:
REMARK  status: ('A' for Active; 'I' for Inactive)
REMARK    1  A    between atoms: C1_1  and  C5_5 
REMARK    2  A    between atoms: C1_1  and  C8_8 
REMARK    3  A    between atoms: C6_6  and  O10_10 
REMARK    4  A    between atoms: C7_7  and  O11_11 
REMARK    5  A    between atoms: C8_8  and  O10_10 
REMARK    6  A    between atoms: C8_8  and  O11_11 
ROOT
HETATM    1  C8  UNL     1     -36.888  14.625  -4.761  1.00 20.00     0.329 C 
ENDROOT
BRANCH   1   2
HETATM    2  C1  UNL     1     -35.716  13.765  -4.301  1.00 20.00     0.181 C 
HETATM    3  O9  UNL     1     -35.722  12.540  -4.428  1.00 20.00    -0.293 OA
BRANCH   2   4
HETATM    4  C5  UNL     1     -34.549  14.506  -3.664  1.00 20.00     0.079 C 
HETATM    5  C2  UNL     1     -35.001  15.588  -2.700  1.00 20.00     0.013 C 
ENDBRANCH   2   4
ENDBRANCH   1   2
BRANCH   1   6
HETATM    6  O10 UNL     1     -36.780  14.643  -6.184  1.00 20.00    -0.355 OA
BRANCH   6   7
HETATM    7  C6  UNL     1     -35.885  15.650  -6.640  1.00 20.00     0.167 C 
HETATM    8  C3  UNL     1     -36.328  16.989  -6.091  1.00 20.00     0.033 C 
ENDBRANCH   6   7
ENDBRANCH   1   6
BRANCH   1   9
HETATM    9  O11 UNL     1     -38.112  14.041  -4.338  1.00 20.00    -0.355 OA
BRANCH   9  10
HETATM   10  C7  UNL     1     -39.201  14.954  -4.395  1.00 20.00     0.167 C 
HETATM   11  C4  UNL     1     -38.817  16.224  -3.665  1.00 20.00     0.033 C 
ENDBRANCH   9  10
ENDBRANCH   1   9
TORSDOF 6
ENDMDL
MODEL 4
REMARK VINA RESULT:      -3.9      0.764      3.094
REMARK  6 active torsions:
REMARK  status: ('A' for Active; 'I' for Inactive)
REMARK    1  A    between atoms: C1_1  and  C5_5 
REMARK    2  A    between atoms: C1_1  and  C8_8 
REMARK    3  A    between atoms: C6_6  and  O10_10 
REMARK    4  A    between atoms: C7_7  and  O11_11 
REMARK    5  A    between atoms: C8_8  and  O10_10 
REMARK    6  A    between atoms: C8_8  and  O11_11 
ROOT
HETATM    1  C8  UNL     1     -36.356  13.939  -4.916  1.00 20.00     0.329 C 
ENDROOT
BRANCH   1   2
HETATM    2  C1  UNL     1     -35.148  13.893  -3.987  1.00 20.00     0.181 C 
HETATM    3  O9  UNL     1     -34.438  12.892  -3.896  1.00 20.00    -0.293 OA
BRANCH   2   4
HETATM    4  C5  UNL     1     -34.882  15.149  -3.169  1.00 20.00     0.079 C 
HETATM    5  C2  UNL     1     -33.508  15.738  -3.434  1.00 20.00     0.013 C 
ENDBRANCH   2   4
ENDBRANCH   1   2
BRANCH   1   6
HETATM    6  O10 UNL     1     -36.994  15.179  -4.611  1.00 20.00    -0.355 OA
BRANCH   6   7
HETATM    7  C6  UNL     1     -38.370  15.011  -4.300  1.00 20.00     0.167 C 
HETATM    8  C3  UNL     1     -38.939  16.337  -3.843  1.00 20.00     0.033 C 
ENDBRANCH   6   7
ENDBRANCH   1   6
BRANCH   1   9
HETATM    9  O11 UNL     1     -35.928  13.891  -6.270  1.00 20.00    -0.355 OA
BRANCH   9  10
HETATM   10  C7  UNL     1     -35.597  15.175  -6.784  1.00 20.00     0.167 C 
HETATM   11  C4  UNL     1     -34.135  15.186  -7.179  1.00 20.00     0.033 C 
ENDBRANCH   9  10
ENDBRANCH   1   9
TORSDOF 6
ENDMDL
MODEL 5
REMARK VINA RESULT:      -3.6      1.890      2.193
REMARK  6 active torsions:
REMARK  status: ('A' for Active; 'I' for Inactive)
REMARK    1  A    between atoms: C1_1  and  C5_5 
REMARK    2  A    between atoms: C1_1  and  C8_8 
REMARK    3  A    between atoms: C6_6  and  O10_10 
REMARK    4  A    between atoms: C7_7  and  O11_11 
REMARK    5  A    between atoms: C8_8  and  O10_10 
REMARK    6  A    between atoms: C8_8  and  O11_11 
ROOT
HETATM    1  C8  UNL     1     -34.839  15.248  -5.207  1.00 20.00     0.329 C 
ENDROOT
BRANCH   1   2
HETATM    2  C1  UNL     1     -33.626  14.957  -4.330  1.00 20.00     0.181 C 
HETATM    3  O9  UNL     1     -32.909  13.976  -4.522  1.00 20.00    -0.293 OA
BRANCH   2   4
HETATM    4  C5  UNL     1     -33.366  15.941  -3.198  1.00 20.00     0.079 C 
HETATM    5  C2  UNL     1     -34.559  16.095  -2.272  1.00 20.00     0.013 C 
ENDBRANCH   2   4
ENDBRANCH   1   2
BRANCH   1   6
HETATM    6  O10 UNL     1     -34.308  15.961  -6.324  1.00 20.00    -0.355 OA
BRANCH   6   7
HETATM    7  C6  UNL     1     -35.010  17.173  -6.567  1.00 20.00     0.167 C 
HETATM    8  C3  UNL     1     -34.218  18.326  -5.988  1.00 20.00     0.033 C 
ENDBRANCH   6   7
ENDBRANCH   1   6
BRANCH   1   9
HETATM    9  O11 UNL     1     -35.450  14.029  -5.607  1.00 20.00    -0.355 OA
BRANCH   9  10
HETATM   10  C7  UNL     1     -36.397  13.556  -4.658  1.00 20.00     0.167 C 
HETATM   11  C4  UNL     1     -37.386  14.662  -4.355  1.00 20.00     0.033 C 
ENDBRANCH   9  10
ENDBRANCH   1   9
TORSDOF 6
ENDMDL
MODEL 6
REMARK VINA RESULT:      -3.6      1.276      3.049
REMARK  6 active torsions:
REMARK  status: ('A' for Active; 'I' for Inactive)
REMARK    1  A    between atoms: C1_1  and  C5_5 
REMARK    2  A    between atoms: C1_1  and  C8_8 
REMARK    3  A    between atoms: C6_6  and  O10_10 
REMARK    4  A    between atoms: C7_7  and  O11_11 
REMARK    5  A    between atoms: C8_8  and  O10_10 
REMARK    6  A    between atoms: C8_8  and  O11_11 
ROOT
HETATM    1  C8  UNL     1     -35.535  14.521  -4.427  1.00 20.00     0.329 C 
ENDROOT
BRANCH   1   2
HETATM    2  C1  UNL     1     -37.052  14.672  -4.471  1.00 20.00     0.181 C 
HETATM    3  O9  UNL     1     -37.801  13.697  -4.412  1.00 20.00    -0.293 OA
BRANCH   2   4
HETATM    4  C5  UNL     1     -37.582  16.092  -4.607  1.00 20.00     0.079 C 
HETATM    5  C2  UNL     1     -37.804  16.496  -6.054  1.00 20.00     0.013 C 
ENDBRANCH   2   4
ENDBRANCH   1   2
BRANCH   1   6
HETATM    6  O10 UNL     1     -35.171  14.187  -5.766  1.00 20.00    -0.355 OA
BRANCH   6   7
HETATM    7  C6  UNL     1     -34.142  15.030  -6.268  1.00 20.00     0.167 C 
HETATM    8  C3  UNL     1     -34.456  15.391  -7.704  1.00 20.00     0.033 C 
ENDBRANCH   6   7
ENDBRANCH   1   6
BRANCH   1   9
HETATM    9  O11 UNL     1     -34.940  15.743  -4.014  1.00 20.00    -0.355 OA
BRANCH   9  10
HETATM   10  C7  UNL     1     -34.326  15.646  -2.735  1.00 20.00     0.167 C 
HETATM   11  C4  UNL     1     -35.135  16.447  -1.738  1.00 20.00     0.033 C 
ENDBRANCH   9  10
ENDBRANCH   1   9
TORSDOF 6
ENDMDL
MODEL 7
REMARK VINA RESULT:      -3.5      1.133      3.655
REMARK  6 active torsions:
REMARK  status: ('A' for Active; 'I' for Inactive)
REMARK    1  A    between atoms: C1_1  and  C5_5 
REMARK    2  A    between atoms: C1_1  and  C8_8 
REMARK    3  A    between atoms: C6_6  and  O10_10 
REMARK    4  A    between atoms: C7_7  and  O11_11 
REMARK    5  A    between atoms: C8_8  and  O10_10 
REMARK    6  A    between atoms: C8_8  and  O11_11 
ROOT
HETATM    1  C8  UNL     1     -36.410  14.969  -4.206  1.00 20.00     0.329 C 
ENDROOT
BRANCH   1   2
HETATM    2  C1  UNL     1     -35.847  14.663  -5.589  1.00 20.00     0.181 C 
HETATM    3  O9  UNL     1     -36.047  13.583  -6.146  1.00 20.00    -0.293 OA
BRANCH   2   4
HETATM    4  C5  UNL     1     -35.012  15.761  -6.232  1.00 20.00     0.079 C 
HETATM    5  C2  UNL     1     -33.927  15.214  -7.141  1.00 20.00     0.013 C 
ENDBRANCH   2   4
ENDBRANCH   1   2
BRANCH   1   6
HETATM    6  O10 UNL     1     -37.540  14.107  -4.083  1.00 20.00    -0.355 OA
BRANCH   6   7
HETATM    7  C6  UNL     1     -38.768  14.809  -4.231  1.00 20.00     0.167 C 
HETATM    8  C3  UNL     1     -38.541  16.271  -3.910  1.00 20.00     0.033 C 
ENDBRANCH   6   7
ENDBRANCH   1   6
BRANCH   1   9
HETATM    9  O11 UNL     1     -35.431  14.693  -3.213  1.00 20.00    -0.355 OA
BRANCH   9  10
HETATM   10  C7  UNL     1     -35.052  15.853  -2.483  1.00 20.00     0.167 C 
HETATM   11  C4  UNL     1     -33.618  16.200  -2.821  1.00 20.00     0.033 C 
ENDBRANCH   9  10
ENDBRANCH   1   9
TORSDOF 6
ENDMDL
MODEL 8
REMARK VINA RESULT:      -3.4      1.503      2.775
REMARK  6 active torsions:
REMARK  status: ('A' for Active; 'I' for Inactive)
REMARK    1  A    between atoms: C1_1  and  C5_5 
REMARK    2  A    between atoms: C1_1  and  C8_8 
REMARK    3  A    between atoms: C6_6  and  O10_10 
REMARK    4  A    between atoms: C7_7  and  O11_11 
REMARK    5  A    between atoms: C8_8  and  O10_10 
REMARK    6  A    between atoms: C8_8  and  O11_11 
ROOT
HETATM    1  C8  UNL     1     -36.758  14.913  -4.049  1.00 20.00     0.329 C 
ENDROOT
BRANCH   1   2
HETATM    2  C1  UNL     1     -35.698  13.965  -4.598  1.00 20.00     0.181 C 
HETATM    3  O9  UNL     1     -35.822  12.742  -4.525  1.00 20.00    -0.293 OA
BRANCH   2   4
HETATM    4  C5  UNL     1     -34.474  14.617  -5.226  1.00 20.00     0.079 C 
HETATM    5  C2  UNL     1     -33.215  14.409  -4.404  1.00 20.00     0.013 C 
ENDBRANCH   2   4
ENDBRANCH   1   2
BRANCH   1   6
HETATM    6  O10 UNL     1     -36.119  16.189  -4.031  1.00 20.00    -0.355 OA
BRANCH   6   7
HETATM    7  C6  UNL     1     -36.228  16.824  -2.764  1.00 20.00     0.167 C 
HETATM    8  C3  UNL     1     -35.106  16.340  -1.871  1.00 20.00     0.033 C 
ENDBRANCH   6   7
ENDBRANCH   1   6
BRANCH   1   9
HETATM    9  O11 UNL     1     -37.896  14.911  -4.899  1.00 20.00    -0.355 OA
BRANCH   9  10
HETATM   10  C7  UNL     1     -39.118  14.854  -4.174  1.00 20.00     0.167 C 
HETATM   11  C4  UNL     1     -39.708  16.247  -4.095  1.00 20.00     0.033 C 
ENDBRANCH   9  10
ENDBRANCH   1   9
TORSDOF 6
ENDMDL
MODEL 9
REMARK VINA RESULT:      -3.4     17.627     19.271
REMARK  6 active torsions:
REMARK  status: ('A' for Active; 'I' for Inactive)
REMARK    1  A    between atoms: C1_1  and  C5_5 
REMARK    2  A    between atoms: C1_1  and  C8_8 
REMARK    3  A    between atoms: C6_6  and  O10_10 
REMARK    4  A    between atoms: C7_7  and  O11_11 
REMARK    5  A    between atoms: C8_8  and  O10_10 
REMARK    6  A    between atoms: C8_8  and  O11_11 
ROOT
HETATM    1  C8  UNL     1     -23.353  18.192   9.969  1.00 20.00     0.329 C 
ENDROOT
BRANCH   1   2
HETATM    2  C1  UNL     1     -24.271  17.493  10.966  1.00 20.00     0.181 C 
HETATM    3  O9  UNL     1     -24.583  16.309  10.838  1.00 20.00    -0.293 OA
BRANCH   2   4
HETATM    4  C5  UNL     1     -24.788  18.347  12.114  1.00 20.00     0.079 C 
HETATM    5  C2  UNL     1     -26.250  18.723  11.950  1.00 20.00     0.013 C 
ENDBRANCH   2   4
ENDBRANCH   1   2
BRANCH   1   6
HETATM    6  O10 UNL     1     -23.003  17.174   9.032  1.00 20.00    -0.355 OA
BRANCH   6   7
HETATM    7  C6  UNL     1     -21.597  17.079   8.846  1.00 20.00     0.167 C 
HETATM    8  C3  UNL     1     -21.293  17.093   7.363  1.00 20.00     0.033 C 
ENDBRANCH   6   7
ENDBRANCH   1   6
BRANCH   1   9
HETATM    9  O11 UNL     1     -24.046  19.263   9.342  1.00 20.00    -0.355 OA
BRANCH   9  10
HETATM   10  C7  UNL     1     -24.459  18.946   8.019  1.00 20.00     0.167 C 
HETATM   11  C4  UNL     1     -25.933  19.259   7.875  1.00 20.00     0.033 C 
ENDBRANCH   9  10
ENDBRANCH   1   9
TORSDOF 6
ENDMDL
