MODEL 1
REMARK VINA RESULT:      -5.0      0.000      0.000
REMARK  0 active torsions:
REMARK  status: ('A' for Active; 'I' for Inactive)
ROOT
HETATM    1  C1  UNL     1     -25.917  19.038  11.563  1.00 20.00    -0.002 A 
HETATM    2  C2  UNL     1     -25.725  19.263  10.157  1.00 20.00     0.010 A 
HETATM    3  C3  UNL     1     -25.149  18.183  12.245  1.00 20.00    -0.010 A 
HETATM    4  C4  UNL     1     -24.780  18.648   9.433  1.00 20.00    -0.015 A 
HETATM    5  C5  UNL     1     -23.870  17.670  10.109  1.00 20.00     0.166 A 
HETATM    6  C6  UNL     1     -24.030  17.388  11.620  1.00 20.00     0.035 A 
HETATM    7  C7  UNL     1     -24.584  18.887   7.968  1.00 20.00     0.052 C 
HETATM    8  C8  UNL     1     -22.710  17.752  12.314  1.00 20.00     0.027 C 
HETATM    9  C9  UNL     1     -24.321  15.892  11.796  1.00 20.00     0.027 C 
HETATM   10  O10 UNL     1     -22.998  17.100   9.448  1.00 20.00    -0.292 OA
ENDROOT
TORSDOF 0
ENDMDL
MODEL 2
REMARK VINA RESULT:      -4.2      1.495      2.930
REMARK  0 active torsions:
REMARK  status: ('A' for Active; 'I' for Inactive)
ROOT
HETATM    1  C1  UNL     1     -22.795  17.771  12.230  1.00 20.00    -0.002 A 
HETATM    2  C2  UNL     1     -24.176  18.153  12.332  1.00 20.00     0.010 A 
HETATM    3  C3  UNL     1     -22.187  17.656  11.045  1.00 20.00    -0.010 A 
HETATM    4  C4  UNL     1     -24.948  18.422  11.271  1.00 20.00    -0.015 A 
HETATM    5  C5  UNL     1     -24.357  18.319   9.898  1.00 20.00     0.166 A 
HETATM    6  C6  UNL     1     -22.876  17.912   9.728  1.00 20.00     0.035 A 
HETATM    7  C7  UNL     1     -26.387  18.820  11.382  1.00 20.00     0.052 C 
HETATM    8  C8  UNL     1     -22.150  19.051   8.998  1.00 20.00     0.027 C 
HETATM    9  C9  UNL     1     -22.829  16.632   8.883  1.00 20.00     0.027 C 
HETATM   10  O10 UNL     1     -25.062  18.564   8.917  1.00 20.00    -0.292 OA
ENDROOT
TORSDOF 0
ENDMDL
MODEL 3
REMARK VINA RESULT:      -4.2     16.375     17.946
REMARK  0 active torsions:
REMARK  status: ('A' for Active; 'I' for Inactive)
ROOT
HETATM    1  C1  UNL     1     -32.912  15.311  -3.740  1.00 20.00    -0.002 A 
HETATM    2  C2  UNL     1     -33.909  14.424  -4.272  1.00 20.00     0.010 A 
HETATM    3  C3  UNL     1     -33.248  16.417  -3.068  1.00 20.00    -0.010 A 
HETATM    4  C4  UNL     1     -35.226  14.628  -4.139  1.00 20.00    -0.015 A 
HETATM    5  C5  UNL     1     -35.702  15.842  -3.401  1.00 20.00     0.166 A 
HETATM    6  C6  UNL     1     -34.674  16.832  -2.808  1.00 20.00     0.035 A 
HETATM    7  C7  UNL     1     -36.261  13.700  -4.695  1.00 20.00     0.052 C 
HETATM    8  C8  UNL     1     -34.905  16.905  -1.292  1.00 20.00     0.027 C 
HETATM    9  C9  UNL     1     -34.917  18.208  -3.443  1.00 20.00     0.027 C 
HETATM   10  O10 UNL     1     -36.913  16.037  -3.276  1.00 20.00    -0.292 OA
ENDROOT
TORSDOF 0
ENDMDL
MODEL 4
REMARK VINA RESULT:      -4.1     22.927     23.715
REMARK  0 active torsions:
REMARK  status: ('A' for Active; 'I' for Inactive)
ROOT
HETATM    1  C1  UNL     1     -43.208   6.221   1.280  1.00 20.00    -0.002 A 
HETATM    2  C2  UNL     1     -42.404   5.286   0.545  1.00 20.00     0.010 A 
HETATM    3  C3  UNL     1     -43.238   7.519   0.962  1.00 20.00    -0.010 A 
HETATM    4  C4  UNL     1     -41.636   5.631  -0.497  1.00 20.00    -0.015 A 
HETATM    5  C5  UNL     1     -41.601   7.065  -0.929  1.00 20.00     0.166 A 
HETATM    6  C6  UNL     1     -42.447   8.115  -0.176  1.00 20.00     0.035 A 
HETATM    7  C7  UNL     1     -40.799   4.652  -1.260  1.00 20.00     0.052 C 
HETATM    8  C8  UNL     1     -43.417   8.754  -1.178  1.00 20.00     0.027 C 
HETATM    9  C9  UNL     1     -41.493   9.180   0.384  1.00 20.00     0.027 C 
HETATM   10  O10 UNL     1     -40.896   7.390  -1.888  1.00 20.00    -0.292 OA
ENDROOT
TORSDOF 0
ENDMDL
MODEL 5
REMARK VINA RESULT:      -4.1     16.598     18.552
REMARK  0 active torsions:
REMARK  status: ('A' for Active; 'I' for Inactive)
ROOT
HETATM    1  C1  UNL     1     -33.089  15.161  -4.111  1.00 20.00    -0.002 A 
HETATM    2  C2  UNL     1     -33.470  15.892  -2.934  1.00 20.00     0.010 A 
HETATM    3  C3  UNL     1     -33.992  14.774  -5.016  1.00 20.00    -0.010 A 
HETATM    4  C4  UNL     1     -34.734  16.238  -2.657  1.00 20.00    -0.015 A 
HETATM    5  C5  UNL     1     -35.819  15.848  -3.613  1.00 20.00     0.166 A 
HETATM    6  C6  UNL     1     -35.468  15.061  -4.895  1.00 20.00     0.035 A 
HETATM    7  C7  UNL     1     -35.126  17.000  -1.429  1.00 20.00     0.052 C 
HETATM    8  C8  UNL     1     -35.915  15.896  -6.103  1.00 20.00     0.027 C 
HETATM    9  C9  UNL     1     -36.234  13.732  -4.862  1.00 20.00     0.027 C 
HETATM   10  O10 UNL     1     -36.985  16.163  -3.363  1.00 20.00    -0.292 OA
ENDROOT
TORSDOF 0
ENDMDL
MODEL 6
REMARK VINA RESULT:      -4.1     17.184     18.846
REMARK  0 active torsions:
REMARK  status: ('A' for Active; 'I' for Inactive)
ROOT
HETATM    1  C1  UNL     1     -35.278  16.399  -2.395  1.00 20.00    -0.002 A 
HETATM    2  C2  UNL     1     -34.067  15.754  -2.816  1.00 20.00     0.010 A 
HETATM    3  C3  UNL     1     -36.393  16.342  -3.130  1.00 20.00    -0.010 A 
HETATM    4  C4  UNL     1     -33.959  15.055  -3.955  1.00 20.00    -0.015 A 
HETATM    5  C5  UNL     1     -35.156  14.934  -4.847  1.00 20.00     0.166 A 
HETATM    6  C6  UNL     1     -36.486  15.608  -4.444  1.00 20.00     0.035 A 
HETATM    7  C7  UNL     1     -32.694  14.384  -4.389  1.00 20.00     0.052 C 
HETATM    8  C8  UNL     1     -37.559  14.516  -4.332  1.00 20.00     0.027 C 
HETATM    9  C9  UNL     1     -36.867  16.607  -5.547  1.00 20.00     0.027 C 
HETATM   10  O10 UNL     1     -35.064  14.293  -5.897  1.00 20.00    -0.292 OA
ENDROOT
TORSDOF 0
ENDMDL
MODEL 7
REMARK VINA RESULT:      -4.1      1.507      2.366
REMARK  0 active torsions:
REMARK  status: ('A' for Active; 'I' for Inactive)
ROOT
HETATM    1  C1  UNL     1     -25.008  18.936   8.801  1.00 20.00    -0.002 A 
HETATM    2  C2  UNL     1     -23.596  18.766   8.600  1.00 20.00     0.010 A 
HETATM    3  C3  UNL     1     -25.587  18.649   9.971  1.00 20.00    -0.010 A 
HETATM    4  C4  UNL     1     -22.764  18.317   9.549  1.00 20.00    -0.015 A 
HETATM    5  C5  UNL     1     -23.319  17.968  10.895  1.00 20.00     0.166 A 
HETATM    6  C6  UNL     1     -24.831  18.131  11.169  1.00 20.00     0.035 A 
HETATM    7  C7  UNL     1     -21.293  18.142   9.334  1.00 20.00     0.052 C 
HETATM    8  C8  UNL     1     -25.000  19.119  12.332  1.00 20.00     0.027 C 
HETATM    9  C9  UNL     1     -25.395  16.758  11.559  1.00 20.00     0.027 C 
HETATM   10  O10 UNL     1     -22.558  17.554  11.773  1.00 20.00    -0.292 OA
ENDROOT
TORSDOF 0
ENDMDL
MODEL 8
REMARK VINA RESULT:      -4.1     15.809     16.631
REMARK  0 active torsions:
REMARK  status: ('A' for Active; 'I' for Inactive)
ROOT
HETATM    1  C1  UNL     1     -33.639   7.063   5.904  1.00 20.00    -0.002 A 
HETATM    2  C2  UNL     1     -32.845   7.571   4.819  1.00 20.00     0.010 A 
HETATM    3  C3  UNL     1     -34.417   5.987   5.757  1.00 20.00    -0.010 A 
HETATM    4  C4  UNL     1     -32.822   7.017   3.600  1.00 20.00    -0.015 A 
HETATM    5  C5  UNL     1     -33.663   5.806   3.336  1.00 20.00     0.166 A 
HETATM    6  C6  UNL     1     -34.536   5.216   4.466  1.00 20.00     0.035 A 
HETATM    7  C7  UNL     1     -31.993   7.550   2.472  1.00 20.00     0.052 C 
HETATM    8  C8  UNL     1     -34.089   3.768   4.706  1.00 20.00     0.027 C 
HETATM    9  C9  UNL     1     -35.998   5.245   4.001  1.00 20.00     0.027 C 
HETATM   10  O10 UNL     1     -33.646   5.292   2.215  1.00 20.00    -0.292 OA
ENDROOT
TORSDOF 0
ENDMDL
MODEL 9
REMARK VINA RESULT:      -4.0     17.110     18.962
REMARK  0 active torsions:
REMARK  status: ('A' for Active; 'I' for Inactive)
ROOT
HETATM    1  C1  UNL     1     -36.063  13.672  -4.555  1.00 20.00    -0.002 A 
HETATM    2  C2  UNL     1     -36.527  14.612  -5.537  1.00 20.00     0.010 A 
HETATM    3  C3  UNL     1     -34.991  13.924  -3.797  1.00 20.00    -0.010 A 
HETATM    4  C4  UNL     1     -35.936  15.792  -5.766  1.00 20.00    -0.015 A 
HETATM    5  C5  UNL     1     -34.726  16.166  -4.966  1.00 20.00     0.166 A 
HETATM    6  C6  UNL     1     -34.182  15.193  -3.896  1.00 20.00     0.035 A 
HETATM    7  C7  UNL     1     -36.424  16.769  -6.790  1.00 20.00     0.052 C 
HETATM    8  C8  UNL     1     -34.212  15.912  -2.541  1.00 20.00     0.027 C 
HETATM    9  C9  UNL     1     -32.737  14.835  -4.269  1.00 20.00     0.027 C 
HETATM   10  O10 UNL     1     -34.177  17.251  -5.173  1.00 20.00    -0.292 OA
ENDROOT
TORSDOF 0
ENDMDL
