MODEL 1
REMARK VINA RESULT:      -4.4      0.000      0.000
REMARK  4 active torsions:
REMARK  status: ('A' for Active; 'I' for Inactive)
REMARK    1  A    between atoms: C2_2  and  C6_6 
REMARK    2  A    between atoms: C2_2  and  C7_7 
REMARK    3  A    between atoms: C6_6  and  C8_8 
REMARK    4  A    between atoms: C7_7  and  O10_10 
ROOT
HETATM    1  C1  UNL     1     -35.579  14.767  -6.372  1.00 20.00     0.209 A 
HETATM    2  C2  UNL     1     -36.012  14.635  -4.932  1.00 20.00     0.104 A 
HETATM    3  O9  UNL     1     -35.951  13.500  -5.807  1.00 20.00    -0.373 OA
ENDROOT
BRANCH   2   4
HETATM    4  C6  UNL     1     -34.960  14.618  -3.830  1.00 20.00     0.051 C 
BRANCH   4   5
HETATM    5  C8  UNL     1     -34.530  16.004  -3.285  1.00 20.00    -0.049 C 
HETATM    6  C3  UNL     1     -35.090  16.154  -1.857  1.00 20.00     0.014 C 
HETATM    7  C4  UNL     1     -35.095  17.142  -4.152  1.00 20.00     0.014 C 
HETATM    8  C5  UNL     1     -32.998  16.126  -3.223  1.00 20.00     0.014 C 
ENDBRANCH   4   5
ENDBRANCH   2   4
BRANCH   2   9
HETATM    9  C7  UNL     1     -37.402  15.020  -4.542  1.00 20.00     0.204 C 
BRANCH   9  10
HETATM   10  O10 UNL     1     -38.197  13.848  -4.369  1.00 20.00    -0.398 OA
HETATM   11  H26 UNL     1     -38.835  13.838  -5.099  1.00 20.00     0.209 HD
ENDBRANCH   9  10
ENDBRANCH   2   9
TORSDOF 4
ENDMDL
MODEL 2
REMARK VINA RESULT:      -4.4      0.245      1.391
REMARK  4 active torsions:
REMARK  status: ('A' for Active; 'I' for Inactive)
REMARK    1  A    between atoms: C2_2  and  C6_6 
REMARK    2  A    between atoms: C2_2  and  C7_7 
REMARK    3  A    between atoms: C6_6  and  C8_8 
REMARK    4  A    between atoms: C7_7  and  O10_10 
ROOT
HETATM    1  C1  UNL     1     -35.787  14.443  -6.216  1.00 20.00     0.209 A 
HETATM    2  C2  UNL     1     -36.118  14.487  -4.743  1.00 20.00     0.104 A 
HETATM    3  O9  UNL     1     -36.160  13.262  -5.488  1.00 20.00    -0.373 OA
ENDROOT
BRANCH   2   4
HETATM    4  C6  UNL     1     -34.988  14.546  -3.722  1.00 20.00     0.051 C 
BRANCH   4   5
HETATM    5  C8  UNL     1     -34.578  15.965  -3.250  1.00 20.00    -0.049 C 
HETATM    6  C3  UNL     1     -33.039  16.049  -3.260  1.00 20.00     0.014 C 
HETATM    7  C4  UNL     1     -35.073  16.239  -1.820  1.00 20.00     0.014 C 
HETATM    8  C5  UNL     1     -35.132  17.046  -4.194  1.00 20.00     0.014 C 
ENDBRANCH   4   5
ENDBRANCH   2   4
BRANCH   2   9
HETATM    9  C7  UNL     1     -37.461  14.971  -4.304  1.00 20.00     0.204 C 
BRANCH   9  10
HETATM   10  O10 UNL     1     -38.396  13.894  -4.338  1.00 20.00    -0.398 OA
HETATM   11  H26 UNL     1     -38.589  13.727  -5.274  1.00 20.00     0.209 HD
ENDBRANCH   9  10
ENDBRANCH   2   9
TORSDOF 4
ENDMDL
MODEL 3
REMARK VINA RESULT:      -4.3      1.331      1.961
REMARK  4 active torsions:
REMARK  status: ('A' for Active; 'I' for Inactive)
REMARK    1  A    between atoms: C2_2  and  C6_6 
REMARK    2  A    between atoms: C2_2  and  C7_7 
REMARK    3  A    between atoms: C6_6  and  C8_8 
REMARK    4  A    between atoms: C7_7  and  O10_10 
ROOT
HETATM    1  C1  UNL     1     -34.689  15.572  -6.118  1.00 20.00     0.209 A 
HETATM    2  C2  UNL     1     -34.752  14.853  -4.791  1.00 20.00     0.104 A 
HETATM    3  O9  UNL     1     -34.086  14.282  -5.926  1.00 20.00    -0.373 OA
ENDROOT
BRANCH   2   4
HETATM    4  C6  UNL     1     -33.808  15.265  -3.668  1.00 20.00     0.051 C 
BRANCH   4   5
HETATM    5  C8  UNL     1     -34.215  16.533  -2.875  1.00 20.00    -0.049 C 
HETATM    6  C3  UNL     1     -32.933  17.192  -2.330  1.00 20.00     0.014 C 
HETATM    7  C4  UNL     1     -35.123  16.177  -1.686  1.00 20.00     0.014 C 
HETATM    8  C5  UNL     1     -34.938  17.546  -3.779  1.00 20.00     0.014 C 
ENDBRANCH   4   5
ENDBRANCH   2   4
BRANCH   2   9
HETATM    9  C7  UNL     1     -36.003  14.134  -4.402  1.00 20.00     0.204 C 
BRANCH   9  10
HETATM   10  O10 UNL     1     -35.795  12.725  -4.489  1.00 20.00    -0.398 OA
HETATM   11  H26 UNL     1     -36.061  12.463  -5.383  1.00 20.00     0.209 HD
ENDBRANCH   9  10
ENDBRANCH   2   9
TORSDOF 4
ENDMDL
MODEL 4
REMARK VINA RESULT:      -4.2      1.331      2.001
REMARK  4 active torsions:
REMARK  status: ('A' for Active; 'I' for Inactive)
REMARK    1  A    between atoms: C2_2  and  C6_6 
REMARK    2  A    between atoms: C2_2  and  C7_7 
REMARK    3  A    between atoms: C6_6  and  C8_8 
REMARK    4  A    between atoms: C7_7  and  O10_10 
ROOT
HETATM    1  C1  UNL     1     -34.654  15.587  -6.161  1.00 20.00     0.209 A 
HETATM    2  C2  UNL     1     -34.732  14.852  -4.844  1.00 20.00     0.104 A 
HETATM    3  O9  UNL     1     -34.074  14.284  -5.984  1.00 20.00    -0.373 OA
ENDROOT
BRANCH   2   4
HETATM    4  C6  UNL     1     -33.783  15.233  -3.714  1.00 20.00     0.051 C 
BRANCH   4   5
HETATM    5  C8  UNL     1     -34.173  16.495  -2.901  1.00 20.00    -0.049 C 
HETATM    6  C3  UNL     1     -34.885  17.478  -3.851  1.00 20.00     0.014 C 
HETATM    7  C4  UNL     1     -32.928  17.189  -2.323  1.00 20.00     0.014 C 
HETATM    8  C5  UNL     1     -35.135  16.142  -1.754  1.00 20.00     0.014 C 
ENDBRANCH   4   5
ENDBRANCH   2   4
BRANCH   2   9
HETATM    9  C7  UNL     1     -35.996  14.151  -4.466  1.00 20.00     0.204 C 
BRANCH   9  10
HETATM   10  O10 UNL     1     -35.786  12.740  -4.479  1.00 20.00    -0.398 OA
HETATM   11  H26 UNL     1     -35.257  12.548  -5.269  1.00 20.00     0.209 HD
ENDBRANCH   9  10
ENDBRANCH   2   9
TORSDOF 4
ENDMDL
MODEL 5
REMARK VINA RESULT:      -4.2     17.623     19.091
REMARK  4 active torsions:
REMARK  status: ('A' for Active; 'I' for Inactive)
REMARK    1  A    between atoms: C2_2  and  C6_6 
REMARK    2  A    between atoms: C2_2  and  C7_7 
REMARK    3  A    between atoms: C6_6  and  C8_8 
REMARK    4  A    between atoms: C7_7  and  O10_10 
ROOT
HETATM    1  C1  UNL     1     -23.967  18.683   7.959  1.00 20.00     0.209 A 
HETATM    2  C2  UNL     1     -23.201  17.846   8.955  1.00 20.00     0.104 A 
HETATM    3  O9  UNL     1     -23.613  19.186   9.257  1.00 20.00    -0.373 OA
ENDROOT
BRANCH   2   4
HETATM    4  C6  UNL     1     -23.935  16.781   9.761  1.00 20.00     0.051 C 
BRANCH   4   5
HETATM    5  C8  UNL     1     -24.109  17.078  11.273  1.00 20.00    -0.049 C 
HETATM    6  C3  UNL     1     -24.577  15.784  11.967  1.00 20.00     0.014 C 
HETATM    7  C4  UNL     1     -25.168  18.168  11.507  1.00 20.00     0.014 C 
HETATM    8  C5  UNL     1     -22.780  17.519  11.909  1.00 20.00     0.014 C 
ENDBRANCH   4   5
ENDBRANCH   2   4
BRANCH   2   9
HETATM    9  C7  UNL     1     -21.723  17.689   8.804  1.00 20.00     0.204 C 
BRANCH   9  10
HETATM   10  O10 UNL     1     -21.374  16.308   8.886  1.00 20.00    -0.398 OA
HETATM   11  H26 UNL     1     -21.016  16.167   9.776  1.00 20.00     0.209 HD
ENDBRANCH   9  10
ENDBRANCH   2   9
TORSDOF 4
ENDMDL
MODEL 6
REMARK VINA RESULT:      -4.0      1.384      2.623
REMARK  4 active torsions:
REMARK  status: ('A' for Active; 'I' for Inactive)
REMARK    1  A    between atoms: C2_2  and  C6_6 
REMARK    2  A    between atoms: C2_2  and  C7_7 
REMARK    3  A    between atoms: C6_6  and  C8_8 
REMARK    4  A    between atoms: C7_7  and  O10_10 
ROOT
HETATM    1  C1  UNL     1     -36.159  13.655  -4.551  1.00 20.00     0.209 A 
HETATM    2  C2  UNL     1     -35.051  14.659  -4.764  1.00 20.00     0.104 A 
HETATM    3  O9  UNL     1     -36.407  15.070  -4.543  1.00 20.00    -0.373 OA
ENDROOT
BRANCH   2   4
HETATM    4  C6  UNL     1     -34.112  14.996  -3.612  1.00 20.00     0.051 C 
BRANCH   4   5
HETATM    5  C8  UNL     1     -34.287  16.404  -2.987  1.00 20.00    -0.049 C 
HETATM    6  C3  UNL     1     -32.910  16.883  -2.487  1.00 20.00     0.014 C 
HETATM    7  C4  UNL     1     -35.254  16.366  -1.792  1.00 20.00     0.014 C 
HETATM    8  C5  UNL     1     -34.805  17.413  -4.027  1.00 20.00     0.014 C 
ENDBRANCH   4   5
ENDBRANCH   2   4
BRANCH   2   9
HETATM    9  C7  UNL     1     -34.557  14.928  -6.148  1.00 20.00     0.204 C 
BRANCH   9  10
HETATM   10  O10 UNL     1     -33.168  14.612  -6.233  1.00 20.00    -0.398 OA
HETATM   11  H26 UNL     1     -32.742  15.362  -6.676  1.00 20.00     0.209 HD
ENDBRANCH   9  10
ENDBRANCH   2   9
TORSDOF 4
ENDMDL
MODEL 7
REMARK VINA RESULT:      -3.9      1.427      2.027
REMARK  4 active torsions:
REMARK  status: ('A' for Active; 'I' for Inactive)
REMARK    1  A    between atoms: C2_2  and  C6_6 
REMARK    2  A    between atoms: C2_2  and  C7_7 
REMARK    3  A    between atoms: C6_6  and  C8_8 
REMARK    4  A    between atoms: C7_7  and  O10_10 
ROOT
HETATM    1  C1  UNL     1     -37.829  15.287  -3.914  1.00 20.00     0.209 A 
HETATM    2  C2  UNL     1     -36.402  14.855  -4.159  1.00 20.00     0.104 A 
HETATM    3  O9  UNL     1     -36.979  15.973  -4.847  1.00 20.00    -0.373 OA
ENDROOT
BRANCH   2   4
HETATM    4  C6  UNL     1     -35.319  15.241  -3.160  1.00 20.00     0.051 C 
BRANCH   4   5
HETATM    5  C8  UNL     1     -34.011  15.811  -3.767  1.00 20.00    -0.049 C 
HETATM    6  C3  UNL     1     -33.261  16.578  -2.661  1.00 20.00     0.014 C 
HETATM    7  C4  UNL     1     -34.312  16.785  -4.918  1.00 20.00     0.014 C 
HETATM    8  C5  UNL     1     -33.101  14.683  -4.282  1.00 20.00     0.014 C 
ENDBRANCH   4   5
ENDBRANCH   2   4
BRANCH   2   9
HETATM    9  C7  UNL     1     -36.130  13.679  -5.040  1.00 20.00     0.204 C 
BRANCH   9  10
HETATM   10  O10 UNL     1     -35.928  12.515  -4.241  1.00 20.00    -0.398 OA
HETATM   11  H26 UNL     1     -35.233  12.737  -3.603  1.00 20.00     0.209 HD
ENDBRANCH   9  10
ENDBRANCH   2   9
TORSDOF 4
ENDMDL
MODEL 8
REMARK VINA RESULT:      -3.9      1.134      1.648
REMARK  4 active torsions:
REMARK  status: ('A' for Active; 'I' for Inactive)
REMARK    1  A    between atoms: C2_2  and  C6_6 
REMARK    2  A    between atoms: C2_2  and  C7_7 
REMARK    3  A    between atoms: C6_6  and  C8_8 
REMARK    4  A    between atoms: C7_7  and  O10_10 
ROOT
HETATM    1  C1  UNL     1     -36.003  13.953  -5.482  1.00 20.00     0.209 A 
HETATM    2  C2  UNL     1     -36.391  14.652  -4.200  1.00 20.00     0.104 A 
HETATM    3  O9  UNL     1     -36.653  13.257  -4.406  1.00 20.00    -0.373 OA
ENDROOT
BRANCH   2   4
HETATM    4  C6  UNL     1     -35.327  14.928  -3.144  1.00 20.00     0.051 C 
BRANCH   4   5
HETATM    5  C8  UNL     1     -34.121  15.785  -3.608  1.00 20.00    -0.049 C 
HETATM    6  C3  UNL     1     -34.619  16.773  -4.681  1.00 20.00     0.014 C 
HETATM    7  C4  UNL     1     -33.020  14.908  -4.225  1.00 20.00     0.014 C 
HETATM    8  C5  UNL     1     -33.531  16.592  -2.439  1.00 20.00     0.014 C 
ENDBRANCH   4   5
ENDBRANCH   2   4
BRANCH   2   9
HETATM    9  C7  UNL     1     -37.622  15.498  -4.165  1.00 20.00     0.204 C 
BRANCH   9  10
HETATM   10  O10 UNL     1     -38.670  14.794  -3.501  1.00 20.00    -0.398 OA
HETATM   11  H26 UNL     1     -39.502  15.194  -3.799  1.00 20.00     0.209 HD
ENDBRANCH   9  10
ENDBRANCH   2   9
TORSDOF 4
ENDMDL
MODEL 9
REMARK VINA RESULT:      -3.7      2.002      3.004
REMARK  4 active torsions:
REMARK  status: ('A' for Active; 'I' for Inactive)
REMARK    1  A    between atoms: C2_2  and  C6_6 
REMARK    2  A    between atoms: C2_2  and  C7_7 
REMARK    3  A    between atoms: C6_6  and  C8_8 
REMARK    4  A    between atoms: C7_7  and  O10_10 
ROOT
HETATM    1  C1  UNL     1     -35.424  14.461  -5.779  1.00 20.00     0.209 A 
HETATM    2  C2  UNL     1     -34.206  15.038  -5.099  1.00 20.00     0.104 A 
HETATM    3  O9  UNL     1     -34.230  14.782  -6.510  1.00 20.00    -0.373 OA
ENDROOT
BRANCH   2   4
HETATM    4  C6  UNL     1     -34.176  16.519  -4.743  1.00 20.00     0.051 C 
BRANCH   4   5
HETATM    5  C8  UNL     1     -34.374  16.858  -3.243  1.00 20.00    -0.049 C 
HETATM    6  C3  UNL     1     -35.167  18.176  -3.149  1.00 20.00     0.014 C 
HETATM    7  C4  UNL     1     -33.024  17.048  -2.533  1.00 20.00     0.014 C 
HETATM    8  C5  UNL     1     -35.173  15.757  -2.526  1.00 20.00     0.014 C 
ENDBRANCH   4   5
ENDBRANCH   2   4
BRANCH   2   9
HETATM    9  C7  UNL     1     -33.290  14.134  -4.338  1.00 20.00     0.204 C 
BRANCH   9  10
HETATM   10  O10 UNL     1     -31.936  14.425  -4.678  1.00 20.00    -0.398 OA
HETATM   11  H26 UNL     1     -31.865  14.321  -5.639  1.00 20.00     0.209 HD
ENDBRANCH   9  10
ENDBRANCH   2   9
TORSDOF 4
ENDMDL
