MODEL 1
REMARK VINA RESULT:      -4.9      0.000      0.000
REMARK  1 active torsions:
REMARK  status: ('A' for Active; 'I' for Inactive)
REMARK    1  A    between atoms: C6_6  and  C10_10 
ROOT
HETATM    1  C1  UNL     1     -35.821  14.344  -5.728  1.00 20.00     0.052 C 
HETATM    2  C2  UNL     1     -34.911  15.279  -6.035  1.00 20.00    -0.080 C 
HETATM    3  C3  UNL     1     -36.845  14.599  -4.685  1.00 20.00     0.149 C 
HETATM    4  C4  UNL     1     -34.829  16.608  -5.325  1.00 20.00     0.039 C 
HETATM    5  C5  UNL     1     -36.896  15.965  -4.037  1.00 20.00     0.088 C 
HETATM    6  C6  UNL     1     -35.515  16.616  -3.952  1.00 20.00     0.000 C 
HETATM    7  C7  UNL     1     -33.907  15.060  -7.130  1.00 20.00     0.043 C 
HETATM    8  O11 UNL     1     -37.667  13.726  -4.411  1.00 20.00    -0.293 OA
ENDROOT
BRANCH   6   9
HETATM    9  C10 UNL     1     -34.646  15.942  -2.882  1.00 20.00    -0.018 C 
HETATM   10  C8  UNL     1     -33.173  16.291  -3.089  1.00 20.00     0.010 C 
HETATM   11  C9  UNL     1     -35.103  16.351  -1.484  1.00 20.00     0.010 C 
ENDBRANCH   6   9
TORSDOF 1
ENDMDL
MODEL 2
REMARK VINA RESULT:      -4.8      3.886      6.392
REMARK  1 active torsions:
REMARK  status: ('A' for Active; 'I' for Inactive)
REMARK    1  A    between atoms: C6_6  and  C10_10 
ROOT
HETATM    1  C1  UNL     1     -32.393  18.275   0.681  1.00 20.00     0.052 C 
HETATM    2  C2  UNL     1     -33.730  18.373   0.651  1.00 20.00    -0.080 C 
HETATM    3  C3  UNL     1     -31.596  18.411  -0.563  1.00 20.00     0.149 C 
HETATM    4  C4  UNL     1     -34.509  18.571  -0.626  1.00 20.00     0.039 C 
HETATM    5  C5  UNL     1     -32.314  18.747  -1.851  1.00 20.00     0.088 C 
HETATM    6  C6  UNL     1     -33.732  18.175  -1.889  1.00 20.00     0.000 C 
HETATM    7  C7  UNL     1     -34.547  18.298   1.909  1.00 20.00     0.043 C 
HETATM    8  O11 UNL     1     -30.372  18.309  -0.516  1.00 20.00    -0.293 OA
ENDROOT
BRANCH   6   9
HETATM    9  C10 UNL     1     -33.713  16.653  -2.088  1.00 20.00    -0.018 C 
HETATM   10  C8  UNL     1     -35.128  16.084  -2.002  1.00 20.00     0.010 C 
HETATM   11  C9  UNL     1     -33.070  16.294  -3.425  1.00 20.00     0.010 C 
ENDBRANCH   6   9
TORSDOF 1
ENDMDL
MODEL 3
REMARK VINA RESULT:      -4.5      1.610      2.764
REMARK  1 active torsions:
REMARK  status: ('A' for Active; 'I' for Inactive)
REMARK    1  A    between atoms: C6_6  and  C10_10 
ROOT
HETATM    1  C1  UNL     1     -36.730  15.817  -5.347  1.00 20.00     0.052 C 
HETATM    2  C2  UNL     1     -36.734  16.551  -4.225  1.00 20.00    -0.080 C 
HETATM    3  C3  UNL     1     -36.028  14.511  -5.394  1.00 20.00     0.149 C 
HETATM    4  C4  UNL     1     -35.999  16.139  -2.973  1.00 20.00     0.039 C 
HETATM    5  C5  UNL     1     -35.390  13.985  -4.127  1.00 20.00     0.088 C 
HETATM    6  C6  UNL     1     -34.888  15.110  -3.222  1.00 20.00     0.000 C 
HETATM    7  C7  UNL     1     -37.491  17.846  -4.142  1.00 20.00     0.043 C 
HETATM    8  O11 UNL     1     -36.028  13.857  -6.435  1.00 20.00    -0.293 OA
ENDROOT
BRANCH   6   9
HETATM    9  C10 UNL     1     -33.626  15.767  -3.797  1.00 20.00    -0.018 C 
HETATM   10  C8  UNL     1     -32.997  16.708  -2.771  1.00 20.00     0.010 C 
HETATM   11  C9  UNL     1     -32.622  14.706  -4.239  1.00 20.00     0.010 C 
ENDBRANCH   6   9
TORSDOF 1
ENDMDL
MODEL 4
REMARK VINA RESULT:      -4.4      1.253      3.397
REMARK  1 active torsions:
REMARK  status: ('A' for Active; 'I' for Inactive)
REMARK    1  A    between atoms: C6_6  and  C10_10 
ROOT
HETATM    1  C1  UNL     1     -35.970  14.962  -3.446  1.00 20.00     0.052 C 
HETATM    2  C2  UNL     1     -34.721  15.427  -3.596  1.00 20.00    -0.080 C 
HETATM    3  C3  UNL     1     -36.649  14.246  -4.554  1.00 20.00     0.149 C 
HETATM    4  C4  UNL     1     -33.951  15.307  -4.887  1.00 20.00     0.039 C 
HETATM    5  C5  UNL     1     -35.873  13.975  -5.825  1.00 20.00     0.088 C 
HETATM    6  C6  UNL     1     -34.840  15.065  -6.115  1.00 20.00     0.000 C 
HETATM    7  C7  UNL     1     -33.999  16.100  -2.465  1.00 20.00     0.043 C 
HETATM    8  O11 UNL     1     -37.797  13.834  -4.400  1.00 20.00    -0.293 OA
ENDROOT
BRANCH   6   9
HETATM    9  C10 UNL     1     -35.514  16.359  -6.589  1.00 20.00    -0.018 C 
HETATM   10  C8  UNL     1     -34.469  17.442  -6.853  1.00 20.00     0.010 C 
HETATM   11  C9  UNL     1     -36.349  16.102  -7.841  1.00 20.00     0.010 C 
ENDBRANCH   6   9
TORSDOF 1
ENDMDL
MODEL 5
REMARK VINA RESULT:      -4.4      1.522      3.011
REMARK  1 active torsions:
REMARK  status: ('A' for Active; 'I' for Inactive)
REMARK    1  A    between atoms: C6_6  and  C10_10 
ROOT
HETATM    1  C1  UNL     1     -34.575  14.451  -3.675  1.00 20.00     0.052 C 
HETATM    2  C2  UNL     1     -34.324  15.767  -3.725  1.00 20.00    -0.080 C 
HETATM    3  C3  UNL     1     -35.629  13.848  -4.527  1.00 20.00     0.149 C 
HETATM    4  C4  UNL     1     -35.109  16.718  -4.593  1.00 20.00     0.039 C 
HETATM    5  C5  UNL     1     -36.355  14.733  -5.517  1.00 20.00     0.088 C 
HETATM    6  C6  UNL     1     -36.479  16.174  -5.021  1.00 20.00     0.000 C 
HETATM    7  C7  UNL     1     -33.220  16.382  -2.914  1.00 20.00     0.043 C 
HETATM    8  O11 UNL     1     -35.850  12.640  -4.460  1.00 20.00    -0.293 OA
ENDROOT
BRANCH   6   9
HETATM    9  C10 UNL     1     -37.511  16.287  -3.890  1.00 20.00    -0.018 C 
HETATM   10  C8  UNL     1     -37.707  17.747  -3.488  1.00 20.00     0.010 C 
HETATM   11  C9  UNL     1     -38.839  15.662  -4.311  1.00 20.00     0.010 C 
ENDBRANCH   6   9
TORSDOF 1
ENDMDL
MODEL 6
REMARK VINA RESULT:      -4.3      1.784      3.031
REMARK  1 active torsions:
REMARK  status: ('A' for Active; 'I' for Inactive)
REMARK    1  A    between atoms: C6_6  and  C10_10 
ROOT
HETATM    1  C1  UNL     1     -36.061  15.316  -5.784  1.00 20.00     0.052 C 
HETATM    2  C2  UNL     1     -36.538  14.753  -4.665  1.00 20.00    -0.080 C 
HETATM    3  C3  UNL     1     -34.599  15.452  -5.999  1.00 20.00     0.149 C 
HETATM    4  C4  UNL     1     -35.649  14.276  -3.544  1.00 20.00     0.039 C 
HETATM    5  C5  UNL     1     -33.657  14.866  -4.969  1.00 20.00     0.088 C 
HETATM    6  C6  UNL     1     -34.248  14.902  -3.559  1.00 20.00     0.000 C 
HETATM    7  C7  UNL     1     -38.013  14.553  -4.460  1.00 20.00     0.043 C 
HETATM    8  O11 UNL     1     -34.180  15.978  -7.028  1.00 20.00    -0.293 OA
ENDROOT
BRANCH   6   9
HETATM    9  C10 UNL     1     -34.261  16.330  -2.997  1.00 20.00    -0.018 C 
HETATM   10  C8  UNL     1     -35.021  16.378  -1.672  1.00 20.00     0.010 C 
HETATM   11  C9  UNL     1     -32.836  16.849  -2.817  1.00 20.00     0.010 C 
ENDBRANCH   6   9
TORSDOF 1
ENDMDL
MODEL 7
REMARK VINA RESULT:      -4.1      3.064      4.277
REMARK  1 active torsions:
REMARK  status: ('A' for Active; 'I' for Inactive)
REMARK    1  A    between atoms: C6_6  and  C10_10 
ROOT
HETATM    1  C1  UNL     1     -32.914  16.631  -3.059  1.00 20.00     0.052 C 
HETATM    2  C2  UNL     1     -33.893  15.724  -3.183  1.00 20.00    -0.080 C 
HETATM    3  C3  UNL     1     -32.957  17.648  -1.980  1.00 20.00     0.149 C 
HETATM    4  C4  UNL     1     -35.109  15.703  -2.290  1.00 20.00     0.039 C 
HETATM    5  C5  UNL     1     -34.083  17.588  -0.970  1.00 20.00     0.088 C 
HETATM    6  C6  UNL     1     -35.374  17.036  -1.577  1.00 20.00     0.000 C 
HETATM    7  C7  UNL     1     -33.834  14.651  -4.232  1.00 20.00     0.043 C 
HETATM    8  O11 UNL     1     -32.053  18.477  -1.887  1.00 20.00    -0.293 OA
ENDROOT
BRANCH   6   9
HETATM    9  C10 UNL     1     -36.029  18.058  -2.515  1.00 20.00    -0.018 C 
HETATM   10  C8  UNL     1     -37.169  17.411  -3.300  1.00 20.00     0.010 C 
HETATM   11  C9  UNL     1     -36.536  19.263  -1.727  1.00 20.00     0.010 C 
ENDBRANCH   6   9
TORSDOF 1
ENDMDL
MODEL 8
REMARK VINA RESULT:      -4.1      1.509      3.404
REMARK  1 active torsions:
REMARK  status: ('A' for Active; 'I' for Inactive)
REMARK    1  A    between atoms: C6_6  and  C10_10 
ROOT
HETATM    1  C1  UNL     1     -37.079  14.521  -4.215  1.00 20.00     0.052 C 
HETATM    2  C2  UNL     1     -37.068  15.856  -4.087  1.00 20.00    -0.080 C 
HETATM    3  C3  UNL     1     -35.812  13.764  -4.364  1.00 20.00     0.149 C 
HETATM    4  C4  UNL     1     -35.801  16.673  -4.137  1.00 20.00     0.039 C 
HETATM    5  C5  UNL     1     -34.503  14.518  -4.284  1.00 20.00     0.088 C 
HETATM    6  C6  UNL     1     -34.627  15.948  -4.811  1.00 20.00     0.000 C 
HETATM    7  C7  UNL     1     -38.337  16.630  -3.874  1.00 20.00     0.043 C 
HETATM    8  O11 UNL     1     -35.844  12.541  -4.488  1.00 20.00    -0.293 OA
ENDROOT
BRANCH   6   9
HETATM    9  C10 UNL     1     -34.751  15.970  -6.340  1.00 20.00    -0.018 C 
HETATM   10  C8  UNL     1     -34.589  17.393  -6.871  1.00 20.00     0.010 C 
HETATM   11  C9  UNL     1     -33.720  15.039  -6.975  1.00 20.00     0.010 C 
ENDBRANCH   6   9
TORSDOF 1
ENDMDL
MODEL 9
REMARK VINA RESULT:      -4.1      1.639      3.080
REMARK  1 active torsions:
REMARK  status: ('A' for Active; 'I' for Inactive)
REMARK    1  A    between atoms: C6_6  and  C10_10 
ROOT
HETATM    1  C1  UNL     1     -36.972  16.695  -4.356  1.00 20.00     0.052 C 
HETATM    2  C2  UNL     1     -36.525  17.122  -3.167  1.00 20.00    -0.080 C 
HETATM    3  C3  UNL     1     -36.626  15.340  -4.853  1.00 20.00     0.149 C 
HETATM    4  C4  UNL     1     -35.617  16.298  -2.288  1.00 20.00     0.039 C 
HETATM    5  C5  UNL     1     -35.832  14.419  -3.953  1.00 20.00     0.088 C 
HETATM    6  C6  UNL     1     -34.873  15.187  -3.042  1.00 20.00     0.000 C 
HETATM    7  C7  UNL     1     -36.916  18.467  -2.623  1.00 20.00     0.043 C 
HETATM    8  O11 UNL     1     -37.039  14.970  -5.950  1.00 20.00    -0.293 OA
ENDROOT
BRANCH   6   9
HETATM    9  C10 UNL     1     -33.678  15.739  -3.830  1.00 20.00    -0.018 C 
HETATM   10  C8  UNL     1     -32.859  16.693  -2.963  1.00 20.00     0.010 C 
HETATM   11  C9  UNL     1     -32.804  14.600  -4.349  1.00 20.00     0.010 C 
ENDBRANCH   6   9
TORSDOF 1
ENDMDL
