MODEL 1
REMARK VINA RESULT:      -4.4      0.000      0.000
REMARK  2 active torsions:
REMARK  status: ('A' for Active; 'I' for Inactive)
REMARK    1  A    between atoms: C3_3  and  C7_7 
REMARK    2  A    between atoms: C7_7  and  C8_8 
ROOT
HETATM    1  C1  UNL     1     -34.401   5.929   5.165  1.00 20.00     0.088 C 
HETATM    2  C2  UNL     1     -33.586   6.853   4.456  1.00 20.00     0.096 C 
HETATM    3  C3  UNL     1     -33.039   6.608   3.250  1.00 20.00    -0.073 C 
HETATM    4  C4  UNL     1     -33.278   5.284   2.572  1.00 20.00     0.044 C 
HETATM    5  N9  UNL     1     -35.068   5.181   5.749  1.00 20.00    -0.192 NA
ENDROOT
BRANCH   3   6
HETATM    6  C7  UNL     1     -32.199   7.601   2.468  1.00 20.00     0.038 C 
BRANCH   6   7
HETATM    7  C8  UNL     1     -32.791   8.006   1.102  1.00 20.00    -0.019 C 
HETATM    8  C5  UNL     1     -31.829   7.723  -0.055  1.00 20.00     0.010 C 
HETATM    9  C6  UNL     1     -33.156   9.494   1.117  1.00 20.00     0.010 C 
ENDBRANCH   6   7
ENDBRANCH   3   6
TORSDOF 2
ENDMDL
MODEL 2
REMARK VINA RESULT:      -4.3     15.392     16.417
REMARK  2 active torsions:
REMARK  status: ('A' for Active; 'I' for Inactive)
REMARK    1  A    between atoms: C3_3  and  C7_7 
REMARK    2  A    between atoms: C7_7  and  C8_8 
ROOT
HETATM    1  C1  UNL     1     -24.533  19.109   6.609  1.00 20.00     0.088 C 
HETATM    2  C2  UNL     1     -24.856  18.932   7.983  1.00 20.00     0.096 C 
HETATM    3  C3  UNL     1     -24.040  18.348   8.881  1.00 20.00    -0.073 C 
HETATM    4  C4  UNL     1     -22.691  17.834   8.450  1.00 20.00     0.044 C 
HETATM    5  N9  UNL     1     -24.277  19.259   5.488  1.00 20.00    -0.192 NA
ENDROOT
BRANCH   3   6
HETATM    6  C7  UNL     1     -24.359  18.188  10.356  1.00 20.00     0.038 C 
BRANCH   6   7
HETATM    7  C8  UNL     1     -23.625  17.022  11.049  1.00 20.00    -0.019 C 
HETATM    8  C5  UNL     1     -24.585  15.919  11.502  1.00 20.00     0.010 C 
HETATM    9  C6  UNL     1     -22.837  17.547  12.253  1.00 20.00     0.010 C 
ENDBRANCH   6   7
ENDBRANCH   3   6
TORSDOF 2
ENDMDL
MODEL 3
REMARK VINA RESULT:      -4.3     10.147     11.261
REMARK  2 active torsions:
REMARK  status: ('A' for Active; 'I' for Inactive)
REMARK    1  A    between atoms: C3_3  and  C7_7 
REMARK    2  A    between atoms: C7_7  and  C8_8 
ROOT
HETATM    1  C1  UNL     1     -35.077  13.662  -4.182  1.00 20.00     0.088 C 
HETATM    2  C2  UNL     1     -34.020  14.601  -4.034  1.00 20.00     0.096 C 
HETATM    3  C3  UNL     1     -34.042  15.632  -3.168  1.00 20.00    -0.073 C 
HETATM    4  C4  UNL     1     -35.240  15.844  -2.281  1.00 20.00     0.044 C 
HETATM    5  N9  UNL     1     -35.934  12.890  -4.308  1.00 20.00    -0.192 NA
ENDROOT
BRANCH   3   6
HETATM    6  C7  UNL     1     -32.903  16.618  -2.975  1.00 20.00     0.038 C 
BRANCH   6   7
HETATM    7  C8  UNL     1     -33.235  17.809  -2.053  1.00 20.00    -0.019 C 
HETATM    8  C5  UNL     1     -33.577  19.076  -2.842  1.00 20.00     0.010 C 
HETATM    9  C6  UNL     1     -32.054  18.086  -1.119  1.00 20.00     0.010 C 
ENDBRANCH   6   7
ENDBRANCH   3   6
TORSDOF 2
ENDMDL
MODEL 4
REMARK VINA RESULT:      -4.3     10.318     11.174
REMARK  2 active torsions:
REMARK  status: ('A' for Active; 'I' for Inactive)
REMARK    1  A    between atoms: C3_3  and  C7_7 
REMARK    2  A    between atoms: C7_7  and  C8_8 
ROOT
HETATM    1  C1  UNL     1     -35.550  13.791  -4.173  1.00 20.00     0.088 C 
HETATM    2  C2  UNL     1     -35.190  15.099  -3.747  1.00 20.00     0.096 C 
HETATM    3  C3  UNL     1     -33.934  15.584  -3.777  1.00 20.00    -0.073 C 
HETATM    4  C4  UNL     1     -32.807  14.723  -4.285  1.00 20.00     0.044 C 
HETATM    5  N9  UNL     1     -35.852  12.726  -4.520  1.00 20.00    -0.192 NA
ENDROOT
BRANCH   3   6
HETATM    6  C7  UNL     1     -33.544  16.991  -3.362  1.00 20.00     0.038 C 
BRANCH   6   7
HETATM    7  C8  UNL     1     -33.250  17.158  -1.857  1.00 20.00    -0.019 C 
HETATM    8  C5  UNL     1     -34.513  17.471  -1.050  1.00 20.00     0.010 C 
HETATM    9  C6  UNL     1     -32.218  18.269  -1.651  1.00 20.00     0.010 C 
ENDBRANCH   6   7
ENDBRANCH   3   6
TORSDOF 2
ENDMDL
MODEL 5
REMARK VINA RESULT:      -4.1      2.652      4.758
REMARK  2 active torsions:
REMARK  status: ('A' for Active; 'I' for Inactive)
REMARK    1  A    between atoms: C3_3  and  C7_7 
REMARK    2  A    between atoms: C7_7  and  C8_8 
ROOT
HETATM    1  C1  UNL     1     -32.873   8.572   0.866  1.00 20.00     0.088 C 
HETATM    2  C2  UNL     1     -33.339   7.431   1.575  1.00 20.00     0.096 C 
HETATM    3  C3  UNL     1     -32.782   6.967   2.710  1.00 20.00    -0.073 C 
HETATM    4  C4  UNL     1     -31.588   7.669   3.303  1.00 20.00     0.044 C 
HETATM    5  N9  UNL     1     -32.500   9.503   0.283  1.00 20.00    -0.192 NA
ENDROOT
BRANCH   3   6
HETATM    6  C7  UNL     1     -33.294   5.773   3.495  1.00 20.00     0.038 C 
BRANCH   6   7
HETATM    7  C8  UNL     1     -34.413   6.101   4.504  1.00 20.00    -0.019 C 
HETATM    8  C5  UNL     1     -33.872   6.756   5.778  1.00 20.00     0.010 C 
HETATM    9  C6  UNL     1     -35.176   4.823   4.865  1.00 20.00     0.010 C 
ENDBRANCH   6   7
ENDBRANCH   3   6
TORSDOF 2
ENDMDL
MODEL 6
REMARK VINA RESULT:      -4.1     10.399     11.401
REMARK  2 active torsions:
REMARK  status: ('A' for Active; 'I' for Inactive)
REMARK    1  A    between atoms: C3_3  and  C7_7 
REMARK    2  A    between atoms: C7_7  and  C8_8 
ROOT
HETATM    1  C1  UNL     1     -36.090  14.055  -4.151  1.00 20.00     0.088 C 
HETATM    2  C2  UNL     1     -34.923  14.544  -3.502  1.00 20.00     0.096 C 
HETATM    3  C3  UNL     1     -34.403  15.769  -3.705  1.00 20.00    -0.073 C 
HETATM    4  C4  UNL     1     -35.065  16.717  -4.671  1.00 20.00     0.044 C 
HETATM    5  N9  UNL     1     -37.043  13.650  -4.675  1.00 20.00    -0.192 NA
ENDROOT
BRANCH   3   6
HETATM    6  C7  UNL     1     -33.180  16.314  -2.989  1.00 20.00     0.038 C 
BRANCH   6   7
HETATM    7  C8  UNL     1     -33.445  17.566  -2.128  1.00 20.00    -0.019 C 
HETATM    8  C5  UNL     1     -32.170  18.095  -1.466  1.00 20.00     0.010 C 
HETATM    9  C6  UNL     1     -34.489  17.245  -1.055  1.00 20.00     0.010 C 
ENDBRANCH   6   7
ENDBRANCH   3   6
TORSDOF 2
ENDMDL
MODEL 7
REMARK VINA RESULT:      -4.0     11.071     11.789
REMARK  2 active torsions:
REMARK  status: ('A' for Active; 'I' for Inactive)
REMARK    1  A    between atoms: C3_3  and  C7_7 
REMARK    2  A    between atoms: C7_7  and  C8_8 
ROOT
HETATM    1  C1  UNL     1     -31.041  18.518  -0.143  1.00 20.00     0.088 C 
HETATM    2  C2  UNL     1     -31.851  18.104  -1.236  1.00 20.00     0.096 C 
HETATM    3  C3  UNL     1     -33.179  17.900  -1.158  1.00 20.00    -0.073 C 
HETATM    4  C4  UNL     1     -33.897  18.111   0.149  1.00 20.00     0.044 C 
HETATM    5  N9  UNL     1     -30.375  18.858   0.744  1.00 20.00    -0.192 NA
ENDROOT
BRANCH   3   6
HETATM    6  C7  UNL     1     -34.058  17.495  -2.328  1.00 20.00     0.038 C 
BRANCH   6   7
HETATM    7  C8  UNL     1     -34.105  15.977  -2.600  1.00 20.00    -0.019 C 
HETATM    8  C5  UNL     1     -33.167  15.563  -3.737  1.00 20.00     0.010 C 
HETATM    9  C6  UNL     1     -35.539  15.555  -2.934  1.00 20.00     0.010 C 
ENDBRANCH   6   7
ENDBRANCH   3   6
TORSDOF 2
ENDMDL
MODEL 8
REMARK VINA RESULT:      -4.0      1.191      1.648
REMARK  2 active torsions:
REMARK  status: ('A' for Active; 'I' for Inactive)
REMARK    1  A    between atoms: C3_3  and  C7_7 
REMARK    2  A    between atoms: C7_7  and  C8_8 
ROOT
HETATM    1  C1  UNL     1     -33.999   4.601   3.492  1.00 20.00     0.088 C 
HETATM    2  C2  UNL     1     -33.392   5.449   2.525  1.00 20.00     0.096 C 
HETATM    3  C3  UNL     1     -32.900   6.672   2.795  1.00 20.00    -0.073 C 
HETATM    4  C4  UNL     1     -32.973   7.220   4.196  1.00 20.00     0.044 C 
HETATM    5  N9  UNL     1     -34.493   3.904   4.276  1.00 20.00    -0.192 NA
ENDROOT
BRANCH   3   6
HETATM    6  C7  UNL     1     -32.216   7.569   1.779  1.00 20.00     0.038 C 
BRANCH   6   7
HETATM    7  C8  UNL     1     -33.176   8.444   0.946  1.00 20.00    -0.019 C 
HETATM    8  C5  UNL     1     -33.098   8.129  -0.550  1.00 20.00     0.010 C 
HETATM    9  C6  UNL     1     -32.860   9.924   1.179  1.00 20.00     0.010 C 
ENDBRANCH   6   7
ENDBRANCH   3   6
TORSDOF 2
ENDMDL
MODEL 9
REMARK VINA RESULT:      -3.9     10.692     11.697
REMARK  2 active torsions:
REMARK  status: ('A' for Active; 'I' for Inactive)
REMARK    1  A    between atoms: C3_3  and  C7_7 
REMARK    2  A    between atoms: C7_7  and  C8_8 
ROOT
HETATM    1  C1  UNL     1     -33.394  14.984  -4.037  1.00 20.00     0.088 C 
HETATM    2  C2  UNL     1     -33.090  16.248  -3.461  1.00 20.00     0.096 C 
HETATM    3  C3  UNL     1     -33.814  16.827  -2.484  1.00 20.00    -0.073 C 
HETATM    4  C4  UNL     1     -35.030  16.129  -1.935  1.00 20.00     0.044 C 
HETATM    5  N9  UNL     1     -33.634  13.953  -4.510  1.00 20.00    -0.192 NA
ENDROOT
BRANCH   3   6
HETATM    6  C7  UNL     1     -33.477  18.158  -1.837  1.00 20.00     0.038 C 
BRANCH   6   7
HETATM    7  C8  UNL     1     -32.845  18.048  -0.434  1.00 20.00    -0.019 C 
HETATM    8  C5  UNL     1     -33.515  18.980   0.579  1.00 20.00     0.010 C 
HETATM    9  C6  UNL     1     -31.348  18.363  -0.514  1.00 20.00     0.010 C 
ENDBRANCH   6   7
ENDBRANCH   3   6
TORSDOF 2
ENDMDL
