MODEL 1
REMARK VINA RESULT:      -4.8      0.000      0.000
REMARK  1 active torsions:
REMARK  status: ('A' for Active; 'I' for Inactive)
REMARK    1  A    between atoms: C7_7  and  C11_11 
ROOT
HETATM    1  C1  UNL     1     -35.660  14.550  -5.723  1.00 20.00     0.127 C 
HETATM    2  C2  UNL     1     -34.225  14.900  -6.045  1.00 20.00     0.078 C 
HETATM    3  C3  UNL     1     -35.988  14.110  -4.314  1.00 20.00     0.079 C 
HETATM    4  C4  UNL     1     -33.635  15.971  -5.134  1.00 20.00     0.008 C 
HETATM    5  C5  UNL     1     -35.963  15.297  -3.363  1.00 20.00     0.013 C 
HETATM    6  C6  UNL     1     -33.386  15.468  -3.711  1.00 20.00     0.006 C 
HETATM    7  C7  UNL     1     -34.582  15.587  -2.750  1.00 20.00    -0.007 C 
HETATM    8  O12 UNL     1     -36.529  14.581  -6.595  1.00 20.00    -0.298 OA
ENDROOT
BRANCH   7   9
HETATM    9  C11 UNL     1     -34.605  16.967  -2.079  1.00 20.00    -0.048 C 
HETATM   10  C8  UNL     1     -35.379  17.955  -2.966  1.00 20.00     0.015 C 
HETATM   11  C9  UNL     1     -33.166  17.470  -1.889  1.00 20.00     0.015 C 
HETATM   12  C10 UNL     1     -35.294  16.861  -0.711  1.00 20.00     0.015 C 
ENDBRANCH   7   9
TORSDOF 1
ENDMDL
MODEL 2
REMARK VINA RESULT:      -4.7      1.343      2.010
REMARK  1 active torsions:
REMARK  status: ('A' for Active; 'I' for Inactive)
REMARK    1  A    between atoms: C7_7  and  C11_11 
ROOT
HETATM    1  C1  UNL     1     -36.461  14.333  -4.691  1.00 20.00     0.127 C 
HETATM    2  C2  UNL     1     -36.640  15.525  -5.603  1.00 20.00     0.078 C 
HETATM    3  C3  UNL     1     -35.087  14.074  -4.114  1.00 20.00     0.079 C 
HETATM    4  C4  UNL     1     -36.202  16.846  -4.979  1.00 20.00     0.008 C 
HETATM    5  C5  UNL     1     -34.767  15.082  -3.020  1.00 20.00     0.013 C 
HETATM    6  C6  UNL     1     -34.684  16.956  -4.828  1.00 20.00     0.006 C 
HETATM    7  C7  UNL     1     -34.106  16.375  -3.526  1.00 20.00    -0.007 C 
HETATM    8  O12 UNL     1     -37.399  13.569  -4.457  1.00 20.00    -0.298 OA
ENDROOT
BRANCH   7   9
HETATM    9  C11 UNL     1     -34.126  17.425  -2.407  1.00 20.00    -0.048 C 
HETATM   10  C8  UNL     1     -35.105  16.985  -1.308  1.00 20.00     0.015 C 
HETATM   11  C9  UNL     1     -34.575  18.778  -2.980  1.00 20.00     0.015 C 
HETATM   12  C10 UNL     1     -32.717  17.565  -1.810  1.00 20.00     0.015 C 
ENDBRANCH   7   9
TORSDOF 1
ENDMDL
MODEL 3
REMARK VINA RESULT:      -4.7      1.345      1.673
REMARK  1 active torsions:
REMARK  status: ('A' for Active; 'I' for Inactive)
REMARK    1  A    between atoms: C7_7  and  C11_11 
ROOT
HETATM    1  C1  UNL     1     -36.458  14.331  -4.687  1.00 20.00     0.127 C 
HETATM    2  C2  UNL     1     -36.643  15.525  -5.596  1.00 20.00     0.078 C 
HETATM    3  C3  UNL     1     -35.081  14.074  -4.117  1.00 20.00     0.079 C 
HETATM    4  C4  UNL     1     -36.205  16.846  -4.972  1.00 20.00     0.008 C 
HETATM    5  C5  UNL     1     -34.758  15.081  -3.023  1.00 20.00     0.013 C 
HETATM    6  C6  UNL     1     -34.687  16.959  -4.828  1.00 20.00     0.006 C 
HETATM    7  C7  UNL     1     -34.101  16.377  -3.529  1.00 20.00    -0.007 C 
HETATM    8  O12 UNL     1     -37.393  13.565  -4.451  1.00 20.00    -0.298 OA
ENDROOT
BRANCH   7   9
HETATM    9  C11 UNL     1     -34.119  17.425  -2.408  1.00 20.00    -0.048 C 
HETATM   10  C8  UNL     1     -34.573  18.777  -2.978  1.00 20.00     0.015 C 
HETATM   11  C9  UNL     1     -32.708  17.568  -1.817  1.00 20.00     0.015 C 
HETATM   12  C10 UNL     1     -35.093  16.981  -1.307  1.00 20.00     0.015 C 
ENDBRANCH   7   9
TORSDOF 1
ENDMDL
MODEL 4
REMARK VINA RESULT:      -4.5      1.467      2.316
REMARK  1 active torsions:
REMARK  status: ('A' for Active; 'I' for Inactive)
REMARK    1  A    between atoms: C7_7  and  C11_11 
ROOT
HETATM    1  C1  UNL     1     -36.761  14.534  -4.790  1.00 20.00     0.127 C 
HETATM    2  C2  UNL     1     -37.277  15.843  -5.343  1.00 20.00     0.078 C 
HETATM    3  C3  UNL     1     -35.269  14.380  -4.593  1.00 20.00     0.079 C 
HETATM    4  C4  UNL     1     -36.842  17.063  -4.538  1.00 20.00     0.008 C 
HETATM    5  C5  UNL     1     -34.803  15.185  -3.389  1.00 20.00     0.013 C 
HETATM    6  C6  UNL     1     -35.353  17.374  -4.691  1.00 20.00     0.006 C 
HETATM    7  C7  UNL     1     -34.421  16.640  -3.710  1.00 20.00    -0.007 C 
HETATM    8  O12 UNL     1     -37.530  13.603  -4.547  1.00 20.00    -0.298 OA
ENDROOT
BRANCH   7   9
HETATM    9  C11 UNL     1     -34.281  17.428  -2.401  1.00 20.00    -0.048 C 
HETATM   10  C8  UNL     1     -32.811  17.426  -1.956  1.00 20.00     0.015 C 
HETATM   11  C9  UNL     1     -35.145  16.773  -1.312  1.00 20.00     0.015 C 
HETATM   12  C10 UNL     1     -34.747  18.875  -2.622  1.00 20.00     0.015 C 
ENDBRANCH   7   9
TORSDOF 1
ENDMDL
MODEL 5
REMARK VINA RESULT:      -4.3      2.741      4.554
REMARK  1 active torsions:
REMARK  status: ('A' for Active; 'I' for Inactive)
REMARK    1  A    between atoms: C7_7  and  C11_11 
ROOT
HETATM    1  C1  UNL     1     -32.568  18.489  -2.097  1.00 20.00     0.127 C 
HETATM    2  C2  UNL     1     -32.880  19.242  -3.371  1.00 20.00     0.078 C 
HETATM    3  C3  UNL     1     -33.628  17.567  -1.536  1.00 20.00     0.079 C 
HETATM    4  C4  UNL     1     -33.295  18.343  -4.530  1.00 20.00     0.008 C 
HETATM    5  C5  UNL     1     -33.733  16.302  -2.373  1.00 20.00     0.013 C 
HETATM    6  C6  UNL     1     -34.682  17.729  -4.336  1.00 20.00     0.006 C 
HETATM    7  C7  UNL     1     -34.715  16.404  -3.554  1.00 20.00    -0.007 C 
HETATM    8  O12 UNL     1     -31.498  18.655  -1.510  1.00 20.00    -0.298 OA
ENDROOT
BRANCH   7   9
HETATM    9  C11 UNL     1     -34.501  15.211  -4.495  1.00 20.00    -0.048 C 
HETATM   10  C8  UNL     1     -35.475  14.083  -4.122  1.00 20.00     0.015 C 
HETATM   11  C9  UNL     1     -33.057  14.705  -4.364  1.00 20.00     0.015 C 
HETATM   12  C10 UNL     1     -34.760  15.650  -5.944  1.00 20.00     0.015 C 
ENDBRANCH   7   9
TORSDOF 1
ENDMDL
MODEL 6
REMARK VINA RESULT:      -4.2      1.367      1.913
REMARK  1 active torsions:
REMARK  status: ('A' for Active; 'I' for Inactive)
REMARK    1  A    between atoms: C7_7  and  C11_11 
ROOT
HETATM    1  C1  UNL     1     -35.935  14.154  -4.775  1.00 20.00     0.127 C 
HETATM    2  C2  UNL     1     -34.673  13.981  -3.961  1.00 20.00     0.078 C 
HETATM    3  C3  UNL     1     -37.104  14.869  -4.136  1.00 20.00     0.079 C 
HETATM    4  C4  UNL     1     -34.106  15.289  -3.421  1.00 20.00     0.008 C 
HETATM    5  C5  UNL     1     -36.836  16.364  -4.053  1.00 20.00     0.013 C 
HETATM    6  C6  UNL     1     -34.963  15.890  -2.306  1.00 20.00     0.006 C 
HETATM    7  C7  UNL     1     -36.108  16.807  -2.773  1.00 20.00    -0.007 C 
HETATM    8  O12 UNL     1     -36.023  13.688  -5.912  1.00 20.00    -0.298 OA
ENDROOT
BRANCH   7   9
HETATM    9  C11 UNL     1     -35.614  18.249  -2.943  1.00 20.00    -0.048 C 
HETATM   10  C8  UNL     1     -35.191  18.478  -4.403  1.00 20.00     0.015 C 
HETATM   11  C9  UNL     1     -34.412  18.494  -2.019  1.00 20.00     0.015 C 
HETATM   12  C10 UNL     1     -36.744  19.224  -2.580  1.00 20.00     0.015 C 
ENDBRANCH   7   9
TORSDOF 1
ENDMDL
MODEL 7
REMARK VINA RESULT:      -4.2      2.512      4.383
REMARK  1 active torsions:
REMARK  status: ('A' for Active; 'I' for Inactive)
REMARK    1  A    between atoms: C7_7  and  C11_11 
ROOT
HETATM    1  C1  UNL     1     -33.587  17.891  -1.628  1.00 20.00     0.127 C 
HETATM    2  C2  UNL     1     -33.551  18.732  -2.884  1.00 20.00     0.078 C 
HETATM    3  C3  UNL     1     -34.781  16.991  -1.406  1.00 20.00     0.079 C 
HETATM    4  C4  UNL     1     -33.699  17.924  -4.169  1.00 20.00     0.008 C 
HETATM    5  C5  UNL     1     -34.721  15.784  -2.330  1.00 20.00     0.013 C 
HETATM    6  C6  UNL     1     -35.111  17.369  -4.360  1.00 20.00     0.006 C 
HETATM    7  C7  UNL     1     -35.379  16.003  -3.703  1.00 20.00    -0.007 C 
HETATM    8  O12 UNL     1     -32.689  17.969  -0.789  1.00 20.00    -0.298 OA
ENDROOT
BRANCH   7   9
HETATM    9  C11 UNL     1     -34.980  14.859  -4.645  1.00 20.00    -0.048 C 
HETATM   10  C8  UNL     1     -35.085  15.335  -6.102  1.00 20.00     0.015 C 
HETATM   11  C9  UNL     1     -35.921  13.665  -4.428  1.00 20.00     0.015 C 
HETATM   12  C10 UNL     1     -33.535  14.432  -4.349  1.00 20.00     0.015 C 
ENDBRANCH   7   9
TORSDOF 1
ENDMDL
MODEL 8
REMARK VINA RESULT:      -4.2      2.277      4.506
REMARK  1 active torsions:
REMARK  status: ('A' for Active; 'I' for Inactive)
REMARK    1  A    between atoms: C7_7  and  C11_11 
ROOT
HETATM    1  C1  UNL     1     -33.991  17.429  -1.838  1.00 20.00     0.127 C 
HETATM    2  C2  UNL     1     -35.106  16.477  -1.469  1.00 20.00     0.078 C 
HETATM    3  C3  UNL     1     -32.869  16.910  -2.710  1.00 20.00     0.079 C 
HETATM    4  C4  UNL     1     -35.786  15.833  -2.672  1.00 20.00     0.008 C 
HETATM    5  C5  UNL     1     -33.339  16.750  -4.148  1.00 20.00     0.013 C 
HETATM    6  C6  UNL     1     -34.897  14.809  -3.378  1.00 20.00     0.006 C 
HETATM    7  C7  UNL     1     -33.963  15.379  -4.461  1.00 20.00    -0.007 C 
HETATM    8  O12 UNL     1     -33.974  18.582  -1.406  1.00 20.00    -0.298 OA
ENDROOT
BRANCH   7   9
HETATM    9  C11 UNL     1     -34.679  15.445  -5.816  1.00 20.00    -0.048 C 
HETATM   10  C8  UNL     1     -33.698  15.056  -6.933  1.00 20.00     0.015 C 
HETATM   11  C9  UNL     1     -35.190  16.873  -6.059  1.00 20.00     0.015 C 
HETATM   12  C10 UNL     1     -35.867  14.470  -5.816  1.00 20.00     0.015 C 
ENDBRANCH   7   9
TORSDOF 1
ENDMDL
MODEL 9
REMARK VINA RESULT:      -4.2      1.409      2.017
REMARK  1 active torsions:
REMARK  status: ('A' for Active; 'I' for Inactive)
REMARK    1  A    between atoms: C7_7  and  C11_11 
ROOT
HETATM    1  C1  UNL     1     -34.031  14.748  -5.245  1.00 20.00     0.127 C 
HETATM    2  C2  UNL     1     -33.003  14.948  -4.154  1.00 20.00     0.078 C 
HETATM    3  C3  UNL     1     -35.482  14.606  -4.842  1.00 20.00     0.079 C 
HETATM    4  C4  UNL     1     -33.294  16.138  -3.248  1.00 20.00     0.008 C 
HETATM    5  C5  UNL     1     -36.052  15.950  -4.416  1.00 20.00     0.013 C 
HETATM    6  C6  UNL     1     -34.494  15.904  -2.329  1.00 20.00     0.006 C 
HETATM    7  C7  UNL     1     -35.864  16.274  -2.924  1.00 20.00    -0.007 C 
HETATM    8  O12 UNL     1     -33.691  14.660  -6.426  1.00 20.00    -0.298 OA
ENDROOT
BRANCH   7   9
HETATM    9  C11 UNL     1     -36.180  17.756  -2.682  1.00 20.00    -0.048 C 
HETATM   10  C8  UNL     1     -35.672  18.588  -3.870  1.00 20.00     0.015 C 
HETATM   11  C9  UNL     1     -35.486  18.226  -1.395  1.00 20.00     0.015 C 
HETATM   12  C10 UNL     1     -37.698  17.940  -2.542  1.00 20.00     0.015 C 
ENDBRANCH   7   9
TORSDOF 1
ENDMDL
