MODEL 1
REMARK VINA RESULT:      -3.4      0.000      0.000
REMARK  0 active torsions:
REMARK  status: ('A' for Active; 'I' for Inactive)
ROOT
HETATM    1  C1  UNL     1     -35.347  13.850  -4.303  1.00 20.00     0.084 C 
HETATM    2  C2  UNL     1     -34.828  15.595  -2.641  1.00 20.00     0.048 C 
HETATM    3  C3  UNL     1     -34.976  16.158  -5.088  1.00 20.00     0.048 C 
HETATM    4  C4  UNL     1     -34.593  15.090  -4.064  1.00 20.00     0.118 C 
HETATM    5  N5  UNL     1     -35.947  12.873  -4.490  1.00 20.00    -0.195 NA
HETATM    6 CL6  UNL     1     -32.854  14.696  -4.260  1.00 20.00    -0.104 Cl
ENDROOT
TORSDOF 0
ENDMDL
MODEL 2
REMARK VINA RESULT:      -3.4      1.370      1.880
REMARK  0 active torsions:
REMARK  status: ('A' for Active; 'I' for Inactive)
ROOT
HETATM    1  C1  UNL     1     -35.351  13.842  -4.284  1.00 20.00     0.084 C 
HETATM    2  C2  UNL     1     -33.106  14.860  -4.209  1.00 20.00     0.048 C 
HETATM    3  C3  UNL     1     -34.906  15.603  -2.616  1.00 20.00     0.048 C 
HETATM    4  C4  UNL     1     -34.606  15.084  -4.022  1.00 20.00     0.118 C 
HETATM    5  N5  UNL     1     -35.935  12.860  -4.488  1.00 20.00    -0.195 NA
HETATM    6 CL6  UNL     1     -35.166  16.297  -5.219  1.00 20.00    -0.104 Cl
ENDROOT
TORSDOF 0
ENDMDL
MODEL 3
REMARK VINA RESULT:      -3.4      1.353      1.865
REMARK  0 active torsions:
REMARK  status: ('A' for Active; 'I' for Inactive)
ROOT
HETATM    1  C1  UNL     1     -35.352  13.846  -4.310  1.00 20.00     0.084 C 
HETATM    2  C2  UNL     1     -35.044  16.172  -5.066  1.00 20.00     0.048 C 
HETATM    3  C3  UNL     1     -33.089  14.823  -4.237  1.00 20.00     0.048 C 
HETATM    4  C4  UNL     1     -34.588  15.085  -4.094  1.00 20.00     0.118 C 
HETATM    5  N5  UNL     1     -35.954  12.869  -4.485  1.00 20.00    -0.195 NA
HETATM    6 CL6  UNL     1     -34.925  15.627  -2.418  1.00 20.00    -0.104 Cl
ENDROOT
TORSDOF 0
ENDMDL
MODEL 4
REMARK VINA RESULT:      -3.4     18.632     18.832
REMARK  0 active torsions:
REMARK  status: ('A' for Active; 'I' for Inactive)
ROOT
HETATM    1  C1  UNL     1     -23.069  16.876   9.794  1.00 20.00     0.084 C 
HETATM    2  C2  UNL     1     -24.555  15.902  11.504  1.00 20.00     0.048 C 
HETATM    3  C3  UNL     1     -24.858  18.282  10.746  1.00 20.00     0.048 C 
HETATM    4  C4  UNL     1     -23.849  17.163  11.008  1.00 20.00     0.118 C 
HETATM    5  N5  UNL     1     -22.458  16.647   8.834  1.00 20.00    -0.195 NA
HETATM    6 CL6  UNL     1     -22.690  17.711  12.262  1.00 20.00    -0.104 Cl
ENDROOT
TORSDOF 0
ENDMDL
MODEL 5
REMARK VINA RESULT:      -3.4     18.279     18.812
REMARK  0 active torsions:
REMARK  status: ('A' for Active; 'I' for Inactive)
ROOT
HETATM    1  C1  UNL     1     -22.973  16.893   9.709  1.00 20.00     0.084 C 
HETATM    2  C2  UNL     1     -24.783  18.304  10.611  1.00 20.00     0.048 C 
HETATM    3  C3  UNL     1     -22.802  17.693  12.035  1.00 20.00     0.048 C 
HETATM    4  C4  UNL     1     -23.739  17.232  10.919  1.00 20.00     0.118 C 
HETATM    5  N5  UNL     1     -22.369  16.631   8.753  1.00 20.00    -0.195 NA
HETATM    6 CL6  UNL     1     -24.579  15.738  11.447  1.00 20.00    -0.104 Cl
ENDROOT
TORSDOF 0
ENDMDL
MODEL 6
REMARK VINA RESULT:      -3.3     18.313     18.797
REMARK  0 active torsions:
REMARK  status: ('A' for Active; 'I' for Inactive)
ROOT
HETATM    1  C1  UNL     1     -22.999  16.885   9.718  1.00 20.00     0.084 C 
HETATM    2  C2  UNL     1     -22.826  17.701  12.038  1.00 20.00     0.048 C 
HETATM    3  C3  UNL     1     -24.522  15.951  11.418  1.00 20.00     0.048 C 
HETATM    4  C4  UNL     1     -23.758  17.186  10.943  1.00 20.00     0.118 C 
HETATM    5  N5  UNL     1     -22.398  16.645   8.755  1.00 20.00    -0.195 NA
HETATM    6 CL6  UNL     1     -24.936  18.474  10.530  1.00 20.00    -0.104 Cl
ENDROOT
TORSDOF 0
ENDMDL
MODEL 7
REMARK VINA RESULT:      -3.1     18.416     18.915
REMARK  0 active torsions:
REMARK  status: ('A' for Active; 'I' for Inactive)
ROOT
HETATM    1  C1  UNL     1     -24.937  18.147  11.064  1.00 20.00     0.084 C 
HETATM    2  C2  UNL     1     -22.801  17.608  12.171  1.00 20.00     0.048 C 
HETATM    3  C3  UNL     1     -23.219  16.923   9.786  1.00 20.00     0.048 C 
HETATM    4  C4  UNL     1     -23.852  17.157  11.158  1.00 20.00     0.118 C 
HETATM    5  N5  UNL     1     -25.790  18.931  10.989  1.00 20.00    -0.195 NA
HETATM    6 CL6  UNL     1     -24.586  15.623  11.727  1.00 20.00    -0.104 Cl
ENDROOT
TORSDOF 0
ENDMDL
MODEL 8
REMARK VINA RESULT:      -3.1     10.504     11.248
REMARK  0 active torsions:
REMARK  status: ('A' for Active; 'I' for Inactive)
ROOT
HETATM    1  C1  UNL     1     -41.824   8.936   0.225  1.00 20.00     0.084 C 
HETATM    2  C2  UNL     1     -43.416   7.249   1.062  1.00 20.00     0.048 C 
HETATM    3  C3  UNL     1     -41.106   6.579   0.328  1.00 20.00     0.048 C 
HETATM    4  C4  UNL     1     -42.271   7.540   0.094  1.00 20.00     0.118 C 
HETATM    5  N5  UNL     1     -41.472  10.036   0.334  1.00 20.00    -0.195 NA
HETATM    6 CL6  UNL     1     -42.865   7.332  -1.586  1.00 20.00    -0.104 Cl
ENDROOT
TORSDOF 0
ENDMDL
MODEL 9
REMARK VINA RESULT:      -3.1     10.160     10.965
REMARK  0 active torsions:
REMARK  status: ('A' for Active; 'I' for Inactive)
ROOT
HETATM    1  C1  UNL     1     -41.718   9.090   0.093  1.00 20.00     0.084 C 
HETATM    2  C2  UNL     1     -43.411   7.977  -1.311  1.00 20.00     0.048 C 
HETATM    3  C3  UNL     1     -42.798   7.042   0.943  1.00 20.00     0.048 C 
HETATM    4  C4  UNL     1     -42.290   7.789  -0.290  1.00 20.00     0.118 C 
HETATM    5  N5  UNL     1     -41.271  10.117   0.397  1.00 20.00    -0.195 NA
HETATM    6 CL6  UNL     1     -40.972   6.835  -1.043  1.00 20.00    -0.104 Cl
ENDROOT
TORSDOF 0
ENDMDL
