MODEL 1
REMARK VINA RESULT:      -4.8      0.000      0.000
REMARK  0 active torsions:
REMARK  status: ('A' for Active; 'I' for Inactive)
ROOT
HETATM    1  C1  UNL     1     -33.982   6.903   6.043  1.00 20.00     0.009 A 
HETATM    2  C2  UNL     1     -34.629   5.754   5.822  1.00 20.00     0.074 A 
HETATM    3  C3  UNL     1     -33.143   7.485   5.032  1.00 20.00     0.043 A 
HETATM    4  C4  UNL     1     -33.001   6.875   3.847  1.00 20.00     0.108 A 
HETATM    5  C5  UNL     1     -34.484   5.055   4.511  1.00 20.00     0.248 A 
HETATM    6  C6  UNL     1     -33.460   5.048   2.254  1.00 20.00     0.160 C 
HETATM    7  N7  UNL     1     -33.650   5.674   3.562  1.00 20.00    -0.309 N 
HETATM    8  O8  UNL     1     -35.093   3.997   4.345  1.00 20.00    -0.268 OA
HETATM    9 CL9  UNL     1     -31.992   7.582   2.640  1.00 20.00    -0.064 Cl
ENDROOT
TORSDOF 0
ENDMDL
MODEL 2
REMARK VINA RESULT:      -4.5      2.091      2.700
REMARK  0 active torsions:
REMARK  status: ('A' for Active; 'I' for Inactive)
ROOT
HETATM    1  C1  UNL     1     -34.950   5.013   5.607  1.00 20.00     0.009 A 
HETATM    2  C2  UNL     1     -34.384   6.149   6.027  1.00 20.00     0.074 A 
HETATM    3  C3  UNL     1     -34.701   4.508   4.285  1.00 20.00     0.043 A 
HETATM    4  C4  UNL     1     -33.891   5.179   3.454  1.00 20.00     0.108 A 
HETATM    5  C5  UNL     1     -33.479   6.914   5.119  1.00 20.00     0.248 A 
HETATM    6  C6  UNL     1     -32.401   7.063   2.892  1.00 20.00     0.160 C 
HETATM    7  N7  UNL     1     -33.275   6.369   3.838  1.00 20.00    -0.309 N 
HETATM    8  O8  UNL     1     -32.979   7.957   5.540  1.00 20.00    -0.268 OA
HETATM    9 CL9  UNL     1     -33.598   4.565   1.868  1.00 20.00    -0.064 Cl
ENDROOT
TORSDOF 0
ENDMDL
MODEL 3
REMARK VINA RESULT:      -4.3     16.675     17.146
REMARK  0 active torsions:
REMARK  status: ('A' for Active; 'I' for Inactive)
ROOT
HETATM    1  C1  UNL     1     -22.807  17.489  11.955  1.00 20.00     0.009 A 
HETATM    2  C2  UNL     1     -22.307  17.764  10.746  1.00 20.00     0.074 A 
HETATM    3  C3  UNL     1     -24.177  17.785  12.272  1.00 20.00     0.043 A 
HETATM    4  C4  UNL     1     -24.972  18.344  11.350  1.00 20.00     0.108 A 
HETATM    5  C5  UNL     1     -23.172  18.388   9.702  1.00 20.00     0.248 A 
HETATM    6  C6  UNL     1     -25.413  19.263   9.103  1.00 20.00     0.160 C 
HETATM    7  N7  UNL     1     -24.504  18.653  10.073  1.00 20.00    -0.309 N 
HETATM    8  O8  UNL     1     -22.676  18.629   8.602  1.00 20.00    -0.268 OA
HETATM    9 CL9  UNL     1     -26.616  18.694  11.740  1.00 20.00    -0.064 Cl
ENDROOT
TORSDOF 0
ENDMDL
MODEL 4
REMARK VINA RESULT:      -4.2     16.469     16.630
REMARK  0 active torsions:
REMARK  status: ('A' for Active; 'I' for Inactive)
ROOT
HETATM    1  C1  UNL     1     -24.695  19.213   8.396  1.00 20.00     0.009 A 
HETATM    2  C2  UNL     1     -23.700  18.350   8.168  1.00 20.00     0.074 A 
HETATM    3  C3  UNL     1     -25.351  19.263   9.674  1.00 20.00     0.043 A 
HETATM    4  C4  UNL     1     -24.967  18.437  10.657  1.00 20.00     0.108 A 
HETATM    5  C5  UNL     1     -23.255  17.419   9.247  1.00 20.00     0.248 A 
HETATM    6  C6  UNL     1     -23.555  16.637  11.580  1.00 20.00     0.160 C 
HETATM    7  N7  UNL     1     -23.935  17.516  10.475  1.00 20.00    -0.309 N 
HETATM    8  O8  UNL     1     -22.338  16.636   8.999  1.00 20.00    -0.268 OA
HETATM    9 CL9  UNL     1     -25.760  18.506  12.187  1.00 20.00    -0.064 Cl
ENDROOT
TORSDOF 0
ENDMDL
MODEL 5
REMARK VINA RESULT:      -4.2     12.037     12.499
REMARK  0 active torsions:
REMARK  status: ('A' for Active; 'I' for Inactive)
ROOT
HETATM    1  C1  UNL     1     -33.976  15.392  -3.406  1.00 20.00     0.009 A 
HETATM    2  C2  UNL     1     -34.297  14.193  -3.901  1.00 20.00     0.074 A 
HETATM    3  C3  UNL     1     -34.986  16.389  -3.172  1.00 20.00     0.043 A 
HETATM    4  C4  UNL     1     -36.269  16.121  -3.451  1.00 20.00     0.108 A 
HETATM    5  C5  UNL     1     -35.719  13.871  -4.220  1.00 20.00     0.248 A 
HETATM    6  C6  UNL     1     -38.074  14.645  -4.257  1.00 20.00     0.160 C 
HETATM    7  N7  UNL     1     -36.661  14.886  -3.969  1.00 20.00    -0.309 N 
HETATM    8  O8  UNL     1     -35.976  12.757  -4.677  1.00 20.00    -0.268 OA
HETATM    9 CL9  UNL     1     -37.473  17.323  -3.166  1.00 20.00    -0.064 Cl
ENDROOT
TORSDOF 0
ENDMDL
MODEL 6
REMARK VINA RESULT:      -4.1      2.531      3.774
REMARK  0 active torsions:
REMARK  status: ('A' for Active; 'I' for Inactive)
ROOT
HETATM    1  C1  UNL     1     -33.743   4.535   2.548  1.00 20.00     0.009 A 
HETATM    2  C2  UNL     1     -32.976   5.595   2.273  1.00 20.00     0.074 A 
HETATM    3  C3  UNL     1     -34.425   4.425   3.809  1.00 20.00     0.043 A 
HETATM    4  C4  UNL     1     -34.296   5.392   4.727  1.00 20.00     0.108 A 
HETATM    5  C5  UNL     1     -32.815   6.685   3.280  1.00 20.00     0.248 A 
HETATM    6  C6  UNL     1     -33.400   7.546   5.530  1.00 20.00     0.160 C 
HETATM    7  N7  UNL     1     -33.508   6.520   4.494  1.00 20.00    -0.309 N 
HETATM    8  O8  UNL     1     -32.098   7.643   2.992  1.00 20.00    -0.268 OA
HETATM    9 CL9  UNL     1     -35.119   5.251   6.236  1.00 20.00    -0.064 Cl
ENDROOT
TORSDOF 0
ENDMDL
MODEL 7
REMARK VINA RESULT:      -4.1     16.340     16.906
REMARK  0 active torsions:
REMARK  status: ('A' for Active; 'I' for Inactive)
ROOT
HETATM    1  C1  UNL     1     -23.203  17.771  12.332  1.00 20.00     0.009 A 
HETATM    2  C2  UNL     1     -24.480  18.166  12.332  1.00 20.00     0.074 A 
HETATM    3  C3  UNL     1     -22.455  17.690  11.107  1.00 20.00     0.043 A 
HETATM    4  C4  UNL     1     -23.037  18.014   9.944  1.00 20.00     0.108 A 
HETATM    5  C5  UNL     1     -25.151  18.530  11.049  1.00 20.00     0.248 A 
HETATM    6  C6  UNL     1     -24.955  18.772   8.590  1.00 20.00     0.160 C 
HETATM    7  N7  UNL     1     -24.367  18.432   9.884  1.00 20.00    -0.309 N 
HETATM    8  O8  UNL     1     -26.329  18.887  11.088  1.00 20.00    -0.268 OA
HETATM    9 CL9  UNL     1     -22.131  17.914   8.480  1.00 20.00    -0.064 Cl
ENDROOT
TORSDOF 0
ENDMDL
MODEL 8
REMARK VINA RESULT:      -4.0     15.099     15.540
REMARK  0 active torsions:
REMARK  status: ('A' for Active; 'I' for Inactive)
ROOT
HETATM    1  C1  UNL     1     -26.648  19.226   7.191  1.00 20.00     0.009 A 
HETATM    2  C2  UNL     1     -25.322  19.233   7.020  1.00 20.00     0.074 A 
HETATM    3  C3  UNL     1     -27.537  19.226   6.062  1.00 20.00     0.043 A 
HETATM    4  C4  UNL     1     -27.041  19.234   4.818  1.00 20.00     0.108 A 
HETATM    5  C5  UNL     1     -24.744  19.244   5.643  1.00 20.00     0.248 A 
HETATM    6  C6  UNL     1     -25.176  19.253   3.203  1.00 20.00     0.160 C 
HETATM    7  N7  UNL     1     -25.666  19.243   4.580  1.00 20.00    -0.309 N 
HETATM    8  O8  UNL     1     -23.519  19.255   5.526  1.00 20.00    -0.268 OA
HETATM    9 CL9  UNL     1     -28.117  19.234   3.470  1.00 20.00    -0.064 Cl
ENDROOT
TORSDOF 0
ENDMDL
MODEL 9
REMARK VINA RESULT:      -4.0      1.453      1.887
REMARK  0 active torsions:
REMARK  status: ('A' for Active; 'I' for Inactive)
ROOT
HETATM    1  C1  UNL     1     -34.885   5.259   5.657  1.00 20.00     0.009 A 
HETATM    2  C2  UNL     1     -34.878   4.689   4.447  1.00 20.00     0.074 A 
HETATM    3  C3  UNL     1     -34.067   6.406   5.938  1.00 20.00     0.043 A 
HETATM    4  C4  UNL     1     -33.282   6.920   4.981  1.00 20.00     0.108 A 
HETATM    5  C5  UNL     1     -34.011   5.242   3.365  1.00 20.00     0.248 A 
HETATM    6  C6  UNL     1     -32.359   6.963   2.693  1.00 20.00     0.160 C 
HETATM    7  N7  UNL     1     -33.233   6.366   3.701  1.00 20.00    -0.309 N 
HETATM    8  O8  UNL     1     -34.028   4.689   2.265  1.00 20.00    -0.268 OA
HETATM    9 CL9  UNL     1     -32.304   8.297   5.328  1.00 20.00    -0.064 Cl
ENDROOT
TORSDOF 0
ENDMDL
