MODEL 1
REMARK VINA RESULT:      -4.8      0.000      0.000
REMARK  1 active torsions:
REMARK  status: ('A' for Active; 'I' for Inactive)
REMARK    1  A    between atoms: C3_3  and  C7_7 
ROOT
HETATM    1  C1  UNL     1     -33.503  16.617  -2.496  1.00 20.00    -0.082 C 
HETATM    2  C2  UNL     1     -34.744  16.365  -2.023  1.00 20.00    -0.081 C 
HETATM    3  C4  UNL     1     -32.937  15.886  -3.694  1.00 20.00     0.035 C 
HETATM    4  C5  UNL     1     -35.674  15.371  -2.693  1.00 20.00     0.050 C 
HETATM    5  C6  UNL     1     -33.747  14.670  -4.147  1.00 20.00     0.021 C 
HETATM    6  C7  UNL     1     -35.255  14.937  -4.111  1.00 20.00     0.013 C 
HETATM    7  C8  UNL     1     -32.556  17.639  -1.921  1.00 20.00     0.043 C 
HETATM    8  C9  UNL     1     -35.339  17.000  -0.794  1.00 20.00     0.043 C 
HETATM    9  C10 UNL     1     -36.029  13.680  -4.528  1.00 20.00     0.023 C 
ENDROOT
BRANCH   6  10
HETATM   10  C3  UNL     1     -35.613  16.008  -5.111  1.00 20.00     0.240 C 
HETATM   11  O11 UNL     1     -35.376  15.919  -6.312  1.00 20.00    -0.306 OA
ENDBRANCH   6  10
TORSDOF 1
ENDMDL
MODEL 2
REMARK VINA RESULT:      -4.6      1.751      2.756
REMARK  1 active torsions:
REMARK  status: ('A' for Active; 'I' for Inactive)
REMARK    1  A    between atoms: C3_3  and  C7_7 
ROOT
HETATM    1  C1  UNL     1     -36.222  17.064  -3.124  1.00 20.00    -0.082 C 
HETATM    2  C2  UNL     1     -35.314  16.611  -2.231  1.00 20.00    -0.081 C 
HETATM    3  C4  UNL     1     -36.131  16.734  -4.599  1.00 20.00     0.035 C 
HETATM    4  C5  UNL     1     -34.172  15.698  -2.636  1.00 20.00     0.050 C 
HETATM    5  C6  UNL     1     -34.809  16.099  -5.035  1.00 20.00     0.021 C 
HETATM    6  C7  UNL     1     -34.312  15.055  -4.029  1.00 20.00     0.013 C 
HETATM    7  C8  UNL     1     -37.416  17.915  -2.779  1.00 20.00     0.043 C 
HETATM    8  C9  UNL     1     -35.303  16.962  -0.767  1.00 20.00     0.043 C 
HETATM    9  C10 UNL     1     -32.965  14.477  -4.482  1.00 20.00     0.023 C 
ENDROOT
BRANCH   6  10
HETATM   10  C3  UNL     1     -35.275  13.894  -3.973  1.00 20.00     0.240 C 
HETATM   11  O11 UNL     1     -34.920  12.720  -3.993  1.00 20.00    -0.306 OA
ENDBRANCH   6  10
TORSDOF 1
ENDMDL
MODEL 3
REMARK VINA RESULT:      -4.5      1.641      4.105
REMARK  1 active torsions:
REMARK  status: ('A' for Active; 'I' for Inactive)
REMARK    1  A    between atoms: C3_3  and  C7_7 
ROOT
HETATM    1  C1  UNL     1     -35.077  15.501  -3.166  1.00 20.00    -0.082 C 
HETATM    2  C2  UNL     1     -33.784  15.466  -3.557  1.00 20.00    -0.081 C 
HETATM    3  C4  UNL     1     -35.561  16.437  -2.080  1.00 20.00     0.035 C 
HETATM    4  C5  UNL     1     -32.740  16.400  -2.974  1.00 20.00     0.050 C 
HETATM    5  C6  UNL     1     -34.452  17.125  -1.282  1.00 20.00     0.021 C 
HETATM    6  C7  UNL     1     -33.303  17.594  -2.180  1.00 20.00     0.013 C 
HETATM    7  C8  UNL     1     -36.175  14.651  -3.751  1.00 20.00     0.043 C 
HETATM    8  C9  UNL     1     -33.221  14.509  -4.576  1.00 20.00     0.043 C 
HETATM    9  C10 UNL     1     -32.194  18.236  -1.337  1.00 20.00     0.023 C 
ENDROOT
BRANCH   6  10
HETATM   10  C3  UNL     1     -33.791  18.665  -3.126  1.00 20.00     0.240 C 
HETATM   11  O11 UNL     1     -33.258  18.909  -4.203  1.00 20.00    -0.306 OA
ENDBRANCH   6  10
TORSDOF 1
ENDMDL
MODEL 4
REMARK VINA RESULT:      -4.4      2.072      3.559
REMARK  1 active torsions:
REMARK  status: ('A' for Active; 'I' for Inactive)
REMARK    1  A    between atoms: C3_3  and  C7_7 
ROOT
HETATM    1  C1  UNL     1     -33.918  15.037  -4.462  1.00 20.00    -0.082 C 
HETATM    2  C2  UNL     1     -34.537  15.298  -5.634  1.00 20.00    -0.081 C 
HETATM    3  C4  UNL     1     -34.574  15.318  -3.127  1.00 20.00     0.035 C 
HETATM    4  C5  UNL     1     -35.954  15.840  -5.693  1.00 20.00     0.050 C 
HETATM    5  C6  UNL     1     -35.849  16.160  -3.202  1.00 20.00     0.021 C 
HETATM    6  C7  UNL     1     -36.744  15.747  -4.374  1.00 20.00     0.013 C 
HETATM    7  C8  UNL     1     -32.542  14.437  -4.332  1.00 20.00     0.043 C 
HETATM    8  C9  UNL     1     -33.915  15.114  -6.993  1.00 20.00     0.043 C 
HETATM    9  C10 UNL     1     -37.987  16.644  -4.439  1.00 20.00     0.023 C 
ENDROOT
BRANCH   6  10
HETATM   10  C3  UNL     1     -37.248  14.339  -4.166  1.00 20.00     0.240 C 
HETATM   11  O11 UNL     1     -38.393  13.985  -4.425  1.00 20.00    -0.306 OA
ENDBRANCH   6  10
TORSDOF 1
ENDMDL
MODEL 5
REMARK VINA RESULT:      -4.3      1.471      2.658
REMARK  1 active torsions:
REMARK  status: ('A' for Active; 'I' for Inactive)
REMARK    1  A    between atoms: C3_3  and  C7_7 
ROOT
HETATM    1  C1  UNL     1     -35.304  16.541  -2.347  1.00 20.00    -0.082 C 
HETATM    2  C2  UNL     1     -34.091  16.434  -2.933  1.00 20.00    -0.081 C 
HETATM    3  C4  UNL     1     -36.573  16.097  -3.042  1.00 20.00     0.035 C 
HETATM    4  C5  UNL     1     -33.912  15.812  -4.306  1.00 20.00     0.050 C 
HETATM    5  C6  UNL     1     -36.416  15.786  -4.531  1.00 20.00     0.021 C 
HETATM    6  C7  UNL     1     -35.124  15.015  -4.825  1.00 20.00     0.013 C 
HETATM    7  C8  UNL     1     -35.544  17.084  -0.962  1.00 20.00     0.043 C 
HETATM    8  C9  UNL     1     -32.801  16.924  -2.330  1.00 20.00     0.043 C 
HETATM    9  C10 UNL     1     -34.984  14.764  -6.332  1.00 20.00     0.023 C 
ENDROOT
BRANCH   6  10
HETATM   10  C3  UNL     1     -35.174  13.656  -4.171  1.00 20.00     0.240 C 
HETATM   11  O11 UNL     1     -35.917  12.753  -4.543  1.00 20.00    -0.306 OA
ENDBRANCH   6  10
TORSDOF 1
ENDMDL
MODEL 6
REMARK VINA RESULT:      -4.3      1.741      2.570
REMARK  1 active torsions:
REMARK  status: ('A' for Active; 'I' for Inactive)
REMARK    1  A    between atoms: C3_3  and  C7_7 
ROOT
HETATM    1  C1  UNL     1     -33.883  17.172  -2.489  1.00 20.00    -0.082 C 
HETATM    2  C2  UNL     1     -33.714  17.629  -3.749  1.00 20.00    -0.081 C 
HETATM    3  C4  UNL     1     -34.600  15.871  -2.196  1.00 20.00     0.035 C 
HETATM    4  C5  UNL     1     -34.182  16.844  -4.960  1.00 20.00     0.050 C 
HETATM    5  C6  UNL     1     -35.347  15.267  -3.387  1.00 20.00     0.021 C 
HETATM    6  C7  UNL     1     -34.541  15.371  -4.685  1.00 20.00     0.013 C 
HETATM    7  C8  UNL     1     -33.383  17.866  -1.249  1.00 20.00     0.043 C 
HETATM    8  C9  UNL     1     -33.078  18.947  -4.105  1.00 20.00     0.043 C 
HETATM    9  C10 UNL     1     -35.344  14.796  -5.859  1.00 20.00     0.023 C 
ENDROOT
BRANCH   6  10
HETATM   10  C3  UNL     1     -33.286  14.539  -4.581  1.00 20.00     0.240 C 
HETATM   11  O11 UNL     1     -33.285  13.352  -4.272  1.00 20.00    -0.306 OA
ENDBRANCH   6  10
TORSDOF 1
ENDMDL
MODEL 7
REMARK VINA RESULT:      -4.2     15.058     17.227
REMARK  1 active torsions:
REMARK  status: ('A' for Active; 'I' for Inactive)
REMARK    1  A    between atoms: C3_3  and  C7_7 
ROOT
HETATM    1  C1  UNL     1     -25.253  18.888   8.648  1.00 20.00    -0.082 C 
HETATM    2  C2  UNL     1     -25.813  18.876   9.877  1.00 20.00    -0.081 C 
HETATM    3  C4  UNL     1     -23.792  18.562   8.428  1.00 20.00     0.035 C 
HETATM    4  C5  UNL     1     -25.029  18.483  11.116  1.00 20.00     0.050 C 
HETATM    5  C6  UNL     1     -22.950  18.494   9.703  1.00 20.00     0.021 C 
HETATM    6  C7  UNL     1     -23.685  17.780  10.842  1.00 20.00     0.013 C 
HETATM    7  C8  UNL     1     -25.990  19.202   7.371  1.00 20.00     0.043 C 
HETATM    8  C9  UNL     1     -27.238  19.263  10.175  1.00 20.00     0.043 C 
HETATM    9  C10 UNL     1     -22.825  17.774  12.112  1.00 20.00     0.023 C 
ENDROOT
BRANCH   6  10
HETATM   10  C3  UNL     1     -23.918  16.334  10.479  1.00 20.00     0.240 C 
HETATM   11  O11 UNL     1     -24.413  15.515  11.247  1.00 20.00    -0.306 OA
ENDBRANCH   6  10
TORSDOF 1
ENDMDL
MODEL 8
REMARK VINA RESULT:      -4.1      1.593      2.862
REMARK  1 active torsions:
REMARK  status: ('A' for Active; 'I' for Inactive)
REMARK    1  A    between atoms: C3_3  and  C7_7 
ROOT
HETATM    1  C1  UNL     1     -35.372  16.569  -2.586  1.00 20.00    -0.082 C 
HETATM    2  C2  UNL     1     -34.393  16.184  -3.434  1.00 20.00    -0.081 C 
HETATM    3  C4  UNL     1     -36.820  16.654  -3.019  1.00 20.00     0.035 C 
HETATM    4  C5  UNL     1     -34.683  15.759  -4.862  1.00 20.00     0.050 C 
HETATM    5  C6  UNL     1     -37.047  16.546  -4.528  1.00 20.00     0.021 C 
HETATM    6  C7  UNL     1     -36.165  15.469  -5.168  1.00 20.00     0.013 C 
HETATM    7  C8  UNL     1     -35.162  16.936  -1.141  1.00 20.00     0.043 C 
HETATM    8  C9  UNL     1     -32.926  16.149  -3.091  1.00 20.00     0.043 C 
HETATM    9  C10 UNL     1     -36.391  15.425  -6.684  1.00 20.00     0.023 C 
ENDROOT
BRANCH   6  10
HETATM   10  C3  UNL     1     -36.549  14.108  -4.641  1.00 20.00     0.240 C 
HETATM   11  O11 UNL     1     -37.711  13.739  -4.504  1.00 20.00    -0.306 OA
ENDBRANCH   6  10
TORSDOF 1
ENDMDL
MODEL 9
REMARK VINA RESULT:      -4.0      1.809      2.208
REMARK  1 active torsions:
REMARK  status: ('A' for Active; 'I' for Inactive)
REMARK    1  A    between atoms: C3_3  and  C7_7 
ROOT
HETATM    1  C1  UNL     1     -34.635  17.257  -4.369  1.00 20.00    -0.082 C 
HETATM    2  C2  UNL     1     -34.516  16.611  -3.188  1.00 20.00    -0.081 C 
HETATM    3  C4  UNL     1     -34.968  16.528  -5.653  1.00 20.00     0.035 C 
HETATM    4  C5  UNL     1     -34.761  15.119  -3.058  1.00 20.00     0.050 C 
HETATM    5  C6  UNL     1     -34.885  15.003  -5.566  1.00 20.00     0.021 C 
HETATM    6  C7  UNL     1     -35.475  14.467  -4.258  1.00 20.00     0.013 C 
HETATM    7  C8  UNL     1     -34.474  18.743  -4.555  1.00 20.00     0.043 C 
HETATM    8  C9  UNL     1     -34.115  17.262  -1.891  1.00 20.00     0.043 C 
HETATM    9  C10 UNL     1     -35.330  12.942  -4.192  1.00 20.00     0.023 C 
ENDROOT
BRANCH   6  10
HETATM   10  C3  UNL     1     -36.955  14.756  -4.203  1.00 20.00     0.240 C 
HETATM   11  O11 UNL     1     -37.818  13.897  -4.351  1.00 20.00    -0.306 OA
ENDBRANCH   6  10
TORSDOF 1
ENDMDL
