MODEL 1
REMARK VINA RESULT:      -4.4      0.000      0.000
REMARK  1 active torsions:
REMARK  status: ('A' for Active; 'I' for Inactive)
REMARK    1  A    between atoms: C1_1  and  S12_12 
ROOT
HETATM    1  C1  UNL     1     -34.797  15.745  -6.380  1.00 20.00     0.066 C 
HETATM    2  C2  UNL     1     -35.143  16.925  -5.534  1.00 20.00     0.074 C 
HETATM    3  C3  UNL     1     -34.810  14.396  -3.429  1.00 20.00     0.042 A 
HETATM    4  C4  UNL     1     -35.562  16.306  -4.210  1.00 20.00     0.029 A 
HETATM    5  C5  UNL     1     -34.511  15.889  -3.122  1.00 20.00    -0.039 A 
HETATM    6  C6  UNL     1     -35.745  14.810  -4.581  1.00 20.00     0.056 A 
HETATM    7  C7  UNL     1     -34.944  16.304  -1.714  1.00 20.00     0.015 C 
HETATM    8  C8  UNL     1     -33.053  16.270  -3.374  1.00 20.00     0.015 C 
HETATM    9  C9  UNL     1     -37.153  14.253  -4.557  1.00 20.00     0.041 C 
HETATM   10  N11 UNL     1     -35.102  14.587  -5.891  1.00 20.00    -0.276 NA
ENDROOT
BRANCH   1  11
HETATM   11  S12 UNL     1     -34.042  15.975  -7.918  1.00 20.00    -0.119 SA
HETATM   12  C10 UNL     1     -33.897  17.777  -7.918  1.00 20.00     0.097 C 
ENDBRANCH   1  11
TORSDOF 1
ENDMDL
MODEL 2
REMARK VINA RESULT:      -4.2      2.105      3.824
REMARK  1 active torsions:
REMARK  status: ('A' for Active; 'I' for Inactive)
REMARK    1  A    between atoms: C1_1  and  S12_12 
ROOT
HETATM    1  C1  UNL     1     -34.131  16.235  -4.536  1.00 20.00     0.066 C 
HETATM    2  C2  UNL     1     -33.207  15.862  -3.424  1.00 20.00     0.074 C 
HETATM    3  C3  UNL     1     -34.544  18.752  -2.530  1.00 20.00     0.042 A 
HETATM    4  C4  UNL     1     -33.036  17.159  -2.649  1.00 20.00     0.029 A 
HETATM    5  C5  UNL     1     -34.078  17.623  -1.571  1.00 20.00    -0.039 A 
HETATM    6  C6  UNL     1     -33.611  18.215  -3.631  1.00 20.00     0.056 A 
HETATM    7  C7  UNL     1     -33.399  18.158  -0.308  1.00 20.00     0.015 C 
HETATM    8  C8  UNL     1     -35.195  16.645  -1.211  1.00 20.00     0.015 C 
HETATM    9  C9  UNL     1     -32.637  19.199  -4.246  1.00 20.00     0.041 C 
HETATM   10  N11 UNL     1     -34.375  17.497  -4.670  1.00 20.00    -0.276 NA
ENDROOT
BRANCH   1  11
HETATM   11  S12 UNL     1     -34.796  15.008  -5.555  1.00 20.00    -0.119 SA
HETATM   12  C10 UNL     1     -35.642  14.006  -4.312  1.00 20.00     0.097 C 
ENDBRANCH   1  11
TORSDOF 1
ENDMDL
MODEL 3
REMARK VINA RESULT:      -4.2      2.655      3.828
REMARK  1 active torsions:
REMARK  status: ('A' for Active; 'I' for Inactive)
REMARK    1  A    between atoms: C1_1  and  S12_12 
ROOT
HETATM    1  C1  UNL     1     -33.789  17.827  -2.940  1.00 20.00     0.066 C 
HETATM    2  C2  UNL     1     -33.865  16.597  -2.098  1.00 20.00     0.074 C 
HETATM    3  C3  UNL     1     -35.249  15.777  -4.988  1.00 20.00     0.042 A 
HETATM    4  C4  UNL     1     -34.881  15.729  -2.822  1.00 20.00     0.029 A 
HETATM    5  C5  UNL     1     -34.478  14.820  -4.037  1.00 20.00    -0.039 A 
HETATM    6  C6  UNL     1     -35.534  16.731  -3.812  1.00 20.00     0.056 A 
HETATM    7  C7  UNL     1     -35.112  13.430  -3.951  1.00 20.00     0.015 C 
HETATM    8  C8  UNL     1     -32.991  14.717  -4.371  1.00 20.00     0.015 C 
HETATM    9  C9  UNL     1     -36.980  17.109  -3.570  1.00 20.00     0.041 C 
HETATM   10  N11 UNL     1     -34.671  17.927  -3.880  1.00 20.00    -0.276 NA
ENDROOT
BRANCH   1  11
HETATM   11  S12 UNL     1     -32.576  19.017  -2.624  1.00 20.00    -0.119 SA
HETATM   12  C10 UNL     1     -31.880  18.343  -1.098  1.00 20.00     0.097 C 
ENDBRANCH   1  11
TORSDOF 1
ENDMDL
MODEL 4
REMARK VINA RESULT:      -4.1      2.867      4.272
REMARK  1 active torsions:
REMARK  status: ('A' for Active; 'I' for Inactive)
REMARK    1  A    between atoms: C1_1  and  S12_12 
ROOT
HETATM    1  C1  UNL     1     -36.176  17.279  -2.061  1.00 20.00     0.066 C 
HETATM    2  C2  UNL     1     -35.188  16.280  -1.555  1.00 20.00     0.074 C 
HETATM    3  C3  UNL     1     -34.927  16.190  -4.852  1.00 20.00     0.042 A 
HETATM    4  C4  UNL     1     -34.857  15.449  -2.785  1.00 20.00     0.029 A 
HETATM    5  C5  UNL     1     -33.786  15.912  -3.835  1.00 20.00    -0.039 A 
HETATM    6  C6  UNL     1     -35.979  15.856  -3.778  1.00 20.00     0.056 A 
HETATM    7  C7  UNL     1     -32.871  14.765  -4.268  1.00 20.00     0.015 C 
HETATM    8  C8  UNL     1     -32.970  17.158  -3.497  1.00 20.00     0.015 C 
HETATM    9  C9  UNL     1     -37.012  14.806  -4.132  1.00 20.00     0.041 C 
HETATM   10  N11 UNL     1     -36.617  17.083  -3.261  1.00 20.00    -0.276 NA
ENDROOT
BRANCH   1  11
HETATM   11  S12 UNL     1     -36.668  18.594  -1.054  1.00 20.00    -0.119 SA
HETATM   12  C10 UNL     1     -36.274  17.898   0.567  1.00 20.00     0.097 C 
ENDBRANCH   1  11
TORSDOF 1
ENDMDL
MODEL 5
REMARK VINA RESULT:      -4.0      2.379      3.882
REMARK  1 active torsions:
REMARK  status: ('A' for Active; 'I' for Inactive)
REMARK    1  A    between atoms: C1_1  and  S12_12 
ROOT
HETATM    1  C1  UNL     1     -34.886  15.978  -2.855  1.00 20.00     0.066 C 
HETATM    2  C2  UNL     1     -33.619  15.666  -3.580  1.00 20.00     0.074 C 
HETATM    3  C3  UNL     1     -36.011  15.487  -5.859  1.00 20.00     0.042 A 
HETATM    4  C4  UNL     1     -34.097  15.035  -4.879  1.00 20.00     0.029 A 
HETATM    5  C5  UNL     1     -34.537  15.905  -6.109  1.00 20.00    -0.039 A 
HETATM    6  C6  UNL     1     -35.591  14.738  -4.579  1.00 20.00     0.056 A 
HETATM    7  C7  UNL     1     -33.980  15.361  -7.428  1.00 20.00     0.015 C 
HETATM    8  C8  UNL     1     -34.319  17.414  -6.012  1.00 20.00     0.015 C 
HETATM    9  C9  UNL     1     -36.004  13.286  -4.467  1.00 20.00     0.041 C 
HETATM   10  N11 UNL     1     -35.970  15.499  -3.372  1.00 20.00    -0.276 NA
ENDROOT
BRANCH   1  11
HETATM   11  S12 UNL     1     -34.843  16.923  -1.408  1.00 20.00    -0.119 SA
HETATM   12  C10 UNL     1     -33.215  17.687  -1.594  1.00 20.00     0.097 C 
ENDBRANCH   1  11
TORSDOF 1
ENDMDL
MODEL 6
REMARK VINA RESULT:      -4.0      2.400      3.632
REMARK  1 active torsions:
REMARK  status: ('A' for Active; 'I' for Inactive)
REMARK    1  A    between atoms: C1_1  and  S12_12 
ROOT
HETATM    1  C1  UNL     1     -37.551  15.146  -4.766  1.00 20.00     0.066 C 
HETATM    2  C2  UNL     1     -36.689  13.978  -4.416  1.00 20.00     0.074 C 
HETATM    3  C3  UNL     1     -34.598  16.429  -5.169  1.00 20.00     0.042 A 
HETATM    4  C4  UNL     1     -35.323  14.365  -4.963  1.00 20.00     0.029 A 
HETATM    5  C5  UNL     1     -34.337  15.281  -4.155  1.00 20.00    -0.039 A 
HETATM    6  C6  UNL     1     -35.659  15.569  -5.883  1.00 20.00     0.056 A 
HETATM    7  C7  UNL     1     -32.899  14.761  -4.202  1.00 20.00     0.015 C 
HETATM    8  C8  UNL     1     -34.734  15.646  -2.725  1.00 20.00     0.015 C 
HETATM    9  C9  UNL     1     -35.492  15.374  -7.375  1.00 20.00     0.041 C 
HETATM   10  N11 UNL     1     -37.022  16.027  -5.551  1.00 20.00    -0.276 NA
ENDROOT
BRANCH   1  11
HETATM   11  S12 UNL     1     -39.157  15.253  -4.136  1.00 20.00    -0.119 SA
HETATM   12  C10 UNL     1     -39.931  16.231  -5.445  1.00 20.00     0.097 C 
ENDBRANCH   1  11
TORSDOF 1
ENDMDL
MODEL 7
REMARK VINA RESULT:      -4.0      2.550      3.764
REMARK  1 active torsions:
REMARK  status: ('A' for Active; 'I' for Inactive)
REMARK    1  A    between atoms: C1_1  and  S12_12 
ROOT
HETATM    1  C1  UNL     1     -35.931  16.323  -3.548  1.00 20.00     0.066 C 
HETATM    2  C2  UNL     1     -35.515  16.221  -2.117  1.00 20.00     0.074 C 
HETATM    3  C3  UNL     1     -32.978  17.662  -3.675  1.00 20.00     0.042 A 
HETATM    4  C4  UNL     1     -34.012  16.449  -2.164  1.00 20.00     0.029 A 
HETATM    5  C5  UNL     1     -33.394  17.891  -2.196  1.00 20.00    -0.039 A 
HETATM    6  C6  UNL     1     -33.697  16.300  -3.676  1.00 20.00     0.056 A 
HETATM    7  C7  UNL     1     -32.194  18.024  -1.255  1.00 20.00     0.015 C 
HETATM    8  C8  UNL     1     -34.353  19.067  -2.020  1.00 20.00     0.015 C 
HETATM    9  C9  UNL     1     -32.884  15.095  -4.104  1.00 20.00     0.041 C 
HETATM   10  N11 UNL     1     -34.973  16.375  -4.414  1.00 20.00    -0.276 NA
ENDROOT
BRANCH   1  11
HETATM   11  S12 UNL     1     -37.609  16.357  -3.959  1.00 20.00    -0.119 SA
HETATM   12  C10 UNL     1     -37.871  14.602  -4.306  1.00 20.00     0.097 C 
ENDBRANCH   1  11
TORSDOF 1
ENDMDL
MODEL 8
REMARK VINA RESULT:      -4.0      2.892      4.597
REMARK  1 active torsions:
REMARK  status: ('A' for Active; 'I' for Inactive)
REMARK    1  A    between atoms: C1_1  and  S12_12 
ROOT
HETATM    1  C1  UNL     1     -35.794  17.035  -2.175  1.00 20.00     0.066 C 
HETATM    2  C2  UNL     1     -36.066  17.412  -3.593  1.00 20.00     0.074 C 
HETATM    3  C3  UNL     1     -35.001  14.283  -3.699  1.00 20.00     0.042 A 
HETATM    4  C4  UNL     1     -35.347  16.338  -4.394  1.00 20.00     0.029 A 
HETATM    5  C5  UNL     1     -36.005  14.942  -4.683  1.00 20.00    -0.039 A 
HETATM    6  C6  UNL     1     -34.444  15.669  -3.323  1.00 20.00     0.056 A 
HETATM    7  C7  UNL     1     -35.796  14.497  -6.133  1.00 20.00     0.015 C 
HETATM    8  C8  UNL     1     -37.462  14.755  -4.266  1.00 20.00     0.015 C 
HETATM    9  C9  UNL     1     -32.948  15.865  -3.451  1.00 20.00     0.041 C 
HETATM   10  N11 UNL     1     -34.929  16.092  -1.994  1.00 20.00    -0.276 NA
ENDROOT
BRANCH   1  11
HETATM   11  S12 UNL     1     -36.612  17.854  -0.891  1.00 20.00    -0.119 SA
HETATM   12  C10 UNL     1     -35.603  17.311   0.507  1.00 20.00     0.097 C 
ENDBRANCH   1  11
TORSDOF 1
ENDMDL
MODEL 9
REMARK VINA RESULT:      -3.9      1.599      1.866
REMARK  1 active torsions:
REMARK  status: ('A' for Active; 'I' for Inactive)
REMARK    1  A    between atoms: C1_1  and  S12_12 
ROOT
HETATM    1  C1  UNL     1     -35.633  15.992  -5.689  1.00 20.00     0.066 C 
HETATM    2  C2  UNL     1     -34.693  17.133  -5.481  1.00 20.00     0.074 C 
HETATM    3  C3  UNL     1     -35.163  15.818  -2.483  1.00 20.00     0.042 A 
HETATM    4  C4  UNL     1     -34.743  17.370  -3.980  1.00 20.00     0.029 A 
HETATM    5  C5  UNL     1     -33.874  16.528  -2.979  1.00 20.00    -0.039 A 
HETATM    6  C6  UNL     1     -35.993  16.553  -3.552  1.00 20.00     0.056 A 
HETATM    7  C7  UNL     1     -33.225  17.403  -1.904  1.00 20.00     0.015 C 
HETATM    8  C8  UNL     1     -32.854  15.563  -3.580  1.00 20.00     0.015 C 
HETATM    9  C9  UNL     1     -37.201  17.329  -3.071  1.00 20.00     0.041 C 
HETATM   10  N11 UNL     1     -36.344  15.649  -4.665  1.00 20.00    -0.276 NA
ENDROOT
BRANCH   1  11
HETATM   11  S12 UNL     1     -35.727  15.219  -7.232  1.00 20.00    -0.119 SA
HETATM   12  C10 UNL     1     -34.000  15.357  -7.746  1.00 20.00     0.097 C 
ENDBRANCH   1  11
TORSDOF 1
ENDMDL
