MODEL 1
REMARK VINA RESULT:      -4.1      0.000      0.000
REMARK  0 active torsions:
REMARK  status: ('A' for Active; 'I' for Inactive)
ROOT
HETATM    1  C1  UNL     1     -34.740   5.139   5.844  1.00 20.00     0.028 C 
HETATM    2  C2  UNL     1     -34.327   6.593   6.066  1.00 20.00     0.017 C 
HETATM    3  C3  UNL     1     -35.015   4.860   4.369  1.00 20.00     0.188 C 
HETATM    4  C4  UNL     1     -33.154   6.979   5.177  1.00 20.00     0.140 C 
HETATM    5  O5  UNL     1     -32.332   6.931   2.624  1.00 20.00    -0.229 OA
HETATM    6  O6  UNL     1     -33.875   5.192   3.578  1.00 20.00    -0.296 OA
HETATM    7  S7  UNL     1     -33.594   6.774   3.420  1.00 20.00     0.152 S 
ENDROOT
TORSDOF 0
ENDMDL
MODEL 2
REMARK VINA RESULT:      -3.9      1.353      2.103
REMARK  0 active torsions:
REMARK  status: ('A' for Active; 'I' for Inactive)
ROOT
HETATM    1  C1  UNL     1     -34.930   5.057   4.856  1.00 20.00     0.028 C 
HETATM    2  C2  UNL     1     -34.088   4.241   3.877  1.00 20.00     0.017 C 
HETATM    3  C3  UNL     1     -34.236   6.364   5.228  1.00 20.00     0.188 C 
HETATM    4  C4  UNL     1     -33.708   5.061   2.653  1.00 20.00     0.140 C 
HETATM    5  O5  UNL     1     -32.620   7.406   1.937  1.00 20.00    -0.229 OA
HETATM    6  O6  UNL     1     -33.939   7.122   4.056  1.00 20.00    -0.296 OA
HETATM    7  S7  UNL     1     -32.745   6.528   3.146  1.00 20.00     0.152 S 
ENDROOT
TORSDOF 0
ENDMDL
MODEL 3
REMARK VINA RESULT:      -3.7     12.108     12.400
REMARK  0 active torsions:
REMARK  status: ('A' for Active; 'I' for Inactive)
ROOT
HETATM    1  C1  UNL     1     -33.329  15.941  -3.496  1.00 20.00     0.028 C 
HETATM    2  C2  UNL     1     -34.568  15.733  -2.626  1.00 20.00     0.017 C 
HETATM    3  C3  UNL     1     -32.993  14.682  -4.290  1.00 20.00     0.188 C 
HETATM    4  C4  UNL     1     -35.748  15.237  -3.448  1.00 20.00     0.140 C 
HETATM    5  O5  UNL     1     -36.440  13.350  -5.224  1.00 20.00    -0.229 OA
HETATM    6  O6  UNL     1     -34.110  14.278  -5.081  1.00 20.00    -0.296 OA
HETATM    7  S7  UNL     1     -35.342  13.650  -4.247  1.00 20.00     0.152 S 
ENDROOT
TORSDOF 0
ENDMDL
MODEL 4
REMARK VINA RESULT:      -3.6      2.228      3.430
REMARK  0 active torsions:
REMARK  status: ('A' for Active; 'I' for Inactive)
ROOT
HETATM    1  C1  UNL     1     -32.694   5.882   2.557  1.00 20.00     0.028 C 
HETATM    2  C2  UNL     1     -33.663   4.703   2.499  1.00 20.00     0.017 C 
HETATM    3  C3  UNL     1     -33.261   7.026   3.393  1.00 20.00     0.188 C 
HETATM    4  C4  UNL     1     -34.072   4.251   3.894  1.00 20.00     0.140 C 
HETATM    5  O5  UNL     1     -35.036   5.182   6.218  1.00 20.00    -0.229 OA
HETATM    6  O6  UNL     1     -33.588   6.570   4.705  1.00 20.00    -0.296 OA
HETATM    7  S7  UNL     1     -34.887   5.614   4.789  1.00 20.00     0.152 S 
ENDROOT
TORSDOF 0
ENDMDL
MODEL 5
REMARK VINA RESULT:      -3.5     11.934     12.327
REMARK  0 active torsions:
REMARK  status: ('A' for Active; 'I' for Inactive)
ROOT
HETATM    1  C1  UNL     1     -34.060  16.230  -2.635  1.00 20.00     0.028 C 
HETATM    2  C2  UNL     1     -33.260  15.595  -3.772  1.00 20.00     0.017 C 
HETATM    3  C3  UNL     1     -35.557  16.207  -2.930  1.00 20.00     0.188 C 
HETATM    4  C4  UNL     1     -33.765  14.195  -4.090  1.00 20.00     0.140 C 
HETATM    5  O5  UNL     1     -36.008  12.833  -4.644  1.00 20.00    -0.229 OA
HETATM    6  O6  UNL     1     -35.995  14.872  -3.177  1.00 20.00    -0.296 OA
HETATM    7  S7  UNL     1     -35.517  14.249  -4.588  1.00 20.00     0.152 S 
ENDROOT
TORSDOF 0
ENDMDL
MODEL 6
REMARK VINA RESULT:      -3.5      9.486      9.617
REMARK  0 active torsions:
REMARK  status: ('A' for Active; 'I' for Inactive)
ROOT
HETATM    1  C1  UNL     1     -42.439   5.441  -0.250  1.00 20.00     0.028 C 
HETATM    2  C2  UNL     1     -41.205   6.026  -0.936  1.00 20.00     0.017 C 
HETATM    3  C3  UNL     1     -42.743   6.167   1.057  1.00 20.00     0.188 C 
HETATM    4  C4  UNL     1     -41.338   7.530  -1.128  1.00 20.00     0.140 C 
HETATM    5  O5  UNL     1     -41.911   9.787   0.203  1.00 20.00    -0.229 OA
HETATM    6  O6  UNL     1     -42.905   7.565   0.824  1.00 20.00    -0.296 OA
HETATM    7  S7  UNL     1     -41.542   8.360   0.482  1.00 20.00     0.152 S 
ENDROOT
TORSDOF 0
ENDMDL
MODEL 7
REMARK VINA RESULT:      -3.4      1.332      1.478
REMARK  0 active torsions:
REMARK  status: ('A' for Active; 'I' for Inactive)
ROOT
HETATM    1  C1  UNL     1     -34.365   6.063   6.069  1.00 20.00     0.028 C 
HETATM    2  C2  UNL     1     -33.895   7.134   5.087  1.00 20.00     0.017 C 
HETATM    3  C3  UNL     1     -35.076   4.922   5.347  1.00 20.00     0.188 C 
HETATM    4  C4  UNL     1     -33.044   6.534   3.976  1.00 20.00     0.140 C 
HETATM    5  O5  UNL     1     -33.037   4.575   2.145  1.00 20.00    -0.229 OA
HETATM    6  O6  UNL     1     -34.228   4.360   4.347  1.00 20.00    -0.296 OA
HETATM    7  S7  UNL     1     -33.998   5.290   3.047  1.00 20.00     0.152 S 
ENDROOT
TORSDOF 0
ENDMDL
MODEL 8
REMARK VINA RESULT:      -3.4     16.653     17.138
REMARK  0 active torsions:
REMARK  status: ('A' for Active; 'I' for Inactive)
ROOT
HETATM    1  C1  UNL     1     -24.077  18.113  12.263  1.00 20.00     0.028 C 
HETATM    2  C2  UNL     1     -24.976  18.010  11.031  1.00 20.00     0.017 C 
HETATM    3  C3  UNL     1     -22.746  17.401  12.039  1.00 20.00     0.188 C 
HETATM    4  C4  UNL     1     -24.261  18.501   9.780  1.00 20.00     0.140 C 
HETATM    5  O5  UNL     1     -21.988  18.197   8.389  1.00 20.00    -0.229 OA
HETATM    6  O6  UNL     1     -22.090  17.923  10.884  1.00 20.00    -0.296 OA
HETATM    7  S7  UNL     1     -22.762  17.510   9.475  1.00 20.00     0.152 S 
ENDROOT
TORSDOF 0
ENDMDL
MODEL 9
REMARK VINA RESULT:      -3.3     16.039     16.758
REMARK  0 active torsions:
REMARK  status: ('A' for Active; 'I' for Inactive)
ROOT
HETATM    1  C1  UNL     1     -22.086  17.941  10.138  1.00 20.00     0.028 C 
HETATM    2  C2  UNL     1     -22.014  17.779  11.656  1.00 20.00     0.017 C 
HETATM    3  C3  UNL     1     -22.966  16.866   9.508  1.00 20.00     0.188 C 
HETATM    4  C4  UNL     1     -23.403  17.733  12.276  1.00 20.00     0.140 C 
HETATM    5  O5  UNL     1     -25.773  16.495  12.061  1.00 20.00    -0.229 OA
HETATM    6  O6  UNL     1     -24.271  16.888  10.085  1.00 20.00    -0.296 OA
HETATM    7  S7  UNL     1     -24.354  16.333  11.600  1.00 20.00     0.152 S 
ENDROOT
TORSDOF 0
ENDMDL
