MODEL 1
REMARK VINA RESULT:      -3.5      0.000      0.000
REMARK  1 active torsions:
REMARK  status: ('A' for Active; 'I' for Inactive)
REMARK    1  A    between atoms: C3_3  and  C5_5 
ROOT
HETATM    1  C1  UNL     1     -34.718   5.330   6.065  1.00 20.00     0.179 C 
HETATM    2  C2  UNL     1     -33.797   6.606   4.728  1.00 20.00     0.179 C 
HETATM    3  C3  UNL     1     -34.688   5.365   4.526  1.00 20.00     0.011 C 
HETATM    4  C4  UNL     1     -36.038   5.672   3.888  1.00 20.00     0.020 C 
HETATM    5  O6  UNL     1     -34.097   6.637   6.146  1.00 20.00    -0.389 OA
ENDROOT
BRANCH   3   6
HETATM    6  C5  UNL     1     -33.993   4.180   3.873  1.00 20.00     0.128 C 
HETATM    7 CL7  UNL     1     -33.140   4.699   2.406  1.00 20.00    -0.130 Cl
ENDBRANCH   3   6
TORSDOF 1
ENDMDL
MODEL 2
REMARK VINA RESULT:      -3.4     16.599     17.648
REMARK  1 active torsions:
REMARK  status: ('A' for Active; 'I' for Inactive)
REMARK    1  A    between atoms: C3_3  and  C5_5 
ROOT
HETATM    1  C1  UNL     1     -21.981  17.105   9.087  1.00 20.00     0.179 C 
HETATM    2  C2  UNL     1     -23.073  18.838   9.340  1.00 20.00     0.179 C 
HETATM    3  C3  UNL     1     -22.973  17.549  10.178  1.00 20.00     0.011 C 
HETATM    4  C4  UNL     1     -22.336  17.751  11.548  1.00 20.00     0.020 C 
HETATM    5  O6  UNL     1     -21.949  18.437   8.519  1.00 20.00    -0.389 OA
ENDROOT
BRANCH   3   6
HETATM    6  C5  UNL     1     -24.254  16.732  10.248  1.00 20.00     0.128 C 
HETATM    7 CL7  UNL     1     -24.311  15.805  11.759  1.00 20.00    -0.130 Cl
ENDBRANCH   3   6
TORSDOF 1
ENDMDL
MODEL 3
REMARK VINA RESULT:      -3.3     12.260     12.864
REMARK  1 active torsions:
REMARK  status: ('A' for Active; 'I' for Inactive)
REMARK    1  A    between atoms: C3_3  and  C5_5 
ROOT
HETATM    1  C1  UNL     1     -34.776  13.414  -3.983  1.00 20.00     0.179 C 
HETATM    2  C2  UNL     1     -36.672  14.031  -4.516  1.00 20.00     0.179 C 
HETATM    3  C3  UNL     1     -35.382  14.813  -4.201  1.00 20.00     0.011 C 
HETATM    4  C4  UNL     1     -34.804  15.558  -5.398  1.00 20.00     0.020 C 
HETATM    5  O6  UNL     1     -35.951  12.775  -4.540  1.00 20.00    -0.389 OA
ENDROOT
BRANCH   3   6
HETATM    6  C5  UNL     1     -35.450  15.680  -2.954  1.00 20.00     0.128 C 
HETATM    7 CL7  UNL     1     -33.819  16.164  -2.452  1.00 20.00    -0.130 Cl
ENDBRANCH   3   6
TORSDOF 1
ENDMDL
MODEL 4
REMARK VINA RESULT:      -3.3     16.623     17.392
REMARK  1 active torsions:
REMARK  status: ('A' for Active; 'I' for Inactive)
REMARK    1  A    between atoms: C3_3  and  C5_5 
ROOT
HETATM    1  C1  UNL     1     -24.546  16.427  11.137  1.00 20.00     0.179 C 
HETATM    2  C2  UNL     1     -23.153  17.817  11.761  1.00 20.00     0.179 C 
HETATM    3  C3  UNL     1     -24.545  17.967  11.118  1.00 20.00     0.011 C 
HETATM    4  C4  UNL     1     -25.586  18.596  12.038  1.00 20.00     0.020 C 
HETATM    5  O6  UNL     1     -23.359  16.398  11.968  1.00 20.00    -0.389 OA
ENDROOT
BRANCH   3   6
HETATM    6  C5  UNL     1     -24.543  18.589   9.730  1.00 20.00     0.128 C 
HETATM    7 CL7  UNL     1     -22.880  18.902   9.200  1.00 20.00    -0.130 Cl
ENDBRANCH   3   6
TORSDOF 1
ENDMDL
MODEL 5
REMARK VINA RESULT:      -3.3     12.717     13.338
REMARK  1 active torsions:
REMARK  status: ('A' for Active; 'I' for Inactive)
REMARK    1  A    between atoms: C3_3  and  C5_5 
ROOT
HETATM    1  C1  UNL     1     -35.986  13.664  -4.533  1.00 20.00     0.179 C 
HETATM    2  C2  UNL     1     -35.394  14.963  -6.023  1.00 20.00     0.179 C 
HETATM    3  C3  UNL     1     -35.045  14.884  -4.525  1.00 20.00     0.011 C 
HETATM    4  C4  UNL     1     -33.587  14.538  -4.248  1.00 20.00     0.020 C 
HETATM    5  O6  UNL     1     -36.045  13.670  -5.980  1.00 20.00    -0.389 OA
ENDROOT
BRANCH   3   6
HETATM    6  C5  UNL     1     -35.532  16.060  -3.693  1.00 20.00     0.128 C 
HETATM    7 CL7  UNL     1     -34.896  15.950  -2.041  1.00 20.00    -0.130 Cl
ENDBRANCH   3   6
TORSDOF 1
ENDMDL
MODEL 6
REMARK VINA RESULT:      -3.3      8.625      9.469
REMARK  1 active torsions:
REMARK  status: ('A' for Active; 'I' for Inactive)
REMARK    1  A    between atoms: C3_3  and  C5_5 
ROOT
HETATM    1  C1  UNL     1     -40.962   6.618   0.160  1.00 20.00     0.179 C 
HETATM    2  C2  UNL     1     -42.131   7.339  -1.380  1.00 20.00     0.179 C 
HETATM    3  C3  UNL     1     -42.043   7.714   0.112  1.00 20.00     0.011 C 
HETATM    4  C4  UNL     1     -41.511   9.119   0.365  1.00 20.00     0.020 C 
HETATM    5  O6  UNL     1     -40.939   6.522  -1.285  1.00 20.00    -0.389 OA
ENDROOT
BRANCH   3   6
HETATM    6  C5  UNL     1     -43.296   7.412   0.920  1.00 20.00     0.128 C 
HETATM    7 CL7  UNL     1     -43.231   5.758   1.559  1.00 20.00    -0.130 Cl
ENDBRANCH   3   6
TORSDOF 1
ENDMDL
MODEL 7
REMARK VINA RESULT:      -3.3      1.495      2.297
REMARK  1 active torsions:
REMARK  status: ('A' for Active; 'I' for Inactive)
REMARK    1  A    between atoms: C3_3  and  C5_5 
ROOT
HETATM    1  C1  UNL     1     -35.590   5.735   4.180  1.00 20.00     0.179 C 
HETATM    2  C2  UNL     1     -34.040   4.481   4.714  1.00 20.00     0.179 C 
HETATM    3  C3  UNL     1     -34.158   6.017   4.670  1.00 20.00     0.011 C 
HETATM    4  C4  UNL     1     -34.092   6.680   6.041  1.00 20.00     0.020 C 
HETATM    5  O6  UNL     1     -35.464   4.327   4.499  1.00 20.00    -0.389 OA
ENDROOT
BRANCH   3   6
HETATM    6  C5  UNL     1     -33.257   6.697   3.651  1.00 20.00     0.128 C 
HETATM    7 CL7  UNL     1     -32.947   5.611   2.282  1.00 20.00    -0.130 Cl
ENDBRANCH   3   6
TORSDOF 1
ENDMDL
MODEL 8
REMARK VINA RESULT:      -3.3      9.095      9.495
REMARK  1 active torsions:
REMARK  status: ('A' for Active; 'I' for Inactive)
REMARK    1  A    between atoms: C3_3  and  C5_5 
ROOT
HETATM    1  C1  UNL     1     -41.622   8.981   0.302  1.00 20.00     0.179 C 
HETATM    2  C2  UNL     1     -43.273   8.363  -0.773  1.00 20.00     0.179 C 
HETATM    3  C3  UNL     1     -42.045   7.601  -0.238  1.00 20.00     0.011 C 
HETATM    4  C4  UNL     1     -42.374   6.586   0.850  1.00 20.00     0.020 C 
HETATM    5  O6  UNL     1     -42.919   9.544  -0.013  1.00 20.00    -0.389 OA
ENDROOT
BRANCH   3   6
HETATM    6  C5  UNL     1     -41.132   7.028  -1.311  1.00 20.00     0.128 C 
HETATM    7 CL7  UNL     1     -40.852   5.301  -1.022  1.00 20.00    -0.130 Cl
ENDBRANCH   3   6
TORSDOF 1
ENDMDL
MODEL 9
REMARK VINA RESULT:      -3.3     16.691     17.706
REMARK  1 active torsions:
REMARK  status: ('A' for Active; 'I' for Inactive)
REMARK    1  A    between atoms: C3_3  and  C5_5 
ROOT
HETATM    1  C1  UNL     1     -23.317  18.063  10.427  1.00 20.00     0.179 C 
HETATM    2  C2  UNL     1     -22.591  17.737  12.332  1.00 20.00     0.179 C 
HETATM    3  C3  UNL     1     -23.986  17.537  11.711  1.00 20.00     0.011 C 
HETATM    4  C4  UNL     1     -24.422  16.078  11.628  1.00 20.00     0.020 C 
HETATM    5  O6  UNL     1     -22.002  17.972  11.029  1.00 20.00    -0.389 OA
ENDROOT
BRANCH   3   6
HETATM    6  C5  UNL     1     -25.073  18.437  12.279  1.00 20.00     0.128 C 
HETATM    7 CL7  UNL     1     -26.622  17.573  12.330  1.00 20.00    -0.130 Cl
ENDBRANCH   3   6
TORSDOF 1
ENDMDL
