MODEL 1
REMARK VINA RESULT:      -4.3      0.000      0.000
REMARK  0 active torsions:
REMARK  status: ('A' for Active; 'I' for Inactive)
ROOT
HETATM    1  C1  UNL     1     -24.602  18.406  10.474  1.00 20.00     0.149 C 
HETATM    2  C2  UNL     1     -25.605  18.650  11.585  1.00 20.00     0.080 C 
HETATM    3  C3  UNL     1     -26.306  17.363  11.987  1.00 20.00     0.007 C 
HETATM    4  C4  UNL     1     -25.308  16.263  12.332  1.00 20.00     0.003 C 
HETATM    5  C5  UNL     1     -24.381  15.986  11.149  1.00 20.00     0.033 C 
HETATM    6  C6  UNL     1     -23.636  17.231  10.645  1.00 20.00     0.093 C 
HETATM    7  C7  UNL     1     -22.909  16.914   9.337  1.00 20.00     0.041 C 
HETATM    8  O8  UNL     1     -24.523  19.187   9.524  1.00 20.00    -0.296 OA
HETATM    9 CL9  UNL     1     -22.416  17.767  11.848  1.00 20.00    -0.111 Cl
ENDROOT
TORSDOF 0
ENDMDL
MODEL 2
REMARK VINA RESULT:      -4.3     16.358     16.981
REMARK  0 active torsions:
REMARK  status: ('A' for Active; 'I' for Inactive)
ROOT
HETATM    1  C1  UNL     1     -33.755   6.599   4.604  1.00 20.00     0.149 C 
HETATM    2  C2  UNL     1     -33.180   7.061   3.279  1.00 20.00     0.080 C 
HETATM    3  C3  UNL     1     -32.524   5.911   2.533  1.00 20.00     0.007 C 
HETATM    4  C4  UNL     1     -33.472   4.727   2.378  1.00 20.00     0.003 C 
HETATM    5  C5  UNL     1     -33.949   4.237   3.745  1.00 20.00     0.033 C 
HETATM    6  C6  UNL     1     -34.612   5.331   4.596  1.00 20.00     0.093 C 
HETATM    7  C7  UNL     1     -34.857   4.816   6.015  1.00 20.00     0.041 C 
HETATM    8  O8  UNL     1     -33.604   7.282   5.619  1.00 20.00    -0.296 OA
HETATM    9 CL9  UNL     1     -36.193   5.808   3.892  1.00 20.00    -0.111 Cl
ENDROOT
TORSDOF 0
ENDMDL
MODEL 3
REMARK VINA RESULT:      -4.3     18.707     19.085
REMARK  0 active torsions:
REMARK  status: ('A' for Active; 'I' for Inactive)
ROOT
HETATM    1  C1  UNL     1     -34.069  14.879  -5.399  1.00 20.00     0.149 C 
HETATM    2  C2  UNL     1     -33.058  14.755  -4.275  1.00 20.00     0.080 C 
HETATM    3  C3  UNL     1     -33.247  15.852  -3.240  1.00 20.00     0.007 C 
HETATM    4  C4  UNL     1     -34.683  15.905  -2.732  1.00 20.00     0.003 C 
HETATM    5  C5  UNL     1     -35.657  16.127  -3.889  1.00 20.00     0.033 C 
HETATM    6  C6  UNL     1     -35.534  15.080  -5.008  1.00 20.00     0.093 C 
HETATM    7  C7  UNL     1     -36.379  15.499  -6.212  1.00 20.00     0.041 C 
HETATM    8  O8  UNL     1     -33.717  14.730  -6.571  1.00 20.00    -0.296 OA
HETATM    9 CL9  UNL     1     -36.118  13.480  -4.442  1.00 20.00    -0.111 Cl
ENDROOT
TORSDOF 0
ENDMDL
MODEL 4
REMARK VINA RESULT:      -4.2      1.635      3.096
REMARK  0 active torsions:
REMARK  status: ('A' for Active; 'I' for Inactive)
ROOT
HETATM    1  C1  UNL     1     -24.238  18.020   9.960  1.00 20.00     0.149 C 
HETATM    2  C2  UNL     1     -22.900  17.489   9.483  1.00 20.00     0.080 C 
HETATM    3  C3  UNL     1     -21.778  17.898  10.423  1.00 20.00     0.007 C 
HETATM    4  C4  UNL     1     -22.081  17.507  11.865  1.00 20.00     0.003 C 
HETATM    5  C5  UNL     1     -23.390  18.143  12.332  1.00 20.00     0.033 C 
HETATM    6  C6  UNL     1     -24.592  17.810  11.434  1.00 20.00     0.093 C 
HETATM    7  C7  UNL     1     -25.801  18.655  11.841  1.00 20.00     0.041 C 
HETATM    8  O8  UNL     1     -25.033  18.514   9.159  1.00 20.00    -0.296 OA
HETATM    9 CL9  UNL     1     -25.039  16.079  11.594  1.00 20.00    -0.111 Cl
ENDROOT
TORSDOF 0
ENDMDL
MODEL 5
REMARK VINA RESULT:      -4.1      1.480      2.627
REMARK  0 active torsions:
REMARK  status: ('A' for Active; 'I' for Inactive)
ROOT
HETATM    1  C1  UNL     1     -23.729  17.279   9.882  1.00 20.00     0.149 C 
HETATM    2  C2  UNL     1     -23.853  18.591   9.130  1.00 20.00     0.080 C 
HETATM    3  C3  UNL     1     -25.262  19.151   9.227  1.00 20.00     0.007 C 
HETATM    4  C4  UNL     1     -25.725  19.262  10.676  1.00 20.00     0.003 C 
HETATM    5  C5  UNL     1     -25.674  17.897  11.363  1.00 20.00     0.033 C 
HETATM    6  C6  UNL     1     -24.292  17.228  11.304  1.00 20.00     0.093 C 
HETATM    7  C7  UNL     1     -24.384  15.789  11.814  1.00 20.00     0.041 C 
HETATM    8  O8  UNL     1     -23.116  16.333   9.384  1.00 20.00    -0.296 OA
HETATM    9 CL9  UNL     1     -23.117  18.114  12.332  1.00 20.00    -0.111 Cl
ENDROOT
TORSDOF 0
ENDMDL
MODEL 6
REMARK VINA RESULT:      -4.1      1.872      3.121
REMARK  0 active torsions:
REMARK  status: ('A' for Active; 'I' for Inactive)
ROOT
HETATM    1  C1  UNL     1     -24.724  18.493  10.090  1.00 20.00     0.149 C 
HETATM    2  C2  UNL     1     -24.729  18.340   8.581  1.00 20.00     0.080 C 
HETATM    3  C3  UNL     1     -23.317  18.369   8.020  1.00 20.00     0.007 C 
HETATM    4  C4  UNL     1     -22.417  17.349   8.708  1.00 20.00     0.003 C 
HETATM    5  C5  UNL     1     -22.368  17.603  10.215  1.00 20.00     0.033 C 
HETATM    6  C6  UNL     1     -23.751  17.616  10.883  1.00 20.00     0.093 C 
HETATM    7  C7  UNL     1     -23.629  18.091  12.332  1.00 20.00     0.041 C 
HETATM    8  O8  UNL     1     -25.541  19.232  10.643  1.00 20.00    -0.296 OA
HETATM    9 CL9  UNL     1     -24.465  15.970  10.890  1.00 20.00    -0.111 Cl
ENDROOT
TORSDOF 0
ENDMDL
MODEL 7
REMARK VINA RESULT:      -3.9     17.636     17.946
REMARK  0 active torsions:
REMARK  status: ('A' for Active; 'I' for Inactive)
ROOT
HETATM    1  C1  UNL     1     -34.752  14.430  -3.749  1.00 20.00     0.149 C 
HETATM    2  C2  UNL     1     -35.846  15.231  -3.069  1.00 20.00     0.080 C 
HETATM    3  C3  UNL     1     -35.272  16.160  -2.012  1.00 20.00     0.007 C 
HETATM    4  C4  UNL     1     -34.167  17.043  -2.580  1.00 20.00     0.003 C 
HETATM    5  C5  UNL     1     -33.043  16.190  -3.169  1.00 20.00     0.033 C 
HETATM    6  C6  UNL     1     -33.520  15.195  -4.237  1.00 20.00     0.093 C 
HETATM    7  C7  UNL     1     -32.384  14.240  -4.609  1.00 20.00     0.041 C 
HETATM    8  O8  UNL     1     -34.909  13.228  -3.973  1.00 20.00    -0.296 OA
HETATM    9 CL9  UNL     1     -34.034  16.061  -5.723  1.00 20.00    -0.111 Cl
ENDROOT
TORSDOF 0
ENDMDL
MODEL 8
REMARK VINA RESULT:      -3.9     23.585     24.131
REMARK  0 active torsions:
REMARK  status: ('A' for Active; 'I' for Inactive)
ROOT
HETATM    1  C1  UNL     1     -41.243   5.830  -0.614  1.00 20.00     0.149 C 
HETATM    2  C2  UNL     1     -40.793   6.904   0.358  1.00 20.00     0.080 C 
HETATM    3  C3  UNL     1     -41.489   8.225   0.081  1.00 20.00     0.007 C 
HETATM    4  C4  UNL     1     -43.005   8.067   0.047  1.00 20.00     0.003 C 
HETATM    5  C5  UNL     1     -43.416   7.045  -1.014  1.00 20.00     0.033 C 
HETATM    6  C6  UNL     1     -42.749   5.673  -0.839  1.00 20.00     0.093 C 
HETATM    7  C7  UNL     1     -43.040   4.790  -2.054  1.00 20.00     0.041 C 
HETATM    8  O8  UNL     1     -40.420   5.066  -1.122  1.00 20.00    -0.296 OA
HETATM    9 CL9  UNL     1     -43.382   4.843   0.621  1.00 20.00    -0.111 Cl
ENDROOT
TORSDOF 0
ENDMDL
MODEL 9
REMARK VINA RESULT:      -3.7     23.374     23.913
REMARK  0 active torsions:
REMARK  status: ('A' for Active; 'I' for Inactive)
ROOT
HETATM    1  C1  UNL     1     -42.569   6.869  -1.399  1.00 20.00     0.149 C 
HETATM    2  C2  UNL     1     -41.693   8.095  -1.230  1.00 20.00     0.080 C 
HETATM    3  C3  UNL     1     -41.552   8.474   0.235  1.00 20.00     0.007 C 
HETATM    4  C4  UNL     1     -41.077   7.295   1.078  1.00 20.00     0.003 C 
HETATM    5  C5  UNL     1     -42.042   6.117   0.949  1.00 20.00     0.033 C 
HETATM    6  C6  UNL     1     -42.275   5.665  -0.501  1.00 20.00     0.093 C 
HETATM    7  C7  UNL     1     -43.409   4.640  -0.556  1.00 20.00     0.041 C 
HETATM    8  O8  UNL     1     -43.417   6.829  -2.292  1.00 20.00    -0.296 OA
HETATM    9 CL9  UNL     1     -40.795   4.900  -1.169  1.00 20.00    -0.111 Cl
ENDROOT
TORSDOF 0
ENDMDL
