MODEL 1
REMARK VINA RESULT:      -3.6      0.000      0.000
REMARK  0 active torsions:
REMARK  status: ('A' for Active; 'I' for Inactive)
ROOT
HETATM    1  C1  UNL     1     -34.239   5.777   4.727  1.00 20.00     0.061 C 
HETATM    2  C2  UNL     1     -33.174   5.002   2.604  1.00 20.00     0.107 C 
HETATM    3  C3  UNL     1     -33.424   6.501   2.746  1.00 20.00     0.114 C 
HETATM    4  C4  UNL     1     -34.715   5.755   6.140  1.00 20.00     0.078 C 
HETATM    5  C5  UNL     1     -32.215   7.316   2.311  1.00 20.00     0.035 C 
HETATM    6  N6  UNL     1     -33.730   6.821   4.161  1.00 20.00    -0.282 NA
HETATM    7  S7  UNL     1     -34.319   4.298   3.806  1.00 20.00    -0.113 SA
ENDROOT
TORSDOF 0
ENDMDL
MODEL 2
REMARK VINA RESULT:      -3.4      1.804      3.390
REMARK  0 active torsions:
REMARK  status: ('A' for Active; 'I' for Inactive)
ROOT
HETATM    1  C1  UNL     1     -33.515   5.132   2.880  1.00 20.00     0.061 C 
HETATM    2  C2  UNL     1     -33.438   6.890   4.653  1.00 20.00     0.107 C 
HETATM    3  C3  UNL     1     -34.614   5.918   4.693  1.00 20.00     0.114 C 
HETATM    4  C4  UNL     1     -33.054   4.236   1.782  1.00 20.00     0.078 C 
HETATM    5  C5  UNL     1     -34.871   5.406   6.103  1.00 20.00     0.035 C 
HETATM    6  N6  UNL     1     -34.330   4.760   3.811  1.00 20.00    -0.282 NA
HETATM    7  S7  UNL     1     -32.874   6.753   2.946  1.00 20.00    -0.113 SA
ENDROOT
TORSDOF 0
ENDMDL
MODEL 3
REMARK VINA RESULT:      -3.4     16.184     16.862
REMARK  0 active torsions:
REMARK  status: ('A' for Active; 'I' for Inactive)
ROOT
HETATM    1  C1  UNL     1     -22.561  17.930   8.360  1.00 20.00     0.061 C 
HETATM    2  C2  UNL     1     -24.782  18.621   9.275  1.00 20.00     0.107 C 
HETATM    3  C3  UNL     1     -24.411  19.142   7.889  1.00 20.00     0.114 C 
HETATM    4  C4  UNL     1     -21.294  17.162   8.203  1.00 20.00     0.078 C 
HETATM    5  C5  UNL     1     -25.568  19.006   6.910  1.00 20.00     0.035 C 
HETATM    6  N6  UNL     1     -23.253  18.379   7.365  1.00 20.00    -0.282 NA
HETATM    7  S7  UNL     1     -23.176  18.188   9.972  1.00 20.00    -0.113 SA
ENDROOT
TORSDOF 0
ENDMDL
MODEL 4
REMARK VINA RESULT:      -3.3     16.856     17.093
REMARK  0 active torsions:
REMARK  status: ('A' for Active; 'I' for Inactive)
ROOT
HETATM    1  C1  UNL     1     -24.512  18.044  11.258  1.00 20.00     0.061 C 
HETATM    2  C2  UNL     1     -22.078  17.763  10.770  1.00 20.00     0.107 C 
HETATM    3  C3  UNL     1     -23.058  17.240   9.724  1.00 20.00     0.114 C 
HETATM    4  C4  UNL     1     -25.758  18.556  11.896  1.00 20.00     0.078 C 
HETATM    5  C5  UNL     1     -22.645  17.643   8.316  1.00 20.00     0.035 C 
HETATM    6  N6  UNL     1     -24.410  17.783   9.997  1.00 20.00    -0.282 NA
HETATM    7  S7  UNL     1     -23.096  17.842  12.256  1.00 20.00    -0.113 SA
ENDROOT
TORSDOF 0
ENDMDL
MODEL 5
REMARK VINA RESULT:      -3.3      0.940      3.027
REMARK  0 active torsions:
REMARK  status: ('A' for Active; 'I' for Inactive)
ROOT
HETATM    1  C1  UNL     1     -33.080   6.494   3.048  1.00 20.00     0.061 C 
HETATM    2  C2  UNL     1     -34.439   4.600   3.949  1.00 20.00     0.107 C 
HETATM    3  C3  UNL     1     -33.833   5.563   4.966  1.00 20.00     0.114 C 
HETATM    4  C4  UNL     1     -32.529   7.477   2.073  1.00 20.00     0.078 C 
HETATM    5  C5  UNL     1     -34.842   5.960   6.034  1.00 20.00     0.035 C 
HETATM    6  N6  UNL     1     -33.366   6.787   4.274  1.00 20.00    -0.282 NA
HETATM    7  S7  UNL     1     -33.413   4.875   2.491  1.00 20.00    -0.113 SA
ENDROOT
TORSDOF 0
ENDMDL
MODEL 6
REMARK VINA RESULT:      -3.3     16.900     17.482
REMARK  0 active torsions:
REMARK  status: ('A' for Active; 'I' for Inactive)
ROOT
HETATM    1  C1  UNL     1     -23.222  17.955  11.605  1.00 20.00     0.061 C 
HETATM    2  C2  UNL     1     -24.828  18.731   9.855  1.00 20.00     0.107 C 
HETATM    3  C3  UNL     1     -25.420  18.287  11.190  1.00 20.00     0.114 C 
HETATM    4  C4  UNL     1     -21.933  17.747  12.323  1.00 20.00     0.078 C 
HETATM    5  C5  UNL     1     -26.476  19.263  11.689  1.00 20.00     0.035 C 
HETATM    6  N6  UNL     1     -24.342  18.193  12.204  1.00 20.00    -0.282 NA
HETATM    7  S7  UNL     1     -23.209  17.937   9.861  1.00 20.00    -0.113 SA
ENDROOT
TORSDOF 0
ENDMDL
MODEL 7
REMARK VINA RESULT:      -3.3     16.111     16.633
REMARK  0 active torsions:
REMARK  status: ('A' for Active; 'I' for Inactive)
ROOT
HETATM    1  C1  UNL     1     -23.951  17.292  10.449  1.00 20.00     0.061 C 
HETATM    2  C2  UNL     1     -25.805  16.939  12.087  1.00 20.00     0.107 C 
HETATM    3  C3  UNL     1     -25.410  18.383  11.788  1.00 20.00     0.114 C 
HETATM    4  C4  UNL     1     -22.971  16.999   9.365  1.00 20.00     0.078 C 
HETATM    5  C5  UNL     1     -26.630  19.263  11.561  1.00 20.00     0.035 C 
HETATM    6  N6  UNL     1     -24.561  18.424  10.574  1.00 20.00    -0.282 NA
HETATM    7  S7  UNL     1     -24.339  16.019  11.577  1.00 20.00    -0.113 SA
ENDROOT
TORSDOF 0
ENDMDL
MODEL 8
REMARK VINA RESULT:      -3.2      8.956      9.351
REMARK  0 active torsions:
REMARK  status: ('A' for Active; 'I' for Inactive)
ROOT
HETATM    1  C1  UNL     1     -41.552   5.802  -0.540  1.00 20.00     0.061 C 
HETATM    2  C2  UNL     1     -42.921   7.238   0.979  1.00 20.00     0.107 C 
HETATM    3  C3  UNL     1     -41.541   7.761   0.590  1.00 20.00     0.114 C 
HETATM    4  C4  UNL     1     -41.214   4.731  -1.519  1.00 20.00     0.078 C 
HETATM    5  C5  UNL     1     -41.586   9.231   0.199  1.00 20.00     0.035 C 
HETATM    6  N6  UNL     1     -41.020   6.979  -0.557  1.00 20.00    -0.282 NA
HETATM    7  S7  UNL     1     -42.774   5.469   0.659  1.00 20.00    -0.113 SA
ENDROOT
TORSDOF 0
ENDMDL
MODEL 9
REMARK VINA RESULT:      -3.2     16.163     16.781
REMARK  0 active torsions:
REMARK  status: ('A' for Active; 'I' for Inactive)
ROOT
HETATM    1  C1  UNL     1     -22.790  17.448   8.737  1.00 20.00     0.061 C 
HETATM    2  C2  UNL     1     -24.441  18.335  10.389  1.00 20.00     0.107 C 
HETATM    3  C3  UNL     1     -24.280  16.819  10.317  1.00 20.00     0.114 C 
HETATM    4  C4  UNL     1     -21.651  17.425   7.776  1.00 20.00     0.078 C 
HETATM    5  C5  UNL     1     -24.184  16.197  11.703  1.00 20.00     0.035 C 
HETATM    6  N6  UNL     1     -23.050  16.486   9.560  1.00 20.00    -0.282 NA
HETATM    7  S7  UNL     1     -23.793  18.874   8.795  1.00 20.00    -0.113 SA
ENDROOT
TORSDOF 0
ENDMDL
