MODEL 1
REMARK VINA RESULT:      -3.7      0.000      0.000
REMARK  0 active torsions:
REMARK  status: ('A' for Active; 'I' for Inactive)
ROOT
HETATM    1  C1  UNL     1     -23.513  18.262   8.831  1.00 20.00     0.021 A 
HETATM    2  C2  UNL     1     -24.501  18.863   8.141  1.00 20.00     0.004 A 
HETATM    3  C3  UNL     1     -25.040  18.585  10.594  1.00 20.00     0.145 A 
HETATM    4  C4  UNL     1     -22.209  17.782   8.274  1.00 20.00     0.069 C 
HETATM    5  C5  UNL     1     -24.572  19.207   6.691  1.00 20.00     0.058 C 
HETATM    6  C6  UNL     1     -22.824  17.461  11.084  1.00 20.00     0.157 C 
HETATM    7  N7  UNL     1     -23.793  18.098  10.193  1.00 20.00    -0.340 N 
HETATM    8  S8  UNL     1     -25.745  18.586  12.107  1.00 20.00    -0.052 SA
HETATM    9  S9  UNL     1     -25.850  19.263   9.172  1.00 20.00    -0.063 SA
ENDROOT
TORSDOF 0
ENDMDL
MODEL 2
REMARK VINA RESULT:      -3.7      1.340      3.103
REMARK  0 active torsions:
REMARK  status: ('A' for Active; 'I' for Inactive)
ROOT
HETATM    1  C1  UNL     1     -23.594  18.333  10.073  1.00 20.00     0.021 A 
HETATM    2  C2  UNL     1     -23.396  17.954  11.349  1.00 20.00     0.004 A 
HETATM    3  C3  UNL     1     -25.741  18.793  10.923  1.00 20.00     0.145 A 
HETATM    4  C4  UNL     1     -22.582  18.291   8.969  1.00 20.00     0.069 C 
HETATM    5  C5  UNL     1     -22.168  17.409  11.998  1.00 20.00     0.058 C 
HETATM    6  C6  UNL     1     -25.267  19.255   8.478  1.00 20.00     0.157 C 
HETATM    7  N7  UNL     1     -24.887  18.802   9.815  1.00 20.00    -0.340 N 
HETATM    8  S8  UNL     1     -27.338  19.263  11.037  1.00 20.00    -0.052 SA
HETATM    9  S9  UNL     1     -24.836  18.165  12.310  1.00 20.00    -0.063 SA
ENDROOT
TORSDOF 0
ENDMDL
MODEL 3
REMARK VINA RESULT:      -3.7      2.038      3.993
REMARK  0 active torsions:
REMARK  status: ('A' for Active; 'I' for Inactive)
ROOT
HETATM    1  C1  UNL     1     -24.695  18.381  11.103  1.00 20.00     0.021 A 
HETATM    2  C2  UNL     1     -23.407  17.999  11.030  1.00 20.00     0.004 A 
HETATM    3  C3  UNL     1     -24.332  18.772   8.810  1.00 20.00     0.145 A 
HETATM    4  C4  UNL     1     -25.552  18.376  12.331  1.00 20.00     0.069 C 
HETATM    5  C5  UNL     1     -22.507  17.485  12.103  1.00 20.00     0.058 C 
HETATM    6  C6  UNL     1     -26.617  19.262   9.789  1.00 20.00     0.157 C 
HETATM    7  N7  UNL     1     -25.228  18.813   9.883  1.00 20.00    -0.340 N 
HETATM    8  S8  UNL     1     -24.567  19.197   7.212  1.00 20.00    -0.052 SA
HETATM    9  S9  UNL     1     -22.782  18.162   9.410  1.00 20.00    -0.063 SA
ENDROOT
TORSDOF 0
ENDMDL
MODEL 4
REMARK VINA RESULT:      -3.5      1.292      3.323
REMARK  0 active torsions:
REMARK  status: ('A' for Active; 'I' for Inactive)
ROOT
HETATM    1  C1  UNL     1     -24.268  17.992  10.772  1.00 20.00     0.021 A 
HETATM    2  C2  UNL     1     -25.477  18.514  11.047  1.00 20.00     0.004 A 
HETATM    3  C3  UNL     1     -24.783  18.850   8.641  1.00 20.00     0.145 A 
HETATM    4  C4  UNL     1     -23.373  17.275  11.736  1.00 20.00     0.069 C 
HETATM    5  C5  UNL     1     -26.236  18.528  12.332  1.00 20.00     0.058 C 
HETATM    6  C6  UNL     1     -22.573  17.660   8.980  1.00 20.00     0.157 C 
HETATM    7  N7  UNL     1     -23.864  18.168   9.444  1.00 20.00    -0.340 N 
HETATM    8  S8  UNL     1     -24.686  19.258   7.025  1.00 20.00    -0.052 SA
HETATM    9  S9  UNL     1     -26.186  19.263   9.640  1.00 20.00    -0.063 SA
ENDROOT
TORSDOF 0
ENDMDL
MODEL 5
REMARK VINA RESULT:      -3.1     17.043     18.527
REMARK  0 active torsions:
REMARK  status: ('A' for Active; 'I' for Inactive)
ROOT
HETATM    1  C1  UNL     1     -34.371  15.484  -4.493  1.00 20.00     0.021 A 
HETATM    2  C2  UNL     1     -35.180  16.006  -3.552  1.00 20.00     0.004 A 
HETATM    3  C3  UNL     1     -36.081  16.295  -5.895  1.00 20.00     0.145 A 
HETATM    4  C4  UNL     1     -33.064  14.793  -4.254  1.00 20.00     0.069 C 
HETATM    5  C5  UNL     1     -35.012  16.042  -2.070  1.00 20.00     0.058 C 
HETATM    6  C6  UNL     1     -34.093  15.124  -6.940  1.00 20.00     0.157 C 
HETATM    7  N7  UNL     1     -34.852  15.634  -5.799  1.00 20.00    -0.340 N 
HETATM    8  S8  UNL     1     -36.984  16.669  -7.248  1.00 20.00    -0.052 SA
HETATM    9  S9  UNL     1     -36.606  16.720  -4.257  1.00 20.00    -0.063 SA
ENDROOT
TORSDOF 0
ENDMDL
MODEL 6
REMARK VINA RESULT:      -3.1     16.453     17.650
REMARK  0 active torsions:
REMARK  status: ('A' for Active; 'I' for Inactive)
ROOT
HETATM    1  C1  UNL     1     -34.607  15.986  -3.195  1.00 20.00     0.021 A 
HETATM    2  C2  UNL     1     -34.302  14.997  -4.056  1.00 20.00     0.004 A 
HETATM    3  C3  UNL     1     -36.769  15.538  -4.013  1.00 20.00     0.145 A 
HETATM    4  C4  UNL     1     -33.644  16.731  -2.324  1.00 20.00     0.069 C 
HETATM    5  C5  UNL     1     -32.976  14.390  -4.372  1.00 20.00     0.058 C 
HETATM    6  C6  UNL     1     -36.471  17.353  -2.271  1.00 20.00     0.157 C 
HETATM    7  N7  UNL     1     -35.970  16.301  -3.156  1.00 20.00    -0.340 N 
HETATM    8  S8  UNL     1     -38.418  15.599  -4.264  1.00 20.00    -0.052 SA
HETATM    9  S9  UNL     1     -35.721  14.400  -4.875  1.00 20.00    -0.063 SA
ENDROOT
TORSDOF 0
ENDMDL
MODEL 7
REMARK VINA RESULT:      -3.0     16.090     17.700
REMARK  0 active torsions:
REMARK  status: ('A' for Active; 'I' for Inactive)
ROOT
HETATM    1  C1  UNL     1     -34.476  15.382  -3.874  1.00 20.00     0.021 A 
HETATM    2  C2  UNL     1     -34.382  16.421  -3.023  1.00 20.00     0.004 A 
HETATM    3  C3  UNL     1     -36.741  16.023  -3.835  1.00 20.00     0.145 A 
HETATM    4  C4  UNL     1     -33.348  14.512  -4.337  1.00 20.00     0.069 C 
HETATM    5  C5  UNL     1     -33.183  16.974  -2.329  1.00 20.00     0.058 C 
HETATM    6  C6  UNL     1     -36.051  14.053  -5.270  1.00 20.00     0.157 C 
HETATM    7  N7  UNL     1     -35.775  15.145  -4.337  1.00 20.00    -0.340 N 
HETATM    8  S8  UNL     1     -38.383  16.079  -4.131  1.00 20.00    -0.052 SA
HETATM    9  S9  UNL     1     -35.935  17.166  -2.749  1.00 20.00    -0.063 SA
ENDROOT
TORSDOF 0
ENDMDL
MODEL 8
REMARK VINA RESULT:      -3.0      3.737      5.068
REMARK  0 active torsions:
REMARK  status: ('A' for Active; 'I' for Inactive)
ROOT
HETATM    1  C1  UNL     1     -26.156  19.170   4.238  1.00 20.00     0.021 A 
HETATM    2  C2  UNL     1     -27.501  19.207   4.208  1.00 20.00     0.004 A 
HETATM    3  C3  UNL     1     -26.567  19.232   6.556  1.00 20.00     0.145 A 
HETATM    4  C4  UNL     1     -25.245  19.119   3.050  1.00 20.00     0.069 C 
HETATM    5  C5  UNL     1     -28.425  19.207   3.037  1.00 20.00     0.058 C 
HETATM    6  C6  UNL     1     -24.171  19.146   5.739  1.00 20.00     0.157 C 
HETATM    7  N7  UNL     1     -25.618  19.183   5.530  1.00 20.00    -0.340 N 
HETATM    8  S8  UNL     1     -26.344  19.263   8.210  1.00 20.00    -0.052 SA
HETATM    9  S9  UNL     1     -28.176  19.261   5.816  1.00 20.00    -0.063 SA
ENDROOT
TORSDOF 0
ENDMDL
MODEL 9
REMARK VINA RESULT:      -3.0     17.344     18.574
REMARK  0 active torsions:
REMARK  status: ('A' for Active; 'I' for Inactive)
ROOT
HETATM    1  C1  UNL     1     -35.119  15.782  -3.805  1.00 20.00     0.021 A 
HETATM    2  C2  UNL     1     -34.280  15.178  -4.667  1.00 20.00     0.004 A 
HETATM    3  C3  UNL     1     -36.316  16.159  -5.797  1.00 20.00     0.145 A 
HETATM    4  C4  UNL     1     -34.933  15.899  -2.323  1.00 20.00     0.069 C 
HETATM    5  C5  UNL     1     -32.986  14.484  -4.404  1.00 20.00     0.058 C 
HETATM    6  C6  UNL     1     -37.268  17.024  -3.614  1.00 20.00     0.157 C 
HETATM    7  N7  UNL     1     -36.254  16.332  -4.410  1.00 20.00    -0.340 N 
HETATM    8  S8  UNL     1     -37.485  16.658  -6.879  1.00 20.00    -0.052 SA
HETATM    9  S9  UNL     1     -34.873  15.267  -6.305  1.00 20.00    -0.063 SA
ENDROOT
TORSDOF 0
ENDMDL
