MODEL 1
REMARK VINA RESULT:      -4.4      0.000      0.000
REMARK  3 active torsions:
REMARK  status: ('A' for Active; 'I' for Inactive)
REMARK    1  A    between atoms: C3_3  and  C9_9 
REMARK    2  A    between atoms: C8_8  and  O11_11 
REMARK    3  A    between atoms: N10_10  and  O11_11 
ROOT
HETATM    1  C1  UNL     1     -33.445   9.048  -0.097  1.00 20.00     0.014 C 
HETATM    2  C2  UNL     1     -32.724   8.392   0.604  1.00 20.00    -0.089 C 
HETATM    3  C8  UNL     1     -31.843   7.593   1.455  1.00 20.00     0.296 C 
ENDROOT
BRANCH   3   4
HETATM    4  O11 UNL     1     -32.314   7.591   2.794  1.00 20.00    -0.244 OA
BRANCH   4   5
HETATM    5  N10 UNL     1     -33.197   6.515   2.944  1.00 20.00    -0.142 NA
HETATM    6  C3  UNL     1     -33.644   6.430   4.162  1.00 20.00     0.043 C 
HETATM    7  C4  UNL     1     -33.223   7.404   5.247  1.00 20.00     0.069 C 
BRANCH   6   8
HETATM    8  C9  UNL     1     -34.631   5.295   4.521  1.00 20.00    -0.009 C 
HETATM    9  C5  UNL     1     -34.779   5.210   6.047  1.00 20.00     0.021 C 
HETATM   10  C6  UNL     1     -34.107   3.965   3.959  1.00 20.00     0.021 C 
HETATM   11  C7  UNL     1     -36.023   5.557   3.915  1.00 20.00     0.021 C 
ENDBRANCH   6   8
ENDBRANCH   4   5
ENDBRANCH   3   4
TORSDOF 3
ENDMDL
MODEL 2
REMARK VINA RESULT:      -4.4     15.156     16.083
REMARK  3 active torsions:
REMARK  status: ('A' for Active; 'I' for Inactive)
REMARK    1  A    between atoms: C3_3  and  C9_9 
REMARK    2  A    between atoms: C8_8  and  O11_11 
REMARK    3  A    between atoms: N10_10  and  O11_11 
ROOT
HETATM    1  C1  UNL     1     -25.994  19.178   4.999  1.00 20.00     0.014 C 
HETATM    2  C2  UNL     1     -26.060  19.216   6.198  1.00 20.00    -0.089 C 
HETATM    3  C8  UNL     1     -26.144  19.263   7.657  1.00 20.00     0.296 C 
ENDROOT
BRANCH   3   4
HETATM    4  O11 UNL     1     -24.860  19.074   8.234  1.00 20.00    -0.244 OA
BRANCH   4   5
HETATM    5  N10 UNL     1     -25.035  18.727   9.580  1.00 20.00    -0.142 NA
HETATM    6  C3  UNL     1     -24.079  17.952  10.001  1.00 20.00     0.043 C 
HETATM    7  C4  UNL     1     -22.941  17.510   9.100  1.00 20.00     0.069 C 
BRANCH   6   8
HETATM    8  C9  UNL     1     -24.105  17.458  11.466  1.00 20.00    -0.009 C 
HETATM    9  C5  UNL     1     -24.581  15.999  11.505  1.00 20.00     0.021 C 
HETATM   10  C6  UNL     1     -25.047  18.351  12.289  1.00 20.00     0.021 C 
HETATM   11  C7  UNL     1     -22.703  17.526  12.100  1.00 20.00     0.021 C 
ENDBRANCH   6   8
ENDBRANCH   4   5
ENDBRANCH   3   4
TORSDOF 3
ENDMDL
MODEL 3
REMARK VINA RESULT:      -4.4     11.011     12.055
REMARK  3 active torsions:
REMARK  status: ('A' for Active; 'I' for Inactive)
REMARK    1  A    between atoms: C3_3  and  C9_9 
REMARK    2  A    between atoms: C8_8  and  O11_11 
REMARK    3  A    between atoms: N10_10  and  O11_11 
ROOT
HETATM    1  C1  UNL     1     -30.644  18.332   1.001  1.00 20.00     0.014 C 
HETATM    2  C2  UNL     1     -31.219  18.404  -0.051  1.00 20.00    -0.089 C 
HETATM    3  C8  UNL     1     -31.917  18.493  -1.333  1.00 20.00     0.296 C 
ENDROOT
BRANCH   3   4
HETATM    4  O11 UNL     1     -33.011  17.589  -1.367  1.00 20.00    -0.244 OA
BRANCH   4   5
HETATM    5  N10 UNL     1     -32.949  16.876  -2.570  1.00 20.00    -0.142 NA
HETATM    6  C3  UNL     1     -34.027  16.174  -2.765  1.00 20.00     0.043 C 
HETATM    7  C4  UNL     1     -35.177  16.168  -1.775  1.00 20.00     0.069 C 
BRANCH   6   8
HETATM    8  C9  UNL     1     -34.139  15.313  -4.044  1.00 20.00    -0.009 C 
HETATM    9  C5  UNL     1     -32.786  14.647  -4.331  1.00 20.00     0.021 C 
HETATM   10  C6  UNL     1     -34.559  16.203  -5.224  1.00 20.00     0.021 C 
HETATM   11  C7  UNL     1     -35.197  14.205  -3.877  1.00 20.00     0.021 C 
ENDBRANCH   6   8
ENDBRANCH   4   5
ENDBRANCH   3   4
TORSDOF 3
ENDMDL
MODEL 4
REMARK VINA RESULT:      -4.4     10.980     12.027
REMARK  3 active torsions:
REMARK  status: ('A' for Active; 'I' for Inactive)
REMARK    1  A    between atoms: C3_3  and  C9_9 
REMARK    2  A    between atoms: C8_8  and  O11_11 
REMARK    3  A    between atoms: N10_10  and  O11_11 
ROOT
HETATM    1  C1  UNL     1     -30.658  18.512   0.698  1.00 20.00     0.014 C 
HETATM    2  C2  UNL     1     -31.287  18.510  -0.325  1.00 20.00    -0.089 C 
HETATM    3  C8  UNL     1     -32.050  18.510  -1.573  1.00 20.00     0.296 C 
ENDROOT
BRANCH   3   4
HETATM    4  O11 UNL     1     -33.056  17.508  -1.539  1.00 20.00    -0.244 OA
BRANCH   4   5
HETATM    5  N10 UNL     1     -32.952  16.748  -2.711  1.00 20.00    -0.142 NA
HETATM    6  C3  UNL     1     -34.025  16.043  -2.919  1.00 20.00     0.043 C 
HETATM    7  C4  UNL     1     -35.212  16.079  -1.973  1.00 20.00     0.069 C 
BRANCH   6   8
HETATM    8  C9  UNL     1     -34.093  15.132  -4.167  1.00 20.00    -0.009 C 
HETATM    9  C5  UNL     1     -35.180  14.068  -3.963  1.00 20.00     0.021 C 
HETATM   10  C6  UNL     1     -32.726  14.467  -4.389  1.00 20.00     0.021 C 
HETATM   11  C7  UNL     1     -34.443  15.945  -5.428  1.00 20.00     0.021 C 
ENDBRANCH   6   8
ENDBRANCH   4   5
ENDBRANCH   3   4
TORSDOF 3
ENDMDL
MODEL 5
REMARK VINA RESULT:      -4.0     10.988     11.933
REMARK  3 active torsions:
REMARK  status: ('A' for Active; 'I' for Inactive)
REMARK    1  A    between atoms: C3_3  and  C9_9 
REMARK    2  A    between atoms: C8_8  and  O11_11 
REMARK    3  A    between atoms: N10_10  and  O11_11 
ROOT
HETATM    1  C1  UNL     1     -35.833  15.133  -6.853  1.00 20.00     0.014 C 
HETATM    2  C2  UNL     1     -35.942  14.461  -5.863  1.00 20.00    -0.089 C 
HETATM    3  C8  UNL     1     -36.078  13.641  -4.661  1.00 20.00     0.296 C 
ENDROOT
BRANCH   3   4
HETATM    4  O11 UNL     1     -34.979  13.855  -3.787  1.00 20.00    -0.244 OA
BRANCH   4   5
HETATM    5  N10 UNL     1     -35.256  14.985  -3.008  1.00 20.00    -0.142 NA
HETATM    6  C3  UNL     1     -34.256  15.816  -3.000  1.00 20.00     0.043 C 
HETATM    7  C4  UNL     1     -32.970  15.540  -3.758  1.00 20.00     0.069 C 
BRANCH   6   8
HETATM    8  C9  UNL     1     -34.375  17.125  -2.185  1.00 20.00    -0.009 C 
HETATM    9  C5  UNL     1     -35.068  18.196  -3.039  1.00 20.00     0.021 C 
HETATM   10  C6  UNL     1     -32.974  17.596  -1.767  1.00 20.00     0.021 C 
HETATM   11  C7  UNL     1     -35.211  16.911  -0.909  1.00 20.00     0.021 C 
ENDBRANCH   6   8
ENDBRANCH   4   5
ENDBRANCH   3   4
TORSDOF 3
ENDMDL
MODEL 6
REMARK VINA RESULT:      -4.0     11.164     12.512
REMARK  3 active torsions:
REMARK  status: ('A' for Active; 'I' for Inactive)
REMARK    1  A    between atoms: C3_3  and  C9_9 
REMARK    2  A    between atoms: C8_8  and  O11_11 
REMARK    3  A    between atoms: N10_10  and  O11_11 
ROOT
HETATM    1  C1  UNL     1     -39.063  17.014  -5.446  1.00 20.00     0.014 C 
HETATM    2  C2  UNL     1     -39.058  15.954  -4.882  1.00 20.00    -0.089 C 
HETATM    3  C8  UNL     1     -39.056  14.663  -4.194  1.00 20.00     0.296 C 
ENDROOT
BRANCH   3   4
HETATM    4  O11 UNL     1     -37.870  13.942  -4.494  1.00 20.00    -0.244 OA
BRANCH   4   5
HETATM    5  N10 UNL     1     -36.806  14.555  -3.821  1.00 20.00    -0.142 NA
HETATM    6  C3  UNL     1     -35.803  14.778  -4.618  1.00 20.00     0.043 C 
HETATM    7  C4  UNL     1     -35.838  14.400  -6.088  1.00 20.00     0.069 C 
BRANCH   6   8
HETATM    8  C9  UNL     1     -34.529  15.447  -4.050  1.00 20.00    -0.009 C 
HETATM    9  C5  UNL     1     -34.311  16.800  -4.741  1.00 20.00     0.021 C 
HETATM   10  C6  UNL     1     -33.322  14.525  -4.284  1.00 20.00     0.021 C 
HETATM   11  C7  UNL     1     -34.659  15.693  -2.535  1.00 20.00     0.021 C 
ENDBRANCH   6   8
ENDBRANCH   4   5
ENDBRANCH   3   4
TORSDOF 3
ENDMDL
MODEL 7
REMARK VINA RESULT:      -4.0     11.165     12.516
REMARK  3 active torsions:
REMARK  status: ('A' for Active; 'I' for Inactive)
REMARK    1  A    between atoms: C3_3  and  C9_9 
REMARK    2  A    between atoms: C8_8  and  O11_11 
REMARK    3  A    between atoms: N10_10  and  O11_11 
ROOT
HETATM    1  C1  UNL     1     -38.873  17.155  -5.215  1.00 20.00     0.014 C 
HETATM    2  C2  UNL     1     -38.959  16.047  -4.760  1.00 20.00    -0.089 C 
HETATM    3  C8  UNL     1     -39.066  14.698  -4.206  1.00 20.00     0.296 C 
ENDROOT
BRANCH   3   4
HETATM    4  O11 UNL     1     -37.890  13.953  -4.482  1.00 20.00    -0.244 OA
BRANCH   4   5
HETATM    5  N10 UNL     1     -36.821  14.564  -3.815  1.00 20.00    -0.142 NA
HETATM    6  C3  UNL     1     -35.822  14.786  -4.618  1.00 20.00     0.043 C 
HETATM    7  C4  UNL     1     -35.866  14.406  -6.087  1.00 20.00     0.069 C 
BRANCH   6   8
HETATM    8  C9  UNL     1     -34.544  15.452  -4.057  1.00 20.00    -0.009 C 
HETATM    9  C5  UNL     1     -34.702  15.669  -2.546  1.00 20.00     0.021 C 
HETATM   10  C6  UNL     1     -34.313  16.793  -4.770  1.00 20.00     0.021 C 
HETATM   11  C7  UNL     1     -33.307  14.564  -4.291  1.00 20.00     0.021 C 
ENDBRANCH   6   8
ENDBRANCH   4   5
ENDBRANCH   3   4
TORSDOF 3
ENDMDL
MODEL 8
REMARK VINA RESULT:      -3.9      9.328     10.768
REMARK  3 active torsions:
REMARK  status: ('A' for Active; 'I' for Inactive)
REMARK    1  A    between atoms: C3_3  and  C9_9 
REMARK    2  A    between atoms: C8_8  and  O11_11 
REMARK    3  A    between atoms: N10_10  and  O11_11 
ROOT
HETATM    1  C1  UNL     1     -41.549   2.220  -4.288  1.00 20.00     0.014 C 
HETATM    2  C2  UNL     1     -42.343   2.871  -3.665  1.00 20.00    -0.089 C 
HETATM    3  C8  UNL     1     -43.313   3.662  -2.909  1.00 20.00     0.296 C 
ENDROOT
BRANCH   3   4
HETATM    4  O11 UNL     1     -42.796   3.989  -1.628  1.00 20.00    -0.244 OA
BRANCH   4   5
HETATM    5  N10 UNL     1     -43.208   5.289  -1.311  1.00 20.00    -0.142 NA
HETATM    6  C3  UNL     1     -42.215   6.015  -0.888  1.00 20.00     0.043 C 
HETATM    7  C4  UNL     1     -40.805   5.466  -0.771  1.00 20.00     0.069 C 
BRANCH   6   8
HETATM    8  C9  UNL     1     -42.480   7.484  -0.483  1.00 20.00    -0.009 C 
HETATM    9  C5  UNL     1     -43.121   7.521   0.911  1.00 20.00     0.021 C 
HETATM   10  C6  UNL     1     -43.407   8.139  -1.517  1.00 20.00     0.021 C 
HETATM   11  C7  UNL     1     -41.168   8.291  -0.433  1.00 20.00     0.021 C 
ENDBRANCH   6   8
ENDBRANCH   4   5
ENDBRANCH   3   4
TORSDOF 3
ENDMDL
MODEL 9
REMARK VINA RESULT:      -3.9     11.484     12.757
REMARK  3 active torsions:
REMARK  status: ('A' for Active; 'I' for Inactive)
REMARK    1  A    between atoms: C3_3  and  C9_9 
REMARK    2  A    between atoms: C8_8  and  O11_11 
REMARK    3  A    between atoms: N10_10  and  O11_11 
ROOT
HETATM    1  C1  UNL     1     -33.041  18.542   1.704  1.00 20.00     0.014 C 
HETATM    2  C2  UNL     1     -32.130  18.577   0.921  1.00 20.00    -0.089 C 
HETATM    3  C8  UNL     1     -31.019  18.619  -0.029  1.00 20.00     0.296 C 
ENDROOT
BRANCH   3   4
HETATM    4  O11 UNL     1     -31.506  18.731  -1.358  1.00 20.00    -0.244 OA
BRANCH   4   5
HETATM    5  N10 UNL     1     -32.376  17.660  -1.594  1.00 20.00    -0.142 NA
HETATM    6  C3  UNL     1     -32.964  17.769  -2.749  1.00 20.00     0.043 C 
HETATM    7  C4  UNL     1     -32.702  18.936  -3.682  1.00 20.00     0.069 C 
BRANCH   6   8
HETATM    8  C9  UNL     1     -33.970  16.677  -3.184  1.00 20.00    -0.009 C 
HETATM    9  C5  UNL     1     -34.901  17.243  -4.265  1.00 20.00     0.021 C 
HETATM   10  C6  UNL     1     -34.782  16.216  -1.964  1.00 20.00     0.021 C 
HETATM   11  C7  UNL     1     -33.241  15.451  -3.767  1.00 20.00     0.021 C 
ENDBRANCH   6   8
ENDBRANCH   4   5
ENDBRANCH   3   4
TORSDOF 3
ENDMDL
