MODEL 1
REMARK VINA RESULT:      -4.3      0.000      0.000
REMARK  2 active torsions:
REMARK  status: ('A' for Active; 'I' for Inactive)
REMARK    1  A    between atoms: C1_1  and  C7_7 
REMARK    2  A    between atoms: C7_7  and  C8_8 
ROOT
HETATM    1  C3  UNL     1     -24.822  19.174   9.086  1.00 20.00     0.018 C 
HETATM    2  C7  UNL     1     -24.009  17.945   9.506  1.00 20.00     0.058 C 
ENDROOT
BRANCH   2   3
HETATM    3  C1  UNL     1     -22.570  18.148   9.018  1.00 20.00     0.127 C 
HETATM    4  C2  UNL     1     -21.820  16.917   8.577  1.00 20.00     0.091 C 
HETATM    5  O9  UNL     1     -22.046  19.260   8.961  1.00 20.00    -0.298 OA
ENDBRANCH   2   3
BRANCH   2   6
HETATM    6  C8  UNL     1     -24.098  17.576  11.022  1.00 20.00    -0.041 C 
HETATM    7  C4  UNL     1     -24.531  16.104  11.188  1.00 20.00     0.015 C 
HETATM    8  C5  UNL     1     -22.770  17.779  11.774  1.00 20.00     0.015 C 
HETATM    9  C6  UNL     1     -25.171  18.452  11.709  1.00 20.00     0.015 C 
ENDBRANCH   2   6
TORSDOF 2
ENDMDL
MODEL 2
REMARK VINA RESULT:      -4.1     17.951     19.209
REMARK  2 active torsions:
REMARK  status: ('A' for Active; 'I' for Inactive)
REMARK    1  A    between atoms: C1_1  and  C7_7 
REMARK    2  A    between atoms: C7_7  and  C8_8 
ROOT
HETATM    1  C3  UNL     1     -34.944  14.840  -6.536  1.00 20.00     0.018 C 
HETATM    2  C7  UNL     1     -35.477  15.213  -5.148  1.00 20.00     0.058 C 
ENDROOT
BRANCH   2   3
HETATM    3  C1  UNL     1     -36.375  14.067  -4.671  1.00 20.00     0.127 C 
HETATM    4  C2  UNL     1     -37.787  14.424  -4.282  1.00 20.00     0.091 C 
HETATM    5  O9  UNL     1     -35.983  12.901  -4.621  1.00 20.00    -0.298 OA
ENDBRANCH   2   3
BRANCH   2   6
HETATM    6  C8  UNL     1     -34.386  15.617  -4.104  1.00 20.00    -0.041 C 
HETATM    7  C4  UNL     1     -33.923  17.069  -4.352  1.00 20.00     0.015 C 
HETATM    8  C5  UNL     1     -34.871  15.505  -2.648  1.00 20.00     0.015 C 
HETATM    9  C6  UNL     1     -33.149  14.706  -4.265  1.00 20.00     0.015 C 
ENDBRANCH   2   6
TORSDOF 2
ENDMDL
MODEL 3
REMARK VINA RESULT:      -4.0     17.683     18.876
REMARK  2 active torsions:
REMARK  status: ('A' for Active; 'I' for Inactive)
REMARK    1  A    between atoms: C1_1  and  C7_7 
REMARK    2  A    between atoms: C7_7  and  C8_8 
ROOT
HETATM    1  C3  UNL     1     -36.983  15.967  -3.994  1.00 20.00     0.018 C 
HETATM    2  C7  UNL     1     -35.797  15.026  -3.760  1.00 20.00     0.058 C 
ENDROOT
BRANCH   2   3
HETATM    3  C1  UNL     1     -35.879  13.905  -4.802  1.00 20.00     0.127 C 
HETATM    4  C2  UNL     1     -35.964  14.325  -6.248  1.00 20.00     0.091 C 
HETATM    5  O9  UNL     1     -35.855  12.715  -4.492  1.00 20.00    -0.298 OA
ENDBRANCH   2   3
BRANCH   2   6
HETATM    6  C8  UNL     1     -34.397  15.721  -3.712  1.00 20.00    -0.041 C 
HETATM    7  C4  UNL     1     -34.104  16.228  -2.284  1.00 20.00     0.015 C 
HETATM    8  C5  UNL     1     -33.247  14.794  -4.144  1.00 20.00     0.015 C 
HETATM    9  C6  UNL     1     -34.395  16.951  -4.647  1.00 20.00     0.015 C 
ENDBRANCH   2   6
TORSDOF 2
ENDMDL
MODEL 4
REMARK VINA RESULT:      -3.8     16.698     17.872
REMARK  2 active torsions:
REMARK  status: ('A' for Active; 'I' for Inactive)
REMARK    1  A    between atoms: C1_1  and  C7_7 
REMARK    2  A    between atoms: C7_7  and  C8_8 
ROOT
HETATM    1  C3  UNL     1     -36.256  14.678  -3.988  1.00 20.00     0.018 C 
HETATM    2  C7  UNL     1     -34.828  14.900  -3.479  1.00 20.00     0.058 C 
ENDROOT
BRANCH   2   3
HETATM    3  C1  UNL     1     -33.866  14.521  -4.609  1.00 20.00     0.127 C 
HETATM    4  C2  UNL     1     -34.175  15.069  -5.979  1.00 20.00     0.091 C 
HETATM    5  O9  UNL     1     -32.871  13.822  -4.419  1.00 20.00    -0.298 OA
ENDBRANCH   2   3
BRANCH   2   6
HETATM    6  C8  UNL     1     -34.550  16.318  -2.882  1.00 20.00    -0.041 C 
HETATM    7  C4  UNL     1     -35.110  16.411  -1.447  1.00 20.00     0.015 C 
HETATM    8  C5  UNL     1     -33.052  16.674  -2.842  1.00 20.00     0.015 C 
HETATM    9  C6  UNL     1     -35.271  17.390  -3.729  1.00 20.00     0.015 C 
ENDBRANCH   2   6
TORSDOF 2
ENDMDL
MODEL 5
REMARK VINA RESULT:      -3.7     17.221     18.500
REMARK  2 active torsions:
REMARK  status: ('A' for Active; 'I' for Inactive)
REMARK    1  A    between atoms: C1_1  and  C7_7 
REMARK    2  A    between atoms: C7_7  and  C8_8 
ROOT
HETATM    1  C3  UNL     1     -33.198  14.546  -4.421  1.00 20.00     0.018 C 
HETATM    2  C7  UNL     1     -34.554  14.782  -3.747  1.00 20.00     0.058 C 
ENDROOT
BRANCH   2   3
HETATM    3  C1  UNL     1     -34.351  15.829  -2.647  1.00 20.00     0.127 C 
HETATM    4  C2  UNL     1     -33.126  16.702  -2.755  1.00 20.00     0.091 C 
HETATM    5  O9  UNL     1     -35.152  15.979  -1.725  1.00 20.00    -0.298 OA
ENDBRANCH   2   3
BRANCH   2   6
HETATM    6  C8  UNL     1     -35.728  15.129  -4.719  1.00 20.00    -0.041 C 
HETATM    7  C4  UNL     1     -37.019  14.410  -4.273  1.00 20.00     0.015 C 
HETATM    8  C5  UNL     1     -36.017  16.638  -4.803  1.00 20.00     0.015 C 
HETATM    9  C6  UNL     1     -35.390  14.629  -6.142  1.00 20.00     0.015 C 
ENDBRANCH   2   6
TORSDOF 2
ENDMDL
MODEL 6
REMARK VINA RESULT:      -3.7     16.945     18.162
REMARK  2 active torsions:
REMARK  status: ('A' for Active; 'I' for Inactive)
REMARK    1  A    between atoms: C1_1  and  C7_7 
REMARK    2  A    between atoms: C7_7  and  C8_8 
ROOT
HETATM    1  C3  UNL     1     -32.751  14.496  -4.505  1.00 20.00     0.018 C 
HETATM    2  C7  UNL     1     -34.153  15.111  -4.441  1.00 20.00     0.058 C 
ENDROOT
BRANCH   2   3
HETATM    3  C1  UNL     1     -35.157  13.966  -4.271  1.00 20.00     0.127 C 
HETATM    4  C2  UNL     1     -36.593  14.262  -4.623  1.00 20.00     0.091 C 
HETATM    5  O9  UNL     1     -34.820  12.847  -3.887  1.00 20.00    -0.298 OA
ENDBRANCH   2   3
BRANCH   2   6
HETATM    6  C8  UNL     1     -34.331  16.249  -3.384  1.00 20.00    -0.041 C 
HETATM    7  C4  UNL     1     -35.165  15.740  -2.190  1.00 20.00     0.015 C 
HETATM    8  C5  UNL     1     -32.994  16.791  -2.847  1.00 20.00     0.015 C 
HETATM    9  C6  UNL     1     -35.103  17.430  -4.016  1.00 20.00     0.015 C 
ENDBRANCH   2   6
TORSDOF 2
ENDMDL
MODEL 7
REMARK VINA RESULT:      -3.7     17.901     19.041
REMARK  2 active torsions:
REMARK  status: ('A' for Active; 'I' for Inactive)
REMARK    1  A    between atoms: C1_1  and  C7_7 
REMARK    2  A    between atoms: C7_7  and  C8_8 
ROOT
HETATM    1  C3  UNL     1     -34.507  17.346  -5.426  1.00 20.00     0.018 C 
HETATM    2  C7  UNL     1     -35.172  16.016  -5.056  1.00 20.00     0.058 C 
ENDROOT
BRANCH   2   3
HETATM    3  C1  UNL     1     -35.191  15.138  -6.312  1.00 20.00     0.127 C 
HETATM    4  C2  UNL     1     -33.951  15.152  -7.170  1.00 20.00     0.091 C 
HETATM    5  O9  UNL     1     -36.155  14.434  -6.609  1.00 20.00    -0.298 OA
ENDBRANCH   2   3
BRANCH   2   6
HETATM    6  C8  UNL     1     -34.565  15.294  -3.809  1.00 20.00    -0.041 C 
HETATM    7  C4  UNL     1     -35.224  15.819  -2.516  1.00 20.00     0.015 C 
HETATM    8  C5  UNL     1     -34.734  13.764  -3.854  1.00 20.00     0.015 C 
HETATM    9  C6  UNL     1     -33.054  15.602  -3.714  1.00 20.00     0.015 C 
ENDBRANCH   2   6
TORSDOF 2
ENDMDL
MODEL 8
REMARK VINA RESULT:      -3.6     17.583     18.800
REMARK  2 active torsions:
REMARK  status: ('A' for Active; 'I' for Inactive)
REMARK    1  A    between atoms: C1_1  and  C7_7 
REMARK    2  A    between atoms: C7_7  and  C8_8 
ROOT
HETATM    1  C3  UNL     1     -36.501  14.321  -4.141  1.00 20.00     0.018 C 
HETATM    2  C7  UNL     1     -35.023  14.681  -4.331  1.00 20.00     0.058 C 
ENDROOT
BRANCH   2   3
HETATM    3  C1  UNL     1     -34.760  14.789  -5.837  1.00 20.00     0.127 C 
HETATM    4  C2  UNL     1     -35.945  15.103  -6.715  1.00 20.00     0.091 C 
HETATM    5  O9  UNL     1     -33.637  14.650  -6.320  1.00 20.00    -0.298 OA
ENDBRANCH   2   3
BRANCH   2   6
HETATM    6  C8  UNL     1     -34.537  15.932  -3.529  1.00 20.00    -0.041 C 
HETATM    7  C4  UNL     1     -34.909  17.225  -4.284  1.00 20.00     0.015 C 
HETATM    8  C5  UNL     1     -35.130  16.009  -2.111  1.00 20.00     0.015 C 
HETATM    9  C6  UNL     1     -32.997  15.900  -3.400  1.00 20.00     0.015 C 
ENDBRANCH   2   6
TORSDOF 2
ENDMDL
MODEL 9
REMARK VINA RESULT:      -3.6     17.655     18.786
REMARK  2 active torsions:
REMARK  status: ('A' for Active; 'I' for Inactive)
REMARK    1  A    between atoms: C1_1  and  C7_7 
REMARK    2  A    between atoms: C7_7  and  C8_8 
ROOT
HETATM    1  C3  UNL     1     -34.409  17.505  -5.867  1.00 20.00     0.018 C 
HETATM    2  C7  UNL     1     -34.812  16.197  -5.176  1.00 20.00     0.058 C 
ENDROOT
BRANCH   2   3
HETATM    3  C1  UNL     1     -34.836  15.096  -6.241  1.00 20.00     0.127 C 
HETATM    4  C2  UNL     1     -33.944  15.290  -7.441  1.00 20.00     0.091 C 
HETATM    5  O9  UNL     1     -35.528  14.085  -6.127  1.00 20.00    -0.298 OA
ENDBRANCH   2   3
BRANCH   2   6
HETATM    6  C8  UNL     1     -33.961  15.821  -3.920  1.00 20.00    -0.041 C 
HETATM    7  C4  UNL     1     -33.006  14.655  -4.254  1.00 20.00     0.015 C 
HETATM    8  C5  UNL     1     -33.123  16.996  -3.382  1.00 20.00     0.015 C 
HETATM    9  C6  UNL     1     -34.892  15.342  -2.784  1.00 20.00     0.015 C 
ENDBRANCH   2   6
TORSDOF 2
ENDMDL
