MODEL 1
REMARK VINA RESULT:      -4.6      0.000      0.000
REMARK  3 active torsions:
REMARK  status: ('A' for Active; 'I' for Inactive)
REMARK    1  A    between atoms: C3_3  and  C8_8 
REMARK    2  A    between atoms: C6_6  and  C7_7 
REMARK    3  A    between atoms: C7_7  and  C8_8 
ROOT
HETATM    1  C1  UNL     1     -34.011   6.258   5.891  1.00 20.00     0.197 C 
HETATM    2  C2  UNL     1     -34.752   4.947   5.887  1.00 20.00     0.197 C 
HETATM    3  C3  UNL     1     -34.727   5.787   3.793  1.00 20.00     0.263 C 
HETATM    4  O9  UNL     1     -34.426   6.878   4.675  1.00 20.00    -0.359 OA
HETATM    5  O10 UNL     1     -34.699   4.551   4.519  1.00 20.00    -0.359 OA
ENDROOT
BRANCH   3   6
HETATM    6  C8  UNL     1     -33.710   5.736   2.670  1.00 20.00     0.037 C 
HETATM    7  C5  UNL     1     -33.012   4.375   2.670  1.00 20.00     0.015 C 
BRANCH   6   8
HETATM    8  C7  UNL     1     -32.718   6.906   2.810  1.00 20.00     0.009 C 
BRANCH   8   9
HETATM    9  C6  UNL     1     -32.214   7.442   1.467  1.00 20.00    -0.004 C 
HETATM   10  C4  UNL     1     -32.975   8.690   1.047  1.00 20.00     0.005 C 
ENDBRANCH   8   9
ENDBRANCH   6   8
ENDBRANCH   3   6
TORSDOF 3
ENDMDL
MODEL 2
REMARK VINA RESULT:      -4.4      1.154      1.552
REMARK  3 active torsions:
REMARK  status: ('A' for Active; 'I' for Inactive)
REMARK    1  A    between atoms: C3_3  and  C8_8 
REMARK    2  A    between atoms: C6_6  and  C7_7 
REMARK    3  A    between atoms: C7_7  and  C8_8 
ROOT
HETATM    1  C1  UNL     1     -34.174   5.688   5.953  1.00 20.00     0.197 C 
HETATM    2  C2  UNL     1     -35.074   4.936   5.011  1.00 20.00     0.197 C 
HETATM    3  C3  UNL     1     -34.018   6.572   3.872  1.00 20.00     0.263 C 
HETATM    4  O9  UNL     1     -33.917   6.911   5.262  1.00 20.00    -0.359 OA
HETATM    5  O10 UNL     1     -34.528   5.239   3.730  1.00 20.00    -0.359 OA
ENDROOT
BRANCH   3   6
HETATM    6  C8  UNL     1     -32.653   6.662   3.218  1.00 20.00     0.037 C 
HETATM    7  C5  UNL     1     -31.832   7.762   3.892  1.00 20.00     0.015 C 
BRANCH   6   8
HETATM    8  C7  UNL     1     -32.814   6.891   1.704  1.00 20.00     0.009 C 
BRANCH   8   9
HETATM    9  C6  UNL     1     -32.522   8.330   1.271  1.00 20.00    -0.004 C 
HETATM   10  C4  UNL     1     -33.249   8.680  -0.020  1.00 20.00     0.005 C 
ENDBRANCH   8   9
ENDBRANCH   6   8
ENDBRANCH   3   6
TORSDOF 3
ENDMDL
MODEL 3
REMARK VINA RESULT:      -4.1     16.087     17.202
REMARK  3 active torsions:
REMARK  status: ('A' for Active; 'I' for Inactive)
REMARK    1  A    between atoms: C3_3  and  C8_8 
REMARK    2  A    between atoms: C6_6  and  C7_7 
REMARK    3  A    between atoms: C7_7  and  C8_8 
ROOT
HETATM    1  C1  UNL     1     -23.492  18.441   8.506  1.00 20.00     0.197 C 
HETATM    2  C2  UNL     1     -22.467  17.411   8.112  1.00 20.00     0.197 C 
HETATM    3  C3  UNL     1     -22.475  17.622  10.358  1.00 20.00     0.263 C 
HETATM    4  O9  UNL     1     -23.113  18.796   9.835  1.00 20.00    -0.359 OA
HETATM    5  O10 UNL     1     -22.286  16.661   9.311  1.00 20.00    -0.359 OA
ENDROOT
BRANCH   3   6
HETATM    6  C8  UNL     1     -23.332  17.013  11.451  1.00 20.00     0.037 C 
HETATM    7  C5  UNL     1     -24.357  16.062  10.831  1.00 20.00     0.015 C 
BRANCH   6   8
HETATM    8  C7  UNL     1     -23.992  18.131  12.280  1.00 20.00     0.009 C 
BRANCH   8   9
HETATM    9  C6  UNL     1     -25.518  18.031  12.332  1.00 20.00    -0.004 C 
HETATM   10  C4  UNL     1     -26.176  19.252  11.706  1.00 20.00     0.005 C 
ENDBRANCH   8   9
ENDBRANCH   6   8
ENDBRANCH   3   6
TORSDOF 3
ENDMDL
MODEL 4
REMARK VINA RESULT:      -4.0     11.440     12.937
REMARK  3 active torsions:
REMARK  status: ('A' for Active; 'I' for Inactive)
REMARK    1  A    between atoms: C3_3  and  C8_8 
REMARK    2  A    between atoms: C6_6  and  C7_7 
REMARK    3  A    between atoms: C7_7  and  C8_8 
ROOT
HETATM    1  C1  UNL     1     -35.728  16.523  -6.134  1.00 20.00     0.197 C 
HETATM    2  C2  UNL     1     -35.905  15.301  -6.995  1.00 20.00     0.197 C 
HETATM    3  C3  UNL     1     -34.037  15.063  -5.751  1.00 20.00     0.263 C 
HETATM    4  O9  UNL     1     -34.355  16.462  -5.747  1.00 20.00    -0.359 OA
HETATM    5  O10 UNL     1     -35.119  14.318  -6.325  1.00 20.00    -0.359 OA
ENDROOT
BRANCH   3   6
HETATM    6  C8  UNL     1     -33.793  14.586  -4.333  1.00 20.00     0.037 C 
HETATM    7  C5  UNL     1     -35.003  13.788  -3.844  1.00 20.00     0.015 C 
BRANCH   6   8
HETATM    8  C7  UNL     1     -33.474  15.788  -3.425  1.00 20.00     0.009 C 
BRANCH   8   9
HETATM    9  C6  UNL     1     -34.506  16.003  -2.315  1.00 20.00    -0.004 C 
HETATM   10  C4  UNL     1     -34.201  17.258  -1.510  1.00 20.00     0.005 C 
ENDBRANCH   8   9
ENDBRANCH   6   8
ENDBRANCH   3   6
TORSDOF 3
ENDMDL
MODEL 5
REMARK VINA RESULT:      -4.0     11.655     13.023
REMARK  3 active torsions:
REMARK  status: ('A' for Active; 'I' for Inactive)
REMARK    1  A    between atoms: C3_3  and  C8_8 
REMARK    2  A    between atoms: C6_6  and  C7_7 
REMARK    3  A    between atoms: C7_7  and  C8_8 
ROOT
HETATM    1  C1  UNL     1     -34.519  15.380  -6.896  1.00 20.00     0.197 C 
HETATM    2  C2  UNL     1     -35.901  15.374  -7.492  1.00 20.00     0.197 C 
HETATM    3  C3  UNL     1     -35.928  14.217  -5.555  1.00 20.00     0.263 C 
HETATM    4  O9  UNL     1     -34.555  14.302  -5.961  1.00 20.00    -0.359 OA
HETATM    5  O10 UNL     1     -36.734  15.075  -6.374  1.00 20.00    -0.359 OA
ENDROOT
BRANCH   3   6
HETATM    6  C8  UNL     1     -36.063  14.634  -4.103  1.00 20.00     0.037 C 
HETATM    7  C5  UNL     1     -36.818  15.961  -4.017  1.00 20.00     0.015 C 
BRANCH   6   8
HETATM    8  C7  UNL     1     -34.671  14.705  -3.449  1.00 20.00     0.009 C 
BRANCH   8   9
HETATM    9  C6  UNL     1     -34.497  15.906  -2.516  1.00 20.00    -0.004 C 
HETATM   10  C4  UNL     1     -33.181  16.625  -2.776  1.00 20.00     0.005 C 
ENDBRANCH   8   9
ENDBRANCH   6   8
ENDBRANCH   3   6
TORSDOF 3
ENDMDL
MODEL 6
REMARK VINA RESULT:      -4.0     11.573     12.540
REMARK  3 active torsions:
REMARK  status: ('A' for Active; 'I' for Inactive)
REMARK    1  A    between atoms: C3_3  and  C8_8 
REMARK    2  A    between atoms: C6_6  and  C7_7 
REMARK    3  A    between atoms: C7_7  and  C8_8 
ROOT
HETATM    1  C1  UNL     1     -34.438  15.001  -6.286  1.00 20.00     0.197 C 
HETATM    2  C2  UNL     1     -35.828  14.456  -6.101  1.00 20.00     0.197 C 
HETATM    3  C3  UNL     1     -34.708  14.299  -4.149  1.00 20.00     0.263 C 
HETATM    4  O9  UNL     1     -33.720  14.466  -5.175  1.00 20.00    -0.359 OA
HETATM    5  O10 UNL     1     -36.017  14.525  -4.690  1.00 20.00    -0.359 OA
ENDROOT
BRANCH   3   6
HETATM    6  C8  UNL     1     -34.453  15.279  -3.021  1.00 20.00     0.037 C 
HETATM    7  C5  UNL     1     -35.635  16.241  -2.898  1.00 20.00     0.015 C 
BRANCH   6   8
HETATM    8  C7  UNL     1     -33.119  16.012  -3.259  1.00 20.00     0.009 C 
BRANCH   8   9
HETATM    9  C6  UNL     1     -33.186  17.511  -2.957  1.00 20.00    -0.004 C 
HETATM   10  C4  UNL     1     -32.522  17.840  -1.628  1.00 20.00     0.005 C 
ENDBRANCH   8   9
ENDBRANCH   6   8
ENDBRANCH   3   6
TORSDOF 3
ENDMDL
MODEL 7
REMARK VINA RESULT:      -3.9     11.432     12.206
REMARK  3 active torsions:
REMARK  status: ('A' for Active; 'I' for Inactive)
REMARK    1  A    between atoms: C3_3  and  C8_8 
REMARK    2  A    between atoms: C6_6  and  C7_7 
REMARK    3  A    between atoms: C7_7  and  C8_8 
ROOT
HETATM    1  C1  UNL     1     -35.631  14.501  -5.876  1.00 20.00     0.197 C 
HETATM    2  C2  UNL     1     -36.560  13.847  -4.889  1.00 20.00     0.197 C 
HETATM    3  C3  UNL     1     -34.771  14.669  -3.786  1.00 20.00     0.263 C 
HETATM    4  O9  UNL     1     -34.395  14.581  -5.167  1.00 20.00    -0.359 OA
HETATM    5  O10 UNL     1     -36.179  14.436  -3.648  1.00 20.00    -0.359 OA
ENDROOT
BRANCH   3   6
HETATM    6  C8  UNL     1     -34.432  16.044  -3.245  1.00 20.00     0.037 C 
HETATM    7  C5  UNL     1     -32.914  16.231  -3.233  1.00 20.00     0.015 C 
BRANCH   6   8
HETATM    8  C7  UNL     1     -35.059  16.226  -1.850  1.00 20.00     0.009 C 
BRANCH   8   9
HETATM    9  C6  UNL     1     -34.448  17.381  -1.053  1.00 20.00    -0.004 C 
HETATM   10  C4  UNL     1     -35.036  17.461   0.348  1.00 20.00     0.005 C 
ENDBRANCH   8   9
ENDBRANCH   6   8
ENDBRANCH   3   6
TORSDOF 3
ENDMDL
MODEL 8
REMARK VINA RESULT:      -3.9     11.454     12.631
REMARK  3 active torsions:
REMARK  status: ('A' for Active; 'I' for Inactive)
REMARK    1  A    between atoms: C3_3  and  C8_8 
REMARK    2  A    between atoms: C6_6  and  C7_7 
REMARK    3  A    between atoms: C7_7  and  C8_8 
ROOT
HETATM    1  C1  UNL     1     -38.410  15.922  -5.129  1.00 20.00     0.197 C 
HETATM    2  C2  UNL     1     -38.573  14.735  -4.218  1.00 20.00     0.197 C 
HETATM    3  C3  UNL     1     -36.548  14.631  -5.208  1.00 20.00     0.263 C 
HETATM    4  O9  UNL     1     -37.341  15.534  -5.992  1.00 20.00    -0.359 OA
HETATM    5  O10 UNL     1     -37.229  14.319  -3.986  1.00 20.00    -0.359 OA
ENDROOT
BRANCH   3   6
HETATM    6  C8  UNL     1     -35.208  15.265  -4.890  1.00 20.00     0.037 C 
HETATM    7  C5  UNL     1     -34.231  15.003  -6.038  1.00 20.00     0.015 C 
BRANCH   6   8
HETATM    8  C7  UNL     1     -34.687  14.736  -3.541  1.00 20.00     0.009 C 
BRANCH   8   9
HETATM    9  C6  UNL     1     -34.442  15.838  -2.508  1.00 20.00    -0.004 C 
HETATM   10  C4  UNL     1     -33.163  16.606  -2.808  1.00 20.00     0.005 C 
ENDBRANCH   8   9
ENDBRANCH   6   8
ENDBRANCH   3   6
TORSDOF 3
ENDMDL
MODEL 9
REMARK VINA RESULT:      -3.8     11.290     12.213
REMARK  3 active torsions:
REMARK  status: ('A' for Active; 'I' for Inactive)
REMARK    1  A    between atoms: C3_3  and  C8_8 
REMARK    2  A    between atoms: C6_6  and  C7_7 
REMARK    3  A    between atoms: C7_7  and  C8_8 
ROOT
HETATM    1  C1  UNL     1     -36.239  13.700  -4.905  1.00 20.00     0.197 C 
HETATM    2  C2  UNL     1     -37.089  14.667  -4.125  1.00 20.00     0.197 C 
HETATM    3  C3  UNL     1     -34.961  14.798  -3.389  1.00 20.00     0.263 C 
HETATM    4  O9  UNL     1     -35.074  13.553  -4.094  1.00 20.00    -0.359 OA
HETATM    5  O10 UNL     1     -36.135  15.590  -3.606  1.00 20.00    -0.359 OA
ENDROOT
BRANCH   3   6
HETATM    6  C8  UNL     1     -33.743  15.557  -3.877  1.00 20.00     0.037 C 
HETATM    7  C5  UNL     1     -32.689  14.570  -4.382  1.00 20.00     0.015 C 
BRANCH   6   8
HETATM    8  C7  UNL     1     -33.208  16.465  -2.753  1.00 20.00     0.009 C 
BRANCH   8   9
HETATM    9  C6  UNL     1     -33.152  17.945  -3.139  1.00 20.00    -0.004 C 
HETATM   10  C4  UNL     1     -33.780  18.187  -4.504  1.00 20.00     0.005 C 
ENDBRANCH   8   9
ENDBRANCH   6   8
ENDBRANCH   3   6
TORSDOF 3
ENDMDL
