MODEL 1
REMARK VINA RESULT:      -5.8      0.000      0.000
REMARK  1 active torsions:
REMARK  status: ('A' for Active; 'I' for Inactive)
REMARK    1  A    between atoms: C1_1  and  C7_7 
ROOT
HETATM    1  C2  UNL     1     -34.011   5.628   6.367  1.00 20.00     0.001 C 
HETATM    2  C3  UNL     1     -33.302   5.000   2.490  1.00 20.00     0.016 C 
HETATM    3  C4  UNL     1     -35.209   5.006   5.663  1.00 20.00     0.005 C 
HETATM    4  C5  UNL     1     -33.791   6.926   5.603  1.00 20.00     0.006 C 
HETATM    5  C6  UNL     1     -34.192   4.226   3.446  1.00 20.00     0.006 C 
HETATM    6  C7  UNL     1     -32.843   6.182   3.336  1.00 20.00     0.091 C 
HETATM    7  C8  UNL     1     -34.978   5.311   4.185  1.00 20.00    -0.010 C 
HETATM    8  C9  UNL     1     -34.088   6.575   4.143  1.00 20.00     0.004 C 
ENDROOT
BRANCH   6   9
HETATM    9  C1  UNL     1     -32.372   7.301   2.464  1.00 20.00     0.177 C 
HETATM   10  O10 UNL     1     -32.958   7.400   1.349  1.00 20.00    -0.648 OA
HETATM   11  O11 UNL     1     -31.445   8.003   2.957  1.00 20.00    -0.648 OA
ENDBRANCH   6   9
TORSDOF 1
ENDMDL
MODEL 2
REMARK VINA RESULT:      -5.7     11.494     12.440
REMARK  1 active torsions:
REMARK  status: ('A' for Active; 'I' for Inactive)
REMARK    1  A    between atoms: C1_1  and  C7_7 
ROOT
HETATM    1  C2  UNL     1     -34.445  17.183  -2.531  1.00 20.00     0.001 C 
HETATM    2  C3  UNL     1     -34.775  14.886  -5.778  1.00 20.00     0.016 C 
HETATM    3  C4  UNL     1     -33.086  16.776  -3.081  1.00 20.00     0.005 C 
HETATM    4  C5  UNL     1     -35.114  15.850  -2.229  1.00 20.00     0.006 C 
HETATM    5  C6  UNL     1     -33.684  15.873  -5.401  1.00 20.00     0.006 C 
HETATM    6  C7  UNL     1     -35.662  14.870  -4.539  1.00 20.00     0.091 C 
HETATM    7  C8  UNL     1     -33.378  15.547  -3.938  1.00 20.00    -0.010 C 
HETATM    8  C9  UNL     1     -34.673  14.925  -3.366  1.00 20.00     0.004 C 
ENDROOT
BRANCH   6   9
HETATM    9  C1  UNL     1     -36.495  13.630  -4.504  1.00 20.00     0.177 C 
HETATM   10  O10 UNL     1     -37.742  13.819  -4.450  1.00 20.00    -0.648 OA
HETATM   11  O11 UNL     1     -35.840  12.550  -4.533  1.00 20.00    -0.648 OA
ENDBRANCH   6   9
TORSDOF 1
ENDMDL
MODEL 3
REMARK VINA RESULT:      -5.7     11.511     12.390
REMARK  1 active torsions:
REMARK  status: ('A' for Active; 'I' for Inactive)
REMARK    1  A    between atoms: C1_1  and  C7_7 
ROOT
HETATM    1  C2  UNL     1     -35.301  17.945  -3.246  1.00 20.00     0.001 C 
HETATM    2  C3  UNL     1     -33.896  14.370  -4.329  1.00 20.00     0.016 C 
HETATM    3  C4  UNL     1     -34.137  17.502  -2.371  1.00 20.00     0.005 C 
HETATM    4  C5  UNL     1     -36.328  16.838  -3.050  1.00 20.00     0.006 C 
HETATM    5  C6  UNL     1     -33.165  15.547  -3.708  1.00 20.00     0.006 C 
HETATM    6  C7  UNL     1     -35.350  14.827  -4.313  1.00 20.00     0.091 C 
HETATM    7  C8  UNL     1     -34.077  15.988  -2.561  1.00 20.00    -0.010 C 
HETATM    8  C9  UNL     1     -35.503  15.551  -2.968  1.00 20.00     0.004 C 
ENDROOT
BRANCH   6   9
HETATM    9  C1  UNL     1     -36.271  13.655  -4.420  1.00 20.00     0.177 C 
HETATM   10  O10 UNL     1     -37.498  13.940  -4.510  1.00 20.00    -0.648 OA
HETATM   11  O11 UNL     1     -35.700  12.529  -4.407  1.00 20.00    -0.648 OA
ENDBRANCH   6   9
TORSDOF 1
ENDMDL
MODEL 4
REMARK VINA RESULT:      -5.1     15.658     16.587
REMARK  1 active torsions:
REMARK  status: ('A' for Active; 'I' for Inactive)
REMARK    1  A    between atoms: C1_1  and  C7_7 
ROOT
HETATM    1  C2  UNL     1     -25.061  16.267  11.915  1.00 20.00     0.001 C 
HETATM    2  C3  UNL     1     -24.555  18.909   8.967  1.00 20.00     0.016 C 
HETATM    3  C4  UNL     1     -25.474  17.671  12.332  1.00 20.00     0.005 C 
HETATM    4  C5  UNL     1     -23.596  16.432  11.533  1.00 20.00     0.006 C 
HETATM    5  C6  UNL     1     -25.581  18.897  10.086  1.00 20.00     0.006 C 
HETATM    6  C7  UNL     1     -23.655  17.731   9.319  1.00 20.00     0.091 C 
HETATM    7  C8  UNL     1     -24.760  18.586  11.339  1.00 20.00    -0.010 C 
HETATM    8  C9  UNL     1     -23.524  17.799  10.846  1.00 20.00     0.004 C 
ENDROOT
BRANCH   6   9
HETATM    9  C1  UNL     1     -22.328  17.862   8.642  1.00 20.00     0.177 C 
HETATM   10  O10 UNL     1     -21.661  18.887   8.956  1.00 20.00    -0.648 OA
HETATM   11  O11 UNL     1     -22.046  16.926   7.841  1.00 20.00    -0.648 OA
ENDBRANCH   6   9
TORSDOF 1
ENDMDL
MODEL 5
REMARK VINA RESULT:      -5.1     11.852     12.671
REMARK  1 active torsions:
REMARK  status: ('A' for Active; 'I' for Inactive)
REMARK    1  A    between atoms: C1_1  and  C7_7 
ROOT
HETATM    1  C2  UNL     1     -33.736  16.660  -2.855  1.00 20.00     0.001 C 
HETATM    2  C3  UNL     1     -35.763  14.970  -5.850  1.00 20.00     0.016 C 
HETATM    3  C4  UNL     1     -32.929  15.570  -3.546  1.00 20.00     0.005 C 
HETATM    4  C5  UNL     1     -34.976  15.923  -2.369  1.00 20.00     0.006 C 
HETATM    5  C6  UNL     1     -34.267  15.177  -5.693  1.00 20.00     0.006 C 
HETATM    6  C7  UNL     1     -36.312  15.438  -4.508  1.00 20.00     0.091 C 
HETATM    7  C8  UNL     1     -33.976  14.721  -4.262  1.00 20.00    -0.010 C 
HETATM    8  C9  UNL     1     -35.295  14.920  -3.482  1.00 20.00     0.004 C 
ENDROOT
BRANCH   6   9
HETATM    9  C1  UNL     1     -37.676  14.873  -4.272  1.00 20.00     0.177 C 
HETATM   10  O10 UNL     1     -37.774  13.622  -4.421  1.00 20.00    -0.648 OA
HETATM   11  O11 UNL     1     -38.555  15.722  -3.952  1.00 20.00    -0.648 OA
ENDBRANCH   6   9
TORSDOF 1
ENDMDL
MODEL 6
REMARK VINA RESULT:      -5.0     11.687     12.909
REMARK  1 active torsions:
REMARK  status: ('A' for Active; 'I' for Inactive)
REMARK    1  A    between atoms: C1_1  and  C7_7 
ROOT
HETATM    1  C2  UNL     1     -33.116  16.315  -3.068  1.00 20.00     0.001 C 
HETATM    2  C3  UNL     1     -37.030  16.174  -3.835  1.00 20.00     0.016 C 
HETATM    3  C4  UNL     1     -33.571  17.488  -3.924  1.00 20.00     0.005 C 
HETATM    4  C5  UNL     1     -33.497  15.102  -3.905  1.00 20.00     0.006 C 
HETATM    5  C6  UNL     1     -36.118  17.380  -3.689  1.00 20.00     0.006 C 
HETATM    6  C7  UNL     1     -36.059  15.003  -3.760  1.00 20.00     0.091 C 
HETATM    7  C8  UNL     1     -34.892  17.023  -4.531  1.00 20.00    -0.010 C 
HETATM    8  C9  UNL     1     -34.833  15.478  -4.552  1.00 20.00     0.004 C 
ENDROOT
BRANCH   6   9
HETATM    9  C1  UNL     1     -36.666  13.777  -4.362  1.00 20.00     0.177 C 
HETATM   10  O10 UNL     1     -37.915  13.828  -4.545  1.00 20.00    -0.648 OA
HETATM   11  O11 UNL     1     -35.849  12.846  -4.609  1.00 20.00    -0.648 OA
ENDBRANCH   6   9
TORSDOF 1
ENDMDL
MODEL 7
REMARK VINA RESULT:      -4.7     11.379     13.013
REMARK  1 active torsions:
REMARK  status: ('A' for Active; 'I' for Inactive)
REMARK    1  A    between atoms: C1_1  and  C7_7 
ROOT
HETATM    1  C2  UNL     1     -35.123  17.875  -5.331  1.00 20.00     0.001 C 
HETATM    2  C3  UNL     1     -34.033  14.336  -3.841  1.00 20.00     0.016 C 
HETATM    3  C4  UNL     1     -34.457  18.011  -3.969  1.00 20.00     0.005 C 
HETATM    4  C5  UNL     1     -36.318  16.975  -5.048  1.00 20.00     0.006 C 
HETATM    5  C6  UNL     1     -33.398  15.703  -3.646  1.00 20.00     0.006 C 
HETATM    6  C7  UNL     1     -35.291  14.657  -4.639  1.00 20.00     0.091 C 
HETATM    7  C8  UNL     1     -34.583  16.623  -3.346  1.00 20.00    -0.010 C 
HETATM    8  C9  UNL     1     -35.808  15.962  -4.019  1.00 20.00     0.004 C 
ENDROOT
BRANCH   6   9
HETATM    9  C1  UNL     1     -36.288  13.551  -4.515  1.00 20.00     0.177 C 
HETATM   10  O10 UNL     1     -35.798  12.390  -4.431  1.00 20.00    -0.648 OA
HETATM   11  O11 UNL     1     -37.495  13.922  -4.511  1.00 20.00    -0.648 OA
ENDBRANCH   6   9
TORSDOF 1
ENDMDL
MODEL 8
REMARK VINA RESULT:      -4.7     11.757     12.487
REMARK  1 active torsions:
REMARK  status: ('A' for Active; 'I' for Inactive)
REMARK    1  A    between atoms: C1_1  and  C7_7 
ROOT
HETATM    1  C2  UNL     1     -36.617  17.747  -2.832  1.00 20.00     0.001 C 
HETATM    2  C3  UNL     1     -33.038  16.018  -3.199  1.00 20.00     0.016 C 
HETATM    3  C4  UNL     1     -35.946  17.534  -1.482  1.00 20.00     0.005 C 
HETATM    4  C5  UNL     1     -36.712  16.339  -3.401  1.00 20.00     0.006 C 
HETATM    5  C6  UNL     1     -33.533  16.999  -2.150  1.00 20.00     0.006 C 
HETATM    6  C7  UNL     1     -34.293  15.731  -4.013  1.00 20.00     0.091 C 
HETATM    7  C8  UNL     1     -34.903  16.451  -1.745  1.00 20.00    -0.010 C 
HETATM    8  C9  UNL     1     -35.414  15.653  -2.967  1.00 20.00     0.004 C 
ENDROOT
BRANCH   6   9
HETATM    9  C1  UNL     1     -34.149  14.448  -4.767  1.00 20.00     0.177 C 
HETATM   10  O10 UNL     1     -33.716  14.562  -5.948  1.00 20.00    -0.648 OA
HETATM   11  O11 UNL     1     -34.479  13.413  -4.123  1.00 20.00    -0.648 OA
ENDBRANCH   6   9
TORSDOF 1
ENDMDL
MODEL 9
REMARK VINA RESULT:      -4.5     11.838     12.864
REMARK  1 active torsions:
REMARK  status: ('A' for Active; 'I' for Inactive)
REMARK    1  A    between atoms: C1_1  and  C7_7 
ROOT
HETATM    1  C2  UNL     1     -35.727  17.694  -2.445  1.00 20.00     0.001 C 
HETATM    2  C3  UNL     1     -33.890  15.106  -4.866  1.00 20.00     0.016 C 
HETATM    3  C4  UNL     1     -34.881  16.693  -1.671  1.00 20.00     0.005 C 
HETATM    4  C5  UNL     1     -36.711  16.811  -3.200  1.00 20.00     0.006 C 
HETATM    5  C6  UNL     1     -33.447  15.649  -3.518  1.00 20.00     0.006 C 
HETATM    6  C7  UNL     1     -35.293  15.681  -5.018  1.00 20.00     0.091 C 
HETATM    7  C8  UNL     1     -34.694  15.528  -2.640  1.00 20.00    -0.010 C 
HETATM    8  C9  UNL     1     -35.896  15.581  -3.610  1.00 20.00     0.004 C 
ENDROOT
BRANCH   6   9
HETATM    9  C1  UNL     1     -36.078  14.892  -6.016  1.00 20.00     0.177 C 
HETATM   10  O10 UNL     1     -36.790  15.576  -6.804  1.00 20.00    -0.648 OA
HETATM   11  O11 UNL     1     -35.928  13.640  -5.940  1.00 20.00    -0.648 OA
ENDBRANCH   6   9
TORSDOF 1
ENDMDL
