MODEL 1
REMARK VINA RESULT:      -4.2      0.000      0.000
REMARK  1 active torsions:
REMARK  status: ('A' for Active; 'I' for Inactive)
REMARK    1  A    between atoms: C2_2  and  O3_3 
ROOT
HETATM    1  C2  UNL     1     -34.942   5.202   4.705  1.00 20.00     0.524 C 
HETATM    2  F4  UNL     1     -35.210   4.986   6.010  1.00 20.00    -0.144 F 
HETATM    3  F5  UNL     1     -36.102   5.472   4.069  1.00 20.00    -0.144 F 
HETATM    4  F6  UNL     1     -34.402   4.080   4.187  1.00 20.00    -0.144 F 
ENDROOT
BRANCH   1   5
HETATM    5  O3  UNL     1     -34.042   6.291   4.589  1.00 20.00    -0.303 OA
HETATM    6  C1  UNL     1     -33.766   6.896   5.844  1.00 20.00     0.211 C 
ENDBRANCH   1   5
TORSDOF 1
ENDMDL
MODEL 2
REMARK VINA RESULT:      -4.2      0.019      1.552
REMARK  1 active torsions:
REMARK  status: ('A' for Active; 'I' for Inactive)
REMARK    1  A    between atoms: C2_2  and  O3_3 
ROOT
HETATM    1  C2  UNL     1     -34.937   5.200   4.724  1.00 20.00     0.524 C 
HETATM    2  F4  UNL     1     -36.090   5.473   4.076  1.00 20.00    -0.144 F 
HETATM    3  F5  UNL     1     -34.402   4.082   4.190  1.00 20.00    -0.144 F 
HETATM    4  F6  UNL     1     -35.219   4.982   6.025  1.00 20.00    -0.144 F 
ENDROOT
BRANCH   1   5
HETATM    5  O3  UNL     1     -34.052   6.297   4.579  1.00 20.00    -0.303 OA
HETATM    6  C1  UNL     1     -33.746   6.908   5.824  1.00 20.00     0.211 C 
ENDBRANCH   1   5
TORSDOF 1
ENDMDL
MODEL 3
REMARK VINA RESULT:      -4.2      0.022      1.547
REMARK  1 active torsions:
REMARK  status: ('A' for Active; 'I' for Inactive)
REMARK    1  A    between atoms: C2_2  and  O3_3 
ROOT
HETATM    1  C2  UNL     1     -34.946   5.207   4.719  1.00 20.00     0.524 C 
HETATM    2  F4  UNL     1     -34.385   4.092   4.202  1.00 20.00    -0.144 F 
HETATM    3  F5  UNL     1     -35.222   4.982   6.021  1.00 20.00    -0.144 F 
HETATM    4  F6  UNL     1     -36.094   5.456   4.056  1.00 20.00    -0.144 F 
ENDROOT
BRANCH   1   5
HETATM    5  O3  UNL     1     -34.042   6.289   4.578  1.00 20.00    -0.303 OA
HETATM    6  C1  UNL     1     -33.744   6.906   5.822  1.00 20.00     0.211 C 
ENDBRANCH   1   5
TORSDOF 1
ENDMDL
MODEL 4
REMARK VINA RESULT:      -4.1      1.099      2.068
REMARK  1 active torsions:
REMARK  status: ('A' for Active; 'I' for Inactive)
REMARK    1  A    between atoms: C2_2  and  O3_3 
ROOT
HETATM    1  C2  UNL     1     -34.819   5.273   4.558  1.00 20.00     0.524 C 
HETATM    2  F4  UNL     1     -34.438   4.023   4.217  1.00 20.00    -0.144 F 
HETATM    3  F5  UNL     1     -34.830   5.363   5.905  1.00 20.00    -0.144 F 
HETATM    4  F6  UNL     1     -36.065   5.485   4.088  1.00 20.00    -0.144 F 
ENDROOT
BRANCH   1   5
HETATM    5  O3  UNL     1     -33.907   6.204   4.001  1.00 20.00    -0.303 OA
HETATM    6  C1  UNL     1     -33.280   5.706   2.828  1.00 20.00     0.211 C 
ENDBRANCH   1   5
TORSDOF 1
ENDMDL
MODEL 5
REMARK VINA RESULT:      -4.0      1.122      1.452
REMARK  1 active torsions:
REMARK  status: ('A' for Active; 'I' for Inactive)
REMARK    1  A    between atoms: C2_2  and  O3_3 
ROOT
HETATM    1  C2  UNL     1     -34.749   5.186   4.363  1.00 20.00     0.524 C 
HETATM    2  F4  UNL     1     -36.032   5.459   4.043  1.00 20.00    -0.144 F 
HETATM    3  F5  UNL     1     -33.947   5.996   3.640  1.00 20.00    -0.144 F 
HETATM    4  F6  UNL     1     -34.491   3.902   4.041  1.00 20.00    -0.144 F 
ENDROOT
BRANCH   1   5
HETATM    5  O3  UNL     1     -34.560   5.403   5.751  1.00 20.00    -0.303 OA
HETATM    6  C1  UNL     1     -34.045   6.697   6.027  1.00 20.00     0.211 C 
ENDBRANCH   1   5
TORSDOF 1
ENDMDL
MODEL 6
REMARK VINA RESULT:      -3.5      3.083      3.523
REMARK  1 active torsions:
REMARK  status: ('A' for Active; 'I' for Inactive)
REMARK    1  A    between atoms: C2_2  and  O3_3 
ROOT
HETATM    1  C2  UNL     1     -32.732   6.786   2.902  1.00 20.00     0.524 C 
HETATM    2  F4  UNL     1     -32.524   5.535   2.436  1.00 20.00    -0.144 F 
HETATM    3  F5  UNL     1     -33.109   7.569   1.869  1.00 20.00    -0.144 F 
HETATM    4  F6  UNL     1     -31.573   7.250   3.412  1.00 20.00    -0.144 F 
ENDROOT
BRANCH   1   5
HETATM    5  O3  UNL     1     -33.740   6.750   3.897  1.00 20.00    -0.303 OA
HETATM    6  C1  UNL     1     -34.380   5.484   3.967  1.00 20.00     0.211 C 
ENDBRANCH   1   5
TORSDOF 1
ENDMDL
MODEL 7
REMARK VINA RESULT:      -3.5      1.746      2.474
REMARK  1 active torsions:
REMARK  status: ('A' for Active; 'I' for Inactive)
REMARK    1  A    between atoms: C2_2  and  O3_3 
ROOT
HETATM    1  C2  UNL     1     -34.431   5.755   5.936  1.00 20.00     0.524 C 
HETATM    2  F4  UNL     1     -35.509   6.009   6.708  1.00 20.00    -0.144 F 
HETATM    3  F5  UNL     1     -33.903   4.572   6.315  1.00 20.00    -0.144 F 
HETATM    4  F6  UNL     1     -33.522   6.732   6.134  1.00 20.00    -0.144 F 
ENDROOT
BRANCH   1   5
HETATM    5  O3  UNL     1     -34.833   5.712   4.578  1.00 20.00    -0.303 OA
HETATM    6  C1  UNL     1     -34.435   4.509   3.937  1.00 20.00     0.211 C 
ENDBRANCH   1   5
TORSDOF 1
ENDMDL
MODEL 8
REMARK VINA RESULT:      -3.4      5.422      5.808
REMARK  1 active torsions:
REMARK  status: ('A' for Active; 'I' for Inactive)
REMARK    1  A    between atoms: C2_2  and  O3_3 
ROOT
HETATM    1  C2  UNL     1     -32.748   8.560   0.508  1.00 20.00     0.524 C 
HETATM    2  F4  UNL     1     -32.512   9.889   0.554  1.00 20.00    -0.144 F 
HETATM    3  F5  UNL     1     -31.594   7.932   0.199  1.00 20.00    -0.144 F 
HETATM    4  F6  UNL     1     -33.658   8.320  -0.459  1.00 20.00    -0.144 F 
ENDROOT
BRANCH   1   5
HETATM    5  O3  UNL     1     -33.231   8.129   1.768  1.00 20.00    -0.303 OA
HETATM    6  C1  UNL     1     -32.405   7.130   2.348  1.00 20.00     0.211 C 
ENDBRANCH   1   5
TORSDOF 1
ENDMDL
MODEL 9
REMARK VINA RESULT:      -3.2      8.650      9.303
REMARK  1 active torsions:
REMARK  status: ('A' for Active; 'I' for Inactive)
REMARK    1  A    between atoms: C2_2  and  O3_3 
ROOT
HETATM    1  C2  UNL     1     -41.528   8.880   0.271  1.00 20.00     0.524 C 
HETATM    2  F4  UNL     1     -41.003   7.940   1.086  1.00 20.00    -0.144 F 
HETATM    3  F5  UNL     1     -41.129   8.621  -0.993  1.00 20.00    -0.144 F 
HETATM    4  F6  UNL     1     -41.057  10.086   0.648  1.00 20.00    -0.144 F 
ENDROOT
BRANCH   1   5
HETATM    5  O3  UNL     1     -42.941   8.841   0.367  1.00 20.00    -0.303 OA
HETATM    6  C1  UNL     1     -43.415   7.575   0.804  1.00 20.00     0.211 C 
ENDBRANCH   1   5
TORSDOF 1
ENDMDL
