MODEL 1
REMARK VINA RESULT:      -5.7      0.000      0.000
REMARK  0 active torsions:
REMARK  status: ('A' for Active; 'I' for Inactive)
ROOT
HETATM    1  C1  UNL     1     -26.057  19.259   7.836  1.00 20.00     0.002 A 
HETATM    2  C2  UNL     1     -24.837  18.840   7.294  1.00 20.00     0.016 A 
HETATM    3  C3  UNL     1     -26.312  19.161   9.221  1.00 20.00     0.007 A 
HETATM    4  C4  UNL     1     -23.918  18.295   8.166  1.00 20.00     0.017 A 
HETATM    5  C5  UNL     1     -25.361  18.604  10.083  1.00 20.00    -0.051 A 
HETATM    6  C6  UNL     1     -24.187  18.140   9.515  1.00 20.00    -0.033 A 
HETATM    7  C7  UNL     1     -22.525  17.913   7.964  1.00 20.00     0.160 C 
HETATM    8  C8  UNL     1     -25.507  18.615  11.580  1.00 20.00     0.039 C 
HETATM    9  C9  UNL     1     -21.881  17.660   9.320  1.00 20.00     0.093 C 
HETATM   10  C10 UNL     1     -24.383  17.867  12.332  1.00 20.00     0.005 C 
HETATM   11  C11 UNL     1     -23.001  18.014  11.667  1.00 20.00     0.010 C 
HETATM   12  C12 UNL     1     -23.083  17.452  10.253  1.00 20.00     0.027 C 
HETATM   13  O13 UNL     1     -21.972  17.877   6.880  1.00 20.00    -0.292 OA
ENDROOT
TORSDOF 0
ENDMDL
MODEL 2
REMARK VINA RESULT:      -5.4     15.663     17.693
REMARK  0 active torsions:
REMARK  status: ('A' for Active; 'I' for Inactive)
ROOT
HETATM    1  C1  UNL     1     -38.338  16.278  -3.966  1.00 20.00     0.002 A 
HETATM    2  C2  UNL     1     -37.786  15.027  -4.264  1.00 20.00     0.016 A 
HETATM    3  C3  UNL     1     -37.560  17.296  -3.374  1.00 20.00     0.007 A 
HETATM    4  C4  UNL     1     -36.467  14.825  -3.919  1.00 20.00     0.017 A 
HETATM    5  C5  UNL     1     -36.222  17.064  -3.035  1.00 20.00    -0.051 A 
HETATM    6  C6  UNL     1     -35.716  15.799  -3.283  1.00 20.00    -0.033 A 
HETATM    7  C7  UNL     1     -35.561  13.722  -4.222  1.00 20.00     0.160 C 
HETATM    8  C8  UNL     1     -35.300  18.149  -2.550  1.00 20.00     0.039 C 
HETATM    9  C9  UNL     1     -34.139  14.141  -3.875  1.00 20.00     0.093 C 
HETATM   10  C10 UNL     1     -33.893  17.654  -2.149  1.00 20.00     0.005 C 
HETATM   11  C11 UNL     1     -33.373  16.507  -3.037  1.00 20.00     0.010 C 
HETATM   12  C12 UNL     1     -34.340  15.335  -2.929  1.00 20.00     0.027 C 
HETATM   13  O13 UNL     1     -35.904  12.672  -4.733  1.00 20.00    -0.292 OA
ENDROOT
TORSDOF 0
ENDMDL
MODEL 3
REMARK VINA RESULT:      -5.3      2.161      3.474
REMARK  0 active torsions:
REMARK  status: ('A' for Active; 'I' for Inactive)
ROOT
HETATM    1  C1  UNL     1     -24.713  19.097   7.757  1.00 20.00     0.002 A 
HETATM    2  C2  UNL     1     -25.801  19.263   8.621  1.00 20.00     0.016 A 
HETATM    3  C3  UNL     1     -23.460  18.661   8.238  1.00 20.00     0.007 A 
HETATM    4  C4  UNL     1     -25.583  19.018   9.960  1.00 20.00     0.017 A 
HETATM    5  C5  UNL     1     -23.266  18.419   9.603  1.00 20.00    -0.051 A 
HETATM    6  C6  UNL     1     -24.340  18.649  10.446  1.00 20.00    -0.033 A 
HETATM    7  C7  UNL     1     -26.516  18.944  11.079  1.00 20.00     0.160 C 
HETATM    8  C8  UNL     1     -22.008  17.805  10.155  1.00 20.00     0.039 C 
HETATM    9  C9  UNL     1     -25.799  18.340  12.279  1.00 20.00     0.093 C 
HETATM   10  C10 UNL     1     -21.973  17.712  11.697  1.00 20.00     0.005 C 
HETATM   11  C11 UNL     1     -23.347  17.406  12.322  1.00 20.00     0.010 C 
HETATM   12  C12 UNL     1     -24.313  18.519  11.935  1.00 20.00     0.027 C 
HETATM   13  O13 UNL     1     -27.689  19.259  11.017  1.00 20.00    -0.292 OA
ENDROOT
TORSDOF 0
ENDMDL
MODEL 4
REMARK VINA RESULT:      -5.2     15.571     17.682
REMARK  0 active torsions:
REMARK  status: ('A' for Active; 'I' for Inactive)
ROOT
HETATM    1  C1  UNL     1     -37.786  17.993  -3.622  1.00 20.00     0.002 A 
HETATM    2  C2  UNL     1     -37.950  16.638  -3.926  1.00 20.00     0.016 A 
HETATM    3  C3  UNL     1     -36.537  18.501  -3.204  1.00 20.00     0.007 A 
HETATM    4  C4  UNL     1     -36.852  15.820  -3.762  1.00 20.00     0.017 A 
HETATM    5  C5  UNL     1     -35.438  17.648  -3.047  1.00 20.00    -0.051 A 
HETATM    6  C6  UNL     1     -35.641  16.301  -3.293  1.00 20.00    -0.033 A 
HETATM    7  C7  UNL     1     -36.641  14.424  -4.130  1.00 20.00     0.160 C 
HETATM    8  C8  UNL     1     -34.048  18.147  -2.757  1.00 20.00     0.039 C 
HETATM    9  C9  UNL     1     -35.157  14.102  -4.011  1.00 20.00     0.093 C 
HETATM   10  C10 UNL     1     -33.007  17.029  -2.533  1.00 20.00     0.005 C 
HETATM   11  C11 UNL     1     -33.238  15.792  -3.423  1.00 20.00     0.010 C 
HETATM   12  C12 UNL     1     -34.618  15.226  -3.114  1.00 20.00     0.027 C 
HETATM   13  O13 UNL     1     -37.516  13.678  -4.528  1.00 20.00    -0.292 OA
ENDROOT
TORSDOF 0
ENDMDL
MODEL 5
REMARK VINA RESULT:      -5.1     10.993     13.372
REMARK  0 active torsions:
REMARK  status: ('A' for Active; 'I' for Inactive)
ROOT
HETATM    1  C1  UNL     1     -32.944  18.540   3.014  1.00 20.00     0.002 A 
HETATM    2  C2  UNL     1     -31.946  18.602   2.036  1.00 20.00     0.016 A 
HETATM    3  C3  UNL     1     -34.285  18.266   2.670  1.00 20.00     0.007 A 
HETATM    4  C4  UNL     1     -32.338  18.421   0.726  1.00 20.00     0.017 A 
HETATM    5  C5  UNL     1     -34.656  18.086   1.332  1.00 20.00    -0.051 A 
HETATM    6  C6  UNL     1     -33.662  18.213   0.378  1.00 20.00    -0.033 A 
HETATM    7  C7  UNL     1     -31.549  18.271  -0.492  1.00 20.00     0.160 C 
HETATM    8  C8  UNL     1     -36.031  17.638   0.916  1.00 20.00     0.039 C 
HETATM    9  C9  UNL     1     -32.460  17.788  -1.613  1.00 20.00     0.093 C 
HETATM   10  C10 UNL     1     -36.246  17.592  -0.613  1.00 20.00     0.005 C 
HETATM   11  C11 UNL     1     -34.995  17.146  -1.393  1.00 20.00     0.010 C 
HETATM   12  C12 UNL     1     -33.867  18.128  -1.101  1.00 20.00     0.027 C 
HETATM   13  O13 UNL     1     -30.346  18.444  -0.558  1.00 20.00    -0.292 OA
ENDROOT
TORSDOF 0
ENDMDL
MODEL 6
REMARK VINA RESULT:      -5.1     16.305     18.213
REMARK  0 active torsions:
REMARK  status: ('A' for Active; 'I' for Inactive)
ROOT
HETATM    1  C1  UNL     1     -33.164  15.922  -3.392  1.00 20.00     0.002 A 
HETATM    2  C2  UNL     1     -33.821  14.760  -3.811  1.00 20.00     0.016 A 
HETATM    3  C3  UNL     1     -33.864  17.137  -3.230  1.00 20.00     0.007 A 
HETATM    4  C4  UNL     1     -35.166  14.866  -4.092  1.00 20.00     0.017 A 
HETATM    5  C5  UNL     1     -35.231  17.217  -3.522  1.00 20.00    -0.051 A 
HETATM    6  C6  UNL     1     -35.845  16.069  -3.994  1.00 20.00    -0.033 A 
HETATM    7  C7  UNL     1     -36.160  13.841  -4.391  1.00 20.00     0.160 C 
HETATM    8  C8  UNL     1     -36.063  18.433  -3.223  1.00 20.00     0.039 C 
HETATM    9  C9  UNL     1     -37.549  14.462  -4.313  1.00 20.00     0.093 C 
HETATM   10  C10 UNL     1     -37.526  18.336  -3.710  1.00 20.00     0.005 C 
HETATM   11  C11 UNL     1     -38.117  16.919  -3.588  1.00 20.00     0.010 C 
HETATM   12  C12 UNL     1     -37.273  15.968  -4.427  1.00 20.00     0.027 C 
HETATM   13  O13 UNL     1     -35.899  12.671  -4.599  1.00 20.00    -0.292 OA
ENDROOT
TORSDOF 0
ENDMDL
MODEL 7
REMARK VINA RESULT:      -5.1      1.328      2.305
REMARK  0 active torsions:
REMARK  status: ('A' for Active; 'I' for Inactive)
ROOT
HETATM    1  C1  UNL     1     -27.135  19.212  10.849  1.00 20.00     0.002 A 
HETATM    2  C2  UNL     1     -26.834  19.263   9.484  1.00 20.00     0.016 A 
HETATM    3  C3  UNL     1     -26.187  18.753  11.788  1.00 20.00     0.007 A 
HETATM    4  C4  UNL     1     -25.589  18.810   9.099  1.00 20.00     0.017 A 
HETATM    5  C5  UNL     1     -24.931  18.300  11.370  1.00 20.00    -0.051 A 
HETATM    6  C6  UNL     1     -24.678  18.301  10.009  1.00 20.00    -0.033 A 
HETATM    7  C7  UNL     1     -24.912  18.869   7.808  1.00 20.00     0.160 C 
HETATM    8  C8  UNL     1     -23.826  17.948  12.329  1.00 20.00     0.039 C 
HETATM    9  C9  UNL     1     -23.445  18.512   8.004  1.00 20.00     0.093 C 
HETATM   10  C10 UNL     1     -22.556  17.385  11.653  1.00 20.00     0.005 C 
HETATM   11  C11 UNL     1     -22.249  18.037  10.291  1.00 20.00     0.010 C 
HETATM   12  C12 UNL     1     -23.431  17.793   9.361  1.00 20.00     0.027 C 
HETATM   13  O13 UNL     1     -25.442  19.217   6.769  1.00 20.00    -0.292 OA
ENDROOT
TORSDOF 0
ENDMDL
MODEL 8
REMARK VINA RESULT:      -5.0     15.811     18.067
REMARK  0 active torsions:
REMARK  status: ('A' for Active; 'I' for Inactive)
ROOT
HETATM    1  C1  UNL     1     -34.330  17.115  -2.020  1.00 20.00     0.002 A 
HETATM    2  C2  UNL     1     -33.937  15.912  -2.615  1.00 20.00     0.016 A 
HETATM    3  C3  UNL     1     -35.633  17.627  -2.203  1.00 20.00     0.007 A 
HETATM    4  C4  UNL     1     -34.863  15.274  -3.413  1.00 20.00     0.017 A 
HETATM    5  C5  UNL     1     -36.553  16.959  -3.018  1.00 20.00    -0.051 A 
HETATM    6  C6  UNL     1     -36.121  15.803  -3.645  1.00 20.00    -0.033 A 
HETATM    7  C7  UNL     1     -34.834  13.956  -4.039  1.00 20.00     0.160 C 
HETATM    8  C8  UNL     1     -37.998  17.366  -3.127  1.00 20.00     0.039 C 
HETATM    9  C9  UNL     1     -36.229  13.621  -4.547  1.00 20.00     0.093 C 
HETATM   10  C10 UNL     1     -38.812  16.545  -4.152  1.00 20.00     0.005 C 
HETATM   11  C11 UNL     1     -38.396  15.062  -4.215  1.00 20.00     0.010 C 
HETATM   12  C12 UNL     1     -36.926  14.988  -4.606  1.00 20.00     0.027 C 
HETATM   13  O13 UNL     1     -33.855  13.234  -4.075  1.00 20.00    -0.292 OA
ENDROOT
TORSDOF 0
ENDMDL
MODEL 9
REMARK VINA RESULT:      -5.0     11.458     13.693
REMARK  0 active torsions:
REMARK  status: ('A' for Active; 'I' for Inactive)
ROOT
HETATM    1  C1  UNL     1     -34.317  16.867  -2.154  1.00 20.00     0.002 A 
HETATM    2  C2  UNL     1     -35.234  17.022  -1.108  1.00 20.00     0.016 A 
HETATM    3  C3  UNL     1     -32.985  17.317  -2.029  1.00 20.00     0.007 A 
HETATM    4  C4  UNL     1     -34.788  17.665   0.027  1.00 20.00     0.017 A 
HETATM    5  C5  UNL     1     -32.559  17.966  -0.865  1.00 20.00    -0.051 A 
HETATM    6  C6  UNL     1     -33.500  18.163   0.131  1.00 20.00    -0.033 A 
HETATM    7  C7  UNL     1     -35.421  17.848   1.329  1.00 20.00     0.160 C 
HETATM    8  C8  UNL     1     -31.121  18.327  -0.608  1.00 20.00     0.039 C 
HETATM    9  C9  UNL     1     -34.378  18.353   2.317  1.00 20.00     0.093 C 
HETATM   10  C10 UNL     1     -30.890  19.118   0.698  1.00 20.00     0.005 C 
HETATM   11  C11 UNL     1     -31.817  18.682   1.849  1.00 20.00     0.010 C 
HETATM   12  C12 UNL     1     -33.261  18.895   1.413  1.00 20.00     0.027 C 
HETATM   13  O13 UNL     1     -36.579  17.570   1.575  1.00 20.00    -0.292 OA
ENDROOT
TORSDOF 0
ENDMDL
