MODEL 1
REMARK VINA RESULT:      -3.9      0.000      0.000
REMARK  2 active torsions:
REMARK  status: ('A' for Active; 'I' for Inactive)
REMARK    1  A    between atoms: C3_3  and  C6_6 
REMARK    2  A    between atoms: C6_6  and  C7_7 
ROOT
HETATM    1  C1  UNL     1     -34.051  15.321  -7.180  1.00 20.00     0.281 C 
HETATM    2  C2  UNL     1     -35.455  14.741  -7.122  1.00 20.00     0.106 C 
HETATM    3  C3  UNL     1     -34.153  14.973  -4.843  1.00 20.00     0.282 C 
HETATM    4  N8  UNL     1     -33.297  14.810  -6.027  1.00 20.00     0.098 N 
HETATM    5  S9  UNL     1     -35.887  14.825  -5.370  1.00 20.00    -0.132 SA
HETATM    6  H24 UNL     1     -33.058  13.829  -6.161  1.00 20.00     0.317 HD
ENDROOT
BRANCH   3   7
HETATM    7  C6  UNL     1     -33.911  16.324  -4.177  1.00 20.00     0.050 C 
BRANCH   7   8
HETATM    8  C7  UNL     1     -33.674  16.230  -2.660  1.00 20.00    -0.020 C 
HETATM    9  C4  UNL     1     -32.877  17.418  -2.120  1.00 20.00     0.009 C 
HETATM   10  C5  UNL     1     -35.015  16.133  -1.929  1.00 20.00     0.009 C 
ENDBRANCH   7   8
ENDBRANCH   3   7
TORSDOF 2
ENDMDL
MODEL 2
REMARK VINA RESULT:      -3.8      1.110      1.415
REMARK  2 active torsions:
REMARK  status: ('A' for Active; 'I' for Inactive)
REMARK    1  A    between atoms: C3_3  and  C6_6 
REMARK    2  A    between atoms: C6_6  and  C7_7 
ROOT
HETATM    1  C1  UNL     1     -34.347  15.345  -6.417  1.00 20.00     0.281 C 
HETATM    2  C2  UNL     1     -35.603  14.515  -6.203  1.00 20.00     0.106 C 
HETATM    3  C3  UNL     1     -33.812  14.512  -4.269  1.00 20.00     0.282 C 
HETATM    4  N8  UNL     1     -33.267  14.757  -5.612  1.00 20.00     0.098 N 
HETATM    5  S9  UNL     1     -35.589  14.157  -4.433  1.00 20.00    -0.132 SA
HETATM    6  H24 UNL     1     -32.942  13.886  -6.028  1.00 20.00     0.317 HD
ENDROOT
BRANCH   3   7
HETATM    7  C6  UNL     1     -33.592  15.719  -3.362  1.00 20.00     0.050 C 
BRANCH   7   8
HETATM    8  C7  UNL     1     -34.896  16.416  -2.936  1.00 20.00    -0.020 C 
HETATM    9  C4  UNL     1     -35.036  16.512  -1.416  1.00 20.00     0.009 C 
HETATM   10  C5  UNL     1     -34.962  17.816  -3.550  1.00 20.00     0.009 C 
ENDBRANCH   7   8
ENDBRANCH   3   7
TORSDOF 2
ENDMDL
MODEL 3
REMARK VINA RESULT:      -3.5      2.030      2.305
REMARK  2 active torsions:
REMARK  status: ('A' for Active; 'I' for Inactive)
REMARK    1  A    between atoms: C3_3  and  C6_6 
REMARK    2  A    between atoms: C6_6  and  C7_7 
ROOT
HETATM    1  C1  UNL     1     -36.305  13.757  -4.690  1.00 20.00     0.281 C 
HETATM    2  C2  UNL     1     -35.870  14.486  -5.952  1.00 20.00     0.106 C 
HETATM    3  C3  UNL     1     -35.769  15.832  -3.688  1.00 20.00     0.282 C 
HETATM    4  N8  UNL     1     -36.774  14.758  -3.722  1.00 20.00     0.098 N 
HETATM    5  S9  UNL     1     -35.002  15.944  -5.333  1.00 20.00    -0.132 SA
HETATM    6  H24 UNL     1     -37.681  15.129  -3.999  1.00 20.00     0.317 HD
ENDROOT
BRANCH   3   7
HETATM    7  C6  UNL     1     -34.712  15.557  -2.624  1.00 20.00     0.050 C 
BRANCH   7   8
HETATM    8  C7  UNL     1     -34.350  16.792  -1.781  1.00 20.00    -0.020 C 
HETATM    9  C4  UNL     1     -32.998  17.390  -2.174  1.00 20.00     0.009 C 
HETATM   10  C5  UNL     1     -35.443  17.854  -1.918  1.00 20.00     0.009 C 
ENDBRANCH   7   8
ENDBRANCH   3   7
TORSDOF 2
ENDMDL
MODEL 4
REMARK VINA RESULT:      -3.5      1.491      1.974
REMARK  2 active torsions:
REMARK  status: ('A' for Active; 'I' for Inactive)
REMARK    1  A    between atoms: C3_3  and  C6_6 
REMARK    2  A    between atoms: C6_6  and  C7_7 
ROOT
HETATM    1  C1  UNL     1     -34.392  15.189  -6.991  1.00 20.00     0.281 C 
HETATM    2  C2  UNL     1     -34.982  16.581  -7.150  1.00 20.00     0.106 C 
HETATM    3  C3  UNL     1     -36.036  15.032  -5.297  1.00 20.00     0.282 C 
HETATM    4  N8  UNL     1     -35.432  14.314  -6.429  1.00 20.00     0.098 N 
HETATM    5  S9  UNL     1     -35.954  16.815  -5.646  1.00 20.00    -0.132 SA
HETATM    6  H24 UNL     1     -36.137  14.098  -7.130  1.00 20.00     0.317 HD
ENDROOT
BRANCH   3   7
HETATM    7  C6  UNL     1     -35.310  14.710  -3.995  1.00 20.00     0.050 C 
BRANCH   7   8
HETATM    8  C7  UNL     1     -34.622  15.928  -3.356  1.00 20.00    -0.020 C 
HETATM    9  C4  UNL     1     -35.022  16.123  -1.892  1.00 20.00     0.009 C 
HETATM   10  C5  UNL     1     -33.102  15.781  -3.460  1.00 20.00     0.009 C 
ENDBRANCH   7   8
ENDBRANCH   3   7
TORSDOF 2
ENDMDL
MODEL 5
REMARK VINA RESULT:      -3.5      1.726      2.314
REMARK  2 active torsions:
REMARK  status: ('A' for Active; 'I' for Inactive)
REMARK    1  A    between atoms: C3_3  and  C6_6 
REMARK    2  A    between atoms: C6_6  and  C7_7 
ROOT
HETATM    1  C1  UNL     1     -34.668  16.276  -5.589  1.00 20.00     0.281 C 
HETATM    2  C2  UNL     1     -33.922  15.007  -5.973  1.00 20.00     0.106 C 
HETATM    3  C3  UNL     1     -33.335  16.090  -3.643  1.00 20.00     0.282 C 
HETATM    4  N8  UNL     1     -33.824  17.037  -4.657  1.00 20.00     0.098 N 
HETATM    5  S9  UNL     1     -33.180  14.454  -4.423  1.00 20.00    -0.132 SA
HETATM    6  H24 UNL     1     -33.043  17.467  -5.148  1.00 20.00     0.317 HD
ENDROOT
BRANCH   3   7
HETATM    7  C6  UNL     1     -34.286  16.026  -2.452  1.00 20.00     0.050 C 
BRANCH   7   8
HETATM    8  C7  UNL     1     -34.357  17.336  -1.649  1.00 20.00    -0.020 C 
HETATM    9  C4  UNL     1     -35.144  17.179  -0.347  1.00 20.00     0.009 C 
HETATM   10  C5  UNL     1     -32.944  17.836  -1.342  1.00 20.00     0.009 C 
ENDBRANCH   7   8
ENDBRANCH   3   7
TORSDOF 2
ENDMDL
MODEL 6
REMARK VINA RESULT:      -3.4      1.620      1.792
REMARK  2 active torsions:
REMARK  status: ('A' for Active; 'I' for Inactive)
REMARK    1  A    between atoms: C3_3  and  C6_6 
REMARK    2  A    between atoms: C6_6  and  C7_7 
ROOT
HETATM    1  C1  UNL     1     -36.667  15.853  -6.249  1.00 20.00     0.281 C 
HETATM    2  C2  UNL     1     -35.750  15.416  -7.380  1.00 20.00     0.106 C 
HETATM    3  C3  UNL     1     -34.613  16.103  -5.104  1.00 20.00     0.282 C 
HETATM    4  N8  UNL     1     -35.908  16.749  -5.365  1.00 20.00     0.098 N 
HETATM    5  S9  UNL     1     -34.169  15.111  -6.563  1.00 20.00    -0.132 SA
HETATM    6  H24 UNL     1     -35.771  17.656  -5.805  1.00 20.00     0.317 HD
ENDROOT
BRANCH   3   7
HETATM    7  C6  UNL     1     -34.681  15.223  -3.861  1.00 20.00     0.050 C 
BRANCH   7   8
HETATM    8  C7  UNL     1     -34.042  15.863  -2.617  1.00 20.00    -0.020 C 
HETATM    9  C4  UNL     1     -33.059  16.979  -2.974  1.00 20.00     0.009 C 
HETATM   10  C5  UNL     1     -35.134  16.412  -1.695  1.00 20.00     0.009 C 
ENDBRANCH   7   8
ENDBRANCH   3   7
TORSDOF 2
ENDMDL
MODEL 7
REMARK VINA RESULT:      -3.4     16.223     17.852
REMARK  2 active torsions:
REMARK  status: ('A' for Active; 'I' for Inactive)
REMARK    1  A    between atoms: C3_3  and  C6_6 
REMARK    2  A    between atoms: C6_6  and  C7_7 
ROOT
HETATM    1  C1  UNL     1     -25.633  19.102   8.231  1.00 20.00     0.281 C 
HETATM    2  C2  UNL     1     -24.535  19.237   7.188  1.00 20.00     0.106 C 
HETATM    3  C3  UNL     1     -23.821  18.418   9.588  1.00 20.00     0.282 C 
HETATM    4  N8  UNL     1     -25.024  19.263   9.559  1.00 20.00     0.098 N 
HETATM    5  S9  UNL     1     -23.145  18.334   7.902  1.00 20.00    -0.132 SA
HETATM    6  H24 UNL     1     -24.779  20.236   9.726  1.00 20.00     0.317 HD
ENDROOT
BRANCH   3   7
HETATM    7  C6  UNL     1     -24.148  17.019  10.102  1.00 20.00     0.050 C 
BRANCH   7   8
HETATM    8  C7  UNL     1     -24.071  16.892  11.633  1.00 20.00    -0.020 C 
HETATM    9  C4  UNL     1     -23.079  17.878  12.252  1.00 20.00     0.009 C 
HETATM   10  C5  UNL     1     -25.459  17.104  12.243  1.00 20.00     0.009 C 
ENDBRANCH   7   8
ENDBRANCH   3   7
TORSDOF 2
ENDMDL
MODEL 8
REMARK VINA RESULT:      -3.3      3.059      4.905
REMARK  2 active torsions:
REMARK  status: ('A' for Active; 'I' for Inactive)
REMARK    1  A    between atoms: C3_3  and  C6_6 
REMARK    2  A    between atoms: C6_6  and  C7_7 
ROOT
HETATM    1  C1  UNL     1     -35.700  18.204  -1.193  1.00 20.00     0.281 C 
HETATM    2  C2  UNL     1     -34.298  18.787  -1.266  1.00 20.00     0.106 C 
HETATM    3  C3  UNL     1     -34.582  16.251  -1.923  1.00 20.00     0.282 C 
HETATM    4  N8  UNL     1     -35.582  16.756  -0.969  1.00 20.00     0.098 N 
HETATM    5  S9  UNL     1     -33.373  17.574  -2.232  1.00 20.00    -0.132 SA
HETATM    6  H24 UNL     1     -35.291  16.563  -0.014  1.00 20.00     0.317 HD
ENDROOT
BRANCH   3   7
HETATM    7  C6  UNL     1     -35.243  15.817  -3.228  1.00 20.00     0.050 C 
BRANCH   7   8
HETATM    8  C7  UNL     1     -34.844  14.402  -3.679  1.00 20.00    -0.020 C 
HETATM    9  C4  UNL     1     -35.952  13.709  -4.473  1.00 20.00     0.009 C 
HETATM   10  C5  UNL     1     -33.567  14.465  -4.521  1.00 20.00     0.009 C 
ENDBRANCH   7   8
ENDBRANCH   3   7
TORSDOF 2
ENDMDL
MODEL 9
REMARK VINA RESULT:      -3.3      2.600      3.240
REMARK  2 active torsions:
REMARK  status: ('A' for Active; 'I' for Inactive)
REMARK    1  A    between atoms: C3_3  and  C6_6 
REMARK    2  A    between atoms: C6_6  and  C7_7 
ROOT
HETATM    1  C1  UNL     1     -38.099  16.653  -3.700  1.00 20.00     0.281 C 
HETATM    2  C2  UNL     1     -38.506  15.352  -4.374  1.00 20.00     0.106 C 
HETATM    3  C3  UNL     1     -35.925  15.830  -4.139  1.00 20.00     0.282 C 
HETATM    4  N8  UNL     1     -36.770  17.032  -4.202  1.00 20.00     0.098 N 
HETATM    5  S9  UNL     1     -36.988  14.374  -4.383  1.00 20.00    -0.132 SA
HETATM    6  H24 UNL     1     -36.833  17.373  -5.159  1.00 20.00     0.317 HD
ENDROOT
BRANCH   3   7
HETATM    7  C6  UNL     1     -35.199  15.743  -2.801  1.00 20.00     0.050 C 
BRANCH   7   8
HETATM    8  C7  UNL     1     -33.666  15.790  -2.927  1.00 20.00    -0.020 C 
HETATM    9  C4  UNL     1     -33.156  15.003  -4.135  1.00 20.00     0.009 C 
HETATM   10  C5  UNL     1     -33.196  17.244  -3.021  1.00 20.00     0.009 C 
ENDBRANCH   7   8
ENDBRANCH   3   7
TORSDOF 2
ENDMDL
