MODEL 1
REMARK VINA RESULT:      -4.9      0.000      0.000
REMARK  3 active torsions:
REMARK  status: ('A' for Active; 'I' for Inactive)
REMARK    1  A    between atoms: C4_4  and  C11_11 
REMARK    2  A    between atoms: C5_5  and  C9_9 
REMARK    3  A    between atoms: C8_8  and  C11_11 
ROOT
HETATM    1  C1  UNL     1     -34.420  17.143  -6.379  1.00 20.00    -0.030 C 
HETATM    2  C2  UNL     1     -34.644  17.167  -5.058  1.00 20.00    -0.025 C 
HETATM    3  C6  UNL     1     -34.699  15.948  -7.237  1.00 20.00     0.027 C 
HETATM    4  C7  UNL     1     -35.587  14.917  -6.543  1.00 20.00     0.016 C 
HETATM    5  C8  UNL     1     -35.163  15.985  -4.276  1.00 20.00     0.025 C 
HETATM    6  C9  UNL     1     -35.137  14.677  -5.100  1.00 20.00     0.055 C 
ENDROOT
BRANCH   5   7
HETATM    7  C11 UNL     1     -34.356  15.821  -2.984  1.00 20.00     0.011 C 
HETATM    8  C10 UNL     1     -35.204  16.211  -1.774  1.00 20.00     0.015 C 
BRANCH   7   9
HETATM    9  C4  UNL     1     -33.108  16.659  -3.043  1.00 20.00    -0.032 C 
HETATM   10  C3  UNL     1     -32.726  17.496  -2.071  1.00 20.00     0.007 C 
ENDBRANCH   7   9
ENDBRANCH   5   7
BRANCH   6  11
HETATM   11  C5  UNL     1     -36.044  13.650  -4.487  1.00 20.00     0.236 C 
HETATM   12  O12 UNL     1     -35.761  12.459  -4.409  1.00 20.00    -0.306 OA
ENDBRANCH   6  11
TORSDOF 3
ENDMDL
MODEL 2
REMARK VINA RESULT:      -4.8      0.961      1.082
REMARK  3 active torsions:
REMARK  status: ('A' for Active; 'I' for Inactive)
REMARK    1  A    between atoms: C4_4  and  C11_11 
REMARK    2  A    between atoms: C5_5  and  C9_9 
REMARK    3  A    between atoms: C8_8  and  C11_11 
ROOT
HETATM    1  C1  UNL     1     -36.017  17.426  -5.250  1.00 20.00    -0.030 C 
HETATM    2  C2  UNL     1     -35.988  17.131  -3.944  1.00 20.00    -0.025 C 
HETATM    3  C6  UNL     1     -35.708  16.428  -6.323  1.00 20.00     0.027 C 
HETATM    4  C7  UNL     1     -35.720  14.988  -5.812  1.00 20.00     0.016 C 
HETATM    5  C8  UNL     1     -35.603  15.778  -3.399  1.00 20.00     0.025 C 
HETATM    6  C9  UNL     1     -34.978  14.865  -4.479  1.00 20.00     0.055 C 
ENDROOT
BRANCH   5   7
HETATM    7  C11 UNL     1     -34.641  15.946  -2.217  1.00 20.00     0.011 C 
HETATM    8  C10 UNL     1     -35.275  16.822  -1.137  1.00 20.00     0.015 C 
BRANCH   7   9
HETATM    9  C4  UNL     1     -33.344  16.547  -2.687  1.00 20.00    -0.032 C 
HETATM   10  C3  UNL     1     -32.737  17.575  -2.083  1.00 20.00     0.007 C 
ENDBRANCH   7   9
ENDBRANCH   5   7
BRANCH   6  11
HETATM   11  C5  UNL     1     -35.021  13.429  -4.045  1.00 20.00     0.236 C 
HETATM   12  O12 UNL     1     -35.836  12.618  -4.473  1.00 20.00    -0.306 OA
ENDBRANCH   6  11
TORSDOF 3
ENDMDL
MODEL 3
REMARK VINA RESULT:      -4.7      3.339      6.207
REMARK  3 active torsions:
REMARK  status: ('A' for Active; 'I' for Inactive)
REMARK    1  A    between atoms: C4_4  and  C11_11 
REMARK    2  A    between atoms: C5_5  and  C9_9 
REMARK    3  A    between atoms: C8_8  and  C11_11 
ROOT
HETATM    1  C1  UNL     1     -35.507  17.560   0.714  1.00 20.00    -0.030 C 
HETATM    2  C2  UNL     1     -35.204  17.552  -0.591  1.00 20.00    -0.025 C 
HETATM    3  C6  UNL     1     -34.545  17.996   1.776  1.00 20.00     0.027 C 
HETATM    4  C7  UNL     1     -33.349  18.761   1.213  1.00 20.00     0.016 C 
HETATM    5  C8  UNL     1     -33.853  17.940  -1.139  1.00 20.00     0.025 C 
HETATM    6  C9  UNL     1     -32.783  18.070  -0.031  1.00 20.00     0.055 C 
ENDROOT
BRANCH   5   7
HETATM    7  C11 UNL     1     -33.408  16.923  -2.196  1.00 20.00     0.011 C 
HETATM    8  C10 UNL     1     -33.085  17.630  -3.512  1.00 20.00     0.015 C 
BRANCH   7   9
HETATM    9  C4  UNL     1     -34.482  15.890  -2.405  1.00 20.00    -0.032 C 
HETATM   10  C3  UNL     1     -34.522  15.058  -3.452  1.00 20.00     0.007 C 
ENDBRANCH   7   9
ENDBRANCH   5   7
BRANCH   6  11
HETATM   11  C5  UNL     1     -31.610  18.867  -0.521  1.00 20.00     0.236 C 
HETATM   12  O12 UNL     1     -30.472  18.416  -0.602  1.00 20.00    -0.306 OA
ENDBRANCH   6  11
TORSDOF 3
ENDMDL
MODEL 4
REMARK VINA RESULT:      -4.6      0.972      1.222
REMARK  3 active torsions:
REMARK  status: ('A' for Active; 'I' for Inactive)
REMARK    1  A    between atoms: C4_4  and  C11_11 
REMARK    2  A    between atoms: C5_5  and  C9_9 
REMARK    3  A    between atoms: C8_8  and  C11_11 
ROOT
HETATM    1  C1  UNL     1     -35.221  17.626  -5.931  1.00 20.00    -0.030 C 
HETATM    2  C2  UNL     1     -35.256  17.333  -4.624  1.00 20.00    -0.025 C 
HETATM    3  C6  UNL     1     -35.567  16.639  -7.003  1.00 20.00     0.027 C 
HETATM    4  C7  UNL     1     -36.303  15.413  -6.462  1.00 20.00     0.016 C 
HETATM    5  C8  UNL     1     -35.607  15.969  -4.082  1.00 20.00     0.025 C 
HETATM    6  C9  UNL     1     -35.642  14.887  -5.185  1.00 20.00     0.055 C 
ENDROOT
BRANCH   5   7
HETATM    7  C11 UNL     1     -34.618  15.577  -2.978  1.00 20.00     0.011 C 
HETATM    8  C10 UNL     1     -34.828  16.450  -1.741  1.00 20.00     0.015 C 
BRANCH   7   9
HETATM    9  C4  UNL     1     -33.205  15.707  -3.479  1.00 20.00    -0.032 C 
HETATM   10  C3  UNL     1     -32.587  14.777  -4.216  1.00 20.00     0.007 C 
ENDBRANCH   7   9
ENDBRANCH   5   7
BRANCH   6  11
HETATM   11  C5  UNL     1     -36.407  13.683  -4.719  1.00 20.00     0.236 C 
HETATM   12  O12 UNL     1     -35.889  12.590  -4.516  1.00 20.00    -0.306 OA
ENDBRANCH   6  11
TORSDOF 3
ENDMDL
MODEL 5
REMARK VINA RESULT:      -4.6      1.278      3.657
REMARK  3 active torsions:
REMARK  status: ('A' for Active; 'I' for Inactive)
REMARK    1  A    between atoms: C4_4  and  C11_11 
REMARK    2  A    between atoms: C5_5  and  C9_9 
REMARK    3  A    between atoms: C8_8  and  C11_11 
ROOT
HETATM    1  C1  UNL     1     -33.121  15.801  -3.445  1.00 20.00    -0.030 C 
HETATM    2  C2  UNL     1     -33.423  15.202  -4.604  1.00 20.00    -0.025 C 
HETATM    3  C6  UNL     1     -34.147  16.155  -2.413  1.00 20.00     0.027 C 
HETATM    4  C7  UNL     1     -35.483  15.450  -2.642  1.00 20.00     0.016 C 
HETATM    5  C8  UNL     1     -34.829  14.851  -5.024  1.00 20.00     0.025 C 
HETATM    6  C9  UNL     1     -35.895  15.505  -4.116  1.00 20.00     0.055 C 
ENDROOT
BRANCH   5   7
HETATM    7  C11 UNL     1     -35.052  15.253  -6.486  1.00 20.00     0.011 C 
HETATM    8  C10 UNL     1     -33.784  15.009  -7.304  1.00 20.00     0.015 C 
BRANCH   7   9
HETATM    9  C4  UNL     1     -35.460  16.699  -6.569  1.00 20.00    -0.032 C 
HETATM   10  C3  UNL     1     -34.651  17.680  -6.985  1.00 20.00     0.007 C 
ENDBRANCH   7   9
ENDBRANCH   5   7
BRANCH   6  11
HETATM   11  C5  UNL     1     -37.215  14.806  -4.264  1.00 20.00     0.236 C 
HETATM   12  O12 UNL     1     -37.322  13.602  -4.474  1.00 20.00    -0.306 OA
ENDBRANCH   6  11
TORSDOF 3
ENDMDL
MODEL 6
REMARK VINA RESULT:      -4.5      1.908      2.582
REMARK  3 active torsions:
REMARK  status: ('A' for Active; 'I' for Inactive)
REMARK    1  A    between atoms: C4_4  and  C11_11 
REMARK    2  A    between atoms: C5_5  and  C9_9 
REMARK    3  A    between atoms: C8_8  and  C11_11 
ROOT
HETATM    1  C1  UNL     1     -33.053  15.821  -3.581  1.00 20.00    -0.030 C 
HETATM    2  C2  UNL     1     -33.984  16.693  -3.173  1.00 20.00    -0.025 C 
HETATM    3  C6  UNL     1     -33.384  14.505  -4.215  1.00 20.00     0.027 C 
HETATM    4  C7  UNL     1     -34.838  14.421  -4.677  1.00 20.00     0.016 C 
HETATM    5  C8  UNL     1     -35.468  16.438  -3.266  1.00 20.00     0.025 C 
HETATM    6  C9  UNL     1     -35.792  14.967  -3.612  1.00 20.00     0.055 C 
ENDROOT
BRANCH   5   7
HETATM    7  C11 UNL     1     -36.150  16.842  -1.953  1.00 20.00     0.011 C 
HETATM    8  C10 UNL     1     -36.941  18.135  -2.142  1.00 20.00     0.015 C 
BRANCH   7   9
HETATM    9  C4  UNL     1     -35.122  17.009  -0.867  1.00 20.00    -0.032 C 
HETATM   10  C3  UNL     1     -35.424  17.230   0.417  1.00 20.00     0.007 C 
ENDBRANCH   7   9
ENDBRANCH   5   7
BRANCH   6  11
HETATM   11  C5  UNL     1     -37.196  14.843  -4.128  1.00 20.00     0.236 C 
HETATM   12  O12 UNL     1     -37.722  13.770  -4.405  1.00 20.00    -0.306 OA
ENDBRANCH   6  11
TORSDOF 3
ENDMDL
MODEL 7
REMARK VINA RESULT:      -4.1      2.326      3.246
REMARK  3 active torsions:
REMARK  status: ('A' for Active; 'I' for Inactive)
REMARK    1  A    between atoms: C4_4  and  C11_11 
REMARK    2  A    between atoms: C5_5  and  C9_9 
REMARK    3  A    between atoms: C8_8  and  C11_11 
ROOT
HETATM    1  C1  UNL     1     -34.783  13.896  -3.957  1.00 20.00    -0.030 C 
HETATM    2  C2  UNL     1     -34.161  15.038  -3.637  1.00 20.00    -0.025 C 
HETATM    3  C6  UNL     1     -36.198  13.841  -4.445  1.00 20.00     0.027 C 
HETATM    4  C7  UNL     1     -36.724  15.206  -4.885  1.00 20.00     0.016 C 
HETATM    5  C8  UNL     1     -34.821  16.394  -3.691  1.00 20.00     0.025 C 
HETATM    6  C9  UNL     1     -36.352  16.296  -3.876  1.00 20.00     0.055 C 
ENDROOT
BRANCH   5   7
HETATM    7  C11 UNL     1     -34.484  17.188  -2.424  1.00 20.00     0.011 C 
HETATM    8  C10 UNL     1     -32.971  17.253  -2.224  1.00 20.00     0.015 C 
BRANCH   7   9
HETATM    9  C4  UNL     1     -35.145  16.558  -1.227  1.00 20.00    -0.032 C 
HETATM   10  C3  UNL     1     -35.388  17.206  -0.082  1.00 20.00     0.007 C 
ENDBRANCH   7   9
ENDBRANCH   5   7
BRANCH   6  11
HETATM   11  C5  UNL     1     -36.908  17.601  -4.365  1.00 20.00     0.236 C 
HETATM   12  O12 UNL     1     -36.395  18.262  -5.263  1.00 20.00    -0.306 OA
ENDBRANCH   6  11
TORSDOF 3
ENDMDL
MODEL 8
REMARK VINA RESULT:      -4.1      1.725      4.110
REMARK  3 active torsions:
REMARK  status: ('A' for Active; 'I' for Inactive)
REMARK    1  A    between atoms: C4_4  and  C11_11 
REMARK    2  A    between atoms: C5_5  and  C9_9 
REMARK    3  A    between atoms: C8_8  and  C11_11 
ROOT
HETATM    1  C1  UNL     1     -36.083  17.582  -2.265  1.00 20.00    -0.030 C 
HETATM    2  C2  UNL     1     -36.287  17.317  -3.562  1.00 20.00    -0.025 C 
HETATM    3  C6  UNL     1     -34.983  16.957  -1.464  1.00 20.00     0.027 C 
HETATM    4  C7  UNL     1     -33.919  16.292  -2.337  1.00 20.00     0.016 C 
HETATM    5  C8  UNL     1     -35.463  16.333  -4.356  1.00 20.00     0.025 C 
HETATM    6  C9  UNL     1     -34.557  15.463  -3.455  1.00 20.00     0.055 C 
ENDROOT
BRANCH   5   7
HETATM    7  C11 UNL     1     -36.384  15.447  -5.204  1.00 20.00     0.011 C 
HETATM    8  C10 UNL     1     -37.269  16.309  -6.103  1.00 20.00     0.015 C 
BRANCH   7   9
HETATM    9  C4  UNL     1     -37.228  14.577  -4.313  1.00 20.00    -0.032 C 
HETATM   10  C3  UNL     1     -38.563  14.642  -4.256  1.00 20.00     0.007 C 
ENDBRANCH   7   9
ENDBRANCH   5   7
BRANCH   6  11
HETATM   11  C5  UNL     1     -33.459  14.835  -4.262  1.00 20.00     0.236 C 
HETATM   12  O12 UNL     1     -33.415  13.638  -4.528  1.00 20.00    -0.306 OA
ENDBRANCH   6  11
TORSDOF 3
ENDMDL
MODEL 9
REMARK VINA RESULT:      -4.1      1.362      3.895
REMARK  3 active torsions:
REMARK  status: ('A' for Active; 'I' for Inactive)
REMARK    1  A    between atoms: C4_4  and  C11_11 
REMARK    2  A    between atoms: C5_5  and  C9_9 
REMARK    3  A    between atoms: C8_8  and  C11_11 
ROOT
HETATM    1  C1  UNL     1     -36.059  17.246  -2.492  1.00 20.00    -0.030 C 
HETATM    2  C2  UNL     1     -36.238  16.930  -3.782  1.00 20.00    -0.025 C 
HETATM    3  C6  UNL     1     -34.934  16.708  -1.664  1.00 20.00     0.027 C 
HETATM    4  C7  UNL     1     -33.827  16.078  -2.509  1.00 20.00     0.016 C 
HETATM    5  C8  UNL     1     -35.354  15.969  -4.538  1.00 20.00     0.025 C 
HETATM    6  C9  UNL     1     -34.409  15.180  -3.604  1.00 20.00     0.055 C 
ENDROOT
BRANCH   5   7
HETATM    7  C11 UNL     1     -36.216  15.008  -5.364  1.00 20.00     0.011 C 
HETATM    8  C10 UNL     1     -36.474  13.720  -4.583  1.00 20.00     0.015 C 
BRANCH   7   9
HETATM    9  C4  UNL     1     -35.541  14.702  -6.674  1.00 20.00    -0.032 C 
HETATM   10  C3  UNL     1     -35.123  15.638  -7.533  1.00 20.00     0.007 C 
ENDBRANCH   7   9
ENDBRANCH   5   7
BRANCH   6  11
HETATM   11  C5  UNL     1     -33.270  14.589  -4.383  1.00 20.00     0.236 C 
HETATM   12  O12 UNL     1     -33.013  13.389  -4.400  1.00 20.00    -0.306 OA
ENDBRANCH   6  11
TORSDOF 3
ENDMDL
