MODEL 1
REMARK VINA RESULT:      -4.0      0.000      0.000
REMARK  2 active torsions:
REMARK  status: ('A' for Active; 'I' for Inactive)
REMARK    1  A    between atoms: C3_3  and  C6_6 
REMARK    2  A    between atoms: C6_6  and  C7_7 
ROOT
HETATM    1  C1  UNL     1     -33.866  15.216  -7.450  1.00 20.00     0.281 C 
HETATM    2  C2  UNL     1     -35.385  15.151  -7.441  1.00 20.00     0.106 C 
HETATM    3  C3  UNL     1     -34.170  15.663  -5.161  1.00 20.00     0.282 C 
HETATM    4  N8  UNL     1     -33.393  14.851  -6.108  1.00 20.00     0.098 N 
HETATM    5  S9  UNL     1     -35.839  15.886  -5.854  1.00 20.00    -0.132 SA
HETATM    6  H24 UNL     1     -33.606  13.866  -5.952  1.00 20.00     0.317 HD
ENDROOT
BRANCH   3   7
HETATM    7  C6  UNL     1     -34.238  14.998  -3.793  1.00 20.00     0.050 C 
BRANCH   7   8
HETATM    8  C7  UNL     1     -33.871  15.939  -2.633  1.00 20.00    -0.020 C 
HETATM    9  C4  UNL     1     -33.167  17.208  -3.111  1.00 20.00     0.009 C 
HETATM   10  C5  UNL     1     -35.132  16.312  -1.849  1.00 20.00     0.009 C 
ENDBRANCH   7   8
ENDBRANCH   3   7
TORSDOF 2
ENDMDL
MODEL 2
REMARK VINA RESULT:      -3.6      0.668      1.324
REMARK  2 active torsions:
REMARK  status: ('A' for Active; 'I' for Inactive)
REMARK    1  A    between atoms: C3_3  and  C6_6 
REMARK    2  A    between atoms: C6_6  and  C7_7 
ROOT
HETATM    1  C1  UNL     1     -34.115  14.990  -7.205  1.00 20.00     0.281 C 
HETATM    2  C2  UNL     1     -35.581  14.824  -6.837  1.00 20.00     0.106 C 
HETATM    3  C3  UNL     1     -33.998  15.961  -5.066  1.00 20.00     0.282 C 
HETATM    4  N8  UNL     1     -33.337  14.998  -5.959  1.00 20.00     0.098 N 
HETATM    5  S9  UNL     1     -35.787  15.890  -5.394  1.00 20.00    -0.132 SA
HETATM    6  H24 UNL     1     -33.393  14.069  -5.543  1.00 20.00     0.317 HD
ENDROOT
BRANCH   3   7
HETATM    7  C6  UNL     1     -33.704  15.648  -3.605  1.00 20.00     0.050 C 
BRANCH   7   8
HETATM    8  C7  UNL     1     -34.123  16.769  -2.640  1.00 20.00    -0.020 C 
HETATM    9  C4  UNL     1     -35.074  16.276  -1.550  1.00 20.00     0.009 C 
HETATM   10  C5  UNL     1     -32.881  17.392  -1.998  1.00 20.00     0.009 C 
ENDBRANCH   7   8
ENDBRANCH   3   7
TORSDOF 2
ENDMDL
MODEL 3
REMARK VINA RESULT:      -3.5      2.733      3.300
REMARK  2 active torsions:
REMARK  status: ('A' for Active; 'I' for Inactive)
REMARK    1  A    between atoms: C3_3  and  C6_6 
REMARK    2  A    between atoms: C6_6  and  C7_7 
ROOT
HETATM    1  C1  UNL     1     -38.615  15.595  -4.572  1.00 20.00     0.281 C 
HETATM    2  C2  UNL     1     -37.789  16.582  -5.382  1.00 20.00     0.106 C 
HETATM    3  C3  UNL     1     -36.667  14.288  -4.739  1.00 20.00     0.282 C 
HETATM    4  N8  UNL     1     -37.687  14.765  -3.793  1.00 20.00     0.098 N 
HETATM    5  S9  UNL     1     -36.399  15.594  -5.978  1.00 20.00    -0.132 SA
HETATM    6  H24 UNL     1     -37.239  15.357  -3.095  1.00 20.00     0.317 HD
ENDROOT
BRANCH   3   7
HETATM    7  C6  UNL     1     -35.367  13.949  -4.021  1.00 20.00     0.050 C 
BRANCH   7   8
HETATM    8  C7  UNL     1     -34.369  15.118  -3.973  1.00 20.00    -0.020 C 
HETATM    9  C4  UNL     1     -34.344  15.808  -2.609  1.00 20.00     0.009 C 
HETATM   10  C5  UNL     1     -32.966  14.618  -4.325  1.00 20.00     0.009 C 
ENDBRANCH   7   8
ENDBRANCH   3   7
TORSDOF 2
ENDMDL
MODEL 4
REMARK VINA RESULT:      -3.5      1.724      2.208
REMARK  2 active torsions:
REMARK  status: ('A' for Active; 'I' for Inactive)
REMARK    1  A    between atoms: C3_3  and  C6_6 
REMARK    2  A    between atoms: C6_6  and  C7_7 
ROOT
HETATM    1  C1  UNL     1     -36.250  13.940  -5.074  1.00 20.00     0.281 C 
HETATM    2  C2  UNL     1     -36.710  15.376  -5.269  1.00 20.00     0.106 C 
HETATM    3  C3  UNL     1     -34.198  14.980  -4.584  1.00 20.00     0.282 C 
HETATM    4  N8  UNL     1     -35.137  13.951  -4.115  1.00 20.00     0.098 N 
HETATM    5  S9  UNL     1     -35.170  16.316  -5.350  1.00 20.00    -0.132 SA
HETATM    6  H24 UNL     1     -35.504  14.228  -3.204  1.00 20.00     0.317 HD
ENDROOT
BRANCH   3   7
HETATM    7  C6  UNL     1     -33.353  15.517  -3.437  1.00 20.00     0.050 C 
BRANCH   7   8
HETATM    8  C7  UNL     1     -33.965  16.746  -2.745  1.00 20.00    -0.020 C 
HETATM    9  C4  UNL     1     -34.974  16.364  -1.662  1.00 20.00     0.009 C 
HETATM   10  C5  UNL     1     -32.855  17.606  -2.136  1.00 20.00     0.009 C 
ENDBRANCH   7   8
ENDBRANCH   3   7
TORSDOF 2
ENDMDL
MODEL 5
REMARK VINA RESULT:      -3.4      2.029      3.769
REMARK  2 active torsions:
REMARK  status: ('A' for Active; 'I' for Inactive)
REMARK    1  A    between atoms: C3_3  and  C6_6 
REMARK    2  A    between atoms: C6_6  and  C7_7 
ROOT
HETATM    1  C1  UNL     1     -33.196  18.117  -3.321  1.00 20.00     0.281 C 
HETATM    2  C2  UNL     1     -34.562  18.025  -2.660  1.00 20.00     0.106 C 
HETATM    3  C3  UNL     1     -33.374  15.772  -3.330  1.00 20.00     0.282 C 
HETATM    4  N8  UNL     1     -33.025  16.929  -4.167  1.00 20.00     0.098 N 
HETATM    5  S9  UNL     1     -34.698  16.286  -2.191  1.00 20.00    -0.132 SA
HETATM    6  H24 UNL     1     -33.688  16.990  -4.940  1.00 20.00     0.317 HD
ENDROOT
BRANCH   3   7
HETATM    7  C6  UNL     1     -33.823  14.592  -4.182  1.00 20.00     0.050 C 
BRANCH   7   8
HETATM    8  C7  UNL     1     -35.185  14.807  -4.862  1.00 20.00    -0.020 C 
HETATM    9  C4  UNL     1     -35.066  14.929  -6.381  1.00 20.00     0.009 C 
HETATM   10  C5  UNL     1     -36.129  13.656  -4.508  1.00 20.00     0.009 C 
ENDBRANCH   7   8
ENDBRANCH   3   7
TORSDOF 2
ENDMDL
MODEL 6
REMARK VINA RESULT:      -3.4      1.798      2.213
REMARK  2 active torsions:
REMARK  status: ('A' for Active; 'I' for Inactive)
REMARK    1  A    between atoms: C3_3  and  C6_6 
REMARK    2  A    between atoms: C6_6  and  C7_7 
ROOT
HETATM    1  C1  UNL     1     -35.912  16.037  -6.267  1.00 20.00     0.281 C 
HETATM    2  C2  UNL     1     -35.750  14.529  -6.365  1.00 20.00     0.106 C 
HETATM    3  C3  UNL     1     -35.918  15.588  -3.959  1.00 20.00     0.282 C 
HETATM    4  N8  UNL     1     -35.342  16.469  -4.985  1.00 20.00     0.098 N 
HETATM    5  S9  UNL     1     -36.155  13.943  -4.704  1.00 20.00    -0.132 SA
HETATM    6  H24 UNL     1     -34.333  16.322  -5.018  1.00 20.00     0.317 HD
ENDROOT
BRANCH   3   7
HETATM    7  C6  UNL     1     -35.014  15.501  -2.737  1.00 20.00     0.050 C 
BRANCH   7   8
HETATM    8  C7  UNL     1     -34.741  16.862  -2.076  1.00 20.00    -0.020 C 
HETATM    9  C4  UNL     1     -35.224  16.914  -0.626  1.00 20.00     0.009 C 
HETATM   10  C5  UNL     1     -33.244  17.176  -2.133  1.00 20.00     0.009 C 
ENDBRANCH   7   8
ENDBRANCH   3   7
TORSDOF 2
ENDMDL
MODEL 7
REMARK VINA RESULT:      -3.4      2.538      4.504
REMARK  2 active torsions:
REMARK  status: ('A' for Active; 'I' for Inactive)
REMARK    1  A    between atoms: C3_3  and  C6_6 
REMARK    2  A    between atoms: C6_6  and  C7_7 
ROOT
HETATM    1  C1  UNL     1     -34.768  17.210  -1.395  1.00 20.00     0.281 C 
HETATM    2  C2  UNL     1     -33.337  17.312  -1.898  1.00 20.00     0.106 C 
HETATM    3  C3  UNL     1     -35.009  15.806  -3.267  1.00 20.00     0.282 C 
HETATM    4  N8  UNL     1     -35.307  15.915  -1.831  1.00 20.00     0.098 N 
HETATM    5  S9  UNL     1     -33.419  16.638  -3.572  1.00 20.00    -0.132 SA
HETATM    6  H24 UNL     1     -34.807  15.178  -1.333  1.00 20.00     0.317 HD
ENDROOT
BRANCH   3   7
HETATM    7  C6  UNL     1     -34.949  14.350  -3.707  1.00 20.00     0.050 C 
BRANCH   7   8
HETATM    8  C7  UNL     1     -36.039  13.969  -4.723  1.00 20.00    -0.020 C 
HETATM    9  C4  UNL     1     -37.424  14.460  -4.303  1.00 20.00     0.009 C 
HETATM   10  C5  UNL     1     -35.685  14.535  -6.100  1.00 20.00     0.009 C 
ENDBRANCH   7   8
ENDBRANCH   3   7
TORSDOF 2
ENDMDL
MODEL 8
REMARK VINA RESULT:      -3.4      2.731      3.396
REMARK  2 active torsions:
REMARK  status: ('A' for Active; 'I' for Inactive)
REMARK    1  A    between atoms: C3_3  and  C6_6 
REMARK    2  A    between atoms: C6_6  and  C7_7 
ROOT
HETATM    1  C1  UNL     1     -38.210  15.330  -4.451  1.00 20.00     0.281 C 
HETATM    2  C2  UNL     1     -38.651  16.649  -3.836  1.00 20.00     0.106 C 
HETATM    3  C3  UNL     1     -36.104  16.002  -3.647  1.00 20.00     0.282 C 
HETATM    4  N8  UNL     1     -37.030  14.862  -3.712  1.00 20.00     0.098 N 
HETATM    5  S9  UNL     1     -37.099  17.522  -3.532  1.00 20.00    -0.132 SA
HETATM    6  H24 UNL     1     -37.322  14.618  -2.766  1.00 20.00     0.317 HD
ENDROOT
BRANCH   3   7
HETATM    7  C6  UNL     1     -35.165  15.881  -2.455  1.00 20.00     0.050 C 
BRANCH   7   8
HETATM    8  C7  UNL     1     -33.676  15.903  -2.840  1.00 20.00    -0.020 C 
HETATM    9  C4  UNL     1     -33.385  15.076  -4.092  1.00 20.00     0.009 C 
HETATM   10  C5  UNL     1     -33.218  17.347  -3.057  1.00 20.00     0.009 C 
ENDBRANCH   7   8
ENDBRANCH   3   7
TORSDOF 2
ENDMDL
MODEL 9
REMARK VINA RESULT:      -3.3      3.390      5.162
REMARK  2 active torsions:
REMARK  status: ('A' for Active; 'I' for Inactive)
REMARK    1  A    between atoms: C3_3  and  C6_6 
REMARK    2  A    between atoms: C6_6  and  C7_7 
ROOT
HETATM    1  C1  UNL     1     -37.433  18.337  -1.002  1.00 20.00     0.281 C 
HETATM    2  C2  UNL     1     -36.895  17.909   0.354  1.00 20.00     0.106 C 
HETATM    3  C3  UNL     1     -35.501  17.245  -1.779  1.00 20.00     0.282 C 
HETATM    4  N8  UNL     1     -36.948  17.377  -2.002  1.00 20.00     0.098 N 
HETATM    5  S9  UNL     1     -35.192  17.416   0.007  1.00 20.00    -0.132 SA
HETATM    6  H24 UNL     1     -37.394  16.477  -1.822  1.00 20.00     0.317 HD
ENDROOT
BRANCH   3   7
HETATM    7  C6  UNL     1     -34.986  15.905  -2.289  1.00 20.00     0.050 C 
BRANCH   7   8
HETATM    8  C7  UNL     1     -33.578  15.981  -2.903  1.00 20.00    -0.020 C 
HETATM    9  C4  UNL     1     -33.403  15.023  -4.081  1.00 20.00     0.009 C 
HETATM   10  C5  UNL     1     -33.285  17.414  -3.355  1.00 20.00     0.009 C 
ENDBRANCH   7   8
ENDBRANCH   3   7
TORSDOF 2
ENDMDL
