MODEL 1
REMARK VINA RESULT:      -4.0      0.000      0.000
REMARK  0 active torsions:
REMARK  status: ('A' for Active; 'I' for Inactive)
ROOT
HETATM    1  C1  UNL     1     -22.675  17.921   9.302  1.00 20.00    -0.002 A 
HETATM    2  C2  UNL     1     -23.324  17.986  10.478  1.00 20.00    -0.064 A 
HETATM    3  C3  UNL     1     -23.513  18.402   8.180  1.00 20.00     0.215 A 
HETATM    4  C4  UNL     1     -24.730  18.509  10.464  1.00 20.00     0.117 A 
HETATM    5  C5  UNL     1     -21.293  17.453   9.003  1.00 20.00     0.053 C 
HETATM    6  C6  UNL     1     -22.785  17.585  11.814  1.00 20.00     0.045 C 
HETATM    7  O7  UNL     1     -23.160  18.448   7.013  1.00 20.00    -0.280 OA
HETATM    8  S8  UNL     1     -25.095  18.902   8.738  1.00 20.00    -0.083 SA
ENDROOT
TORSDOF 0
ENDMDL
MODEL 2
REMARK VINA RESULT:      -4.0      1.602      2.498
REMARK  0 active torsions:
REMARK  status: ('A' for Active; 'I' for Inactive)
ROOT
HETATM    1  C1  UNL     1     -24.290  18.472   8.788  1.00 20.00    -0.002 A 
HETATM    2  C2  UNL     1     -24.292  18.298  10.120  1.00 20.00    -0.064 A 
HETATM    3  C3  UNL     1     -22.992  18.097   8.181  1.00 20.00     0.215 A 
HETATM    4  C4  UNL     1     -23.035  17.776  10.751  1.00 20.00     0.117 A 
HETATM    5  C5  UNL     1     -25.373  18.969   7.891  1.00 20.00     0.053 C 
HETATM    6  C6  UNL     1     -25.430  18.573  11.052  1.00 20.00     0.045 C 
HETATM    7  O7  UNL     1     -22.732  18.161   6.991  1.00 20.00    -0.280 OA
HETATM    8  S8  UNL     1     -21.860  17.545   9.396  1.00 20.00    -0.083 SA
ENDROOT
TORSDOF 0
ENDMDL
MODEL 3
REMARK VINA RESULT:      -3.9      2.446      3.108
REMARK  0 active torsions:
REMARK  status: ('A' for Active; 'I' for Inactive)
ROOT
HETATM    1  C1  UNL     1     -22.988  18.157  10.209  1.00 20.00    -0.002 A 
HETATM    2  C2  UNL     1     -24.203  18.492   9.744  1.00 20.00    -0.064 A 
HETATM    3  C3  UNL     1     -23.005  17.894  11.666  1.00 20.00     0.215 A 
HETATM    4  C4  UNL     1     -25.331  18.546  10.731  1.00 20.00     0.117 A 
HETATM    5  C5  UNL     1     -21.694  18.023   9.481  1.00 20.00     0.053 C 
HETATM    6  C6  UNL     1     -24.553  18.822   8.327  1.00 20.00     0.045 C 
HETATM    7  O7  UNL     1     -22.034  17.572  12.331  1.00 20.00    -0.280 OA
HETATM    8  S8  UNL     1     -24.611  18.107  12.330  1.00 20.00    -0.083 SA
ENDROOT
TORSDOF 0
ENDMDL
MODEL 4
REMARK VINA RESULT:      -3.9     16.648     17.112
REMARK  0 active torsions:
REMARK  status: ('A' for Active; 'I' for Inactive)
ROOT
HETATM    1  C1  UNL     1     -33.240   6.351   3.747  1.00 20.00    -0.002 A 
HETATM    2  C2  UNL     1     -33.664   5.174   3.258  1.00 20.00    -0.064 A 
HETATM    3  C3  UNL     1     -33.791   6.623   5.095  1.00 20.00     0.215 A 
HETATM    4  C4  UNL     1     -34.588   4.361   4.115  1.00 20.00     0.117 A 
HETATM    5  C5  UNL     1     -32.331   7.364   3.137  1.00 20.00     0.053 C 
HETATM    6  C6  UNL     1     -33.308   4.582   1.930  1.00 20.00     0.045 C 
HETATM    7  O7  UNL     1     -33.559   7.621   5.757  1.00 20.00    -0.280 OA
HETATM    8  S8  UNL     1     -34.831   5.321   5.628  1.00 20.00    -0.083 SA
ENDROOT
TORSDOF 0
ENDMDL
MODEL 5
REMARK VINA RESULT:      -3.9      1.690      2.472
REMARK  0 active torsions:
REMARK  status: ('A' for Active; 'I' for Inactive)
ROOT
HETATM    1  C1  UNL     1     -24.204  17.340  10.676  1.00 20.00    -0.002 A 
HETATM    2  C2  UNL     1     -25.082  18.356  10.730  1.00 20.00    -0.064 A 
HETATM    3  C3  UNL     1     -23.466  17.314   9.392  1.00 20.00     0.215 A 
HETATM    4  C4  UNL     1     -25.171  19.259   9.536  1.00 20.00     0.117 A 
HETATM    5  C5  UNL     1     -23.896  16.293  11.690  1.00 20.00     0.053 C 
HETATM    6  C6  UNL     1     -25.992  18.685  11.872  1.00 20.00     0.045 C 
HETATM    7  O7  UNL     1     -22.613  16.495   9.092  1.00 20.00    -0.280 OA
HETATM    8  S8  UNL     1     -23.973  18.619   8.342  1.00 20.00    -0.083 SA
ENDROOT
TORSDOF 0
ENDMDL
MODEL 6
REMARK VINA RESULT:      -3.9     16.677     17.129
REMARK  0 active torsions:
REMARK  status: ('A' for Active; 'I' for Inactive)
ROOT
HETATM    1  C1  UNL     1     -33.601   5.589   3.356  1.00 20.00    -0.002 A 
HETATM    2  C2  UNL     1     -32.977   6.748   3.625  1.00 20.00    -0.064 A 
HETATM    3  C3  UNL     1     -34.454   5.144   4.482  1.00 20.00     0.215 A 
HETATM    4  C4  UNL     1     -33.231   7.377   4.963  1.00 20.00     0.117 A 
HETATM    5  C5  UNL     1     -33.546   4.741   2.132  1.00 20.00     0.053 C 
HETATM    6  C6  UNL     1     -32.043   7.487   2.719  1.00 20.00     0.045 C 
HETATM    7  O7  UNL     1     -35.125   4.126   4.491  1.00 20.00    -0.280 OA
HETATM    8  S8  UNL     1     -34.378   6.271   5.818  1.00 20.00    -0.083 SA
ENDROOT
TORSDOF 0
ENDMDL
MODEL 7
REMARK VINA RESULT:      -3.7     16.543     16.935
REMARK  0 active torsions:
REMARK  status: ('A' for Active; 'I' for Inactive)
ROOT
HETATM    1  C1  UNL     1     -33.566   6.509   4.562  1.00 20.00    -0.002 A 
HETATM    2  C2  UNL     1     -34.292   5.410   4.825  1.00 20.00    -0.064 A 
HETATM    3  C3  UNL     1     -32.959   6.462   3.211  1.00 20.00     0.215 A 
HETATM    4  C4  UNL     1     -34.368   4.358   3.759  1.00 20.00     0.117 A 
HETATM    5  C5  UNL     1     -33.308   7.706   5.412  1.00 20.00     0.053 C 
HETATM    6  C6  UNL     1     -35.043   5.122   6.088  1.00 20.00     0.045 C 
HETATM    7  O7  UNL     1     -32.256   7.335   2.730  1.00 20.00    -0.280 OA
HETATM    8  S8  UNL     1     -33.378   4.980   2.380  1.00 20.00    -0.083 SA
ENDROOT
TORSDOF 0
ENDMDL
MODEL 8
REMARK VINA RESULT:      -3.7      2.274      3.095
REMARK  0 active torsions:
REMARK  status: ('A' for Active; 'I' for Inactive)
ROOT
HETATM    1  C1  UNL     1     -24.031  18.513   9.786  1.00 20.00    -0.002 A 
HETATM    2  C2  UNL     1     -22.863  17.981  10.184  1.00 20.00    -0.064 A 
HETATM    3  C3  UNL     1     -25.043  18.503  10.867  1.00 20.00     0.215 A 
HETATM    4  C4  UNL     1     -22.775  17.484  11.597  1.00 20.00     0.117 A 
HETATM    5  C5  UNL     1     -24.415  19.082   8.463  1.00 20.00     0.053 C 
HETATM    6  C6  UNL     1     -21.625  17.832   9.357  1.00 20.00     0.045 C 
HETATM    7  O7  UNL     1     -26.181  18.928  10.764  1.00 20.00    -0.280 OA
HETATM    8  S8  UNL     1     -24.398  17.795  12.332  1.00 20.00    -0.083 SA
ENDROOT
TORSDOF 0
ENDMDL
MODEL 9
REMARK VINA RESULT:      -3.7      1.990      2.910
REMARK  0 active torsions:
REMARK  status: ('A' for Active; 'I' for Inactive)
ROOT
HETATM    1  C1  UNL     1     -23.529  18.075  10.829  1.00 20.00    -0.002 A 
HETATM    2  C2  UNL     1     -22.911  18.375   9.674  1.00 20.00    -0.064 A 
HETATM    3  C3  UNL     1     -24.949  18.497  10.824  1.00 20.00     0.215 A 
HETATM    4  C4  UNL     1     -23.721  19.061   8.614  1.00 20.00     0.117 A 
HETATM    5  C5  UNL     1     -22.995  17.405  12.048  1.00 20.00     0.053 C 
HETATM    6  C6  UNL     1     -21.482  18.095   9.331  1.00 20.00     0.045 C 
HETATM    7  O7  UNL     1     -25.729  18.339  11.749  1.00 20.00    -0.280 OA
HETATM    8  S8  UNL     1     -25.378  19.262   9.310  1.00 20.00    -0.083 SA
ENDROOT
TORSDOF 0
ENDMDL
