MODEL 1
REMARK VINA RESULT:      -4.9      0.000      0.000
REMARK  0 active torsions:
REMARK  status: ('A' for Active; 'I' for Inactive)
ROOT
HETATM    1  C1  UNL     1     -34.033   5.720   4.130  1.00 20.00    -0.014 A 
HETATM    2  C2  UNL     1     -33.308   5.716   3.003  1.00 20.00    -0.070 A 
HETATM    3  C3  UNL     1     -33.578   6.895   4.897  1.00 20.00     0.156 A 
HETATM    4  C4  UNL     1     -32.461   7.617   4.204  1.00 20.00     0.092 A 
HETATM    5  C5  UNL     1     -32.330   6.861   2.880  1.00 20.00     0.018 A 
HETATM    6  C6  UNL     1     -35.089   4.813   4.637  1.00 20.00     0.052 C 
HETATM    7  C7  UNL     1     -33.368   4.695   1.913  1.00 20.00     0.044 C 
HETATM    8  C8  UNL     1     -32.628   7.768   1.688  1.00 20.00     0.015 C 
HETATM    9  O9  UNL     1     -34.046   7.221   5.977  1.00 20.00    -0.293 OA
ENDROOT
TORSDOF 0
ENDMDL
MODEL 2
REMARK VINA RESULT:      -4.8      1.154      2.696
REMARK  0 active torsions:
REMARK  status: ('A' for Active; 'I' for Inactive)
ROOT
HETATM    1  C1  UNL     1     -33.728   6.579   4.947  1.00 20.00    -0.014 A 
HETATM    2  C2  UNL     1     -33.396   6.468   3.654  1.00 20.00    -0.070 A 
HETATM    3  C3  UNL     1     -34.650   5.461   5.224  1.00 20.00     0.156 A 
HETATM    4  C4  UNL     1     -34.933   4.651   3.993  1.00 20.00     0.092 A 
HETATM    5  C5  UNL     1     -34.020   5.289   2.943  1.00 20.00     0.018 A 
HETATM    6  C6  UNL     1     -33.343   7.555   5.994  1.00 20.00     0.052 C 
HETATM    7  C7  UNL     1     -32.513   7.394   2.882  1.00 20.00     0.044 C 
HETATM    8  C8  UNL     1     -32.983   4.293   2.427  1.00 20.00     0.015 C 
HETATM    9  O9  UNL     1     -35.136   5.240   6.322  1.00 20.00    -0.293 OA
ENDROOT
TORSDOF 0
ENDMDL
MODEL 3
REMARK VINA RESULT:      -4.6     15.830     16.495
REMARK  0 active torsions:
REMARK  status: ('A' for Active; 'I' for Inactive)
ROOT
HETATM    1  C1  UNL     1     -24.082  18.648   8.242  1.00 20.00    -0.014 A 
HETATM    2  C2  UNL     1     -24.496  18.595   9.515  1.00 20.00    -0.070 A 
HETATM    3  C3  UNL     1     -22.796  17.926   8.207  1.00 20.00     0.156 A 
HETATM    4  C4  UNL     1     -22.384  17.450   9.568  1.00 20.00     0.092 A 
HETATM    5  C5  UNL     1     -23.577  17.838  10.445  1.00 20.00     0.018 A 
HETATM    6  C6  UNL     1     -24.669  19.263   7.028  1.00 20.00     0.052 C 
HETATM    7  C7  UNL     1     -25.734  19.221  10.072  1.00 20.00     0.044 C 
HETATM    8  C8  UNL     1     -24.241  16.607  11.059  1.00 20.00     0.015 C 
HETATM    9  O9  UNL     1     -22.142  17.757   7.189  1.00 20.00    -0.293 OA
ENDROOT
TORSDOF 0
ENDMDL
MODEL 4
REMARK VINA RESULT:      -4.4     16.005     16.662
REMARK  0 active torsions:
REMARK  status: ('A' for Active; 'I' for Inactive)
ROOT
HETATM    1  C1  UNL     1     -24.565  18.336   9.853  1.00 20.00    -0.014 A 
HETATM    2  C2  UNL     1     -23.518  17.569  10.187  1.00 20.00    -0.070 A 
HETATM    3  C3  UNL     1     -25.316  18.557  11.104  1.00 20.00     0.156 A 
HETATM    4  C4  UNL     1     -24.704  17.826  12.261  1.00 20.00     0.092 A 
HETATM    5  C5  UNL     1     -23.438  17.217  11.655  1.00 20.00     0.018 A 
HETATM    6  C6  UNL     1     -25.008  18.909   8.561  1.00 20.00     0.052 C 
HETATM    7  C7  UNL     1     -22.478  17.034   9.257  1.00 20.00     0.044 C 
HETATM    8  C8  UNL     1     -22.179  17.763  12.326  1.00 20.00     0.015 C 
HETATM    9  O9  UNL     1     -26.327  19.240  11.175  1.00 20.00    -0.293 OA
ENDROOT
TORSDOF 0
ENDMDL
MODEL 5
REMARK VINA RESULT:      -4.4     11.238     12.109
REMARK  0 active torsions:
REMARK  status: ('A' for Active; 'I' for Inactive)
ROOT
HETATM    1  C1  UNL     1     -36.749  14.853  -4.109  1.00 20.00    -0.014 A 
HETATM    2  C2  UNL     1     -36.119  15.995  -3.804  1.00 20.00    -0.070 A 
HETATM    3  C3  UNL     1     -35.692  13.833  -4.246  1.00 20.00     0.156 A 
HETATM    4  C4  UNL     1     -34.323  14.418  -4.060  1.00 20.00     0.092 A 
HETATM    5  C5  UNL     1     -34.617  15.872  -3.684  1.00 20.00     0.018 A 
HETATM    6  C6  UNL     1     -38.182  14.529  -4.306  1.00 20.00     0.052 C 
HETATM    7  C7  UNL     1     -36.753  17.333  -3.605  1.00 20.00     0.044 C 
HETATM    8  C8  UNL     1     -34.107  16.199  -2.281  1.00 20.00     0.015 C 
HETATM    9  O9  UNL     1     -35.912  12.659  -4.499  1.00 20.00    -0.293 OA
ENDROOT
TORSDOF 0
ENDMDL
MODEL 6
REMARK VINA RESULT:      -4.2     11.321     11.976
REMARK  0 active torsions:
REMARK  status: ('A' for Active; 'I' for Inactive)
ROOT
HETATM    1  C1  UNL     1     -35.318  14.685  -4.050  1.00 20.00    -0.014 A 
HETATM    2  C2  UNL     1     -35.538  15.908  -3.550  1.00 20.00    -0.070 A 
HETATM    3  C3  UNL     1     -33.855  14.498  -4.027  1.00 20.00     0.156 A 
HETATM    4  C4  UNL     1     -33.142  15.718  -3.524  1.00 20.00     0.092 A 
HETATM    5  C5  UNL     1     -34.290  16.649  -3.127  1.00 20.00     0.018 A 
HETATM    6  C6  UNL     1     -36.235  13.639  -4.561  1.00 20.00     0.052 C 
HETATM    7  C7  UNL     1     -36.864  16.582  -3.404  1.00 20.00     0.044 C 
HETATM    8  C8  UNL     1     -34.264  16.959  -1.632  1.00 20.00     0.015 C 
HETATM    9  O9  UNL     1     -33.297  13.474  -4.393  1.00 20.00    -0.293 OA
ENDROOT
TORSDOF 0
ENDMDL
MODEL 7
REMARK VINA RESULT:      -4.2     11.622     12.659
REMARK  0 active torsions:
REMARK  status: ('A' for Active; 'I' for Inactive)
ROOT
HETATM    1  C1  UNL     1     -34.587  14.985  -5.748  1.00 20.00    -0.014 A 
HETATM    2  C2  UNL     1     -34.022  14.821  -4.544  1.00 20.00    -0.070 A 
HETATM    3  C3  UNL     1     -36.043  14.983  -5.513  1.00 20.00     0.156 A 
HETATM    4  C4  UNL     1     -36.377  14.748  -4.070  1.00 20.00     0.092 A 
HETATM    5  C5  UNL     1     -35.002  14.715  -3.398  1.00 20.00     0.018 A 
HETATM    6  C6  UNL     1     -34.012  15.142  -7.104  1.00 20.00     0.052 C 
HETATM    7  C7  UNL     1     -32.559  14.714  -4.258  1.00 20.00     0.044 C 
HETATM    8  C8  UNL     1     -34.850  15.846  -2.383  1.00 20.00     0.015 C 
HETATM    9  O9  UNL     1     -36.873  15.136  -6.397  1.00 20.00    -0.293 OA
ENDROOT
TORSDOF 0
ENDMDL
MODEL 8
REMARK VINA RESULT:      -4.1     15.468     15.891
REMARK  0 active torsions:
REMARK  status: ('A' for Active; 'I' for Inactive)
ROOT
HETATM    1  C1  UNL     1     -24.521  17.103  10.852  1.00 20.00    -0.014 A 
HETATM    2  C2  UNL     1     -23.905  17.630   9.786  1.00 20.00    -0.070 A 
HETATM    3  C3  UNL     1     -25.592  18.053  11.208  1.00 20.00     0.156 A 
HETATM    4  C4  UNL     1     -25.584  19.263  10.323  1.00 20.00     0.092 A 
HETATM    5  C5  UNL     1     -24.486  18.940   9.306  1.00 20.00     0.018 A 
HETATM    6  C6  UNL     1     -24.290  15.857  11.620  1.00 20.00     0.052 C 
HETATM    7  C7  UNL     1     -22.720  17.061   9.074  1.00 20.00     0.044 C 
HETATM    8  C8  UNL     1     -25.047  18.855   7.888  1.00 20.00     0.015 C 
HETATM    9  O9  UNL     1     -26.376  17.876  12.129  1.00 20.00    -0.293 OA
ENDROOT
TORSDOF 0
ENDMDL
MODEL 9
REMARK VINA RESULT:      -4.1     11.651     12.135
REMARK  0 active torsions:
REMARK  status: ('A' for Active; 'I' for Inactive)
ROOT
HETATM    1  C1  UNL     1     -35.324  15.089  -4.438  1.00 20.00    -0.014 A 
HETATM    2  C2  UNL     1     -34.105  15.112  -3.882  1.00 20.00    -0.070 A 
HETATM    3  C3  UNL     1     -36.192  15.869  -3.535  1.00 20.00     0.156 A 
HETATM    4  C4  UNL     1     -35.452  16.350  -2.323  1.00 20.00     0.092 A 
HETATM    5  C5  UNL     1     -34.014  15.901  -2.596  1.00 20.00     0.018 A 
HETATM    6  C6  UNL     1     -35.842  14.460  -5.675  1.00 20.00     0.052 C 
HETATM    7  C7  UNL     1     -32.881  14.427  -4.398  1.00 20.00     0.044 C 
HETATM    8  C8  UNL     1     -33.068  17.096  -2.701  1.00 20.00     0.015 C 
HETATM    9  O9  UNL     1     -37.377  16.076  -3.748  1.00 20.00    -0.293 OA
ENDROOT
TORSDOF 0
ENDMDL
