MODEL 1
REMARK VINA RESULT:      -5.3      0.000      0.000
REMARK  1 active torsions:
REMARK  status: ('A' for Active; 'I' for Inactive)
REMARK    1  A    between atoms: C4_4  and  C11_11 
ROOT
HETATM    1  C1  UNL     1     -25.100  19.249   9.704  1.00 20.00     0.053 C 
HETATM    2  C2  UNL     1     -25.047  18.495  10.808  1.00 20.00    -0.072 C 
HETATM    3  C3  UNL     1     -24.082  18.717   8.792  1.00 20.00     0.155 C 
HETATM    4  C4  UNL     1     -23.491  17.431   9.314  1.00 20.00     0.075 C 
HETATM    5  C5  UNL     1     -23.969  17.417  10.796  1.00 20.00    -0.013 C 
HETATM    6  C6  UNL     1     -25.936  18.706  11.990  1.00 20.00     0.044 C 
HETATM    7  C7  UNL     1     -24.541  16.032  11.138  1.00 20.00     0.020 C 
HETATM    8  C8  UNL     1     -22.868  17.773  11.810  1.00 20.00     0.020 C 
HETATM    9  O12 UNL     1     -23.804  19.249   7.728  1.00 20.00    -0.293 OA
ENDROOT
BRANCH   4  10
HETATM   10  C11 UNL     1     -21.993  17.353   9.064  1.00 20.00    -0.010 C 
HETATM   11  C9  UNL     1     -21.703  17.087   7.586  1.00 20.00     0.010 C 
HETATM   12  C10 UNL     1     -21.298  18.637   9.519  1.00 20.00     0.010 C 
ENDBRANCH   4  10
TORSDOF 1
ENDMDL
MODEL 2
REMARK VINA RESULT:      -4.6     17.574     18.638
REMARK  1 active torsions:
REMARK  status: ('A' for Active; 'I' for Inactive)
REMARK    1  A    between atoms: C4_4  and  C11_11 
ROOT
HETATM    1  C1  UNL     1     -36.785  13.943  -4.443  1.00 20.00     0.053 C 
HETATM    2  C2  UNL     1     -37.256  15.194  -4.380  1.00 20.00    -0.072 C 
HETATM    3  C3  UNL     1     -35.384  14.007  -4.015  1.00 20.00     0.155 C 
HETATM    4  C4  UNL     1     -35.033  15.374  -3.481  1.00 20.00     0.075 C 
HETATM    5  C5  UNL     1     -36.233  16.243  -3.961  1.00 20.00    -0.013 C 
HETATM    6  C6  UNL     1     -38.661  15.561  -4.732  1.00 20.00     0.044 C 
HETATM    7  C7  UNL     1     -36.742  17.105  -2.795  1.00 20.00     0.020 C 
HETATM    8  C8  UNL     1     -35.904  17.153  -5.157  1.00 20.00     0.020 C 
HETATM    9  O12 UNL     1     -34.635  13.043  -4.055  1.00 20.00    -0.293 OA
ENDROOT
BRANCH   4  10
HETATM   10  C11 UNL     1     -33.641  15.809  -3.911  1.00 20.00    -0.010 C 
HETATM   11  C9  UNL     1     -32.967  16.635  -2.814  1.00 20.00     0.010 C 
HETATM   12  C10 UNL     1     -32.779  14.598  -4.270  1.00 20.00     0.010 C 
ENDBRANCH   4  10
TORSDOF 1
ENDMDL
MODEL 3
REMARK VINA RESULT:      -4.6     16.587     17.801
REMARK  1 active torsions:
REMARK  status: ('A' for Active; 'I' for Inactive)
REMARK    1  A    between atoms: C4_4  and  C11_11 
ROOT
HETATM    1  C1  UNL     1     -32.759  15.765  -3.483  1.00 20.00     0.053 C 
HETATM    2  C2  UNL     1     -33.305  16.776  -2.797  1.00 20.00    -0.072 C 
HETATM    3  C3  UNL     1     -33.865  15.077  -4.156  1.00 20.00     0.155 C 
HETATM    4  C4  UNL     1     -35.160  15.838  -4.007  1.00 20.00     0.075 C 
HETATM    5  C5  UNL     1     -34.825  16.857  -2.878  1.00 20.00    -0.013 C 
HETATM    6  C6  UNL     1     -32.509  17.734  -1.972  1.00 20.00     0.044 C 
HETATM    7  C7  UNL     1     -35.302  18.258  -3.293  1.00 20.00     0.020 C 
HETATM    8  C8  UNL     1     -35.438  16.498  -1.513  1.00 20.00     0.020 C 
HETATM    9  O12 UNL     1     -33.715  14.043  -4.787  1.00 20.00    -0.293 OA
ENDROOT
BRANCH   4  10
HETATM   10  C11 UNL     1     -36.341  14.908  -3.780  1.00 20.00    -0.010 C 
HETATM   11  C9  UNL     1     -37.655  15.599  -4.146  1.00 20.00     0.010 C 
HETATM   12  C10 UNL     1     -36.179  13.617  -4.583  1.00 20.00     0.010 C 
ENDBRANCH   4  10
TORSDOF 1
ENDMDL
MODEL 4
REMARK VINA RESULT:      -4.6     16.370     17.576
REMARK  1 active torsions:
REMARK  status: ('A' for Active; 'I' for Inactive)
REMARK    1  A    between atoms: C4_4  and  C11_11 
ROOT
HETATM    1  C1  UNL     1     -34.665  17.253  -5.602  1.00 20.00     0.053 C 
HETATM    2  C2  UNL     1     -34.603  15.926  -5.444  1.00 20.00    -0.072 C 
HETATM    3  C3  UNL     1     -34.023  17.839  -4.422  1.00 20.00     0.155 C 
HETATM    4  C4  UNL     1     -33.364  16.782  -3.570  1.00 20.00     0.075 C 
HETATM    5  C5  UNL     1     -33.972  15.465  -4.135  1.00 20.00    -0.013 C 
HETATM    6  C6  UNL     1     -35.146  14.954  -6.441  1.00 20.00     0.044 C 
HETATM    7  C7  UNL     1     -32.851  14.441  -4.370  1.00 20.00     0.020 C 
HETATM    8  C8  UNL     1     -35.049  14.838  -3.232  1.00 20.00     0.020 C 
HETATM    9  O12 UNL     1     -34.002  19.042  -4.208  1.00 20.00    -0.293 OA
ENDROOT
BRANCH   4  10
HETATM   10  C11 UNL     1     -33.548  17.054  -2.085  1.00 20.00    -0.010 C 
HETATM   11  C9  UNL     1     -32.391  17.892  -1.539  1.00 20.00     0.010 C 
HETATM   12  C10 UNL     1     -34.881  17.756  -1.823  1.00 20.00     0.010 C 
ENDBRANCH   4  10
TORSDOF 1
ENDMDL
MODEL 5
REMARK VINA RESULT:      -4.6     18.695     19.937
REMARK  1 active torsions:
REMARK  status: ('A' for Active; 'I' for Inactive)
REMARK    1  A    between atoms: C4_4  and  C11_11 
ROOT
HETATM    1  C1  UNL     1     -35.559  13.824  -4.217  1.00 20.00     0.053 C 
HETATM    2  C2  UNL     1     -34.632  14.705  -4.610  1.00 20.00    -0.072 C 
HETATM    3  C3  UNL     1     -36.851  14.363  -4.652  1.00 20.00     0.155 C 
HETATM    4  C4  UNL     1     -36.675  15.576  -5.533  1.00 20.00     0.075 C 
HETATM    5  C5  UNL     1     -35.181  15.950  -5.298  1.00 20.00    -0.013 C 
HETATM    6  C6  UNL     1     -33.169  14.524  -4.364  1.00 20.00     0.044 C 
HETATM    7  C7  UNL     1     -34.497  16.205  -6.651  1.00 20.00     0.020 C 
HETATM    8  C8  UNL     1     -34.981  17.176  -4.391  1.00 20.00     0.020 C 
HETATM    9  O12 UNL     1     -37.917  13.844  -4.358  1.00 20.00    -0.293 OA
ENDROOT
BRANCH   4  10
HETATM   10  C11 UNL     1     -37.715  16.644  -5.241  1.00 20.00    -0.010 C 
HETATM   11  C9  UNL     1     -38.853  16.590  -6.262  1.00 20.00     0.010 C 
HETATM   12  C10 UNL     1     -38.268  16.492  -3.823  1.00 20.00     0.010 C 
ENDBRANCH   4  10
TORSDOF 1
ENDMDL
MODEL 6
REMARK VINA RESULT:      -4.5     18.232     19.252
REMARK  1 active torsions:
REMARK  status: ('A' for Active; 'I' for Inactive)
REMARK    1  A    between atoms: C4_4  and  C11_11 
ROOT
HETATM    1  C1  UNL     1     -37.739  14.400  -4.301  1.00 20.00     0.053 C 
HETATM    2  C2  UNL     1     -37.770  15.709  -4.028  1.00 20.00    -0.072 C 
HETATM    3  C3  UNL     1     -36.324  14.034  -4.414  1.00 20.00     0.155 C 
HETATM    4  C4  UNL     1     -35.425  15.174  -4.000  1.00 20.00     0.075 C 
HETATM    5  C5  UNL     1     -36.405  16.385  -3.978  1.00 20.00    -0.013 C 
HETATM    6  C6  UNL     1     -39.036  16.478  -3.829  1.00 20.00     0.044 C 
HETATM    7  C7  UNL     1     -36.207  17.181  -2.678  1.00 20.00     0.020 C 
HETATM    8  C8  UNL     1     -36.250  17.333  -5.180  1.00 20.00     0.020 C 
HETATM    9  O12 UNL     1     -35.952  12.923  -4.758  1.00 20.00    -0.293 OA
ENDROOT
BRANCH   4  10
HETATM   10  C11 UNL     1     -34.201  15.284  -4.895  1.00 20.00    -0.010 C 
HETATM   11  C9  UNL     1     -33.050  14.440  -4.346  1.00 20.00     0.010 C 
HETATM   12  C10 UNL     1     -34.534  14.861  -6.326  1.00 20.00     0.010 C 
ENDBRANCH   4  10
TORSDOF 1
ENDMDL
MODEL 7
REMARK VINA RESULT:      -4.5     17.493     18.588
REMARK  1 active torsions:
REMARK  status: ('A' for Active; 'I' for Inactive)
REMARK    1  A    between atoms: C4_4  and  C11_11 
ROOT
HETATM    1  C1  UNL     1     -35.494  14.736  -3.117  1.00 20.00     0.053 C 
HETATM    2  C2  UNL     1     -35.034  15.949  -2.789  1.00 20.00    -0.072 C 
HETATM    3  C3  UNL     1     -35.188  14.549  -4.538  1.00 20.00     0.155 C 
HETATM    4  C4  UNL     1     -34.317  15.662  -5.067  1.00 20.00     0.075 C 
HETATM    5  C5  UNL     1     -34.421  16.735  -3.943  1.00 20.00    -0.013 C 
HETATM    6  C6  UNL     1     -35.142  16.525  -1.415  1.00 20.00     0.044 C 
HETATM    7  C7  UNL     1     -33.017  17.255  -3.598  1.00 20.00     0.020 C 
HETATM    8  C8  UNL     1     -35.328  17.925  -4.300  1.00 20.00     0.020 C 
HETATM    9  O12 UNL     1     -35.569  13.578  -5.175  1.00 20.00    -0.293 OA
ENDROOT
BRANCH   4  10
HETATM   10  C11 UNL     1     -34.722  16.081  -6.471  1.00 20.00    -0.010 C 
HETATM   11  C9  UNL     1     -33.898  15.333  -7.520  1.00 20.00     0.010 C 
HETATM   12  C10 UNL     1     -36.215  15.842  -6.700  1.00 20.00     0.010 C 
ENDBRANCH   4  10
TORSDOF 1
ENDMDL
MODEL 8
REMARK VINA RESULT:      -4.4     17.824     18.986
REMARK  1 active torsions:
REMARK  status: ('A' for Active; 'I' for Inactive)
REMARK    1  A    between atoms: C4_4  and  C11_11 
ROOT
HETATM    1  C1  UNL     1     -35.917  14.367  -5.912  1.00 20.00     0.053 C 
HETATM    2  C2  UNL     1     -36.230  15.666  -5.976  1.00 20.00    -0.072 C 
HETATM    3  C3  UNL     1     -35.485  14.114  -4.534  1.00 20.00     0.155 C 
HETATM    4  C4  UNL     1     -35.724  15.315  -3.651  1.00 20.00     0.075 C 
HETATM    5  C5  UNL     1     -35.998  16.446  -4.687  1.00 20.00    -0.013 C 
HETATM    6  C6  UNL     1     -36.726  16.331  -7.219  1.00 20.00     0.044 C 
HETATM    7  C7  UNL     1     -37.246  17.237  -4.264  1.00 20.00     0.020 C 
HETATM    8  C8  UNL     1     -34.821  17.419  -4.873  1.00 20.00     0.020 C 
HETATM    9  O12 UNL     1     -35.033  13.040  -4.168  1.00 20.00    -0.293 OA
ENDROOT
BRANCH   4  10
HETATM   10  C11 UNL     1     -34.585  15.531  -2.668  1.00 20.00    -0.010 C 
HETATM   11  C9  UNL     1     -33.292  15.887  -3.403  1.00 20.00     0.010 C 
HETATM   12  C10 UNL     1     -34.939  16.624  -1.658  1.00 20.00     0.010 C 
ENDBRANCH   4  10
TORSDOF 1
ENDMDL
MODEL 9
REMARK VINA RESULT:      -4.3     16.735     17.871
REMARK  1 active torsions:
REMARK  status: ('A' for Active; 'I' for Inactive)
REMARK    1  A    between atoms: C4_4  and  C11_11 
ROOT
HETATM    1  C1  UNL     1     -36.228  15.594  -3.285  1.00 20.00     0.053 C 
HETATM    2  C2  UNL     1     -35.614  14.844  -4.208  1.00 20.00    -0.072 C 
HETATM    3  C3  UNL     1     -35.432  16.819  -3.153  1.00 20.00     0.155 C 
HETATM    4  C4  UNL     1     -34.354  16.893  -4.206  1.00 20.00     0.075 C 
HETATM    5  C5  UNL     1     -34.324  15.438  -4.761  1.00 20.00    -0.013 C 
HETATM    6  C6  UNL     1     -36.115  13.505  -4.644  1.00 20.00     0.044 C 
HETATM    7  C7  UNL     1     -34.323  15.475  -6.297  1.00 20.00     0.020 C 
HETATM    8  C8  UNL     1     -33.121  14.611  -4.274  1.00 20.00     0.020 C 
HETATM    9  O12 UNL     1     -35.668  17.674  -2.313  1.00 20.00    -0.293 OA
ENDROOT
BRANCH   4  10
HETATM   10  C11 UNL     1     -33.056  17.454  -3.649  1.00 20.00    -0.010 C 
HETATM   11  C9  UNL     1     -32.905  18.933  -4.007  1.00 20.00     0.010 C 
HETATM   12  C10 UNL     1     -32.988  17.266  -2.133  1.00 20.00     0.010 C 
ENDBRANCH   4  10
TORSDOF 1
ENDMDL
