MODEL 1
REMARK VINA RESULT:      -5.4      0.000      0.000
REMARK  1 active torsions:
REMARK  status: ('A' for Active; 'I' for Inactive)
REMARK    1  A    between atoms: C6_6  and  O11_11 
ROOT
HETATM    1  C1  UNL     1     -35.361  15.351  -2.738  1.00 20.00     0.011 A 
HETATM    2  C2  UNL     1     -34.818  14.692  -3.843  1.00 20.00     0.037 A 
HETATM    3  C3  UNL     1     -32.762  15.976  -3.655  1.00 20.00     0.044 A 
HETATM    4  C4  UNL     1     -34.603  16.327  -2.110  1.00 20.00    -0.048 A 
HETATM    5  C5  UNL     1     -33.314  16.634  -2.568  1.00 20.00    -0.049 A 
HETATM    6  C6  UNL     1     -33.528  15.002  -4.299  1.00 20.00     0.066 A 
HETATM    7  C7  UNL     1     -32.674  17.679  -1.709  1.00 20.00     0.040 C 
HETATM    8  C8  UNL     1     -33.904  18.282  -1.016  1.00 20.00     0.014 C 
HETATM    9  C9  UNL     1     -34.937  17.143  -0.892  1.00 20.00     0.015 C 
HETATM   10  C10 UNL     1     -36.364  17.664  -0.832  1.00 20.00     0.015 C 
ENDROOT
BRANCH   6  11
HETATM   11  O11 UNL     1     -33.016  14.342  -5.374  1.00 20.00    -0.361 OA
HETATM   12  H23 UNL     1     -33.714  14.173  -6.026  1.00 20.00     0.217 HD
ENDBRANCH   6  11
TORSDOF 1
ENDMDL
MODEL 2
REMARK VINA RESULT:      -5.3      0.917      2.410
REMARK  1 active torsions:
REMARK  status: ('A' for Active; 'I' for Inactive)
REMARK    1  A    between atoms: C6_6  and  O11_11 
ROOT
HETATM    1  C1  UNL     1     -32.817  16.227  -3.387  1.00 20.00     0.011 A 
HETATM    2  C2  UNL     1     -33.319  15.110  -4.059  1.00 20.00     0.037 A 
HETATM    3  C3  UNL     1     -35.355  15.171  -2.731  1.00 20.00     0.044 A 
HETATM    4  C4  UNL     1     -33.584  16.797  -2.384  1.00 20.00    -0.048 A 
HETATM    5  C5  UNL     1     -34.843  16.271  -2.062  1.00 20.00    -0.049 A 
HETATM    6  C6  UNL     1     -34.579  14.585  -3.733  1.00 20.00     0.066 A 
HETATM    7  C7  UNL     1     -35.503  17.077  -0.987  1.00 20.00     0.040 C 
HETATM    8  C8  UNL     1     -34.296  17.817  -0.393  1.00 20.00     0.014 C 
HETATM    9  C9  UNL     1     -33.293  18.014  -1.550  1.00 20.00     0.015 C 
HETATM   10  C10 UNL     1     -31.860  18.133  -1.055  1.00 20.00     0.015 C 
ENDROOT
BRANCH   6  11
HETATM   11  O11 UNL     1     -35.052  13.499  -4.406  1.00 20.00    -0.361 OA
HETATM   12  H23 UNL     1     -35.990  13.621  -4.619  1.00 20.00     0.217 HD
ENDBRANCH   6  11
TORSDOF 1
ENDMDL
MODEL 3
REMARK VINA RESULT:      -5.2     15.114     16.220
REMARK  1 active torsions:
REMARK  status: ('A' for Active; 'I' for Inactive)
REMARK    1  A    between atoms: C6_6  and  O11_11 
ROOT
HETATM    1  C1  UNL     1     -24.896  18.836   8.986  1.00 20.00     0.011 A 
HETATM    2  C2  UNL     1     -23.919  18.731   7.993  1.00 20.00     0.037 A 
HETATM    3  C3  UNL     1     -22.740  17.029   9.269  1.00 20.00     0.044 A 
HETATM    4  C4  UNL     1     -24.777  18.045  10.118  1.00 20.00    -0.048 A 
HETATM    5  C5  UNL     1     -23.707  17.149  10.255  1.00 20.00    -0.049 A 
HETATM    6  C6  UNL     1     -22.849  17.835   8.134  1.00 20.00     0.066 A 
HETATM    7  C7  UNL     1     -23.815  16.373  11.529  1.00 20.00     0.040 C 
HETATM    8  C8  UNL     1     -24.782  17.257  12.330  1.00 20.00     0.014 C 
HETATM    9  C9  UNL     1     -25.704  17.940  11.297  1.00 20.00     0.015 C 
HETATM   10  C10 UNL     1     -26.258  19.261  11.806  1.00 20.00     0.015 C 
ENDROOT
BRANCH   6  11
HETATM   11  O11 UNL     1     -21.912  17.744   7.149  1.00 20.00    -0.361 OA
HETATM   12  H23 UNL     1     -22.343  17.642   6.286  1.00 20.00     0.217 HD
ENDBRANCH   6  11
TORSDOF 1
ENDMDL
MODEL 4
REMARK VINA RESULT:      -5.2      1.531      2.150
REMARK  1 active torsions:
REMARK  status: ('A' for Active; 'I' for Inactive)
REMARK    1  A    between atoms: C6_6  and  O11_11 
ROOT
HETATM    1  C1  UNL     1     -36.575  15.184  -3.566  1.00 20.00     0.011 A 
HETATM    2  C2  UNL     1     -36.754  14.621  -4.832  1.00 20.00     0.037 A 
HETATM    3  C3  UNL     1     -34.386  14.872  -5.328  1.00 20.00     0.044 A 
HETATM    4  C4  UNL     1     -35.304  15.598  -3.199  1.00 20.00    -0.048 A 
HETATM    5  C5  UNL     1     -34.221  15.441  -4.076  1.00 20.00    -0.049 A 
HETATM    6  C6  UNL     1     -35.668  14.467  -5.707  1.00 20.00     0.066 A 
HETATM    7  C7  UNL     1     -32.948  15.913  -3.447  1.00 20.00     0.040 C 
HETATM    8  C8  UNL     1     -33.491  16.800  -2.316  1.00 20.00     0.014 C 
HETATM    9  C9  UNL     1     -34.844  16.189  -1.895  1.00 20.00     0.015 C 
HETATM   10  C10 UNL     1     -35.778  17.223  -1.287  1.00 20.00     0.015 C 
ENDROOT
BRANCH   6  11
HETATM   11  O11 UNL     1     -35.865  13.909  -6.934  1.00 20.00    -0.361 OA
HETATM   12  H23 UNL     1     -35.770  12.945  -6.882  1.00 20.00     0.217 HD
ENDBRANCH   6  11
TORSDOF 1
ENDMDL
MODEL 5
REMARK VINA RESULT:      -5.0     14.976     16.098
REMARK  1 active torsions:
REMARK  status: ('A' for Active; 'I' for Inactive)
REMARK    1  A    between atoms: C6_6  and  O11_11 
ROOT
HETATM    1  C1  UNL     1     -23.326  17.055   9.768  1.00 20.00     0.011 A 
HETATM    2  C2  UNL     1     -23.084  17.535   8.479  1.00 20.00     0.037 A 
HETATM    3  C3  UNL     1     -24.844  19.197   8.720  1.00 20.00     0.044 A 
HETATM    4  C4  UNL     1     -24.333  17.643  10.516  1.00 20.00    -0.048 A 
HETATM    5  C5  UNL     1     -25.084  18.705   9.993  1.00 20.00    -0.049 A 
HETATM    6  C6  UNL     1     -23.839  18.598   7.958  1.00 20.00     0.066 A 
HETATM    7  C7  UNL     1     -26.077  19.206  10.994  1.00 20.00     0.040 C 
HETATM    8  C8  UNL     1     -26.149  18.012  11.957  1.00 20.00     0.014 C 
HETATM    9  C9  UNL     1     -24.759  17.342  11.926  1.00 20.00     0.015 C 
HETATM   10  C10 UNL     1     -24.824  15.866  12.283  1.00 20.00     0.015 C 
ENDROOT
BRANCH   6  11
HETATM   11  O11 UNL     1     -23.581  19.055   6.701  1.00 20.00    -0.361 OA
HETATM   12  H23 UNL     1     -24.412  19.220   6.228  1.00 20.00     0.217 HD
ENDBRANCH   6  11
TORSDOF 1
ENDMDL
MODEL 6
REMARK VINA RESULT:      -4.8      1.790      3.238
REMARK  1 active torsions:
REMARK  status: ('A' for Active; 'I' for Inactive)
REMARK    1  A    between atoms: C6_6  and  O11_11 
ROOT
HETATM    1  C1  UNL     1     -32.908  17.122  -2.362  1.00 20.00     0.011 A 
HETATM    2  C2  UNL     1     -33.854  16.291  -2.967  1.00 20.00     0.037 A 
HETATM    3  C3  UNL     1     -35.443  16.722  -1.177  1.00 20.00     0.044 A 
HETATM    4  C4  UNL     1     -33.236  17.735  -1.163  1.00 20.00    -0.048 A 
HETATM    5  C5  UNL     1     -34.494  17.535  -0.579  1.00 20.00    -0.049 A 
HETATM    6  C6  UNL     1     -35.112  16.091  -2.379  1.00 20.00     0.066 A 
HETATM    7  C7  UNL     1     -34.636  18.332   0.680  1.00 20.00     0.040 C 
HETATM    8  C8  UNL     1     -33.165  18.623   1.009  1.00 20.00     0.014 C 
HETATM    9  C9  UNL     1     -32.422  18.697  -0.342  1.00 20.00     0.015 C 
HETATM   10  C10 UNL     1     -30.948  18.348  -0.208  1.00 20.00     0.015 C 
ENDROOT
BRANCH   6  11
HETATM   11  O11 UNL     1     -36.021  15.282  -2.990  1.00 20.00    -0.361 OA
HETATM   12  H23 UNL     1     -35.751  15.107  -3.905  1.00 20.00     0.217 HD
ENDBRANCH   6  11
TORSDOF 1
ENDMDL
MODEL 7
REMARK VINA RESULT:      -4.7     11.946     12.829
REMARK  1 active torsions:
REMARK  status: ('A' for Active; 'I' for Inactive)
REMARK    1  A    between atoms: C6_6  and  O11_11 
ROOT
HETATM    1  C1  UNL     1     -33.447   7.201   4.839  1.00 20.00     0.011 A 
HETATM    2  C2  UNL     1     -34.213   6.652   5.870  1.00 20.00     0.037 A 
HETATM    3  C3  UNL     1     -34.606   4.637   4.567  1.00 20.00     0.044 A 
HETATM    4  C4  UNL     1     -33.279   6.466   3.676  1.00 20.00    -0.048 A 
HETATM    5  C5  UNL     1     -33.855   5.194   3.545  1.00 20.00    -0.049 A 
HETATM    6  C6  UNL     1     -34.789   5.380   5.735  1.00 20.00     0.066 A 
HETATM    7  C7  UNL     1     -33.499   4.576   2.230  1.00 20.00     0.040 C 
HETATM    8  C8  UNL     1     -33.070   5.815   1.430  1.00 20.00     0.014 C 
HETATM    9  C9  UNL     1     -32.477   6.809   2.451  1.00 20.00     0.015 C 
HETATM   10  C10 UNL     1     -32.592   8.251   1.984  1.00 20.00     0.015 C 
ENDROOT
BRANCH   6  11
HETATM   11  O11 UNL     1     -35.526   4.862   6.756  1.00 20.00    -0.361 OA
HETATM   12  H23 UNL     1     -34.995   4.231   7.266  1.00 20.00     0.217 HD
ENDBRANCH   6  11
TORSDOF 1
ENDMDL
MODEL 8
REMARK VINA RESULT:      -4.7      2.364      3.718
REMARK  1 active torsions:
REMARK  status: ('A' for Active; 'I' for Inactive)
REMARK    1  A    between atoms: C6_6  and  O11_11 
ROOT
HETATM    1  C1  UNL     1     -36.073  16.368  -3.218  1.00 20.00     0.011 A 
HETATM    2  C2  UNL     1     -37.289  15.786  -3.584  1.00 20.00     0.037 A 
HETATM    3  C3  UNL     1     -36.143  13.816  -4.432  1.00 20.00     0.044 A 
HETATM    4  C4  UNL     1     -34.903  15.672  -3.474  1.00 20.00    -0.048 A 
HETATM    5  C5  UNL     1     -34.941  14.406  -4.076  1.00 20.00    -0.049 A 
HETATM    6  C6  UNL     1     -37.324  14.520  -4.188  1.00 20.00     0.066 A 
HETATM    7  C7  UNL     1     -33.566  13.832  -4.209  1.00 20.00     0.040 C 
HETATM    8  C8  UNL     1     -32.705  15.096  -4.069  1.00 20.00     0.014 C 
HETATM    9  C9  UNL     1     -33.486  16.054  -3.144  1.00 20.00     0.015 C 
HETATM   10  C10 UNL     1     -33.133  17.511  -3.395  1.00 20.00     0.015 C 
ENDROOT
BRANCH   6  11
HETATM   11  O11 UNL     1     -38.522  13.970  -4.531  1.00 20.00    -0.361 OA
HETATM   12  H23 UNL     1     -39.086  14.634  -4.956  1.00 20.00     0.217 HD
ENDBRANCH   6  11
TORSDOF 1
ENDMDL
MODEL 9
REMARK VINA RESULT:      -4.7      1.871      2.293
REMARK  1 active torsions:
REMARK  status: ('A' for Active; 'I' for Inactive)
REMARK    1  A    between atoms: C6_6  and  O11_11 
ROOT
HETATM    1  C1  UNL     1     -36.621  16.045  -3.678  1.00 20.00     0.011 A 
HETATM    2  C2  UNL     1     -36.778  14.720  -4.091  1.00 20.00     0.037 A 
HETATM    3  C3  UNL     1     -34.390  14.318  -3.860  1.00 20.00     0.044 A 
HETATM    4  C4  UNL     1     -35.347  16.497  -3.373  1.00 20.00    -0.048 A 
HETATM    5  C5  UNL     1     -34.243  15.637  -3.464  1.00 20.00    -0.049 A 
HETATM    6  C6  UNL     1     -35.671  13.862  -4.183  1.00 20.00     0.066 A 
HETATM    7  C7  UNL     1     -32.986  16.330  -3.041  1.00 20.00     0.040 C 
HETATM    8  C8  UNL     1     -33.406  17.802  -3.166  1.00 20.00     0.014 C 
HETATM    9  C9  UNL     1     -34.920  17.849  -2.871  1.00 20.00     0.015 C 
HETATM   10  C10 UNL     1     -35.600  19.033  -3.541  1.00 20.00     0.015 C 
ENDROOT
BRANCH   6  11
HETATM   11  O11 UNL     1     -35.849  12.572  -4.581  1.00 20.00    -0.361 OA
HETATM   12  H23 UNL     1     -35.043  12.239  -5.006  1.00 20.00     0.217 HD
ENDBRANCH   6  11
TORSDOF 1
ENDMDL
