MODEL 1
REMARK VINA RESULT:      -4.0      0.000      0.000
REMARK  2 active torsions:
REMARK  status: ('A' for Active; 'I' for Inactive)
REMARK    1  A    between atoms: C1_1  and  C5_5 
REMARK    2  A    between atoms: C2_2  and  C6_6 
ROOT
HETATM    1  C1  UNL     1     -34.680  15.496  -3.261  1.00 20.00    -0.063 C 
HETATM    2  C2  UNL     1     -34.589  16.267  -2.346  1.00 20.00    -0.063 C 
ENDROOT
BRANCH   1   3
HETATM    3  C5  UNL     1     -34.787  14.575  -4.353  1.00 20.00     0.141 A 
HETATM    4  C3  UNL     1     -36.017  13.705  -4.455  1.00 20.00     0.221 A 
HETATM    5  O9  UNL     1     -34.779  13.204  -3.932  1.00 20.00    -0.362 OA
HETATM    6  C7  UNL     1     -33.962  14.834  -5.570  1.00 20.00     0.063 C 
ENDBRANCH   1   3
BRANCH   2   7
HETATM    7  C6  UNL     1     -34.478  17.208  -1.232  1.00 20.00     0.141 A 
HETATM    8  C4  UNL     1     -35.443  17.067  -0.098  1.00 20.00     0.221 A 
HETATM    9  O10 UNL     1     -35.623  18.046  -1.131  1.00 20.00    -0.362 OA
HETATM   10  C8  UNL     1     -33.178  17.894  -1.063  1.00 20.00     0.063 C 
ENDBRANCH   2   7
TORSDOF 2
ENDMDL
MODEL 2
REMARK VINA RESULT:      -4.0      0.020      4.714
REMARK  2 active torsions:
REMARK  status: ('A' for Active; 'I' for Inactive)
REMARK    1  A    between atoms: C1_1  and  C5_5 
REMARK    2  A    between atoms: C2_2  and  C6_6 
ROOT
HETATM    1  C1  UNL     1     -34.601  16.270  -2.333  1.00 20.00    -0.063 C 
HETATM    2  C2  UNL     1     -34.690  15.500  -3.249  1.00 20.00    -0.063 C 
ENDROOT
BRANCH   1   3
HETATM    3  C5  UNL     1     -34.496  17.189  -1.239  1.00 20.00     0.141 A 
HETATM    4  C3  UNL     1     -35.458  17.061  -0.083  1.00 20.00     0.221 A 
HETATM    5  O9  UNL     1     -35.642  18.042  -1.112  1.00 20.00    -0.362 OA
HETATM    6  C7  UNL     1     -33.196  17.897  -1.045  1.00 20.00     0.063 C 
ENDBRANCH   1   3
BRANCH   2   7
HETATM    7  C6  UNL     1     -34.798  14.562  -4.367  1.00 20.00     0.141 A 
HETATM    8  C4  UNL     1     -36.022  13.707  -4.447  1.00 20.00     0.221 A 
HETATM    9  O10 UNL     1     -34.782  13.210  -3.927  1.00 20.00    -0.362 OA
HETATM   10  C8  UNL     1     -33.970  14.847  -5.560  1.00 20.00     0.063 C 
ENDBRANCH   2   7
TORSDOF 2
ENDMDL
MODEL 3
REMARK VINA RESULT:      -3.9      0.873      4.830
REMARK  2 active torsions:
REMARK  status: ('A' for Active; 'I' for Inactive)
REMARK    1  A    between atoms: C1_1  and  C5_5 
REMARK    2  A    between atoms: C2_2  and  C6_6 
ROOT
HETATM    1  C1  UNL     1     -34.644  16.318  -2.372  1.00 20.00    -0.063 C 
HETATM    2  C2  UNL     1     -34.710  15.528  -3.274  1.00 20.00    -0.063 C 
ENDROOT
BRANCH   1   3
HETATM    3  C5  UNL     1     -34.567  17.260  -1.297  1.00 20.00     0.141 A 
HETATM    4  C3  UNL     1     -34.079  18.659  -1.586  1.00 20.00     0.221 A 
HETATM    5  O9  UNL     1     -33.223  17.667  -1.004  1.00 20.00    -0.362 OA
HETATM    6  C7  UNL     1     -35.394  17.002  -0.080  1.00 20.00     0.063 C 
ENDBRANCH   1   3
BRANCH   2   7
HETATM    7  C6  UNL     1     -34.789  14.566  -4.373  1.00 20.00     0.141 A 
HETATM    8  C4  UNL     1     -36.001  13.694  -4.454  1.00 20.00     0.221 A 
HETATM    9  O10 UNL     1     -34.764  13.223  -3.904  1.00 20.00    -0.362 OA
HETATM   10  C8  UNL     1     -33.946  14.836  -5.559  1.00 20.00     0.063 C 
ENDBRANCH   2   7
TORSDOF 2
ENDMDL
MODEL 4
REMARK VINA RESULT:      -3.9      0.876      1.388
REMARK  2 active torsions:
REMARK  status: ('A' for Active; 'I' for Inactive)
REMARK    1  A    between atoms: C1_1  and  C5_5 
REMARK    2  A    between atoms: C2_2  and  C6_6 
ROOT
HETATM    1  C1  UNL     1     -34.699  15.528  -3.278  1.00 20.00    -0.063 C 
HETATM    2  C2  UNL     1     -34.634  16.320  -2.378  1.00 20.00    -0.063 C 
ENDROOT
BRANCH   1   3
HETATM    3  C5  UNL     1     -34.777  14.584  -4.352  1.00 20.00     0.141 A 
HETATM    4  C3  UNL     1     -35.995  13.699  -4.460  1.00 20.00     0.221 A 
HETATM    5  O9  UNL     1     -34.763  13.222  -3.903  1.00 20.00    -0.362 OA
HETATM    6  C7  UNL     1     -33.930  14.826  -5.558  1.00 20.00     0.063 C 
ENDBRANCH   1   3
BRANCH   2   7
HETATM    7  C6  UNL     1     -34.555  17.283  -1.281  1.00 20.00     0.141 A 
HETATM    8  C4  UNL     1     -34.070  18.663  -1.595  1.00 20.00     0.221 A 
HETATM    9  O10 UNL     1     -33.212  17.672  -1.014  1.00 20.00    -0.362 OA
HETATM   10  C8  UNL     1     -35.381  17.005  -0.085  1.00 20.00     0.063 C 
ENDBRANCH   2   7
TORSDOF 2
ENDMDL
MODEL 5
REMARK VINA RESULT:      -3.7      1.377      2.059
REMARK  2 active torsions:
REMARK  status: ('A' for Active; 'I' for Inactive)
REMARK    1  A    between atoms: C1_1  and  C5_5 
REMARK    2  A    between atoms: C2_2  and  C6_6 
ROOT
HETATM    1  C1  UNL     1     -34.488  15.752  -2.804  1.00 20.00    -0.063 C 
HETATM    2  C2  UNL     1     -34.559  16.539  -1.900  1.00 20.00    -0.063 C 
ENDROOT
BRANCH   1   3
HETATM    3  C5  UNL     1     -34.403  14.814  -3.883  1.00 20.00     0.141 A 
HETATM    4  C3  UNL     1     -33.044  14.454  -4.432  1.00 20.00     0.221 A 
HETATM    5  O9  UNL     1     -33.900  15.396  -5.093  1.00 20.00    -0.362 OA
HETATM    6  C7  UNL     1     -35.556  13.890  -4.097  1.00 20.00     0.063 C 
ENDBRANCH   1   3
BRANCH   2   7
HETATM    7  C6  UNL     1     -34.646  17.496  -0.798  1.00 20.00     0.141 A 
HETATM    8  C4  UNL     1     -34.316  18.926  -1.084  1.00 20.00     0.221 A 
HETATM    9  O10 UNL     1     -33.374  18.039  -0.466  1.00 20.00    -0.362 OA
HETATM   10  C8  UNL     1     -35.487  17.111   0.357  1.00 20.00     0.063 C 
ENDBRANCH   2   7
TORSDOF 2
ENDMDL
MODEL 6
REMARK VINA RESULT:      -3.7      1.379      4.969
REMARK  2 active torsions:
REMARK  status: ('A' for Active; 'I' for Inactive)
REMARK    1  A    between atoms: C1_1  and  C5_5 
REMARK    2  A    between atoms: C2_2  and  C6_6 
ROOT
HETATM    1  C1  UNL     1     -34.556  16.546  -1.897  1.00 20.00    -0.063 C 
HETATM    2  C2  UNL     1     -34.486  15.762  -2.803  1.00 20.00    -0.063 C 
ENDROOT
BRANCH   1   3
HETATM    3  C5  UNL     1     -34.639  17.483  -0.816  1.00 20.00     0.141 A 
HETATM    4  C3  UNL     1     -34.301  18.931  -1.078  1.00 20.00     0.221 A 
HETATM    5  O9  UNL     1     -33.366  18.038  -0.457  1.00 20.00    -0.362 OA
HETATM    6  C7  UNL     1     -35.488  17.122   0.357  1.00 20.00     0.063 C 
ENDBRANCH   1   3
BRANCH   2   7
HETATM    7  C6  UNL     1     -34.401  14.806  -3.906  1.00 20.00     0.141 A 
HETATM    8  C4  UNL     1     -33.044  14.467  -4.434  1.00 20.00     0.221 A 
HETATM    9  O10 UNL     1     -33.900  15.409  -5.093  1.00 20.00    -0.362 OA
HETATM   10  C8  UNL     1     -35.556  13.901  -4.097  1.00 20.00     0.063 C 
ENDBRANCH   2   7
TORSDOF 2
ENDMDL
MODEL 7
REMARK VINA RESULT:      -3.6     12.204     14.318
REMARK  2 active torsions:
REMARK  status: ('A' for Active; 'I' for Inactive)
REMARK    1  A    between atoms: C1_1  and  C5_5 
REMARK    2  A    between atoms: C2_2  and  C6_6 
ROOT
HETATM    1  C1  UNL     1     -25.129  18.929   6.424  1.00 20.00    -0.063 C 
HETATM    2  C2  UNL     1     -24.771  18.883   7.569  1.00 20.00    -0.063 C 
ENDROOT
BRANCH   1   3
HETATM    3  C5  UNL     1     -25.557  18.984   5.059  1.00 20.00     0.141 A 
HETATM    4  C3  UNL     1     -27.014  19.245   4.760  1.00 20.00     0.221 A 
HETATM    5  O9  UNL     1     -26.458  17.924   4.710  1.00 20.00    -0.362 OA
HETATM    6  C7  UNL     1     -24.527  19.263   4.014  1.00 20.00     0.063 C 
ENDBRANCH   1   3
BRANCH   2   7
HETATM    7  C6  UNL     1     -24.334  18.826   8.963  1.00 20.00     0.141 A 
HETATM    8  C4  UNL     1     -22.864  18.812   9.237  1.00 20.00     0.221 A 
HETATM    9  O10 UNL     1     -23.650  17.613   9.255  1.00 20.00    -0.362 OA
HETATM   10  C8  UNL     1     -25.310  19.261   9.987  1.00 20.00     0.063 C 
ENDBRANCH   2   7
TORSDOF 2
ENDMDL
MODEL 8
REMARK VINA RESULT:      -3.6      1.790      2.238
REMARK  2 active torsions:
REMARK  status: ('A' for Active; 'I' for Inactive)
REMARK    1  A    between atoms: C1_1  and  C5_5 
REMARK    2  A    between atoms: C2_2  and  C6_6 
ROOT
HETATM    1  C1  UNL     1     -33.711  16.217  -2.947  1.00 20.00    -0.063 C 
HETATM    2  C2  UNL     1     -33.415  17.065  -2.151  1.00 20.00    -0.063 C 
ENDROOT
BRANCH   1   3
HETATM    3  C5  UNL     1     -34.063  15.204  -3.896  1.00 20.00     0.141 A 
HETATM    4  C3  UNL     1     -35.373  15.323  -4.638  1.00 20.00     0.221 A 
HETATM    5  O9  UNL     1     -35.221  14.451  -3.509  1.00 20.00    -0.362 OA
HETATM    6  C7  UNL     1     -32.966  14.366  -4.464  1.00 20.00     0.063 C 
ENDBRANCH   1   3
BRANCH   2   7
HETATM    7  C6  UNL     1     -33.054  18.099  -1.182  1.00 20.00     0.141 A 
HETATM    8  C4  UNL     1     -32.250  19.263  -1.667  1.00 20.00     0.221 A 
HETATM    9  O10 UNL     1     -31.649  18.162  -0.973  1.00 20.00    -0.362 OA
HETATM   10  C8  UNL     1     -33.878  18.184   0.044  1.00 20.00     0.063 C 
ENDBRANCH   2   7
TORSDOF 2
ENDMDL
MODEL 9
REMARK VINA RESULT:      -3.5      1.809      5.014
REMARK  2 active torsions:
REMARK  status: ('A' for Active; 'I' for Inactive)
REMARK    1  A    between atoms: C1_1  and  C5_5 
REMARK    2  A    between atoms: C2_2  and  C6_6 
ROOT
HETATM    1  C1  UNL     1     -33.402  17.142  -1.955  1.00 20.00    -0.063 C 
HETATM    2  C2  UNL     1     -33.695  16.331  -2.790  1.00 20.00    -0.063 C 
ENDROOT
BRANCH   1   3
HETATM    3  C5  UNL     1     -33.053  18.109  -0.958  1.00 20.00     0.141 A 
HETATM    4  C3  UNL     1     -32.127  19.241  -1.333  1.00 20.00     0.221 A 
HETATM    5  O9  UNL     1     -31.659  18.088  -0.621  1.00 20.00    -0.362 OA
HETATM    6  C7  UNL     1     -33.954  18.252   0.224  1.00 20.00     0.063 C 
ENDBRANCH   1   3
BRANCH   2   7
HETATM    7  C6  UNL     1     -34.052  15.343  -3.807  1.00 20.00     0.141 A 
HETATM    8  C4  UNL     1     -35.369  15.495  -4.499  1.00 20.00     0.221 A 
HETATM    9  O10 UNL     1     -35.182  14.569  -3.420  1.00 20.00    -0.362 OA
HETATM   10  C8  UNL     1     -32.941  14.577  -4.414  1.00 20.00     0.063 C 
ENDBRANCH   2   7
TORSDOF 2
ENDMDL
