MODEL 1
REMARK VINA RESULT:      -4.0      0.000      0.000
REMARK  2 active torsions:
REMARK  status: ('A' for Active; 'I' for Inactive)
REMARK    1  A    between atoms: C1_1  and  C5_5 
REMARK    2  A    between atoms: C2_2  and  C6_6 
ROOT
HETATM    1  C1  UNL     1     -34.515  16.287  -2.255  1.00 20.00    -0.063 C 
HETATM    2  C2  UNL     1     -34.576  15.498  -3.158  1.00 20.00    -0.063 C 
ENDROOT
BRANCH   1   3
HETATM    3  C5  UNL     1     -34.442  17.228  -1.179  1.00 20.00     0.141 A 
HETATM    4  C3  UNL     1     -33.167  18.012  -0.981  1.00 20.00     0.221 A 
HETATM    5  O9  UNL     1     -34.310  18.584  -1.629  1.00 20.00    -0.362 OA
HETATM    6  C7  UNL     1     -35.394  17.065  -0.040  1.00 20.00     0.063 C 
ENDBRANCH   1   3
BRANCH   2   7
HETATM    7  C6  UNL     1     -34.652  14.537  -4.258  1.00 20.00     0.141 A 
HETATM    8  C4  UNL     1     -33.801  14.783  -5.463  1.00 20.00     0.221 A 
HETATM    9  O10 UNL     1     -33.421  13.848  -4.445  1.00 20.00    -0.362 OA
HETATM   10  C8  UNL     1     -35.864  13.692  -4.325  1.00 20.00     0.063 C 
ENDBRANCH   2   7
TORSDOF 2
ENDMDL
MODEL 2
REMARK VINA RESULT:      -4.0     12.535     14.970
REMARK  2 active torsions:
REMARK  status: ('A' for Active; 'I' for Inactive)
REMARK    1  A    between atoms: C1_1  and  C5_5 
REMARK    2  A    between atoms: C2_2  and  C6_6 
ROOT
HETATM    1  C1  UNL     1     -25.300  18.720   7.275  1.00 20.00    -0.063 C 
HETATM    2  C2  UNL     1     -24.473  18.559   8.131  1.00 20.00    -0.063 C 
ENDROOT
BRANCH   1   3
HETATM    3  C5  UNL     1     -26.283  18.913   6.253  1.00 20.00     0.141 A 
HETATM    4  C3  UNL     1     -25.827  19.263   4.857  1.00 20.00     0.221 A 
HETATM    5  O9  UNL     1     -26.210  17.928   5.213  1.00 20.00    -0.362 OA
HETATM    6  C7  UNL     1     -27.678  19.234   6.677  1.00 20.00     0.063 C 
ENDBRANCH   1   3
BRANCH   2   7
HETATM    7  C6  UNL     1     -23.467  18.361   9.175  1.00 20.00     0.141 A 
HETATM    8  C4  UNL     1     -22.148  17.782   8.774  1.00 20.00     0.221 A 
HETATM    9  O10 UNL     1     -22.327  19.190   8.975  1.00 20.00    -0.362 OA
HETATM   10  C8  UNL     1     -23.956  18.285  10.568  1.00 20.00     0.063 C 
ENDBRANCH   2   7
TORSDOF 2
ENDMDL
MODEL 3
REMARK VINA RESULT:      -4.0      0.029      4.695
REMARK  2 active torsions:
REMARK  status: ('A' for Active; 'I' for Inactive)
REMARK    1  A    between atoms: C1_1  and  C5_5 
REMARK    2  A    between atoms: C2_2  and  C6_6 
ROOT
HETATM    1  C1  UNL     1     -34.577  15.493  -3.139  1.00 20.00    -0.063 C 
HETATM    2  C2  UNL     1     -34.519  16.284  -2.237  1.00 20.00    -0.063 C 
ENDROOT
BRANCH   1   3
HETATM    3  C5  UNL     1     -34.648  14.552  -4.215  1.00 20.00     0.141 A 
HETATM    4  C3  UNL     1     -33.807  14.789  -5.447  1.00 20.00     0.221 A 
HETATM    5  O9  UNL     1     -33.412  13.857  -4.432  1.00 20.00    -0.362 OA
HETATM    6  C7  UNL     1     -35.852  13.674  -4.298  1.00 20.00     0.063 C 
ENDBRANCH   1   3
BRANCH   2   7
HETATM    7  C6  UNL     1     -34.446  17.247  -1.138  1.00 20.00     0.141 A 
HETATM    8  C4  UNL     1     -33.169  18.003  -0.953  1.00 20.00     0.221 A 
HETATM    9  O10 UNL     1     -34.303  18.582  -1.612  1.00 20.00    -0.362 OA
HETATM   10  C8  UNL     1     -35.410  17.071  -0.030  1.00 20.00     0.063 C 
ENDBRANCH   2   7
TORSDOF 2
ENDMDL
MODEL 4
REMARK VINA RESULT:      -3.9      0.986      1.481
REMARK  2 active torsions:
REMARK  status: ('A' for Active; 'I' for Inactive)
REMARK    1  A    between atoms: C1_1  and  C5_5 
REMARK    2  A    between atoms: C2_2  and  C6_6 
ROOT
HETATM    1  C1  UNL     1     -34.807  16.291  -2.169  1.00 20.00    -0.063 C 
HETATM    2  C2  UNL     1     -34.807  15.512  -3.083  1.00 20.00    -0.063 C 
ENDROOT
BRANCH   1   3
HETATM    3  C5  UNL     1     -34.804  17.220  -1.080  1.00 20.00     0.141 A 
HETATM    4  C3  UNL     1     -36.121  17.775  -0.592  1.00 20.00     0.221 A 
HETATM    5  O9  UNL     1     -35.451  16.709   0.094  1.00 20.00    -0.362 OA
HETATM    6  C7  UNL     1     -33.539  17.959  -0.794  1.00 20.00     0.063 C 
ENDBRANCH   1   3
BRANCH   2   7
HETATM    7  C6  UNL     1     -34.810  14.563  -4.197  1.00 20.00     0.141 A 
HETATM    8  C4  UNL     1     -33.873  14.816  -5.334  1.00 20.00     0.221 A 
HETATM    9  O10 UNL     1     -33.573  13.867  -4.302  1.00 20.00    -0.362 OA
HETATM   10  C8  UNL     1     -36.020  13.728  -4.360  1.00 20.00     0.063 C 
ENDBRANCH   2   7
TORSDOF 2
ENDMDL
MODEL 5
REMARK VINA RESULT:      -3.9      0.963      4.828
REMARK  2 active torsions:
REMARK  status: ('A' for Active; 'I' for Inactive)
REMARK    1  A    between atoms: C1_1  and  C5_5 
REMARK    2  A    between atoms: C2_2  and  C6_6 
ROOT
HETATM    1  C1  UNL     1     -34.776  15.505  -3.128  1.00 20.00    -0.063 C 
HETATM    2  C2  UNL     1     -34.771  16.291  -2.219  1.00 20.00    -0.063 C 
ENDROOT
BRANCH   1   3
HETATM    3  C5  UNL     1     -34.780  14.570  -4.211  1.00 20.00     0.141 A 
HETATM    4  C3  UNL     1     -33.883  14.825  -5.399  1.00 20.00     0.221 A 
HETATM    5  O9  UNL     1     -33.526  13.892  -4.370  1.00 20.00    -0.362 OA
HETATM    6  C7  UNL     1     -35.968  13.678  -4.360  1.00 20.00     0.063 C 
ENDBRANCH   1   3
BRANCH   2   7
HETATM    7  C6  UNL     1     -34.765  17.246  -1.111  1.00 20.00     0.141 A 
HETATM    8  C4  UNL     1     -36.077  17.807  -0.664  1.00 20.00     0.221 A 
HETATM    9  O10 UNL     1     -35.434  16.732   0.035  1.00 20.00    -0.362 OA
HETATM   10  C8  UNL     1     -33.489  17.944  -0.837  1.00 20.00     0.063 C 
ENDBRANCH   2   7
TORSDOF 2
ENDMDL
MODEL 6
REMARK VINA RESULT:      -3.8      1.887      2.403
REMARK  2 active torsions:
REMARK  status: ('A' for Active; 'I' for Inactive)
REMARK    1  A    between atoms: C1_1  and  C5_5 
REMARK    2  A    between atoms: C2_2  and  C6_6 
ROOT
HETATM    1  C1  UNL     1     -33.049  17.384  -1.884  1.00 20.00    -0.063 C 
HETATM    2  C2  UNL     1     -33.471  16.553  -2.641  1.00 20.00    -0.063 C 
ENDROOT
BRANCH   1   3
HETATM    3  C5  UNL     1     -32.548  18.375  -0.981  1.00 20.00     0.141 A 
HETATM    4  C3  UNL     1     -31.144  18.230  -0.444  1.00 20.00     0.221 A 
HETATM    5  O9  UNL     1     -31.450  19.123  -1.522  1.00 20.00    -0.362 OA
HETATM    6  C7  UNL     1     -33.539  19.214  -0.243  1.00 20.00     0.063 C 
ENDBRANCH   1   3
BRANCH   2   7
HETATM    7  C6  UNL     1     -33.983  15.539  -3.563  1.00 20.00     0.141 A 
HETATM    8  C4  UNL     1     -35.396  15.082  -3.385  1.00 20.00     0.221 A 
HETATM    9  O10 UNL     1     -35.032  16.048  -4.380  1.00 20.00    -0.362 OA
HETATM   10  C8  UNL     1     -32.982  14.709  -4.267  1.00 20.00     0.063 C 
ENDBRANCH   2   7
TORSDOF 2
ENDMDL
MODEL 7
REMARK VINA RESULT:      -3.8      1.393      4.943
REMARK  2 active torsions:
REMARK  status: ('A' for Active; 'I' for Inactive)
REMARK    1  A    between atoms: C1_1  and  C5_5 
REMARK    2  A    between atoms: C2_2  and  C6_6 
ROOT
HETATM    1  C1  UNL     1     -34.617  15.715  -2.778  1.00 20.00    -0.063 C 
HETATM    2  C2  UNL     1     -34.720  16.473  -1.852  1.00 20.00    -0.063 C 
ENDROOT
BRANCH   1   3
HETATM    3  C5  UNL     1     -34.492  14.811  -3.880  1.00 20.00     0.141 A 
HETATM    4  C3  UNL     1     -35.633  13.868  -4.183  1.00 20.00     0.221 A 
HETATM    5  O9  UNL     1     -35.433  15.075  -4.931  1.00 20.00    -0.362 OA
HETATM    6  C7  UNL     1     -33.119  14.492  -4.372  1.00 20.00     0.063 C 
ENDBRANCH   1   3
BRANCH   2   7
HETATM    7  C6  UNL     1     -34.847  17.397  -0.724  1.00 20.00     0.141 A 
HETATM    8  C4  UNL     1     -36.221  17.841  -0.335  1.00 20.00     0.221 A 
HETATM    9  O10 UNL     1     -35.531  16.801   0.372  1.00 20.00    -0.362 OA
HETATM   10  C8  UNL     1     -33.647  18.184  -0.367  1.00 20.00     0.063 C 
ENDBRANCH   2   7
TORSDOF 2
ENDMDL
MODEL 8
REMARK VINA RESULT:      -3.6      1.539      1.741
REMARK  2 active torsions:
REMARK  status: ('A' for Active; 'I' for Inactive)
REMARK    1  A    between atoms: C1_1  and  C5_5 
REMARK    2  A    between atoms: C2_2  and  C6_6 
ROOT
HETATM    1  C1  UNL     1     -35.279  16.031  -2.797  1.00 20.00    -0.063 C 
HETATM    2  C2  UNL     1     -35.904  15.321  -3.537  1.00 20.00    -0.063 C 
ENDROOT
BRANCH   1   3
HETATM    3  C5  UNL     1     -34.536  16.877  -1.914  1.00 20.00     0.141 A 
HETATM    4  C3  UNL     1     -33.075  17.130  -2.203  1.00 20.00     0.221 A 
HETATM    5  O9  UNL     1     -34.088  18.087  -2.542  1.00 20.00    -0.362 OA
HETATM    6  C7  UNL     1     -35.062  17.079  -0.531  1.00 20.00     0.063 C 
ENDBRANCH   1   3
BRANCH   2   7
HETATM    7  C6  UNL     1     -36.663  14.455  -4.440  1.00 20.00     0.141 A 
HETATM    8  C4  UNL     1     -35.992  13.991  -5.693  1.00 20.00     0.221 A 
HETATM    9  O10 UNL     1     -36.091  13.155  -4.532  1.00 20.00    -0.362 OA
HETATM   10  C8  UNL     1     -38.136  14.489  -4.315  1.00 20.00     0.063 C 
ENDBRANCH   2   7
TORSDOF 2
ENDMDL
MODEL 9
REMARK VINA RESULT:      -3.6      1.503      4.765
REMARK  2 active torsions:
REMARK  status: ('A' for Active; 'I' for Inactive)
REMARK    1  A    between atoms: C1_1  and  C5_5 
REMARK    2  A    between atoms: C2_2  and  C6_6 
ROOT
HETATM    1  C1  UNL     1     -35.954  15.331  -3.461  1.00 20.00    -0.063 C 
HETATM    2  C2  UNL     1     -35.367  16.037  -2.687  1.00 20.00    -0.063 C 
ENDROOT
BRANCH   1   3
HETATM    3  C5  UNL     1     -36.654  14.489  -4.383  1.00 20.00     0.141 A 
HETATM    4  C3  UNL     1     -35.942  14.022  -5.630  1.00 20.00     0.221 A 
HETATM    5  O9  UNL     1     -36.087  13.175  -4.483  1.00 20.00    -0.362 OA
HETATM    6  C7  UNL     1     -38.146  14.497  -4.343  1.00 20.00     0.063 C 
ENDBRANCH   1   3
BRANCH   2   7
HETATM    7  C6  UNL     1     -34.653  16.898  -1.744  1.00 20.00     0.141 A 
HETATM    8  C4  UNL     1     -33.217  17.207  -2.028  1.00 20.00     0.221 A 
HETATM    9  O10 UNL     1     -34.268  18.132  -2.340  1.00 20.00    -0.362 OA
HETATM   10  C8  UNL     1     -35.213  17.004  -0.379  1.00 20.00     0.063 C 
ENDBRANCH   2   7
TORSDOF 2
ENDMDL
