MODEL 1
REMARK VINA RESULT:      -4.2      0.000      0.000
REMARK  4 active torsions:
REMARK  status: ('A' for Active; 'I' for Inactive)
REMARK    1  A    between atoms: C2_2  and  C7_7 
REMARK    2  A    between atoms: C7_7  and  C9_9 
REMARK    3  A    between atoms: C8_8  and  C9_9 
REMARK    4  A    between atoms: C9_9  and  O10_10 
ROOT
HETATM    1  C6  UNL     1     -35.358  13.747  -4.122  1.00 20.00     0.047 C 
HETATM    2  C9  UNL     1     -34.188  14.711  -4.397  1.00 20.00     0.064 C 
ENDROOT
BRANCH   2   3
HETATM    3  C7  UNL     1     -33.848  15.546  -3.109  1.00 20.00     0.037 C 
HETATM    4  C3  UNL     1     -35.077  15.901  -2.256  1.00 20.00     0.017 C 
BRANCH   3   5
HETATM    5  C2  UNL     1     -33.135  16.845  -3.429  1.00 20.00    -0.030 C 
HETATM    6  C1  UNL     1     -32.826  17.775  -2.519  1.00 20.00     0.007 C 
ENDBRANCH   3   5
ENDBRANCH   2   3
BRANCH   2   7
HETATM    7  C8  UNL     1     -34.476  15.617  -5.646  1.00 20.00     0.012 C 
HETATM    8  C4  UNL     1     -33.844  15.083  -6.944  1.00 20.00     0.012 C 
HETATM    9  C5  UNL     1     -35.966  15.881  -5.894  1.00 20.00     0.012 C 
ENDBRANCH   2   7
BRANCH   2  10
HETATM   10  O10 UNL     1     -33.047  13.903  -4.729  1.00 20.00    -0.389 OA
HETATM   11  H28 UNL     1     -32.965  13.943  -5.690  1.00 20.00     0.210 HD
ENDBRANCH   2  10
TORSDOF 4
ENDMDL
MODEL 2
REMARK VINA RESULT:      -4.1      0.820      1.864
REMARK  4 active torsions:
REMARK  status: ('A' for Active; 'I' for Inactive)
REMARK    1  A    between atoms: C2_2  and  C7_7 
REMARK    2  A    between atoms: C7_7  and  C9_9 
REMARK    3  A    between atoms: C8_8  and  C9_9 
REMARK    4  A    between atoms: C9_9  and  O10_10 
ROOT
HETATM    1  C6  UNL     1     -35.498  13.656  -4.191  1.00 20.00     0.047 C 
HETATM    2  C9  UNL     1     -34.517  14.693  -4.771  1.00 20.00     0.064 C 
ENDROOT
BRANCH   2   3
HETATM    3  C7  UNL     1     -34.323  15.888  -3.769  1.00 20.00     0.037 C 
HETATM    4  C3  UNL     1     -32.859  16.135  -3.370  1.00 20.00     0.017 C 
BRANCH   3   5
HETATM    5  C2  UNL     1     -35.111  15.705  -2.487  1.00 20.00    -0.030 C 
HETATM    6  C1  UNL     1     -35.117  16.583  -1.477  1.00 20.00     0.007 C 
ENDBRANCH   3   5
ENDBRANCH   2   3
BRANCH   2   7
HETATM    7  C8  UNL     1     -34.967  15.168  -6.199  1.00 20.00     0.012 C 
HETATM    8  C4  UNL     1     -35.649  16.547  -6.194  1.00 20.00     0.012 C 
HETATM    9  C5  UNL     1     -33.838  15.177  -7.236  1.00 20.00     0.012 C 
ENDBRANCH   2   7
BRANCH   2  10
HETATM   10  O10 UNL     1     -33.253  14.029  -4.936  1.00 20.00    -0.389 OA
HETATM   11  H28 UNL     1     -32.588  14.639  -4.593  1.00 20.00     0.210 HD
ENDBRANCH   2  10
TORSDOF 4
ENDMDL
MODEL 3
REMARK VINA RESULT:      -3.9      1.975      2.619
REMARK  4 active torsions:
REMARK  status: ('A' for Active; 'I' for Inactive)
REMARK    1  A    between atoms: C2_2  and  C7_7 
REMARK    2  A    between atoms: C7_7  and  C9_9 
REMARK    3  A    between atoms: C8_8  and  C9_9 
REMARK    4  A    between atoms: C9_9  and  O10_10 
ROOT
HETATM    1  C6  UNL     1     -35.008  16.908  -4.363  1.00 20.00     0.047 C 
HETATM    2  C9  UNL     1     -35.169  15.867  -3.238  1.00 20.00     0.064 C 
ENDROOT
BRANCH   2   3
HETATM    3  C7  UNL     1     -34.362  16.305  -1.963  1.00 20.00     0.037 C 
HETATM    4  C3  UNL     1     -35.215  17.015  -0.899  1.00 20.00     0.017 C 
BRANCH   3   5
HETATM    5  C2  UNL     1     -33.205  17.226  -2.295  1.00 20.00    -0.030 C 
HETATM    6  C1  UNL     1     -32.570  17.989  -1.397  1.00 20.00     0.007 C 
ENDBRANCH   3   5
ENDBRANCH   2   3
BRANCH   2   7
HETATM    7  C8  UNL     1     -34.783  14.427  -3.733  1.00 20.00     0.012 C 
HETATM    8  C4  UNL     1     -35.922  13.719  -4.488  1.00 20.00     0.012 C 
HETATM    9  C5  UNL     1     -33.516  14.384  -4.594  1.00 20.00     0.012 C 
ENDBRANCH   2   7
BRANCH   2  10
HETATM   10  O10 UNL     1     -36.565  15.826  -2.900  1.00 20.00    -0.389 OA
HETATM   11  H28 UNL     1     -36.777  14.893  -2.765  1.00 20.00     0.210 HD
ENDBRANCH   2  10
TORSDOF 4
ENDMDL
MODEL 4
REMARK VINA RESULT:      -3.9      1.445      1.883
REMARK  4 active torsions:
REMARK  status: ('A' for Active; 'I' for Inactive)
REMARK    1  A    between atoms: C2_2  and  C7_7 
REMARK    2  A    between atoms: C7_7  and  C9_9 
REMARK    3  A    between atoms: C8_8  and  C9_9 
REMARK    4  A    between atoms: C9_9  and  O10_10 
ROOT
HETATM    1  C6  UNL     1     -33.183  14.405  -4.500  1.00 20.00     0.047 C 
HETATM    2  C9  UNL     1     -34.105  15.583  -4.128  1.00 20.00     0.064 C 
ENDROOT
BRANCH   2   3
HETATM    3  C7  UNL     1     -33.807  16.075  -2.665  1.00 20.00     0.037 C 
HETATM    4  C3  UNL     1     -35.066  16.268  -1.804  1.00 20.00     0.017 C 
BRANCH   3   5
HETATM    5  C2  UNL     1     -33.041  17.382  -2.636  1.00 20.00    -0.030 C 
HETATM    6  C1  UNL     1     -32.429  17.871  -1.550  1.00 20.00     0.007 C 
ENDBRANCH   3   5
ENDBRANCH   2   3
BRANCH   2   7
HETATM    7  C8  UNL     1     -35.616  15.216  -4.346  1.00 20.00     0.012 C 
HETATM    8  C4  UNL     1     -36.226  15.871  -5.598  1.00 20.00     0.012 C 
HETATM    9  C5  UNL     1     -35.891  13.709  -4.392  1.00 20.00     0.012 C 
ENDBRANCH   2   7
BRANCH   2  10
HETATM   10  O10 UNL     1     -33.806  16.655  -5.037  1.00 20.00    -0.389 OA
HETATM   11  H28 UNL     1     -34.213  17.445  -4.659  1.00 20.00     0.210 HD
ENDBRANCH   2  10
TORSDOF 4
ENDMDL
MODEL 5
REMARK VINA RESULT:      -3.9      1.353      1.882
REMARK  4 active torsions:
REMARK  status: ('A' for Active; 'I' for Inactive)
REMARK    1  A    between atoms: C2_2  and  C7_7 
REMARK    2  A    between atoms: C7_7  and  C9_9 
REMARK    3  A    between atoms: C8_8  and  C9_9 
REMARK    4  A    between atoms: C9_9  and  O10_10 
ROOT
HETATM    1  C6  UNL     1     -35.670  14.408  -6.399  1.00 20.00     0.047 C 
HETATM    2  C9  UNL     1     -34.346  15.096  -6.010  1.00 20.00     0.064 C 
ENDROOT
BRANCH   2   3
HETATM    3  C7  UNL     1     -33.900  14.654  -4.569  1.00 20.00     0.037 C 
HETATM    4  C3  UNL     1     -35.024  14.012  -3.739  1.00 20.00     0.017 C 
BRANCH   3   5
HETATM    5  C2  UNL     1     -33.344  15.805  -3.754  1.00 20.00    -0.030 C 
HETATM    6  C1  UNL     1     -33.839  16.198  -2.574  1.00 20.00     0.007 C 
ENDBRANCH   3   5
ENDBRANCH   2   3
BRANCH   2   7
HETATM    7  C8  UNL     1     -34.447  16.655  -6.160  1.00 20.00     0.012 C 
HETATM    8  C4  UNL     1     -34.043  17.159  -7.557  1.00 20.00     0.012 C 
HETATM    9  C5  UNL     1     -35.825  17.227  -5.808  1.00 20.00     0.012 C 
ENDBRANCH   2   7
BRANCH   2  10
HETATM   10  O10 UNL     1     -33.351  14.655  -6.948  1.00 20.00    -0.389 OA
HETATM   11  H28 UNL     1     -33.379  15.286  -7.679  1.00 20.00     0.210 HD
ENDBRANCH   2  10
TORSDOF 4
ENDMDL
MODEL 6
REMARK VINA RESULT:      -3.9      1.783      3.622
REMARK  4 active torsions:
REMARK  status: ('A' for Active; 'I' for Inactive)
REMARK    1  A    between atoms: C2_2  and  C7_7 
REMARK    2  A    between atoms: C7_7  and  C9_9 
REMARK    3  A    between atoms: C8_8  and  C9_9 
REMARK    4  A    between atoms: C9_9  and  O10_10 
ROOT
HETATM    1  C6  UNL     1     -35.903  13.667  -4.408  1.00 20.00     0.047 C 
HETATM    2  C9  UNL     1     -35.729  15.155  -4.048  1.00 20.00     0.064 C 
ENDROOT
BRANCH   2   3
HETATM    3  C7  UNL     1     -35.451  16.005  -5.341  1.00 20.00     0.037 C 
HETATM    4  C3  UNL     1     -36.602  16.950  -5.724  1.00 20.00     0.017 C 
BRANCH   3   5
HETATM    5  C2  UNL     1     -35.159  15.142  -6.552  1.00 20.00    -0.030 C 
HETATM    6  C1  UNL     1     -34.027  15.204  -7.263  1.00 20.00     0.007 C 
ENDBRANCH   3   5
ENDBRANCH   2   3
BRANCH   2   7
HETATM    7  C8  UNL     1     -34.625  15.350  -2.948  1.00 20.00     0.012 C 
HETATM    8  C4  UNL     1     -33.279  15.832  -3.516  1.00 20.00     0.012 C 
HETATM    9  C5  UNL     1     -35.043  16.283  -1.805  1.00 20.00     0.012 C 
ENDBRANCH   2   7
BRANCH   2  10
HETATM   10  O10 UNL     1     -36.969  15.596  -3.472  1.00 20.00    -0.389 OA
HETATM   11  H28 UNL     1     -37.666  15.156  -3.975  1.00 20.00     0.210 HD
ENDBRANCH   2  10
TORSDOF 4
ENDMDL
MODEL 7
REMARK VINA RESULT:      -3.9      1.498      3.904
REMARK  4 active torsions:
REMARK  status: ('A' for Active; 'I' for Inactive)
REMARK    1  A    between atoms: C2_2  and  C7_7 
REMARK    2  A    between atoms: C7_7  and  C9_9 
REMARK    3  A    between atoms: C8_8  and  C9_9 
REMARK    4  A    between atoms: C9_9  and  O10_10 
ROOT
HETATM    1  C6  UNL     1     -35.479  17.071  -4.239  1.00 20.00     0.047 C 
HETATM    2  C9  UNL     1     -34.095  16.484  -3.899  1.00 20.00     0.064 C 
ENDROOT
BRANCH   2   3
HETATM    3  C7  UNL     1     -33.925  15.063  -4.550  1.00 20.00     0.037 C 
HETATM    4  C3  UNL     1     -34.168  15.040  -6.068  1.00 20.00     0.017 C 
BRANCH   3   5
HETATM    5  C2  UNL     1     -34.846  14.028  -3.934  1.00 20.00    -0.030 C 
HETATM    6  C1  UNL     1     -35.980  13.599  -4.501  1.00 20.00     0.007 C 
ENDBRANCH   3   5
ENDBRANCH   2   3
BRANCH   2   7
HETATM    7  C8  UNL     1     -33.845  16.473  -2.349  1.00 20.00     0.012 C 
HETATM    8  C4  UNL     1     -32.820  17.524  -1.891  1.00 20.00     0.012 C 
HETATM    9  C5  UNL     1     -35.120  16.627  -1.511  1.00 20.00     0.012 C 
ENDBRANCH   2   7
BRANCH   2  10
HETATM   10  O10 UNL     1     -33.113  17.365  -4.469  1.00 20.00    -0.389 OA
HETATM   11  H28 UNL     1     -32.517  16.801  -4.978  1.00 20.00     0.210 HD
ENDBRANCH   2  10
TORSDOF 4
ENDMDL
MODEL 8
REMARK VINA RESULT:      -3.8      2.117      2.767
REMARK  4 active torsions:
REMARK  status: ('A' for Active; 'I' for Inactive)
REMARK    1  A    between atoms: C2_2  and  C7_7 
REMARK    2  A    between atoms: C7_7  and  C9_9 
REMARK    3  A    between atoms: C8_8  and  C9_9 
REMARK    4  A    between atoms: C9_9  and  O10_10 
ROOT
HETATM    1  C6  UNL     1     -35.674  17.337  -4.711  1.00 20.00     0.047 C 
HETATM    2  C9  UNL     1     -36.094  16.041  -3.989  1.00 20.00     0.064 C 
ENDROOT
BRANCH   2   3
HETATM    3  C7  UNL     1     -34.961  15.566  -3.009  1.00 20.00     0.037 C 
HETATM    4  C3  UNL     1     -35.003  16.247  -1.631  1.00 20.00     0.017 C 
BRANCH   3   5
HETATM    5  C2  UNL     1     -33.572  15.787  -3.574  1.00 20.00    -0.030 C 
HETATM    6  C1  UNL     1     -32.860  14.847  -4.207  1.00 20.00     0.007 C 
ENDBRANCH   3   5
ENDBRANCH   2   3
BRANCH   2   7
HETATM    7  C8  UNL     1     -36.514  14.928  -5.014  1.00 20.00     0.012 C 
HETATM    8  C4  UNL     1     -35.878  15.109  -6.403  1.00 20.00     0.012 C 
HETATM    9  C5  UNL     1     -36.243  13.500  -4.527  1.00 20.00     0.012 C 
ENDBRANCH   2   7
BRANCH   2  10
HETATM   10  O10 UNL     1     -37.264  16.352  -3.215  1.00 20.00    -0.389 OA
HETATM   11  H28 UNL     1     -36.987  17.019  -2.574  1.00 20.00     0.210 HD
ENDBRANCH   2  10
TORSDOF 4
ENDMDL
MODEL 9
REMARK VINA RESULT:      -3.8      1.995      3.464
REMARK  4 active torsions:
REMARK  status: ('A' for Active; 'I' for Inactive)
REMARK    1  A    between atoms: C2_2  and  C7_7 
REMARK    2  A    between atoms: C7_7  and  C9_9 
REMARK    3  A    between atoms: C8_8  and  C9_9 
REMARK    4  A    between atoms: C9_9  and  O10_10 
ROOT
HETATM    1  C6  UNL     1     -35.441  14.481  -6.121  1.00 20.00     0.047 C 
HETATM    2  C9  UNL     1     -35.837  14.286  -4.644  1.00 20.00     0.064 C 
ENDROOT
BRANCH   2   3
HETATM    3  C7  UNL     1     -37.027  15.239  -4.264  1.00 20.00     0.037 C 
HETATM    4  C3  UNL     1     -38.398  14.544  -4.238  1.00 20.00     0.017 C 
BRANCH   3   5
HETATM    5  C2  UNL     1     -37.145  16.425  -5.200  1.00 20.00    -0.030 C 
HETATM    6  C1  UNL     1     -37.713  17.590  -4.869  1.00 20.00     0.007 C 
ENDBRANCH   3   5
ENDBRANCH   2   3
BRANCH   2   7
HETATM    7  C8  UNL     1     -34.599  14.455  -3.694  1.00 20.00     0.012 C 
HETATM    8  C4  UNL     1     -33.270  14.623  -4.451  1.00 20.00     0.012 C 
HETATM    9  C5  UNL     1     -34.740  15.600  -2.685  1.00 20.00     0.012 C 
ENDBRANCH   2   7
BRANCH   2  10
HETATM   10  O10 UNL     1     -36.281  12.926  -4.504  1.00 20.00    -0.389 OA
HETATM   11  H28 UNL     1     -35.550  12.451  -4.089  1.00 20.00     0.210 HD
ENDBRANCH   2  10
TORSDOF 4
ENDMDL
