MODEL 1
REMARK VINA RESULT:      -3.9      0.000      0.000
REMARK  2 active torsions:
REMARK  status: ('A' for Active; 'I' for Inactive)
REMARK    1  A    between atoms: C2_2  and  C3_3 
REMARK    2  A    between atoms: C3_3  and  N4_4 
ROOT
HETATM    1  C1  UNL     1     -32.925  14.740  -4.261  1.00 20.00     0.055 C 
HETATM    2  C3  UNL     1     -34.430  14.454  -4.239  1.00 20.00     0.145 C 
HETATM    3 CL7  UNL     1     -35.142  15.397  -2.872  1.00 20.00    -0.097 Cl
ENDROOT
BRANCH   2   4
HETATM    4  C2  UNL     1     -35.140  14.902  -5.525  1.00 20.00     0.160 C 
HETATM    5 CL6  UNL     1     -34.044  15.035  -6.930  1.00 20.00    -0.127 Cl
ENDBRANCH   2   4
BRANCH   2   6
HETATM    6  N4  UNL     1     -34.762  13.008  -3.961  1.00 20.00    -0.036 NA
HETATM    7  O5  UNL     1     -35.794  12.611  -4.512  1.00 20.00    -0.099 OA
ENDBRANCH   2   6
TORSDOF 2
ENDMDL
MODEL 2
REMARK VINA RESULT:      -3.9      1.427      2.481
REMARK  2 active torsions:
REMARK  status: ('A' for Active; 'I' for Inactive)
REMARK    1  A    between atoms: C2_2  and  C3_3 
REMARK    2  A    between atoms: C3_3  and  N4_4 
ROOT
HETATM    1  C1  UNL     1     -34.962  14.838  -5.807  1.00 20.00     0.055 C 
HETATM    2  C3  UNL     1     -34.628  14.517  -4.346  1.00 20.00     0.145 C 
HETATM    3 CL7  UNL     1     -32.880  14.900  -4.092  1.00 20.00    -0.097 Cl
ENDROOT
BRANCH   2   4
HETATM    4  C2  UNL     1     -35.434  15.365  -3.351  1.00 20.00     0.160 C 
HETATM    5 CL6  UNL     1     -34.419  16.168  -2.119  1.00 20.00    -0.127 Cl
ENDBRANCH   2   4
BRANCH   2   6
HETATM    6  N4  UNL     1     -34.785  13.056  -4.002  1.00 20.00    -0.036 NA
HETATM    7  O5  UNL     1     -35.816  12.539  -4.445  1.00 20.00    -0.099 OA
ENDBRANCH   2   6
TORSDOF 2
ENDMDL
MODEL 3
REMARK VINA RESULT:      -3.8      1.262      2.479
REMARK  2 active torsions:
REMARK  status: ('A' for Active; 'I' for Inactive)
REMARK    1  A    between atoms: C2_2  and  C3_3 
REMARK    2  A    between atoms: C3_3  and  N4_4 
ROOT
HETATM    1  C1  UNL     1     -35.662  15.355  -3.347  1.00 20.00     0.055 C 
HETATM    2  C3  UNL     1     -34.696  14.562  -4.233  1.00 20.00     0.145 C 
HETATM    3 CL7  UNL     1     -35.188  14.833  -5.951  1.00 20.00    -0.097 Cl
ENDROOT
BRANCH   2   4
HETATM    4  C2  UNL     1     -33.239  15.029  -4.093  1.00 20.00     0.160 C 
HETATM    5 CL6  UNL     1     -33.036  16.379  -2.941  1.00 20.00    -0.127 Cl
ENDBRANCH   2   4
BRANCH   2   6
HETATM    6  N4  UNL     1     -34.768  13.070  -4.014  1.00 20.00    -0.036 NA
HETATM    7  O5  UNL     1     -35.808  12.547  -4.427  1.00 20.00    -0.099 OA
ENDBRANCH   2   6
TORSDOF 2
ENDMDL
MODEL 4
REMARK VINA RESULT:      -3.7      1.874      3.115
REMARK  2 active torsions:
REMARK  status: ('A' for Active; 'I' for Inactive)
REMARK    1  A    between atoms: C2_2  and  C3_3 
REMARK    2  A    between atoms: C3_3  and  N4_4 
ROOT
HETATM    1  C1  UNL     1     -36.644  16.029  -4.447  1.00 20.00     0.055 C 
HETATM    2  C3  UNL     1     -36.108  14.619  -4.720  1.00 20.00     0.145 C 
HETATM    3 CL7  UNL     1     -35.664  14.536  -6.469  1.00 20.00    -0.097 Cl
ENDROOT
BRANCH   2   4
HETATM    4  C2  UNL     1     -34.844  14.295  -3.908  1.00 20.00     0.160 C 
HETATM    5 CL6  UNL     1     -34.413  15.567  -2.730  1.00 20.00    -0.127 Cl
ENDBRANCH   2   4
BRANCH   2   6
HETATM    6  N4  UNL     1     -37.135  13.535  -4.503  1.00 20.00    -0.036 NA
HETATM    7  O5  UNL     1     -38.292  13.950  -4.382  1.00 20.00    -0.099 OA
ENDBRANCH   2   6
TORSDOF 2
ENDMDL
MODEL 5
REMARK VINA RESULT:      -3.6      1.868      1.910
REMARK  2 active torsions:
REMARK  status: ('A' for Active; 'I' for Inactive)
REMARK    1  A    between atoms: C2_2  and  C3_3 
REMARK    2  A    between atoms: C3_3  and  N4_4 
ROOT
HETATM    1  C1  UNL     1     -35.496  15.066  -3.433  1.00 20.00     0.055 C 
HETATM    2  C3  UNL     1     -36.197  14.362  -4.599  1.00 20.00     0.145 C 
HETATM    3 CL7  UNL     1     -37.978  14.529  -4.343  1.00 20.00    -0.097 Cl
ENDROOT
BRANCH   2   4
HETATM    4  C2  UNL     1     -35.868  14.994  -5.961  1.00 20.00     0.160 C 
HETATM    5 CL6  UNL     1     -34.125  14.960  -6.354  1.00 20.00    -0.127 Cl
ENDBRANCH   2   4
BRANCH   2   6
HETATM    6  N4  UNL     1     -35.925  12.879  -4.657  1.00 20.00    -0.036 NA
HETATM    7  O5  UNL     1     -34.996  12.506  -3.932  1.00 20.00    -0.099 OA
ENDBRANCH   2   6
TORSDOF 2
ENDMDL
MODEL 6
REMARK VINA RESULT:      -3.5     18.123     18.948
REMARK  2 active torsions:
REMARK  status: ('A' for Active; 'I' for Inactive)
REMARK    1  A    between atoms: C2_2  and  C3_3 
REMARK    2  A    between atoms: C3_3  and  N4_4 
ROOT
HETATM    1  C1  UNL     1     -23.908  16.680   9.966  1.00 20.00     0.055 C 
HETATM    2  C3  UNL     1     -22.815  17.541   9.325  1.00 20.00     0.145 C 
HETATM    3 CL7  UNL     1     -23.565  19.122   8.871  1.00 20.00    -0.097 Cl
ENDROOT
BRANCH   2   4
HETATM    4  C2  UNL     1     -21.655  17.843  10.286  1.00 20.00     0.160 C 
HETATM    5 CL6  UNL     1     -22.125  17.769  12.009  1.00 20.00    -0.127 Cl
ENDBRANCH   2   4
BRANCH   2   6
HETATM    6  N4  UNL     1     -22.267  16.962   8.044  1.00 20.00    -0.036 NA
HETATM    7  O5  UNL     1     -22.185  17.773   7.116  1.00 20.00    -0.099 OA
ENDBRANCH   2   6
TORSDOF 2
ENDMDL
MODEL 7
REMARK VINA RESULT:      -3.5      2.125      2.702
REMARK  2 active torsions:
REMARK  status: ('A' for Active; 'I' for Inactive)
REMARK    1  A    between atoms: C2_2  and  C3_3 
REMARK    2  A    between atoms: C3_3  and  N4_4 
ROOT
HETATM    1  C1  UNL     1     -35.759  14.891  -6.025  1.00 20.00     0.055 C 
HETATM    2  C3  UNL     1     -36.166  14.300  -4.671  1.00 20.00     0.145 C 
HETATM    3 CL7  UNL     1     -35.134  15.077  -3.407  1.00 20.00    -0.097 Cl
ENDROOT
BRANCH   2   4
HETATM    4  C2  UNL     1     -37.631  14.591  -4.311  1.00 20.00     0.160 C 
HETATM    5 CL6  UNL     1     -37.948  16.317  -3.972  1.00 20.00    -0.127 Cl
ENDBRANCH   2   4
BRANCH   2   6
HETATM    6  N4  UNL     1     -35.908  12.818  -4.561  1.00 20.00    -0.036 NA
HETATM    7  O5  UNL     1     -34.900  12.526  -3.909  1.00 20.00    -0.099 OA
ENDBRANCH   2   6
TORSDOF 2
ENDMDL
MODEL 8
REMARK VINA RESULT:      -3.3     19.498     19.788
REMARK  2 active torsions:
REMARK  status: ('A' for Active; 'I' for Inactive)
REMARK    1  A    between atoms: C2_2  and  C3_3 
REMARK    2  A    between atoms: C3_3  and  N4_4 
ROOT
HETATM    1  C1  UNL     1     -24.598  15.900  11.531  1.00 20.00     0.055 C 
HETATM    2  C3  UNL     1     -23.933  17.242  11.206  1.00 20.00     0.145 C 
HETATM    3 CL7  UNL     1     -22.813  16.970   9.814  1.00 20.00    -0.097 Cl
ENDROOT
BRANCH   2   4
HETATM    4  C2  UNL     1     -24.943  18.319  10.780  1.00 20.00     0.160 C 
HETATM    5 CL6  UNL     1     -25.856  19.016  12.149  1.00 20.00    -0.127 Cl
ENDBRANCH   2   4
BRANCH   2   6
HETATM    6  N4  UNL     1     -23.076  17.774  12.328  1.00 20.00    -0.036 NA
HETATM    7  O5  UNL     1     -21.865  17.773  12.084  1.00 20.00    -0.099 OA
ENDBRANCH   2   6
TORSDOF 2
ENDMDL
MODEL 9
REMARK VINA RESULT:      -3.3     17.858     18.444
REMARK  2 active torsions:
REMARK  status: ('A' for Active; 'I' for Inactive)
REMARK    1  A    between atoms: C2_2  and  C3_3 
REMARK    2  A    between atoms: C3_3  and  N4_4 
ROOT
HETATM    1  C1  UNL     1     -21.896  17.799  10.926  1.00 20.00     0.055 C 
HETATM    2  C3  UNL     1     -22.750  17.478   9.695  1.00 20.00     0.145 C 
HETATM    3 CL7  UNL     1     -24.209  16.578  10.266  1.00 20.00    -0.097 Cl
ENDROOT
BRANCH   2   4
HETATM    4  C2  UNL     1     -23.243  18.739   8.967  1.00 20.00     0.160 C 
HETATM    5 CL6  UNL     1     -24.964  18.654   8.491  1.00 20.00    -0.127 Cl
ENDBRANCH   2   4
BRANCH   2   6
HETATM    6  N4  UNL     1     -22.062  16.567   8.708  1.00 20.00    -0.036 NA
HETATM    7  O5  UNL     1     -22.082  16.977   7.542  1.00 20.00    -0.099 OA
ENDBRANCH   2   6
TORSDOF 2
ENDMDL
