MODEL 1
REMARK VINA RESULT:      -4.7      0.000      0.000
REMARK  3 active torsions:
REMARK  status: ('A' for Active; 'I' for Inactive)
REMARK    1  A    between atoms: C3_3  and  C10_10 
REMARK    2  A    between atoms: C7_7  and  C11_11 
REMARK    3  A    between atoms: C10_10  and  C11_11 
ROOT
HETATM    1  C1  UNL     1     -31.612  18.550  -0.949  1.00 20.00    -0.024 C 
HETATM    2  C2  UNL     1     -32.194  18.382   0.251  1.00 20.00    -0.087 C 
HETATM    3  C4  UNL     1     -32.365  18.567  -2.248  1.00 20.00     0.032 C 
HETATM    4  C5  UNL     1     -33.687  18.220   0.399  1.00 20.00     0.034 C 
HETATM    5  C6  UNL     1     -34.472  18.558  -0.872  1.00 20.00     0.009 C 
HETATM    6  C7  UNL     1     -33.801  18.025  -2.145  1.00 20.00    -0.007 C 
HETATM    7  C8  UNL     1     -31.397  18.341   1.521  1.00 20.00     0.043 C 
ENDROOT
BRANCH   6   8
HETATM    8  C11 UNL     1     -33.829  16.493  -2.199  1.00 20.00    -0.008 C 
HETATM    9  C9  UNL     1     -35.280  16.001  -2.176  1.00 20.00     0.011 C 
BRANCH   8  10
HETATM   10  C10 UNL     1     -33.090  15.995  -3.449  1.00 20.00     0.074 C 
BRANCH  10  11
HETATM   11  C3  UNL     1     -33.819  14.904  -4.201  1.00 20.00     0.231 C 
HETATM   12  O12 UNL     1     -33.336  13.820  -4.510  1.00 20.00    -0.307 OA
ENDBRANCH  10  11
ENDBRANCH   8  10
ENDBRANCH   6   8
TORSDOF 3
ENDMDL
MODEL 2
REMARK VINA RESULT:      -4.7      2.805      4.159
REMARK  3 active torsions:
REMARK  status: ('A' for Active; 'I' for Inactive)
REMARK    1  A    between atoms: C3_3  and  C10_10 
REMARK    2  A    between atoms: C7_7  and  C11_11 
REMARK    3  A    between atoms: C10_10  and  C11_11 
ROOT
HETATM    1  C1  UNL     1     -36.018  17.239  -2.728  1.00 20.00    -0.024 C 
HETATM    2  C2  UNL     1     -35.449  18.135  -3.554  1.00 20.00    -0.087 C 
HETATM    3  C4  UNL     1     -35.283  16.079  -2.121  1.00 20.00     0.032 C 
HETATM    4  C5  UNL     1     -33.989  18.062  -3.928  1.00 20.00     0.034 C 
HETATM    5  C6  UNL     1     -33.181  17.086  -3.067  1.00 20.00     0.009 C 
HETATM    6  C7  UNL     1     -33.931  15.777  -2.789  1.00 20.00    -0.007 C 
HETATM    7  C8  UNL     1     -36.230  19.262  -4.161  1.00 20.00     0.043 C 
ENDROOT
BRANCH   6   8
HETATM    8  C11 UNL     1     -34.106  14.944  -4.064  1.00 20.00    -0.008 C 
HETATM    9  C9  UNL     1     -32.747  14.403  -4.520  1.00 20.00     0.011 C 
BRANCH   8  10
HETATM   10  C10 UNL     1     -35.106  13.805  -3.818  1.00 20.00     0.074 C 
BRANCH  10  11
HETATM   11  C3  UNL     1     -36.276  13.796  -4.777  1.00 20.00     0.231 C 
HETATM   12  O12 UNL     1     -37.454  13.722  -4.447  1.00 20.00    -0.307 OA
ENDBRANCH  10  11
ENDBRANCH   8  10
ENDBRANCH   6   8
TORSDOF 3
ENDMDL
MODEL 3
REMARK VINA RESULT:      -4.6      2.436      5.600
REMARK  3 active torsions:
REMARK  status: ('A' for Active; 'I' for Inactive)
REMARK    1  A    between atoms: C3_3  and  C10_10 
REMARK    2  A    between atoms: C7_7  and  C11_11 
REMARK    3  A    between atoms: C10_10  and  C11_11 
ROOT
HETATM    1  C1  UNL     1     -33.745  14.848  -5.924  1.00 20.00    -0.024 C 
HETATM    2  C2  UNL     1     -35.026  15.080  -6.258  1.00 20.00    -0.087 C 
HETATM    3  C4  UNL     1     -33.296  14.488  -4.537  1.00 20.00     0.032 C 
HETATM    4  C5  UNL     1     -36.146  14.970  -5.253  1.00 20.00     0.034 C 
HETATM    5  C6  UNL     1     -35.732  14.296  -3.941  1.00 20.00     0.009 C 
HETATM    6  C7  UNL     1     -34.351  14.751  -3.450  1.00 20.00    -0.007 C 
HETATM    7  C8  UNL     1     -35.425  15.468  -7.651  1.00 20.00     0.043 C 
ENDROOT
BRANCH   6   8
HETATM    8  C11 UNL     1     -34.361  16.221  -3.018  1.00 20.00    -0.008 C 
HETATM    9  C9  UNL     1     -35.098  16.364  -1.683  1.00 20.00     0.011 C 
BRANCH   8  10
HETATM   10  C10 UNL     1     -32.923  16.753  -2.922  1.00 20.00     0.074 C 
BRANCH  10  11
HETATM   11  C3  UNL     1     -32.754  17.898  -1.948  1.00 20.00     0.231 C 
HETATM   12  O12 UNL     1     -31.856  18.731  -1.992  1.00 20.00    -0.307 OA
ENDBRANCH  10  11
ENDBRANCH   8  10
ENDBRANCH   6   8
TORSDOF 3
ENDMDL
MODEL 4
REMARK VINA RESULT:      -4.5      2.226      3.534
REMARK  3 active torsions:
REMARK  status: ('A' for Active; 'I' for Inactive)
REMARK    1  A    between atoms: C3_3  and  C10_10 
REMARK    2  A    between atoms: C7_7  and  C11_11 
REMARK    3  A    between atoms: C10_10  and  C11_11 
ROOT
HETATM    1  C1  UNL     1     -34.613  17.159  -1.308  1.00 20.00    -0.024 C 
HETATM    2  C2  UNL     1     -33.572  17.849  -1.808  1.00 20.00    -0.087 C 
HETATM    3  C4  UNL     1     -35.125  15.877  -1.898  1.00 20.00     0.032 C 
HETATM    4  C5  UNL     1     -32.800  17.370  -3.012  1.00 20.00     0.034 C 
HETATM    5  C6  UNL     1     -33.113  15.923  -3.408  1.00 20.00     0.009 C 
HETATM    6  C7  UNL     1     -34.608  15.592  -3.318  1.00 20.00    -0.007 C 
HETATM    7  C8  UNL     1     -33.115  19.143  -1.203  1.00 20.00     0.043 C 
ENDROOT
BRANCH   6   8
HETATM    8  C11 UNL     1     -35.419  16.351  -4.375  1.00 20.00    -0.008 C 
HETATM    9  C9  UNL     1     -34.816  16.109  -5.763  1.00 20.00     0.011 C 
BRANCH   8  10
HETATM   10  C10 UNL     1     -36.892  15.918  -4.322  1.00 20.00     0.074 C 
BRANCH  10  11
HETATM   11  C3  UNL     1     -37.106  14.436  -4.535  1.00 20.00     0.231 C 
HETATM   12  O12 UNL     1     -38.166  13.847  -4.361  1.00 20.00    -0.307 OA
ENDBRANCH  10  11
ENDBRANCH   8  10
ENDBRANCH   6   8
TORSDOF 3
ENDMDL
MODEL 5
REMARK VINA RESULT:      -4.4      2.658      4.752
REMARK  3 active torsions:
REMARK  status: ('A' for Active; 'I' for Inactive)
REMARK    1  A    between atoms: C3_3  and  C10_10 
REMARK    2  A    between atoms: C7_7  and  C11_11 
REMARK    3  A    between atoms: C10_10  and  C11_11 
ROOT
HETATM    1  C1  UNL     1     -35.228  15.512  -2.688  1.00 20.00    -0.024 C 
HETATM    2  C2  UNL     1     -34.132  16.279  -2.551  1.00 20.00    -0.087 C 
HETATM    3  C4  UNL     1     -35.360  14.418  -3.708  1.00 20.00     0.032 C 
HETATM    4  C5  UNL     1     -32.908  16.084  -3.412  1.00 20.00     0.034 C 
HETATM    5  C6  UNL     1     -32.923  14.781  -4.217  1.00 20.00     0.009 C 
HETATM    6  C7  UNL     1     -34.299  14.470  -4.820  1.00 20.00    -0.007 C 
HETATM    7  C8  UNL     1     -34.057  17.381  -1.537  1.00 20.00     0.043 C 
ENDROOT
BRANCH   6   8
HETATM    8  C11 UNL     1     -34.677  15.476  -5.913  1.00 20.00    -0.008 C 
HETATM    9  C9  UNL     1     -33.921  15.146  -7.205  1.00 20.00     0.011 C 
BRANCH   8  10
HETATM   10  C10 UNL     1     -36.196  15.467  -6.137  1.00 20.00     0.074 C 
BRANCH  10  11
HETATM   11  C3  UNL     1     -36.627  16.058  -7.461  1.00 20.00     0.231 C 
HETATM   12  O12 UNL     1     -37.763  16.004  -7.918  1.00 20.00    -0.307 OA
ENDBRANCH  10  11
ENDBRANCH   8  10
ENDBRANCH   6   8
TORSDOF 3
ENDMDL
MODEL 6
REMARK VINA RESULT:      -4.4      2.469      4.635
REMARK  3 active torsions:
REMARK  status: ('A' for Active; 'I' for Inactive)
REMARK    1  A    between atoms: C3_3  and  C10_10 
REMARK    2  A    between atoms: C7_7  and  C11_11 
REMARK    3  A    between atoms: C10_10  and  C11_11 
ROOT
HETATM    1  C1  UNL     1     -35.266  15.548  -2.658  1.00 20.00    -0.024 C 
HETATM    2  C2  UNL     1     -34.141  16.272  -2.527  1.00 20.00    -0.087 C 
HETATM    3  C4  UNL     1     -35.455  14.478  -3.695  1.00 20.00     0.032 C 
HETATM    4  C5  UNL     1     -32.939  16.049  -3.412  1.00 20.00     0.034 C 
HETATM    5  C6  UNL     1     -33.015  14.761  -4.240  1.00 20.00     0.009 C 
HETATM    6  C7  UNL     1     -34.411  14.511  -4.824  1.00 20.00    -0.007 C 
HETATM    7  C8  UNL     1     -34.008  17.352  -1.495  1.00 20.00     0.043 C 
ENDROOT
BRANCH   6   8
HETATM    8  C11 UNL     1     -34.770  15.550  -5.893  1.00 20.00    -0.008 C 
HETATM    9  C9  UNL     1     -34.000  15.254  -7.183  1.00 20.00     0.011 C 
BRANCH   8  10
HETATM   10  C10 UNL     1     -36.287  15.555  -6.136  1.00 20.00     0.074 C 
BRANCH  10  11
HETATM   11  C3  UNL     1     -36.933  16.912  -5.970  1.00 20.00     0.231 C 
HETATM   12  O12 UNL     1     -36.595  17.755  -5.147  1.00 20.00    -0.307 OA
ENDBRANCH  10  11
ENDBRANCH   8  10
ENDBRANCH   6   8
TORSDOF 3
ENDMDL
MODEL 7
REMARK VINA RESULT:      -4.3      2.402      4.822
REMARK  3 active torsions:
REMARK  status: ('A' for Active; 'I' for Inactive)
REMARK    1  A    between atoms: C3_3  and  C10_10 
REMARK    2  A    between atoms: C7_7  and  C11_11 
REMARK    3  A    between atoms: C10_10  and  C11_11 
ROOT
HETATM    1  C1  UNL     1     -34.035  16.466  -4.723  1.00 20.00    -0.024 C 
HETATM    2  C2  UNL     1     -35.364  16.646  -4.626  1.00 20.00    -0.087 C 
HETATM    3  C4  UNL     1     -33.148  16.144  -3.556  1.00 20.00     0.032 C 
HETATM    4  C5  UNL     1     -36.094  16.511  -3.312  1.00 20.00     0.034 C 
HETATM    5  C6  UNL     1     -35.251  15.874  -2.202  1.00 20.00     0.009 C 
HETATM    6  C7  UNL     1     -33.805  16.386  -2.186  1.00 20.00    -0.007 C 
HETATM    7  C8  UNL     1     -36.207  16.996  -5.816  1.00 20.00     0.043 C 
ENDROOT
BRANCH   6   8
HETATM    8  C11 UNL     1     -33.732  17.862  -1.779  1.00 20.00    -0.008 C 
HETATM    9  C9  UNL     1     -34.156  18.017  -0.315  1.00 20.00     0.011 C 
BRANCH   8  10
HETATM   10  C10 UNL     1     -32.314  18.404  -2.010  1.00 20.00     0.074 C 
BRANCH  10  11
HETATM   11  C3  UNL     1     -31.568  18.740  -0.738  1.00 20.00     0.231 C 
HETATM   12  O12 UNL     1     -30.468  18.295  -0.430  1.00 20.00    -0.307 OA
ENDBRANCH  10  11
ENDBRANCH   8  10
ENDBRANCH   6   8
TORSDOF 3
ENDMDL
MODEL 8
REMARK VINA RESULT:      -4.2      1.975      3.452
REMARK  3 active torsions:
REMARK  status: ('A' for Active; 'I' for Inactive)
REMARK    1  A    between atoms: C3_3  and  C10_10 
REMARK    2  A    between atoms: C7_7  and  C11_11 
REMARK    3  A    between atoms: C10_10  and  C11_11 
ROOT
HETATM    1  C1  UNL     1     -35.149  16.278  -1.545  1.00 20.00    -0.024 C 
HETATM    2  C2  UNL     1     -34.256  17.272  -1.393  1.00 20.00    -0.087 C 
HETATM    3  C4  UNL     1     -35.173  15.351  -2.725  1.00 20.00     0.032 C 
HETATM    4  C5  UNL     1     -33.165  17.528  -2.404  1.00 20.00     0.034 C 
HETATM    5  C6  UNL     1     -32.995  16.397  -3.425  1.00 20.00     0.009 C 
HETATM    6  C7  UNL     1     -34.334  15.837  -3.920  1.00 20.00    -0.007 C 
HETATM    7  C8  UNL     1     -34.289  18.195  -0.211  1.00 20.00     0.043 C 
ENDROOT
BRANCH   6   8
HETATM    8  C11 UNL     1     -35.098  16.862  -4.765  1.00 20.00    -0.008 C 
HETATM    9  C9  UNL     1     -34.119  17.626  -5.662  1.00 20.00     0.011 C 
BRANCH   8  10
HETATM   10  C10 UNL     1     -36.184  16.160  -5.594  1.00 20.00     0.074 C 
BRANCH  10  11
HETATM   11  C3  UNL     1     -35.687  14.957  -6.365  1.00 20.00     0.231 C 
HETATM   12  O12 UNL     1     -36.015  13.797  -6.146  1.00 20.00    -0.307 OA
ENDBRANCH  10  11
ENDBRANCH   8  10
ENDBRANCH   6   8
TORSDOF 3
ENDMDL
MODEL 9
REMARK VINA RESULT:      -4.2      2.695      5.018
REMARK  3 active torsions:
REMARK  status: ('A' for Active; 'I' for Inactive)
REMARK    1  A    between atoms: C3_3  and  C10_10 
REMARK    2  A    between atoms: C7_7  and  C11_11 
REMARK    3  A    between atoms: C10_10  and  C11_11 
ROOT
HETATM    1  C1  UNL     1     -35.144  17.147  -1.670  1.00 20.00    -0.024 C 
HETATM    2  C2  UNL     1     -34.318  16.464  -2.482  1.00 20.00    -0.087 C 
HETATM    3  C4  UNL     1     -34.803  18.474  -1.057  1.00 20.00     0.032 C 
HETATM    4  C5  UNL     1     -32.963  16.998  -2.875  1.00 20.00     0.034 C 
HETATM    5  C6  UNL     1     -32.754  18.473  -2.517  1.00 20.00     0.009 C 
HETATM    6  C7  UNL     1     -33.310  18.833  -1.133  1.00 20.00    -0.007 C 
HETATM    7  C8  UNL     1     -34.689  15.126  -3.048  1.00 20.00     0.043 C 
ENDROOT
BRANCH   6   8
HETATM    8  C11 UNL     1     -32.511  18.159  -0.011  1.00 20.00    -0.008 C 
HETATM    9  C9  UNL     1     -31.057  18.638  -0.050  1.00 20.00     0.011 C 
BRANCH   8  10
HETATM   10  C10 UNL     1     -33.160  18.453   1.349  1.00 20.00     0.074 C 
BRANCH  10  11
HETATM   11  C3  UNL     1     -32.266  18.160   2.534  1.00 20.00     0.231 C 
HETATM   12  O12 UNL     1     -32.506  17.335   3.408  1.00 20.00    -0.307 OA
ENDBRANCH  10  11
ENDBRANCH   8  10
ENDBRANCH   6   8
TORSDOF 3
ENDMDL
