MODEL 1
REMARK VINA RESULT:      -2.7      0.000      0.000
REMARK  4 active torsions:
REMARK  status: ('A' for Active; 'I' for Inactive)
REMARK    1  A    between atoms: C1_1  and  C3_3 
REMARK    2  A    between atoms: C1_1  and  S4_4 
REMARK    3  A    between atoms: C2_2  and  C3_3 
REMARK    4  A    between atoms: C3_3  and  S5_5 
ROOT
HETATM    1  C3  UNL     1     -23.453  17.922  10.636  1.00 20.00     0.067 C 
ENDROOT
BRANCH   1   2
HETATM    2  C1  UNL     1     -22.539  18.537   9.561  1.00 20.00     0.086 C 
BRANCH   2   3
HETATM    3  S4  UNL     1     -22.009  17.406   8.234  1.00 20.00    -0.181 SA
HETATM    4  H12 UNL     1     -21.209  18.285   7.620  1.00 20.00     0.101 HD
ENDBRANCH   2   3
ENDBRANCH   1   2
BRANCH   1   5
HETATM    5  C2  UNL     1     -24.081  16.568  10.290  1.00 20.00     0.130 C 
HETATM    6 CL6  UNL     1     -24.600  15.687  11.751  1.00 20.00    -0.129 Cl
ENDBRANCH   1   5
BRANCH   1   7
HETATM    7  S5  UNL     1     -22.560  17.755  12.229  1.00 20.00    -0.176 SA
HETATM    8  H13 UNL     1     -21.667  16.866  11.777  1.00 20.00     0.102 HD
ENDBRANCH   1   7
TORSDOF 4
ENDMDL
MODEL 2
REMARK VINA RESULT:      -2.7     16.416     16.827
REMARK  4 active torsions:
REMARK  status: ('A' for Active; 'I' for Inactive)
REMARK    1  A    between atoms: C1_1  and  C3_3 
REMARK    2  A    between atoms: C1_1  and  S4_4 
REMARK    3  A    between atoms: C2_2  and  C3_3 
REMARK    4  A    between atoms: C3_3  and  S5_5 
ROOT
HETATM    1  C3  UNL     1     -33.561   6.590   3.501  1.00 20.00     0.067 C 
ENDROOT
BRANCH   1   2
HETATM    2  C1  UNL     1     -33.766   6.667   5.025  1.00 20.00     0.086 C 
BRANCH   2   3
HETATM    3  S4  UNL     1     -34.757   5.325   5.757  1.00 20.00    -0.181 SA
HETATM    4  H12 UNL     1     -35.125   6.009   6.848  1.00 20.00     0.101 HD
ENDBRANCH   2   3
ENDBRANCH   1   2
BRANCH   1   5
HETATM    5  C2  UNL     1     -32.275   7.224   2.962  1.00 20.00     0.130 C 
HETATM    6 CL6  UNL     1     -32.511   7.916   1.336  1.00 20.00    -0.129 Cl
ENDBRANCH   1   5
BRANCH   1   7
HETATM    7  S5  UNL     1     -33.634   4.850   2.925  1.00 20.00    -0.176 SA
HETATM    8  H13 UNL     1     -33.728   4.318   4.150  1.00 20.00     0.102 HD
ENDBRANCH   1   7
TORSDOF 4
ENDMDL
MODEL 3
REMARK VINA RESULT:      -2.6      2.546      3.318
REMARK  4 active torsions:
REMARK  status: ('A' for Active; 'I' for Inactive)
REMARK    1  A    between atoms: C1_1  and  C3_3 
REMARK    2  A    between atoms: C1_1  and  S4_4 
REMARK    3  A    between atoms: C2_2  and  C3_3 
REMARK    4  A    between atoms: C3_3  and  S5_5 
ROOT
HETATM    1  C3  UNL     1     -23.801  16.627  11.425  1.00 20.00     0.067 C 
ENDROOT
BRANCH   1   2
HETATM    2  C1  UNL     1     -25.237  16.680  11.975  1.00 20.00     0.086 C 
BRANCH   2   3
HETATM    3  S4  UNL     1     -25.992  18.337  12.051  1.00 20.00    -0.181 SA
HETATM    4  H12 UNL     1     -26.764  18.084  13.116  1.00 20.00     0.101 HD
ENDBRANCH   2   3
ENDBRANCH   1   2
BRANCH   1   5
HETATM    5  C2  UNL     1     -23.645  16.890   9.923  1.00 20.00     0.130 C 
HETATM    6 CL6  UNL     1     -22.874  18.465   9.604  1.00 20.00    -0.129 Cl
ENDBRANCH   1   5
BRANCH   1   7
HETATM    7  S5  UNL     1     -22.716  17.795  12.332  1.00 20.00    -0.176 SA
HETATM    8  H13 UNL     1     -23.092  17.391  13.551  1.00 20.00     0.102 HD
ENDBRANCH   1   7
TORSDOF 4
ENDMDL
MODEL 4
REMARK VINA RESULT:      -2.5      1.833      2.870
REMARK  4 active torsions:
REMARK  status: ('A' for Active; 'I' for Inactive)
REMARK    1  A    between atoms: C1_1  and  C3_3 
REMARK    2  A    between atoms: C1_1  and  S4_4 
REMARK    3  A    between atoms: C2_2  and  C3_3 
REMARK    4  A    between atoms: C3_3  and  S5_5 
ROOT
HETATM    1  C3  UNL     1     -23.534  17.946  10.732  1.00 20.00     0.067 C 
ENDROOT
BRANCH   1   2
HETATM    2  C1  UNL     1     -24.934  18.473  10.370  1.00 20.00     0.086 C 
BRANCH   2   3
HETATM    3  S4  UNL     1     -25.993  18.932  11.781  1.00 20.00    -0.181 SA
HETATM    4  H12 UNL     1     -26.661  17.772  11.830  1.00 20.00     0.101 HD
ENDBRANCH   2   3
ENDBRANCH   1   2
BRANCH   1   5
HETATM    5  C2  UNL     1     -23.469  16.954  11.897  1.00 20.00     0.130 C 
HETATM    6 CL6  UNL     1     -24.564  15.570  11.649  1.00 20.00    -0.129 Cl
ENDBRANCH   1   5
BRANCH   1   7
HETATM    7  S5  UNL     1     -22.733  17.177   9.272  1.00 20.00    -0.176 SA
HETATM    8  H13 UNL     1     -21.602  16.850   9.909  1.00 20.00     0.102 HD
ENDBRANCH   1   7
TORSDOF 4
ENDMDL
MODEL 5
REMARK VINA RESULT:      -2.5     16.450     16.674
REMARK  4 active torsions:
REMARK  status: ('A' for Active; 'I' for Inactive)
REMARK    1  A    between atoms: C1_1  and  C3_3 
REMARK    2  A    between atoms: C1_1  and  S4_4 
REMARK    3  A    between atoms: C2_2  and  C3_3 
REMARK    4  A    between atoms: C3_3  and  S5_5 
ROOT
HETATM    1  C3  UNL     1     -34.088   6.282   3.864  1.00 20.00     0.067 C 
ENDROOT
BRANCH   1   2
HETATM    2  C1  UNL     1     -32.980   6.064   2.818  1.00 20.00     0.086 C 
BRANCH   2   3
HETATM    3  S4  UNL     1     -32.487   7.542   1.872  1.00 20.00    -0.181 SA
HETATM    4  H12 UNL     1     -32.969   8.430   2.750  1.00 20.00     0.101 HD
ENDBRANCH   2   3
ENDBRANCH   1   2
BRANCH   1   5
HETATM    5  C2  UNL     1     -34.829   5.025   4.331  1.00 20.00     0.130 C 
HETATM    6 CL6  UNL     1     -34.895   4.919   6.109  1.00 20.00    -0.129 Cl
ENDBRANCH   1   5
BRANCH   1   7
HETATM    7  S5  UNL     1     -33.425   7.145   5.341  1.00 20.00    -0.176 SA
HETATM    8  H13 UNL     1     -34.123   8.271   5.149  1.00 20.00     0.102 HD
ENDBRANCH   1   7
TORSDOF 4
ENDMDL
MODEL 6
REMARK VINA RESULT:      -2.5     23.528     24.082
REMARK  4 active torsions:
REMARK  status: ('A' for Active; 'I' for Inactive)
REMARK    1  A    between atoms: C1_1  and  C3_3 
REMARK    2  A    between atoms: C1_1  and  S4_4 
REMARK    3  A    between atoms: C2_2  and  C3_3 
REMARK    4  A    between atoms: C3_3  and  S5_5 
ROOT
HETATM    1  C3  UNL     1     -41.374   6.806  -0.074  1.00 20.00     0.067 C 
ENDROOT
BRANCH   1   2
HETATM    2  C1  UNL     1     -41.267   5.553  -0.962  1.00 20.00     0.086 C 
BRANCH   2   3
HETATM    3  S4  UNL     1     -42.851   4.847  -1.523  1.00 20.00    -0.181 SA
HETATM    4  H12 UNL     1     -43.304   5.971  -2.094  1.00 20.00     0.101 HD
ENDBRANCH   2   3
ENDBRANCH   1   2
BRANCH   1   5
HETATM    5  C2  UNL     1     -41.361   8.152  -0.806  1.00 20.00     0.130 C 
HETATM    6 CL6  UNL     1     -41.358   9.523   0.334  1.00 20.00    -0.129 Cl
ENDBRANCH   1   5
BRANCH   1   7
HETATM    7  S5  UNL     1     -42.877   6.731   0.974  1.00 20.00    -0.176 SA
HETATM    8  H13 UNL     1     -42.423   7.583   1.902  1.00 20.00     0.102 HD
ENDBRANCH   1   7
TORSDOF 4
ENDMDL
MODEL 7
REMARK VINA RESULT:      -2.5      2.731      3.583
REMARK  4 active torsions:
REMARK  status: ('A' for Active; 'I' for Inactive)
REMARK    1  A    between atoms: C1_1  and  C3_3 
REMARK    2  A    between atoms: C1_1  and  S4_4 
REMARK    3  A    between atoms: C2_2  and  C3_3 
REMARK    4  A    between atoms: C3_3  and  S5_5 
ROOT
HETATM    1  C3  UNL     1     -23.367  18.131   9.924  1.00 20.00     0.067 C 
ENDROOT
BRANCH   1   2
HETATM    2  C1  UNL     1     -23.782  16.654  10.050  1.00 20.00     0.086 C 
BRANCH   2   3
HETATM    3  S4  UNL     1     -24.528  16.178  11.643  1.00 20.00    -0.181 SA
HETATM    4  H12 UNL     1     -25.169  15.100  11.174  1.00 20.00     0.101 HD
ENDBRANCH   2   3
ENDBRANCH   1   2
BRANCH   1   5
HETATM    5  C2  UNL     1     -22.010  18.395   9.265  1.00 20.00     0.130 C 
HETATM    6 CL6  UNL     1     -21.789  17.415   7.791  1.00 20.00    -0.129 Cl
ENDBRANCH   1   5
BRANCH   1   7
HETATM    7  S5  UNL     1     -24.646  19.088   9.021  1.00 20.00    -0.176 SA
HETATM    8  H13 UNL     1     -24.406  20.242   9.655  1.00 20.00     0.102 HD
ENDBRANCH   1   7
TORSDOF 4
ENDMDL
MODEL 8
REMARK VINA RESULT:      -2.5      2.592      2.898
REMARK  4 active torsions:
REMARK  status: ('A' for Active; 'I' for Inactive)
REMARK    1  A    between atoms: C1_1  and  C3_3 
REMARK    2  A    between atoms: C1_1  and  S4_4 
REMARK    3  A    between atoms: C2_2  and  C3_3 
REMARK    4  A    between atoms: C3_3  and  S5_5 
ROOT
HETATM    1  C3  UNL     1     -22.896  17.381  10.286  1.00 20.00     0.067 C 
ENDROOT
BRANCH   1   2
HETATM    2  C1  UNL     1     -24.357  17.700   9.922  1.00 20.00     0.086 C 
BRANCH   2   3
HETATM    3  S4  UNL     1     -24.611  19.207   8.929  1.00 20.00    -0.181 SA
HETATM    4  H12 UNL     1     -24.553  20.059   9.961  1.00 20.00     0.101 HD
ENDBRANCH   2   3
ENDBRANCH   1   2
BRANCH   1   5
HETATM    5  C2  UNL     1     -21.825  18.103   9.463  1.00 20.00     0.130 C 
HETATM    6 CL6  UNL     1     -21.577  17.330   7.876  1.00 20.00    -0.129 Cl
ENDBRANCH   1   5
BRANCH   1   7
HETATM    7  S5  UNL     1     -22.583  17.713  12.063  1.00 20.00    -0.176 SA
HETATM    8  H13 UNL     1     -23.301  16.676  12.510  1.00 20.00     0.102 HD
ENDBRANCH   1   7
TORSDOF 4
ENDMDL
MODEL 9
REMARK VINA RESULT:      -2.5     23.481     24.008
REMARK  4 active torsions:
REMARK  status: ('A' for Active; 'I' for Inactive)
REMARK    1  A    between atoms: C1_1  and  C3_3 
REMARK    2  A    between atoms: C1_1  and  S4_4 
REMARK    3  A    between atoms: C2_2  and  C3_3 
REMARK    4  A    between atoms: C3_3  and  S5_5 
ROOT
HETATM    1  C3  UNL     1     -42.108   6.993  -0.505  1.00 20.00     0.067 C 
ENDROOT
BRANCH   1   2
HETATM    2  C1  UNL     1     -42.613   6.902   0.946  1.00 20.00     0.086 C 
BRANCH   2   3
HETATM    3  S4  UNL     1     -43.325   5.297   1.434  1.00 20.00    -0.181 SA
HETATM    4  H12 UNL     1     -42.557   5.134   2.518  1.00 20.00     0.101 HD
ENDBRANCH   2   3
ENDBRANCH   1   2
BRANCH   1   5
HETATM    5  C2  UNL     1     -41.300   8.245  -0.859  1.00 20.00     0.130 C 
HETATM    6 CL6  UNL     1     -41.417   9.489   0.413  1.00 20.00    -0.129 Cl
ENDBRANCH   1   5
BRANCH   1   7
HETATM    7  S5  UNL     1     -41.109   5.517  -0.938  1.00 20.00    -0.176 SA
HETATM    8  H13 UNL     1     -41.973   4.630  -0.431  1.00 20.00     0.102 HD
ENDBRANCH   1   7
TORSDOF 4
ENDMDL
