MODEL 1
REMARK VINA RESULT:      -4.3      0.000      0.000
REMARK  2 active torsions:
REMARK  status: ('A' for Active; 'I' for Inactive)
REMARK    1  A    between atoms: C5_5  and  O12_12 
REMARK    2  A    between atoms: C11_11  and  O12_12 
ROOT
HETATM    1  C1  UNL     1     -33.322  16.543  -3.613  1.00 20.00     0.036 C 
HETATM    2  C2  UNL     1     -35.631  16.157  -2.668  1.00 20.00     0.013 C 
HETATM    3  C3  UNL     1     -34.528  18.430  -2.421  1.00 20.00     0.040 C 
HETATM    4  C4  UNL     1     -34.261  15.524  -2.955  1.00 20.00    -0.015 C 
HETATM    5  C5  UNL     1     -33.172  17.818  -2.782  1.00 20.00     0.122 C 
HETATM    6  C6  UNL     1     -35.550  17.439  -1.809  1.00 20.00    -0.045 C 
HETATM    7  C7  UNL     1     -34.420  14.292  -3.849  1.00 20.00     0.010 C 
HETATM    8  C8  UNL     1     -36.938  18.115  -1.796  1.00 20.00     0.015 C 
HETATM    9  C9  UNL     1     -35.198  17.092  -0.350  1.00 20.00     0.015 C 
ENDROOT
BRANCH   5  10
HETATM   10  O12 UNL     1     -32.433  17.549  -1.596  1.00 20.00    -0.386 OA
BRANCH  10  11
HETATM   11  C11 UNL     1     -31.870  18.734  -1.054  1.00 20.00     0.163 C 
HETATM   12  C10 UNL     1     -31.004  18.372   0.134  1.00 20.00     0.033 C 
ENDBRANCH  10  11
ENDBRANCH   5  10
TORSDOF 2
ENDMDL
MODEL 2
REMARK VINA RESULT:      -4.1     11.749     15.549
REMARK  2 active torsions:
REMARK  status: ('A' for Active; 'I' for Inactive)
REMARK    1  A    between atoms: C5_5  and  O12_12 
REMARK    2  A    between atoms: C11_11  and  O12_12 
ROOT
HETATM    1  C1  UNL     1     -25.598  19.094  10.222  1.00 20.00     0.036 C 
HETATM    2  C2  UNL     1     -23.637  17.794  11.140  1.00 20.00     0.013 C 
HETATM    3  C3  UNL     1     -23.363  19.168   9.023  1.00 20.00     0.040 C 
HETATM    4  C4  UNL     1     -25.163  17.821  10.959  1.00 20.00    -0.015 C 
HETATM    5  C5  UNL     1     -24.884  19.263   8.881  1.00 20.00     0.122 C 
HETATM    6  C6  UNL     1     -22.856  17.936   9.814  1.00 20.00    -0.045 C 
HETATM    7  C7  UNL     1     -25.862  17.726  12.317  1.00 20.00     0.010 C 
HETATM    8  C8  UNL     1     -21.362  18.146  10.140  1.00 20.00     0.015 C 
HETATM    9  C9  UNL     1     -22.966  16.645   8.981  1.00 20.00     0.015 C 
ENDROOT
BRANCH   5  10
HETATM   10  O12 UNL     1     -25.343  18.287   7.953  1.00 20.00    -0.386 OA
BRANCH  10  11
HETATM   11  C11 UNL     1     -25.768  18.883   6.736  1.00 20.00     0.163 C 
HETATM   12  C10 UNL     1     -27.280  18.873   6.682  1.00 20.00     0.033 C 
ENDBRANCH  10  11
ENDBRANCH   5  10
TORSDOF 2
ENDMDL
MODEL 3
REMARK VINA RESULT:      -4.1      1.594      3.069
REMARK  2 active torsions:
REMARK  status: ('A' for Active; 'I' for Inactive)
REMARK    1  A    between atoms: C5_5  and  O12_12 
REMARK    2  A    between atoms: C11_11  and  O12_12 
ROOT
HETATM    1  C1  UNL     1     -34.730  18.171  -3.387  1.00 20.00     0.036 C 
HETATM    2  C2  UNL     1     -35.042  16.249  -4.996  1.00 20.00     0.013 C 
HETATM    3  C3  UNL     1     -34.725  15.786  -2.520  1.00 20.00     0.040 C 
HETATM    4  C4  UNL     1     -34.456  17.657  -4.807  1.00 20.00    -0.015 C 
HETATM    5  C5  UNL     1     -34.213  17.214  -2.313  1.00 20.00     0.122 C 
HETATM    6  C6  UNL     1     -34.539  15.226  -3.952  1.00 20.00    -0.045 C 
HETATM    7  C7  UNL     1     -35.039  18.620  -5.843  1.00 20.00     0.010 C 
HETATM    8  C8  UNL     1     -35.372  13.933  -4.084  1.00 20.00     0.015 C 
HETATM    9  C9  UNL     1     -33.069  14.853  -4.227  1.00 20.00     0.015 C 
ENDROOT
BRANCH   5  10
HETATM   10  O12 UNL     1     -32.790  17.217  -2.294  1.00 20.00    -0.386 OA
BRANCH  10  11
HETATM   11  C11 UNL     1     -32.277  18.480  -1.896  1.00 20.00     0.163 C 
HETATM   12  C10 UNL     1     -31.446  18.303  -0.643  1.00 20.00     0.033 C 
ENDBRANCH  10  11
ENDBRANCH   5  10
TORSDOF 2
ENDMDL
MODEL 4
REMARK VINA RESULT:      -4.1      2.407      4.525
REMARK  2 active torsions:
REMARK  status: ('A' for Active; 'I' for Inactive)
REMARK    1  A    between atoms: C5_5  and  O12_12 
REMARK    2  A    between atoms: C11_11  and  O12_12 
ROOT
HETATM    1  C1  UNL     1     -34.594  15.971  -5.527  1.00 20.00     0.036 C 
HETATM    2  C2  UNL     1     -34.333  17.846  -3.855  1.00 20.00     0.013 C 
HETATM    3  C3  UNL     1     -33.172  15.624  -3.454  1.00 20.00     0.040 C 
HETATM    4  C4  UNL     1     -35.281  17.169  -4.858  1.00 20.00    -0.015 C 
HETATM    5  C5  UNL     1     -34.063  14.962  -4.509  1.00 20.00     0.122 C 
HETATM    6  C6  UNL     1     -33.779  16.881  -2.782  1.00 20.00    -0.045 C 
HETATM    7  C7  UNL     1     -35.746  18.175  -5.913  1.00 20.00     0.010 C 
HETATM    8  C8  UNL     1     -32.663  17.602  -1.996  1.00 20.00     0.015 C 
HETATM    9  C9  UNL     1     -34.881  16.505  -1.771  1.00 20.00     0.015 C 
ENDROOT
BRANCH   5  10
HETATM   10  O12 UNL     1     -35.143  14.288  -3.873  1.00 20.00    -0.386 OA
BRANCH  10  11
HETATM   11  C11 UNL     1     -36.119  13.865  -4.814  1.00 20.00     0.163 C 
HETATM   12  C10 UNL     1     -37.485  14.321  -4.349  1.00 20.00     0.033 C 
ENDBRANCH  10  11
ENDBRANCH   5  10
TORSDOF 2
ENDMDL
MODEL 5
REMARK VINA RESULT:      -4.1      1.731      3.971
REMARK  2 active torsions:
REMARK  status: ('A' for Active; 'I' for Inactive)
REMARK    1  A    between atoms: C5_5  and  O12_12 
REMARK    2  A    between atoms: C11_11  and  O12_12 
ROOT
HETATM    1  C1  UNL     1     -35.072  15.565  -2.636  1.00 20.00     0.036 C 
HETATM    2  C2  UNL     1     -32.762  16.556  -2.876  1.00 20.00     0.013 C 
HETATM    3  C3  UNL     1     -34.366  17.494  -1.146  1.00 20.00     0.040 C 
HETATM    4  C4  UNL     1     -33.941  15.904  -3.615  1.00 20.00    -0.015 C 
HETATM    5  C5  UNL     1     -35.534  16.783  -1.835  1.00 20.00     0.122 C 
HETATM    6  C6  UNL     1     -33.159  17.810  -2.066  1.00 20.00    -0.045 C 
HETATM    7  C7  UNL     1     -33.478  14.644  -4.351  1.00 20.00     0.010 C 
HETATM    8  C8  UNL     1     -31.966  18.226  -1.180  1.00 20.00     0.015 C 
HETATM    9  C9  UNL     1     -33.462  18.991  -3.010  1.00 20.00     0.015 C 
ENDROOT
BRANCH   5  10
HETATM   10  O12 UNL     1     -36.222  17.696  -2.682  1.00 20.00    -0.386 OA
BRANCH  10  11
HETATM   11  C11 UNL     1     -37.352  17.090  -3.292  1.00 20.00     0.163 C 
HETATM   12  C10 UNL     1     -37.425  17.526  -4.740  1.00 20.00     0.033 C 
ENDBRANCH  10  11
ENDBRANCH   5  10
TORSDOF 2
ENDMDL
MODEL 6
REMARK VINA RESULT:      -4.0      2.730      5.202
REMARK  2 active torsions:
REMARK  status: ('A' for Active; 'I' for Inactive)
REMARK    1  A    between atoms: C5_5  and  O12_12 
REMARK    2  A    between atoms: C11_11  and  O12_12 
ROOT
HETATM    1  C1  UNL     1     -36.036  17.309  -3.220  1.00 20.00     0.036 C 
HETATM    2  C2  UNL     1     -34.154  15.738  -2.613  1.00 20.00     0.013 C 
HETATM    3  C3  UNL     1     -34.857  15.990  -5.039  1.00 20.00     0.040 C 
HETATM    4  C4  UNL     1     -35.495  16.337  -2.162  1.00 20.00    -0.015 C 
HETATM    5  C5  UNL     1     -36.162  16.658  -4.597  1.00 20.00     0.122 C 
HETATM    6  C6  UNL     1     -34.220  15.042  -3.991  1.00 20.00    -0.045 C 
HETATM    7  C7  UNL     1     -35.336  17.049  -0.817  1.00 20.00     0.010 C 
HETATM    8  C8  UNL     1     -32.784  14.705  -4.446  1.00 20.00     0.015 C 
HETATM    9  C9  UNL     1     -34.992  13.712  -3.889  1.00 20.00     0.015 C 
ENDROOT
BRANCH   5  10
HETATM   10  O12 UNL     1     -37.216  15.702  -4.596  1.00 20.00    -0.386 OA
BRANCH  10  11
HETATM   11  C11 UNL     1     -38.473  16.314  -4.349  1.00 20.00     0.163 C 
HETATM   12  C10 UNL     1     -39.498  15.238  -4.059  1.00 20.00     0.033 C 
ENDBRANCH  10  11
ENDBRANCH   5  10
TORSDOF 2
ENDMDL
MODEL 7
REMARK VINA RESULT:      -3.8      2.629      4.133
REMARK  2 active torsions:
REMARK  status: ('A' for Active; 'I' for Inactive)
REMARK    1  A    between atoms: C5_5  and  O12_12 
REMARK    2  A    between atoms: C11_11  and  O12_12 
ROOT
HETATM    1  C1  UNL     1     -36.271  15.988  -5.177  1.00 20.00     0.036 C 
HETATM    2  C2  UNL     1     -35.262  15.258  -2.980  1.00 20.00     0.013 C 
HETATM    3  C3  UNL     1     -35.268  17.716  -3.613  1.00 20.00     0.040 C 
HETATM    4  C4  UNL     1     -35.499  14.879  -4.450  1.00 20.00    -0.015 C 
HETATM    5  C5  UNL     1     -35.580  17.347  -5.066  1.00 20.00     0.122 C 
HETATM    6  C6  UNL     1     -34.543  16.614  -2.800  1.00 20.00    -0.045 C 
HETATM    7  C7  UNL     1     -36.257  13.553  -4.544  1.00 20.00     0.010 C 
HETATM    8  C8  UNL     1     -34.585  17.002  -1.307  1.00 20.00     0.015 C 
HETATM    9  C9  UNL     1     -33.060  16.497  -3.202  1.00 20.00     0.015 C 
ENDROOT
BRANCH   5  10
HETATM   10  O12 UNL     1     -34.381  17.354  -5.833  1.00 20.00    -0.386 OA
BRANCH  10  11
HETATM   11  C11 UNL     1     -34.654  17.420  -7.225  1.00 20.00     0.163 C 
HETATM   12  C10 UNL     1     -33.973  16.258  -7.917  1.00 20.00     0.033 C 
ENDBRANCH  10  11
ENDBRANCH   5  10
TORSDOF 2
ENDMDL
MODEL 8
REMARK VINA RESULT:      -3.8      3.184      5.347
REMARK  2 active torsions:
REMARK  status: ('A' for Active; 'I' for Inactive)
REMARK    1  A    between atoms: C5_5  and  O12_12 
REMARK    2  A    between atoms: C11_11  and  O12_12 
ROOT
HETATM    1  C1  UNL     1     -35.700  14.350  -6.188  1.00 20.00     0.036 C 
HETATM    2  C2  UNL     1     -34.177  15.994  -5.024  1.00 20.00     0.013 C 
HETATM    3  C3  UNL     1     -35.834  14.628  -3.669  1.00 20.00     0.040 C 
HETATM    4  C4  UNL     1     -34.979  15.699  -6.301  1.00 20.00    -0.015 C 
HETATM    5  C5  UNL     1     -36.593  14.269  -4.949  1.00 20.00     0.122 C 
HETATM    6  C6  UNL     1     -35.029  15.951  -3.736  1.00 20.00    -0.045 C 
HETATM    7  C7  UNL     1     -34.059  15.710  -7.523  1.00 20.00     0.010 C 
HETATM    8  C8  UNL     1     -34.086  16.012  -2.515  1.00 20.00     0.015 C 
HETATM    9  C9  UNL     1     -35.956  17.181  -3.659  1.00 20.00     0.015 C 
ENDROOT
BRANCH   5  10
HETATM   10  O12 UNL     1     -37.720  15.125  -5.097  1.00 20.00    -0.386 OA
BRANCH  10  11
HETATM   11  C11 UNL     1     -38.776  14.752  -4.225  1.00 20.00     0.163 C 
HETATM   12  C10 UNL     1     -39.524  15.995  -3.793  1.00 20.00     0.033 C 
ENDBRANCH  10  11
ENDBRANCH   5  10
TORSDOF 2
ENDMDL
MODEL 9
REMARK VINA RESULT:      -3.8      2.013      4.056
REMARK  2 active torsions:
REMARK  status: ('A' for Active; 'I' for Inactive)
REMARK    1  A    between atoms: C5_5  and  O12_12 
REMARK    2  A    between atoms: C11_11  and  O12_12 
ROOT
HETATM    1  C1  UNL     1     -33.027  16.822  -3.197  1.00 20.00     0.036 C 
HETATM    2  C2  UNL     1     -34.592  18.568  -2.259  1.00 20.00     0.013 C 
HETATM    3  C3  UNL     1     -35.016  16.109  -1.793  1.00 20.00     0.040 C 
HETATM    4  C4  UNL     1     -33.684  18.187  -3.439  1.00 20.00    -0.015 C 
HETATM    5  C5  UNL     1     -34.053  15.723  -2.918  1.00 20.00     0.122 C 
HETATM    6  C6  UNL     1     -35.669  17.506  -1.942  1.00 20.00    -0.045 C 
HETATM    7  C7  UNL     1     -32.617  19.261  -3.659  1.00 20.00     0.010 C 
HETATM    8  C8  UNL     1     -36.347  17.874  -0.605  1.00 20.00     0.015 C 
HETATM    9  C9  UNL     1     -36.765  17.506  -3.026  1.00 20.00     0.015 C 
ENDROOT
BRANCH   5  10
HETATM   10  O12 UNL     1     -34.787  15.423  -4.100  1.00 20.00    -0.386 OA
BRANCH  10  11
HETATM   11  C11 UNL     1     -35.233  14.076  -4.108  1.00 20.00     0.163 C 
HETATM   12  C10 UNL     1     -36.685  14.038  -4.534  1.00 20.00     0.033 C 
ENDBRANCH  10  11
ENDBRANCH   5  10
TORSDOF 2
ENDMDL
