MODEL 1
REMARK VINA RESULT:      -4.6      0.000      0.000
REMARK  4 active torsions:
REMARK  status: ('A' for Active; 'I' for Inactive)
REMARK    1  A    between atoms: C4_4  and  C5_5 
REMARK    2  A    between atoms: C5_5  and  C7_7 
REMARK    3  A    between atoms: C6_6  and  O8_8 
REMARK    4  A    between atoms: C7_7  and  O8_8 
ROOT
HETATM    1  C3  UNL     1     -33.119   4.879   2.524  1.00 20.00     0.039 C 
HETATM    2  C7  UNL     1     -33.505   6.333   2.761  1.00 20.00     0.117 C 
ENDROOT
BRANCH   2   3
HETATM    3  C5  UNL     1     -32.340   7.280   2.455  1.00 20.00     0.031 C 
BRANCH   3   4
HETATM    4  C4  UNL     1     -32.321   7.715   0.987  1.00 20.00    -0.002 C 
HETATM    5  C1  UNL     1     -32.972   9.076   0.802  1.00 20.00     0.005 C 
ENDBRANCH   3   4
ENDBRANCH   2   3
BRANCH   2   6
HETATM    6  O8  UNL     1     -33.915   6.482   4.117  1.00 20.00    -0.387 OA
BRANCH   6   7
HETATM    7  C6  UNL     1     -34.848   5.478   4.488  1.00 20.00     0.163 C 
HETATM    8  C2  UNL     1     -34.764   5.256   5.984  1.00 20.00     0.033 C 
ENDBRANCH   6   7
ENDBRANCH   2   6
TORSDOF 4
ENDMDL
MODEL 2
REMARK VINA RESULT:      -4.5      0.828      4.144
REMARK  4 active torsions:
REMARK  status: ('A' for Active; 'I' for Inactive)
REMARK    1  A    between atoms: C4_4  and  C5_5 
REMARK    2  A    between atoms: C5_5  and  C7_7 
REMARK    3  A    between atoms: C6_6  and  O8_8 
REMARK    4  A    between atoms: C7_7  and  O8_8 
ROOT
HETATM    1  C3  UNL     1     -33.261   4.632   2.358  1.00 20.00     0.039 C 
HETATM    2  C7  UNL     1     -33.572   5.585   3.504  1.00 20.00     0.117 C 
ENDROOT
BRANCH   2   3
HETATM    3  C5  UNL     1     -34.917   5.258   4.158  1.00 20.00     0.031 C 
BRANCH   3   4
HETATM    4  C4  UNL     1     -34.836   5.280   5.687  1.00 20.00    -0.002 C 
HETATM    5  C1  UNL     1     -34.159   6.547   6.189  1.00 20.00     0.005 C 
ENDBRANCH   3   4
ENDBRANCH   2   3
BRANCH   2   6
HETATM    6  O8  UNL     1     -33.583   6.917   3.000  1.00 20.00    -0.387 OA
BRANCH   6   7
HETATM    7  C6  UNL     1     -32.367   7.230   2.336  1.00 20.00     0.163 C 
HETATM    8  C2  UNL     1     -32.661   8.171   1.186  1.00 20.00     0.033 C 
ENDBRANCH   6   7
ENDBRANCH   2   6
TORSDOF 4
ENDMDL
MODEL 3
REMARK VINA RESULT:      -4.4      1.095      4.303
REMARK  4 active torsions:
REMARK  status: ('A' for Active; 'I' for Inactive)
REMARK    1  A    between atoms: C4_4  and  C5_5 
REMARK    2  A    between atoms: C5_5  and  C7_7 
REMARK    3  A    between atoms: C6_6  and  O8_8 
REMARK    4  A    between atoms: C7_7  and  O8_8 
ROOT
HETATM    1  C3  UNL     1     -33.195   5.438   2.240  1.00 20.00     0.039 C 
HETATM    2  C7  UNL     1     -32.811   6.451   3.311  1.00 20.00     0.117 C 
ENDROOT
BRANCH   2   3
HETATM    3  C5  UNL     1     -33.983   6.744   4.252  1.00 20.00     0.031 C 
BRANCH   3   4
HETATM    4  C4  UNL     1     -34.801   5.488   4.562  1.00 20.00    -0.002 C 
HETATM    5  C1  UNL     1     -34.781   5.162   6.047  1.00 20.00     0.005 C 
ENDBRANCH   3   4
ENDBRANCH   2   3
BRANCH   2   6
HETATM    6  O8  UNL     1     -32.384   7.651   2.671  1.00 20.00    -0.387 OA
BRANCH   6   7
HETATM    7  C6  UNL     1     -32.526   7.564   1.261  1.00 20.00     0.163 C 
HETATM    8  C2  UNL     1     -32.891   8.930   0.718  1.00 20.00     0.033 C 
ENDBRANCH   6   7
ENDBRANCH   2   6
TORSDOF 4
ENDMDL
MODEL 4
REMARK VINA RESULT:      -3.7     10.989     11.655
REMARK  4 active torsions:
REMARK  status: ('A' for Active; 'I' for Inactive)
REMARK    1  A    between atoms: C4_4  and  C5_5 
REMARK    2  A    between atoms: C5_5  and  C7_7 
REMARK    3  A    between atoms: C6_6  and  O8_8 
REMARK    4  A    between atoms: C7_7  and  O8_8 
ROOT
HETATM    1  C3  UNL     1     -33.885  15.124  -6.842  1.00 20.00     0.039 C 
HETATM    2  C7  UNL     1     -34.619  14.887  -5.529  1.00 20.00     0.117 C 
ENDROOT
BRANCH   2   3
HETATM    3  C5  UNL     1     -33.646  14.560  -4.392  1.00 20.00     0.031 C 
BRANCH   3   4
HETATM    4  C4  UNL     1     -33.342  15.784  -3.524  1.00 20.00    -0.002 C 
HETATM    5  C1  UNL     1     -34.403  15.983  -2.452  1.00 20.00     0.005 C 
ENDBRANCH   3   4
ENDBRANCH   2   3
BRANCH   2   6
HETATM    6  O8  UNL     1     -35.541  13.816  -5.709  1.00 20.00    -0.387 OA
BRANCH   6   7
HETATM    7  C6  UNL     1     -36.261  13.547  -4.515  1.00 20.00     0.163 C 
HETATM    8  C2  UNL     1     -37.367  14.570  -4.366  1.00 20.00     0.033 C 
ENDBRANCH   6   7
ENDBRANCH   2   6
TORSDOF 4
ENDMDL
MODEL 5
REMARK VINA RESULT:      -3.6     10.709     12.053
REMARK  4 active torsions:
REMARK  status: ('A' for Active; 'I' for Inactive)
REMARK    1  A    between atoms: C4_4  and  C5_5 
REMARK    2  A    between atoms: C5_5  and  C7_7 
REMARK    3  A    between atoms: C6_6  and  O8_8 
REMARK    4  A    between atoms: C7_7  and  O8_8 
ROOT
HETATM    1  C3  UNL     1     -37.135  14.861  -4.275  1.00 20.00     0.039 C 
HETATM    2  C7  UNL     1     -36.123  13.771  -4.607  1.00 20.00     0.117 C 
ENDROOT
BRANCH   2   3
HETATM    3  C5  UNL     1     -34.794  13.998  -3.879  1.00 20.00     0.031 C 
BRANCH   3   4
HETATM    4  C4  UNL     1     -34.809  15.277  -3.039  1.00 20.00    -0.002 C 
HETATM    5  C1  UNL     1     -33.494  16.034  -3.156  1.00 20.00     0.005 C 
ENDBRANCH   3   4
ENDBRANCH   2   3
BRANCH   2   6
HETATM    6  O8  UNL     1     -35.914  13.758  -6.016  1.00 20.00    -0.387 OA
BRANCH   6   7
HETATM    7  C6  UNL     1     -35.822  15.075  -6.539  1.00 20.00     0.163 C 
HETATM    8  C2  UNL     1     -34.484  15.240  -7.228  1.00 20.00     0.033 C 
ENDBRANCH   6   7
ENDBRANCH   2   6
TORSDOF 4
ENDMDL
MODEL 6
REMARK VINA RESULT:      -3.6      1.333      2.014
REMARK  4 active torsions:
REMARK  status: ('A' for Active; 'I' for Inactive)
REMARK    1  A    between atoms: C4_4  and  C5_5 
REMARK    2  A    between atoms: C5_5  and  C7_7 
REMARK    3  A    between atoms: C6_6  and  O8_8 
REMARK    4  A    between atoms: C7_7  and  O8_8 
ROOT
HETATM    1  C3  UNL     1     -33.579   7.185   5.973  1.00 20.00     0.039 C 
HETATM    2  C7  UNL     1     -33.393   6.554   4.599  1.00 20.00     0.117 C 
ENDROOT
BRANCH   2   3
HETATM    3  C5  UNL     1     -32.505   7.418   3.699  1.00 20.00     0.031 C 
BRANCH   3   4
HETATM    4  C4  UNL     1     -32.560   6.972   2.236  1.00 20.00    -0.002 C 
HETATM    5  C1  UNL     1     -32.622   8.164   1.293  1.00 20.00     0.005 C 
ENDBRANCH   3   4
ENDBRANCH   2   3
BRANCH   2   6
HETATM    6  O8  UNL     1     -34.674   6.378   4.000  1.00 20.00    -0.387 OA
BRANCH   6   7
HETATM    7  C6  UNL     1     -35.229   5.113   4.327  1.00 20.00     0.163 C 
HETATM    8  C2  UNL     1     -34.219   4.032   4.003  1.00 20.00     0.033 C 
ENDBRANCH   6   7
ENDBRANCH   2   6
TORSDOF 4
ENDMDL
MODEL 7
REMARK VINA RESULT:      -3.5     10.915     12.031
REMARK  4 active torsions:
REMARK  status: ('A' for Active; 'I' for Inactive)
REMARK    1  A    between atoms: C4_4  and  C5_5 
REMARK    2  A    between atoms: C5_5  and  C7_7 
REMARK    3  A    between atoms: C6_6  and  O8_8 
REMARK    4  A    between atoms: C7_7  and  O8_8 
ROOT
HETATM    1  C3  UNL     1     -35.651  14.022  -4.211  1.00 20.00     0.039 C 
HETATM    2  C7  UNL     1     -34.156  14.304  -4.129  1.00 20.00     0.117 C 
ENDROOT
BRANCH   2   3
HETATM    3  C5  UNL     1     -33.869  15.586  -3.341  1.00 20.00     0.031 C 
BRANCH   3   4
HETATM    4  C4  UNL     1     -34.955  15.879  -2.303  1.00 20.00    -0.002 C 
HETATM    5  C1  UNL     1     -34.557  17.030  -1.391  1.00 20.00     0.005 C 
ENDBRANCH   3   4
ENDBRANCH   2   3
BRANCH   2   6
HETATM    6  O8  UNL     1     -33.641  14.416  -5.453  1.00 20.00    -0.387 OA
BRANCH   6   7
HETATM    7  C6  UNL     1     -34.554  15.087  -6.309  1.00 20.00     0.163 C 
HETATM    8  C2  UNL     1     -33.901  15.298  -7.659  1.00 20.00     0.033 C 
ENDBRANCH   6   7
ENDBRANCH   2   6
TORSDOF 4
ENDMDL
MODEL 8
REMARK VINA RESULT:      -3.4     16.067     17.086
REMARK  4 active torsions:
REMARK  status: ('A' for Active; 'I' for Inactive)
REMARK    1  A    between atoms: C4_4  and  C5_5 
REMARK    2  A    between atoms: C5_5  and  C7_7 
REMARK    3  A    between atoms: C6_6  and  O8_8 
REMARK    4  A    between atoms: C7_7  and  O8_8 
ROOT
HETATM    1  C3  UNL     1     -23.983  16.382  10.485  1.00 20.00     0.039 C 
HETATM    2  C7  UNL     1     -23.167  17.513  11.100  1.00 20.00     0.117 C 
ENDROOT
BRANCH   2   3
HETATM    3  C5  UNL     1     -23.862  18.101  12.331  1.00 20.00     0.031 C 
BRANCH   3   4
HETATM    4  C4  UNL     1     -25.376  17.874  12.302  1.00 20.00    -0.002 C 
HETATM    5  C1  UNL     1     -26.123  19.149  11.943  1.00 20.00     0.005 C 
ENDBRANCH   3   4
ENDBRANCH   2   3
BRANCH   2   6
HETATM    6  O8  UNL     1     -22.975  18.524  10.116  1.00 20.00    -0.387 OA
BRANCH   6   7
HETATM    7  C6  UNL     1     -23.549  18.152   8.871  1.00 20.00     0.163 C 
HETATM    8  C2  UNL     1     -24.462  19.263   8.397  1.00 20.00     0.033 C 
ENDBRANCH   6   7
ENDBRANCH   2   6
TORSDOF 4
ENDMDL
MODEL 9
REMARK VINA RESULT:      -3.4     16.472     17.280
REMARK  4 active torsions:
REMARK  status: ('A' for Active; 'I' for Inactive)
REMARK    1  A    between atoms: C4_4  and  C5_5 
REMARK    2  A    between atoms: C5_5  and  C7_7 
REMARK    3  A    between atoms: C6_6  and  O8_8 
REMARK    4  A    between atoms: C7_7  and  O8_8 
ROOT
HETATM    1  C3  UNL     1     -21.719  17.395   8.037  1.00 20.00     0.039 C 
HETATM    2  C7  UNL     1     -22.117  18.133   9.309  1.00 20.00     0.117 C 
ENDROOT
BRANCH   2   3
HETATM    3  C5  UNL     1     -22.834  17.206  10.295  1.00 20.00     0.031 C 
BRANCH   3   4
HETATM    4  C4  UNL     1     -22.670  17.670  11.745  1.00 20.00    -0.002 C 
HETATM    5  C1  UNL     1     -23.992  18.141  12.332  1.00 20.00     0.005 C 
ENDBRANCH   3   4
ENDBRANCH   2   3
BRANCH   2   6
HETATM    6  O8  UNL     1     -22.963  19.223   8.958  1.00 20.00    -0.387 OA
BRANCH   6   7
HETATM    7  C6  UNL     1     -24.032  18.801   8.124  1.00 20.00     0.163 C 
HETATM    8  C2  UNL     1     -25.342  19.263   8.729  1.00 20.00     0.033 C 
ENDBRANCH   6   7
ENDBRANCH   2   6
TORSDOF 4
ENDMDL
