MODEL 1
REMARK VINA RESULT:      -4.2      0.000      0.000
REMARK  2 active torsions:
REMARK  status: ('A' for Active; 'I' for Inactive)
REMARK    1  A    between atoms: C1_1  and  C4_4 
REMARK    2  A    between atoms: C4_4  and  C5_5 
ROOT
HETATM    1  C1  UNL     1     -34.144   5.639   3.433  1.00 20.00     0.244 A 
HETATM    2  C3  UNL     1     -32.578   7.120   2.319  1.00 20.00     0.147 C 
HETATM    3  N6  UNL     1     -32.767   5.860   3.028  1.00 20.00    -0.168 NA
HETATM    4  O7  UNL     1     -33.679   5.103   2.193  1.00 20.00    -0.279 OA
ENDROOT
BRANCH   1   5
HETATM    5  C4  UNL     1     -34.450   4.623   4.473  1.00 20.00     0.051 C 
BRANCH   5   6
HETATM    6  C5  UNL     1     -34.857   5.278   5.792  1.00 20.00    -0.001 C 
HETATM    7  C2  UNL     1     -34.127   6.594   6.010  1.00 20.00     0.005 C 
ENDBRANCH   5   6
ENDBRANCH   1   5
TORSDOF 2
ENDMDL
MODEL 2
REMARK VINA RESULT:      -3.9      1.147      1.634
REMARK  2 active torsions:
REMARK  status: ('A' for Active; 'I' for Inactive)
REMARK    1  A    between atoms: C1_1  and  C4_4 
REMARK    2  A    between atoms: C4_4  and  C5_5 
ROOT
HETATM    1  C1  UNL     1     -33.511   6.820   3.729  1.00 20.00     0.244 A 
HETATM    2  C3  UNL     1     -32.561   7.646   1.655  1.00 20.00     0.147 C 
HETATM    3  N6  UNL     1     -32.305   7.212   3.023  1.00 20.00    -0.168 NA
HETATM    4  O7  UNL     1     -32.735   5.828   3.055  1.00 20.00    -0.279 OA
ENDROOT
BRANCH   1   5
HETATM    5  C4  UNL     1     -33.497   6.719   5.211  1.00 20.00     0.051 C 
BRANCH   5   6
HETATM    6  C5  UNL     1     -34.617   5.813   5.721  1.00 20.00    -0.001 C 
HETATM    7  C2  UNL     1     -35.324   5.103   4.578  1.00 20.00     0.005 C 
ENDBRANCH   5   6
ENDBRANCH   1   5
TORSDOF 2
ENDMDL
MODEL 3
REMARK VINA RESULT:      -3.9      1.533      3.502
REMARK  2 active torsions:
REMARK  status: ('A' for Active; 'I' for Inactive)
REMARK    1  A    between atoms: C1_1  and  C4_4 
REMARK    2  A    between atoms: C4_4  and  C5_5 
ROOT
HETATM    1  C1  UNL     1     -33.628   5.294   3.928  1.00 20.00     0.244 A 
HETATM    2  C3  UNL     1     -34.930   5.280   5.976  1.00 20.00     0.147 C 
HETATM    3  N6  UNL     1     -34.937   5.476   4.531  1.00 20.00    -0.168 NA
HETATM    4  O7  UNL     1     -34.538   4.194   3.985  1.00 20.00    -0.279 OA
ENDROOT
BRANCH   1   5
HETATM    5  C4  UNL     1     -33.370   5.815   2.562  1.00 20.00     0.051 C 
BRANCH   5   6
HETATM    6  C5  UNL     1     -32.436   7.025   2.592  1.00 20.00    -0.001 C 
HETATM    7  C2  UNL     1     -32.610   7.894   1.357  1.00 20.00     0.005 C 
ENDBRANCH   5   6
ENDBRANCH   1   5
TORSDOF 2
ENDMDL
MODEL 4
REMARK VINA RESULT:      -3.8     11.756     12.134
REMARK  2 active torsions:
REMARK  status: ('A' for Active; 'I' for Inactive)
REMARK    1  A    between atoms: C1_1  and  C4_4 
REMARK    2  A    between atoms: C4_4  and  C5_5 
ROOT
HETATM    1  C1  UNL     1     -34.463  14.550  -3.733  1.00 20.00     0.244 A 
HETATM    2  C3  UNL     1     -36.503  13.648  -4.687  1.00 20.00     0.147 C 
HETATM    3  N6  UNL     1     -35.117  14.035  -4.922  1.00 20.00    -0.168 NA
HETATM    4  O7  UNL     1     -34.342  13.164  -4.060  1.00 20.00    -0.279 OA
ENDROOT
BRANCH   1   5
HETATM    5  C4  UNL     1     -33.206  15.330  -3.865  1.00 20.00     0.051 C 
BRANCH   5   6
HETATM    6  C5  UNL     1     -33.159  16.488  -2.868  1.00 20.00    -0.001 C 
HETATM    7  C2  UNL     1     -34.413  16.537  -2.011  1.00 20.00     0.005 C 
ENDBRANCH   5   6
ENDBRANCH   1   5
TORSDOF 2
ENDMDL
MODEL 5
REMARK VINA RESULT:      -3.7     11.840     12.201
REMARK  2 active torsions:
REMARK  status: ('A' for Active; 'I' for Inactive)
REMARK    1  A    between atoms: C1_1  and  C4_4 
REMARK    2  A    between atoms: C4_4  and  C5_5 
ROOT
HETATM    1  C1  UNL     1     -35.434  14.100  -4.022  1.00 20.00     0.244 A 
HETATM    2  C3  UNL     1     -37.813  14.323  -4.444  1.00 20.00     0.147 C 
HETATM    3  N6  UNL     1     -36.483  14.178  -5.023  1.00 20.00    -0.168 NA
HETATM    4  O7  UNL     1     -36.009  12.897  -4.537  1.00 20.00    -0.279 OA
ENDROOT
BRANCH   1   5
HETATM    5  C4  UNL     1     -34.021  14.331  -4.417  1.00 20.00     0.051 C 
BRANCH   5   6
HETATM    6  C5  UNL     1     -33.403  15.486  -3.631  1.00 20.00    -0.001 C 
HETATM    7  C2  UNL     1     -34.319  15.953  -2.512  1.00 20.00     0.005 C 
ENDBRANCH   5   6
ENDBRANCH   1   5
TORSDOF 2
ENDMDL
MODEL 6
REMARK VINA RESULT:      -3.6     12.146     12.858
REMARK  2 active torsions:
REMARK  status: ('A' for Active; 'I' for Inactive)
REMARK    1  A    between atoms: C1_1  and  C4_4 
REMARK    2  A    between atoms: C4_4  and  C5_5 
ROOT
HETATM    1  C1  UNL     1     -34.885  15.041  -5.038  1.00 20.00     0.244 A 
HETATM    2  C3  UNL     1     -34.109  15.396  -7.309  1.00 20.00     0.147 C 
HETATM    3  N6  UNL     1     -34.030  14.568  -6.112  1.00 20.00    -0.168 NA
HETATM    4  O7  UNL     1     -35.371  14.045  -5.940  1.00 20.00    -0.279 OA
ENDROOT
BRANCH   1   5
HETATM    5  C4  UNL     1     -34.656  14.563  -3.651  1.00 20.00     0.051 C 
BRANCH   5   6
HETATM    6  C5  UNL     1     -34.517  15.730  -2.674  1.00 20.00    -0.001 C 
HETATM    7  C2  UNL     1     -33.204  16.469  -2.871  1.00 20.00     0.005 C 
ENDBRANCH   5   6
ENDBRANCH   1   5
TORSDOF 2
ENDMDL
MODEL 7
REMARK VINA RESULT:      -3.5     16.313     16.923
REMARK  2 active torsions:
REMARK  status: ('A' for Active; 'I' for Inactive)
REMARK    1  A    between atoms: C1_1  and  C4_4 
REMARK    2  A    between atoms: C4_4  and  C5_5 
ROOT
HETATM    1  C1  UNL     1     -23.435  18.082   8.459  1.00 20.00     0.244 A 
HETATM    2  C3  UNL     1     -25.016  19.126   6.944  1.00 20.00     0.147 C 
HETATM    3  N6  UNL     1     -23.766  19.262   7.681  1.00 20.00    -0.168 NA
HETATM    4  O7  UNL     1     -22.907  18.227   7.140  1.00 20.00    -0.279 OA
ENDROOT
BRANCH   1   5
HETATM    5  C4  UNL     1     -22.427  18.176   9.546  1.00 20.00     0.051 C 
BRANCH   5   6
HETATM    6  C5  UNL     1     -22.921  17.505  10.827  1.00 20.00    -0.001 C 
HETATM    7  C2  UNL     1     -24.073  16.553  10.550  1.00 20.00     0.005 C 
ENDBRANCH   5   6
ENDBRANCH   1   5
TORSDOF 2
ENDMDL
MODEL 8
REMARK VINA RESULT:      -3.4     12.751     13.480
REMARK  2 active torsions:
REMARK  status: ('A' for Active; 'I' for Inactive)
REMARK    1  A    between atoms: C1_1  and  C4_4 
REMARK    2  A    between atoms: C4_4  and  C5_5 
ROOT
HETATM    1  C1  UNL     1     -32.526  18.166  -1.368  1.00 20.00     0.244 A 
HETATM    2  C3  UNL     1     -30.990  18.926   0.349  1.00 20.00     0.147 C 
HETATM    3  N6  UNL     1     -31.151  18.200  -0.905  1.00 20.00    -0.168 NA
HETATM    4  O7  UNL     1     -31.648  19.189  -1.840  1.00 20.00    -0.279 OA
ENDROOT
BRANCH   1   5
HETATM    5  C4  UNL     1     -32.932  17.174  -2.396  1.00 20.00     0.051 C 
BRANCH   5   6
HETATM    6  C5  UNL     1     -34.275  16.531  -2.053  1.00 20.00    -0.001 C 
HETATM    7  C2  UNL     1     -34.611  15.397  -3.008  1.00 20.00     0.005 C 
ENDBRANCH   5   6
ENDBRANCH   1   5
TORSDOF 2
ENDMDL
MODEL 9
REMARK VINA RESULT:      -3.4      1.867      3.838
REMARK  2 active torsions:
REMARK  status: ('A' for Active; 'I' for Inactive)
REMARK    1  A    between atoms: C1_1  and  C4_4 
REMARK    2  A    between atoms: C4_4  and  C5_5 
ROOT
HETATM    1  C1  UNL     1     -33.675   6.869   3.545  1.00 20.00     0.244 A 
HETATM    2  C3  UNL     1     -35.283   5.259   4.386  1.00 20.00     0.147 C 
HETATM    3  N6  UNL     1     -33.875   5.584   4.191  1.00 20.00    -0.168 NA
HETATM    4  O7  UNL     1     -33.666   6.788   4.971  1.00 20.00    -0.279 OA
ENDROOT
BRANCH   1   5
HETATM    5  C4  UNL     1     -32.359   7.187   2.934  1.00 20.00     0.051 C 
BRANCH   5   6
HETATM    6  C5  UNL     1     -32.481   7.403   1.426  1.00 20.00    -0.001 C 
HETATM    7  C2  UNL     1     -32.914   8.823   1.099  1.00 20.00     0.005 C 
ENDBRANCH   5   6
ENDBRANCH   1   5
TORSDOF 2
ENDMDL
