MODEL 1
REMARK VINA RESULT:      -5.5      0.000      0.000
REMARK  0 active torsions:
REMARK  status: ('A' for Active; 'I' for Inactive)
ROOT
HETATM    1  C1  UNL     1     -32.816  18.531  -3.303  1.00 20.00     0.095 C 
HETATM    2  C2  UNL     1     -36.500  14.198  -4.201  1.00 20.00     0.095 C 
HETATM    3  C3  UNL     1     -35.149  18.019  -2.907  1.00 20.00    -0.007 C 
HETATM    4  C4  UNL     1     -34.130  14.646  -4.432  1.00 20.00    -0.007 C 
HETATM    5  C5  UNL     1     -33.870  17.639  -2.992  1.00 20.00     0.024 C 
HETATM    6  C6  UNL     1     -35.291  14.809  -3.788  1.00 20.00     0.024 C 
HETATM    7  C7  UNL     1     -36.048  16.897  -2.504  1.00 20.00     0.039 C 
HETATM    8  C8  UNL     1     -33.002  15.349  -3.753  1.00 20.00     0.039 C 
HETATM    9  C9  UNL     1     -33.687  16.185  -2.661  1.00 20.00     0.042 C 
HETATM   10  C10 UNL     1     -35.142  15.658  -2.555  1.00 20.00     0.042 C 
HETATM   11  N11 UNL     1     -31.951  19.262  -3.558  1.00 20.00    -0.192 NA
HETATM   12  N12 UNL     1     -37.490  13.697  -4.539  1.00 20.00    -0.192 NA
ENDROOT
TORSDOF 0
ENDMDL
MODEL 2
REMARK VINA RESULT:      -5.4      0.112      4.775
REMARK  0 active torsions:
REMARK  status: ('A' for Active; 'I' for Inactive)
ROOT
HETATM    1  C1  UNL     1     -36.449  14.159  -4.206  1.00 20.00     0.095 C 
HETATM    2  C2  UNL     1     -32.796  18.544  -3.449  1.00 20.00     0.095 C 
HETATM    3  C3  UNL     1     -34.076  14.600  -4.401  1.00 20.00    -0.007 C 
HETATM    4  C4  UNL     1     -35.138  18.047  -3.084  1.00 20.00    -0.007 C 
HETATM    5  C5  UNL     1     -35.253  14.795  -3.796  1.00 20.00     0.024 C 
HETATM    6  C6  UNL     1     -33.857  17.667  -3.118  1.00 20.00     0.024 C 
HETATM    7  C7  UNL     1     -32.966  15.341  -3.732  1.00 20.00     0.039 C 
HETATM    8  C8  UNL     1     -36.045  16.946  -2.646  1.00 20.00     0.039 C 
HETATM    9  C9  UNL     1     -35.136  15.708  -2.608  1.00 20.00     0.042 C 
HETATM   10  C10 UNL     1     -33.680  16.232  -2.704  1.00 20.00     0.042 C 
HETATM   11  N11 UNL     1     -37.430  13.637  -4.542  1.00 20.00    -0.192 NA
HETATM   12  N12 UNL     1     -31.927  19.263  -3.720  1.00 20.00    -0.192 NA
ENDROOT
TORSDOF 0
ENDMDL
MODEL 3
REMARK VINA RESULT:      -5.3     16.540     17.566
REMARK  0 active torsions:
REMARK  status: ('A' for Active; 'I' for Inactive)
ROOT
HETATM    1  C1  UNL     1     -22.418  17.175   8.973  1.00 20.00     0.095 C 
HETATM    2  C2  UNL     1     -27.219  17.484  12.136  1.00 20.00     0.095 C 
HETATM    3  C3  UNL     1     -24.457  18.479   9.057  1.00 20.00    -0.007 C 
HETATM    4  C4  UNL     1     -25.103  16.307  12.156  1.00 20.00    -0.007 C 
HETATM    5  C5  UNL     1     -23.474  17.811   9.669  1.00 20.00     0.024 C 
HETATM    6  C6  UNL     1     -25.826  17.401  11.896  1.00 20.00     0.024 C 
HETATM    7  C7  UNL     1     -25.406  19.104  10.025  1.00 20.00     0.039 C 
HETATM    8  C8  UNL     1     -23.651  16.506  11.870  1.00 20.00     0.039 C 
HETATM    9  C9  UNL     1     -23.594  17.870  11.167  1.00 20.00     0.042 C 
HETATM   10  C10 UNL     1     -24.979  18.534  11.386  1.00 20.00     0.042 C 
HETATM   11  N11 UNL     1     -21.552  16.655   8.402  1.00 20.00    -0.192 NA
HETATM   12  N12 UNL     1     -28.360  17.553  12.332  1.00 20.00    -0.192 NA
ENDROOT
TORSDOF 0
ENDMDL
MODEL 4
REMARK VINA RESULT:      -4.8      1.268      2.333
REMARK  0 active torsions:
REMARK  status: ('A' for Active; 'I' for Inactive)
ROOT
HETATM    1  C1  UNL     1     -32.713  18.245  -2.976  1.00 20.00     0.095 C 
HETATM    2  C2  UNL     1     -37.105  14.819  -4.433  1.00 20.00     0.095 C 
HETATM    3  C3  UNL     1     -33.162  15.880  -3.239  1.00 20.00    -0.007 C 
HETATM    4  C4  UNL     1     -36.600  17.186  -4.342  1.00 20.00    -0.007 C 
HETATM    5  C5  UNL     1     -33.350  17.151  -3.609  1.00 20.00     0.024 C 
HETATM    6  C6  UNL     1     -36.224  15.920  -4.552  1.00 20.00     0.024 C 
HETATM    7  C7  UNL     1     -33.903  14.921  -4.111  1.00 20.00     0.039 C 
HETATM    8  C8  UNL     1     -35.494  18.156  -4.594  1.00 20.00     0.039 C 
HETATM    9  C9  UNL     1     -34.259  17.267  -4.801  1.00 20.00     0.042 C 
HETATM   10  C10 UNL     1     -34.787  15.821  -4.987  1.00 20.00     0.042 C 
HETATM   11  N11 UNL     1     -32.190  19.142  -2.456  1.00 20.00    -0.192 NA
HETATM   12  N12 UNL     1     -37.827  13.917  -4.336  1.00 20.00    -0.192 NA
ENDROOT
TORSDOF 0
ENDMDL
MODEL 5
REMARK VINA RESULT:      -4.8      3.300      4.255
REMARK  0 active torsions:
REMARK  status: ('A' for Active; 'I' for Inactive)
ROOT
HETATM    1  C1  UNL     1     -33.764  18.452   1.840  1.00 20.00     0.095 C 
HETATM    2  C2  UNL     1     -33.369  15.870  -3.291  1.00 20.00     0.095 C 
HETATM    3  C3  UNL     1     -32.172  18.249   0.027  1.00 20.00    -0.007 C 
HETATM    4  C4  UNL     1     -35.024  16.224  -1.558  1.00 20.00    -0.007 C 
HETATM    5  C5  UNL     1     -33.431  18.334   0.469  1.00 20.00     0.024 C 
HETATM    6  C6  UNL     1     -33.973  16.644  -2.271  1.00 20.00     0.024 C 
HETATM    7  C7  UNL     1     -32.097  18.196  -1.463  1.00 20.00     0.039 C 
HETATM    8  C8  UNL     1     -35.502  17.256  -0.592  1.00 20.00     0.039 C 
HETATM    9  C9  UNL     1     -34.428  18.353  -0.656  1.00 20.00     0.042 C 
HETATM   10  C10 UNL     1     -33.561  18.043  -1.904  1.00 20.00     0.042 C 
HETATM   11  N11 UNL     1     -34.037  18.549   2.964  1.00 20.00    -0.192 NA
HETATM   12  N12 UNL     1     -32.874  15.236  -4.127  1.00 20.00    -0.192 NA
ENDROOT
TORSDOF 0
ENDMDL
MODEL 6
REMARK VINA RESULT:      -4.8      3.303      4.924
REMARK  0 active torsions:
REMARK  status: ('A' for Active; 'I' for Inactive)
ROOT
HETATM    1  C1  UNL     1     -33.415  15.852  -3.255  1.00 20.00     0.095 C 
HETATM    2  C2  UNL     1     -33.802  18.520   1.832  1.00 20.00     0.095 C 
HETATM    3  C3  UNL     1     -35.072  16.252  -1.535  1.00 20.00    -0.007 C 
HETATM    4  C4  UNL     1     -32.204  18.270   0.029  1.00 20.00    -0.007 C 
HETATM    5  C5  UNL     1     -34.015  16.649  -2.250  1.00 20.00     0.024 C 
HETATM    6  C6  UNL     1     -33.464  18.376   0.465  1.00 20.00     0.024 C 
HETATM    7  C7  UNL     1     -35.543  17.305  -0.588  1.00 20.00     0.039 C 
HETATM    8  C8  UNL     1     -32.125  18.191  -1.459  1.00 20.00     0.039 C 
HETATM    9  C9  UNL     1     -33.588  18.048  -1.904  1.00 20.00     0.042 C 
HETATM   10  C10 UNL     1     -34.456  18.388  -0.665  1.00 20.00     0.042 C 
HETATM   11  N11 UNL     1     -32.924  15.199  -4.079  1.00 20.00    -0.192 NA
HETATM   12  N12 UNL     1     -34.079  18.638   2.952  1.00 20.00    -0.192 NA
ENDROOT
TORSDOF 0
ENDMDL
MODEL 7
REMARK VINA RESULT:      -4.8      1.370      4.524
REMARK  0 active torsions:
REMARK  status: ('A' for Active; 'I' for Inactive)
ROOT
HETATM    1  C1  UNL     1     -37.313  14.882  -4.458  1.00 20.00     0.095 C 
HETATM    2  C2  UNL     1     -32.785  18.172  -3.106  1.00 20.00     0.095 C 
HETATM    3  C3  UNL     1     -36.646  17.205  -4.608  1.00 20.00    -0.007 C 
HETATM    4  C4  UNL     1     -33.386  15.825  -3.123  1.00 20.00    -0.007 C 
HETATM    5  C5  UNL     1     -36.349  15.902  -4.643  1.00 20.00     0.024 C 
HETATM    6  C6  UNL     1     -33.459  17.052  -3.650  1.00 20.00     0.024 C 
HETATM    7  C7  UNL     1     -35.460  18.065  -4.896  1.00 20.00     0.039 C 
HETATM    8  C8  UNL     1     -34.139  14.817  -3.925  1.00 20.00     0.039 C 
HETATM    9  C9  UNL     1     -34.900  15.658  -4.961  1.00 20.00     0.042 C 
HETATM   10  C10 UNL     1     -34.281  17.080  -4.909  1.00 20.00     0.042 C 
HETATM   11  N11 UNL     1     -38.103  14.046  -4.306  1.00 20.00    -0.192 NA
HETATM   12  N12 UNL     1     -32.233  19.089  -2.661  1.00 20.00    -0.192 NA
ENDROOT
TORSDOF 0
ENDMDL
MODEL 8
REMARK VINA RESULT:      -4.7      1.826      2.140
REMARK  0 active torsions:
REMARK  status: ('A' for Active; 'I' for Inactive)
ROOT
HETATM    1  C1  UNL     1     -33.943  17.125  -1.849  1.00 20.00     0.095 C 
HETATM    2  C2  UNL     1     -35.747  14.740  -6.769  1.00 20.00     0.095 C 
HETATM    3  C3  UNL     1     -36.025  16.741  -3.025  1.00 20.00    -0.007 C 
HETATM    4  C4  UNL     1     -33.693  14.967  -5.507  1.00 20.00    -0.007 C 
HETATM    5  C5  UNL     1     -34.790  16.358  -2.685  1.00 20.00     0.024 C 
HETATM    6  C6  UNL     1     -35.021  14.821  -5.557  1.00 20.00     0.024 C 
HETATM    7  C7  UNL     1     -36.723  15.721  -3.862  1.00 20.00     0.039 C 
HETATM    8  C8  UNL     1     -33.174  14.963  -4.107  1.00 20.00     0.039 C 
HETATM    9  C9  UNL     1     -34.442  15.005  -3.240  1.00 20.00     0.042 C 
HETATM   10  C10 UNL     1     -35.629  14.693  -4.187  1.00 20.00     0.042 C 
HETATM   11  N11 UNL     1     -33.249  17.753  -1.164  1.00 20.00    -0.192 NA
HETATM   12  N12 UNL     1     -36.342  14.673  -7.763  1.00 20.00    -0.192 NA
ENDROOT
TORSDOF 0
ENDMDL
MODEL 9
REMARK VINA RESULT:      -4.7      1.869      4.514
REMARK  0 active torsions:
REMARK  status: ('A' for Active; 'I' for Inactive)
ROOT
HETATM    1  C1  UNL     1     -35.723  14.760  -6.838  1.00 20.00     0.095 C 
HETATM    2  C2  UNL     1     -34.052  17.088  -1.843  1.00 20.00     0.095 C 
HETATM    3  C3  UNL     1     -33.707  14.959  -5.511  1.00 20.00    -0.007 C 
HETATM    4  C4  UNL     1     -36.100  16.731  -3.087  1.00 20.00    -0.007 C 
HETATM    5  C5  UNL     1     -35.034  14.825  -5.603  1.00 20.00     0.024 C 
HETATM    6  C6  UNL     1     -34.879  16.335  -2.712  1.00 20.00     0.024 C 
HETATM    7  C7  UNL     1     -33.232  14.937  -4.096  1.00 20.00     0.039 C 
HETATM    8  C8  UNL     1     -36.781  15.726  -3.955  1.00 20.00     0.039 C 
HETATM    9  C9  UNL     1     -35.686  14.691  -4.255  1.00 20.00     0.042 C 
HETATM   10  C10 UNL     1     -34.526  14.983  -3.268  1.00 20.00     0.042 C 
HETATM   11  N11 UNL     1     -36.287  14.707  -7.850  1.00 20.00    -0.192 NA
HETATM   12  N12 UNL     1     -33.375  17.704  -1.132  1.00 20.00    -0.192 NA
ENDROOT
TORSDOF 0
ENDMDL
