MODEL 1
REMARK VINA RESULT:      -4.7      0.000      0.000
REMARK  2 active torsions:
REMARK  status: ('A' for Active; 'I' for Inactive)
REMARK    1  A    between atoms: C4_4  and  C8_8 
REMARK    2  A    between atoms: C8_8  and  N9_9 
ROOT
HETATM    1  C1  UNL     1     -34.536   6.124   6.089  1.00 20.00    -0.003 A 
HETATM    2  C2  UNL     1     -33.810   6.717   4.997  1.00 20.00     0.004 A 
HETATM    3  C3  UNL     1     -35.016   4.930   5.715  1.00 20.00    -0.022 A 
HETATM    4  C4  UNL     1     -33.838   5.891   3.941  1.00 20.00    -0.049 A 
HETATM    5  C5  UNL     1     -34.618   4.653   4.294  1.00 20.00     0.063 A 
ENDROOT
BRANCH   4   6
HETATM    6  C8  UNL     1     -33.224   6.087   2.605  1.00 20.00     0.306 C 
BRANCH   6   7
HETATM    7  N9  UNL     1     -32.724   7.436   2.540  1.00 20.00     0.083 N 
HETATM    8  C6  UNL     1     -32.580   7.885   1.147  1.00 20.00     0.309 C 
HETATM    9  C7  UNL     1     -31.434   7.563   3.234  1.00 20.00     0.309 C 
ENDBRANCH   6   7
ENDBRANCH   4   6
TORSDOF 2
ENDMDL
MODEL 2
REMARK VINA RESULT:      -4.5     11.500     12.248
REMARK  2 active torsions:
REMARK  status: ('A' for Active; 'I' for Inactive)
REMARK    1  A    between atoms: C4_4  and  C8_8 
REMARK    2  A    between atoms: C8_8  and  N9_9 
ROOT
HETATM    1  C1  UNL     1     -33.005  17.242  -2.279  1.00 20.00    -0.003 A 
HETATM    2  C2  UNL     1     -33.119  16.201  -3.267  1.00 20.00     0.004 A 
HETATM    3  C3  UNL     1     -34.081  17.224  -1.480  1.00 20.00    -0.022 A 
HETATM    4  C4  UNL     1     -34.269  15.534  -3.083  1.00 20.00    -0.049 A 
HETATM    5  C5  UNL     1     -35.008  16.124  -1.912  1.00 20.00     0.063 A 
ENDROOT
BRANCH   4   6
HETATM    6  C8  UNL     1     -34.800  14.389  -3.861  1.00 20.00     0.306 C 
BRANCH   6   7
HETATM    7  N9  UNL     1     -35.823  14.886  -4.743  1.00 20.00     0.083 N 
HETATM    8  C6  UNL     1     -37.120  14.251  -4.469  1.00 20.00     0.309 C 
HETATM    9  C7  UNL     1     -35.460  14.678  -6.153  1.00 20.00     0.309 C 
ENDBRANCH   6   7
ENDBRANCH   4   6
TORSDOF 2
ENDMDL
MODEL 3
REMARK VINA RESULT:      -4.5     11.577     12.222
REMARK  2 active torsions:
REMARK  status: ('A' for Active; 'I' for Inactive)
REMARK    1  A    between atoms: C4_4  and  C8_8 
REMARK    2  A    between atoms: C8_8  and  N9_9 
ROOT
HETATM    1  C1  UNL     1     -34.525  17.080  -1.375  1.00 20.00    -0.003 A 
HETATM    2  C2  UNL     1     -35.052  15.959  -2.109  1.00 20.00     0.004 A 
HETATM    3  C3  UNL     1     -33.331  17.426  -1.876  1.00 20.00    -0.022 A 
HETATM    4  C4  UNL     1     -34.183  15.607  -3.069  1.00 20.00    -0.049 A 
HETATM    5  C5  UNL     1     -32.984  16.516  -3.018  1.00 20.00     0.063 A 
ENDROOT
BRANCH   4   6
HETATM    6  C8  UNL     1     -34.307  14.513  -4.062  1.00 20.00     0.306 C 
BRANCH   6   7
HETATM    7  N9  UNL     1     -35.471  14.774  -4.868  1.00 20.00     0.083 N 
HETATM    8  C6  UNL     1     -36.502  13.745  -4.666  1.00 20.00     0.309 C 
HETATM    9  C7  UNL     1     -35.126  14.851  -6.296  1.00 20.00     0.309 C 
ENDBRANCH   6   7
ENDBRANCH   4   6
TORSDOF 2
ENDMDL
MODEL 4
REMARK VINA RESULT:      -4.3      1.126      2.129
REMARK  2 active torsions:
REMARK  status: ('A' for Active; 'I' for Inactive)
REMARK    1  A    between atoms: C4_4  and  C8_8 
REMARK    2  A    between atoms: C8_8  and  N9_9 
ROOT
HETATM    1  C1  UNL     1     -34.336   4.633   3.593  1.00 20.00    -0.003 A 
HETATM    2  C2  UNL     1     -33.395   5.252   2.696  1.00 20.00     0.004 A 
HETATM    3  C3  UNL     1     -34.648   5.488   4.577  1.00 20.00    -0.022 A 
HETATM    4  C4  UNL     1     -33.121   6.494   3.123  1.00 20.00    -0.049 A 
HETATM    5  C5  UNL     1     -33.900   6.775   4.380  1.00 20.00     0.063 A 
ENDROOT
BRANCH   4   6
HETATM    6  C8  UNL     1     -32.211   7.494   2.514  1.00 20.00     0.306 C 
BRANCH   6   7
HETATM    7  N9  UNL     1     -32.782   7.910   1.260  1.00 20.00     0.083 N 
HETATM    8  C6  UNL     1     -31.851   7.680   0.146  1.00 20.00     0.309 C 
HETATM    9  C7  UNL     1     -33.171   9.328   1.292  1.00 20.00     0.309 C 
ENDBRANCH   6   7
ENDBRANCH   4   6
TORSDOF 2
ENDMDL
MODEL 5
REMARK VINA RESULT:      -4.3     11.569     12.457
REMARK  2 active torsions:
REMARK  status: ('A' for Active; 'I' for Inactive)
REMARK    1  A    between atoms: C4_4  and  C8_8 
REMARK    2  A    between atoms: C8_8  and  N9_9 
ROOT
HETATM    1  C1  UNL     1     -34.857  14.406  -3.816  1.00 20.00    -0.003 A 
HETATM    2  C2  UNL     1     -35.096  15.413  -2.816  1.00 20.00     0.004 A 
HETATM    3  C3  UNL     1     -33.608  14.527  -4.287  1.00 20.00    -0.022 A 
HETATM    4  C4  UNL     1     -33.994  16.163  -2.663  1.00 20.00    -0.049 A 
HETATM    5  C5  UNL     1     -32.920  15.670  -3.596  1.00 20.00     0.063 A 
ENDROOT
BRANCH   4   6
HETATM    6  C8  UNL     1     -33.783  17.309  -1.746  1.00 20.00     0.306 C 
BRANCH   6   7
HETATM    7  N9  UNL     1     -32.535  17.934  -2.096  1.00 20.00     0.083 N 
HETATM    8  C6  UNL     1     -31.712  18.189  -0.903  1.00 20.00     0.309 C 
HETATM    9  C7  UNL     1     -32.752  19.194  -2.822  1.00 20.00     0.309 C 
ENDBRANCH   6   7
ENDBRANCH   4   6
TORSDOF 2
ENDMDL
MODEL 6
REMARK VINA RESULT:      -4.2     11.423     12.288
REMARK  2 active torsions:
REMARK  status: ('A' for Active; 'I' for Inactive)
REMARK    1  A    between atoms: C4_4  and  C8_8 
REMARK    2  A    between atoms: C8_8  and  N9_9 
ROOT
HETATM    1  C1  UNL     1     -34.642  14.547  -3.812  1.00 20.00    -0.003 A 
HETATM    2  C2  UNL     1     -35.138  15.381  -2.749  1.00 20.00     0.004 A 
HETATM    3  C3  UNL     1     -33.416  14.955  -4.170  1.00 20.00    -0.022 A 
HETATM    4  C4  UNL     1     -34.219  16.311  -2.445  1.00 20.00    -0.049 A 
HETATM    5  C5  UNL     1     -33.014  16.132  -3.329  1.00 20.00     0.063 A 
ENDROOT
BRANCH   4   6
HETATM    6  C8  UNL     1     -34.298  17.376  -1.417  1.00 20.00     0.306 C 
BRANCH   6   7
HETATM    7  N9  UNL     1     -35.602  17.314  -0.811  1.00 20.00     0.083 N 
HETATM    8  C6  UNL     1     -36.411  18.491  -1.162  1.00 20.00     0.309 C 
HETATM    9  C7  UNL     1     -35.508  17.201   0.653  1.00 20.00     0.309 C 
ENDBRANCH   6   7
ENDBRANCH   4   6
TORSDOF 2
ENDMDL
MODEL 7
REMARK VINA RESULT:      -4.2     11.845     12.529
REMARK  2 active torsions:
REMARK  status: ('A' for Active; 'I' for Inactive)
REMARK    1  A    between atoms: C4_4  and  C8_8 
REMARK    2  A    between atoms: C8_8  and  N9_9 
ROOT
HETATM    1  C1  UNL     1     -33.112  15.622  -3.578  1.00 20.00    -0.003 A 
HETATM    2  C2  UNL     1     -34.072  14.829  -4.300  1.00 20.00     0.004 A 
HETATM    3  C3  UNL     1     -33.719  16.245  -2.558  1.00 20.00    -0.022 A 
HETATM    4  C4  UNL     1     -35.279  14.959  -3.729  1.00 20.00    -0.049 A 
HETATM    5  C5  UNL     1     -35.177  15.885  -2.547  1.00 20.00     0.063 A 
ENDROOT
BRANCH   4   6
HETATM    6  C8  UNL     1     -36.558  14.327  -4.134  1.00 20.00     0.306 C 
BRANCH   6   7
HETATM    7  N9  UNL     1     -37.530  15.371  -4.324  1.00 20.00     0.083 N 
HETATM    8  C6  UNL     1     -38.901  14.850  -4.220  1.00 20.00     0.309 C 
HETATM    9  C7  UNL     1     -37.353  16.037  -5.623  1.00 20.00     0.309 C 
ENDBRANCH   6   7
ENDBRANCH   4   6
TORSDOF 2
ENDMDL
MODEL 8
REMARK VINA RESULT:      -4.1     11.588     12.509
REMARK  2 active torsions:
REMARK  status: ('A' for Active; 'I' for Inactive)
REMARK    1  A    between atoms: C4_4  and  C8_8 
REMARK    2  A    between atoms: C8_8  and  N9_9 
ROOT
HETATM    1  C1  UNL     1     -33.777  15.592  -3.311  1.00 20.00    -0.003 A 
HETATM    2  C2  UNL     1     -33.008  16.733  -2.887  1.00 20.00     0.004 A 
HETATM    3  C3  UNL     1     -34.900  15.511  -2.585  1.00 20.00    -0.022 A 
HETATM    4  C4  UNL     1     -33.655  17.363  -1.893  1.00 20.00    -0.049 A 
HETATM    5  C5  UNL     1     -34.941  16.640  -1.596  1.00 20.00     0.063 A 
ENDROOT
BRANCH   4   6
HETATM    6  C8  UNL     1     -33.240  18.580  -1.155  1.00 20.00     0.306 C 
BRANCH   6   7
HETATM    7  N9  UNL     1     -32.496  18.165   0.005  1.00 20.00     0.083 N 
HETATM    8  C6  UNL     1     -33.023  18.787   1.229  1.00 20.00     0.309 C 
HETATM    9  C7  UNL     1     -31.067  18.484  -0.133  1.00 20.00     0.309 C 
ENDBRANCH   6   7
ENDBRANCH   4   6
TORSDOF 2
ENDMDL
MODEL 9
REMARK VINA RESULT:      -4.1     11.777     12.507
REMARK  2 active torsions:
REMARK  status: ('A' for Active; 'I' for Inactive)
REMARK    1  A    between atoms: C4_4  and  C8_8 
REMARK    2  A    between atoms: C8_8  and  N9_9 
ROOT
HETATM    1  C1  UNL     1     -34.014  17.384  -1.204  1.00 20.00    -0.003 A 
HETATM    2  C2  UNL     1     -35.015  16.466  -1.678  1.00 20.00     0.004 A 
HETATM    3  C3  UNL     1     -32.967  17.381  -2.042  1.00 20.00    -0.022 A 
HETATM    4  C4  UNL     1     -34.591  15.889  -2.813  1.00 20.00    -0.049 A 
HETATM    5  C5  UNL     1     -33.227  16.419  -3.165  1.00 20.00     0.063 A 
ENDROOT
BRANCH   4   6
HETATM    6  C8  UNL     1     -35.292  14.883  -3.648  1.00 20.00     0.306 C 
BRANCH   6   7
HETATM    7  N9  UNL     1     -35.533  15.469  -4.941  1.00 20.00     0.083 N 
HETATM    8  C6  UNL     1     -36.702  16.361  -4.913  1.00 20.00     0.309 C 
HETATM    9  C7  UNL     1     -35.726  14.436  -5.969  1.00 20.00     0.309 C 
ENDBRANCH   6   7
ENDBRANCH   4   6
TORSDOF 2
ENDMDL
