MODEL 1
REMARK VINA RESULT:      -4.2      0.000      0.000
REMARK  0 active torsions:
REMARK  status: ('A' for Active; 'I' for Inactive)
ROOT
HETATM    1  C1  UNL     1     -25.819  19.041  10.448  1.00 20.00     0.219 C 
HETATM    2  C2  UNL     1     -25.424  18.836  11.901  1.00 20.00     0.103 C 
HETATM    3  C3  UNL     1     -25.421  17.369  12.319  1.00 20.00     0.009 C 
HETATM    4  C4  UNL     1     -24.167  16.573  11.948  1.00 20.00     0.001 C 
HETATM    5  C5  UNL     1     -24.061  16.219  10.464  1.00 20.00     0.002 C 
HETATM    6  C6  UNL     1     -23.133  17.128   9.656  1.00 20.00     0.020 C 
HETATM    7  C7  UNL     1     -23.419  18.623   9.765  1.00 20.00     0.125 C 
HETATM    8  C8  UNL     1     -25.166  19.104   8.073  1.00 20.00     0.152 C 
HETATM    9  N9  UNL     1     -24.817  18.952   9.483  1.00 20.00    -0.356 N 
HETATM   10  O10 UNL     1     -27.005  19.263  10.185  1.00 20.00    -0.273 OA
ENDROOT
TORSDOF 0
ENDMDL
MODEL 2
REMARK VINA RESULT:      -4.0     17.235     18.566
REMARK  0 active torsions:
REMARK  status: ('A' for Active; 'I' for Inactive)
ROOT
HETATM    1  C1  UNL     1     -35.825  14.428  -5.000  1.00 20.00     0.219 C 
HETATM    2  C2  UNL     1     -34.782  13.912  -4.022  1.00 20.00     0.103 C 
HETATM    3  C3  UNL     1     -33.428  14.599  -4.173  1.00 20.00     0.009 C 
HETATM    4  C4  UNL     1     -33.290  15.958  -3.481  1.00 20.00     0.001 C 
HETATM    5  C5  UNL     1     -34.023  17.101  -4.184  1.00 20.00     0.002 C 
HETATM    6  C6  UNL     1     -35.374  17.469  -3.566  1.00 20.00     0.020 C 
HETATM    7  C7  UNL     1     -36.355  16.312  -3.396  1.00 20.00     0.125 C 
HETATM    8  C8  UNL     1     -37.539  16.105  -5.564  1.00 20.00     0.152 C 
HETATM    9  N9  UNL     1     -36.557  15.556  -4.634  1.00 20.00    -0.356 N 
HETATM   10  O10 UNL     1     -35.969  13.837  -6.075  1.00 20.00    -0.273 OA
ENDROOT
TORSDOF 0
ENDMDL
MODEL 3
REMARK VINA RESULT:      -3.9     16.533     18.028
REMARK  0 active torsions:
REMARK  status: ('A' for Active; 'I' for Inactive)
ROOT
HETATM    1  C1  UNL     1     -34.176  14.756  -4.494  1.00 20.00     0.219 C 
HETATM    2  C2  UNL     1     -34.756  15.163  -3.149  1.00 20.00     0.103 C 
HETATM    3  C3  UNL     1     -33.946  16.252  -2.453  1.00 20.00     0.009 C 
HETATM    4  C4  UNL     1     -34.222  17.686  -2.915  1.00 20.00     0.001 C 
HETATM    5  C5  UNL     1     -33.634  18.031  -4.284  1.00 20.00     0.002 C 
HETATM    6  C6  UNL     1     -34.635  17.982  -5.439  1.00 20.00     0.020 C 
HETATM    7  C7  UNL     1     -35.417  16.678  -5.577  1.00 20.00     0.125 C 
HETATM    8  C8  UNL     1     -33.980  15.165  -6.916  1.00 20.00     0.152 C 
HETATM    9  N9  UNL     1     -34.547  15.500  -5.613  1.00 20.00    -0.356 N 
HETATM   10  O10 UNL     1     -33.395  13.801  -4.535  1.00 20.00    -0.273 OA
ENDROOT
TORSDOF 0
ENDMDL
MODEL 4
REMARK VINA RESULT:      -3.9     18.195     19.268
REMARK  0 active torsions:
REMARK  status: ('A' for Active; 'I' for Inactive)
ROOT
HETATM    1  C1  UNL     1     -35.983  13.965  -4.188  1.00 20.00     0.219 C 
HETATM    2  C2  UNL     1     -34.544  14.420  -4.010  1.00 20.00     0.103 C 
HETATM    3  C3  UNL     1     -33.927  14.969  -5.293  1.00 20.00     0.009 C 
HETATM    4  C4  UNL     1     -34.263  16.426  -5.622  1.00 20.00     0.001 C 
HETATM    5  C5  UNL     1     -35.687  16.644  -6.135  1.00 20.00     0.002 C 
HETATM    6  C6  UNL     1     -36.671  17.163  -5.085  1.00 20.00     0.020 C 
HETATM    7  C7  UNL     1     -36.752  16.344  -3.799  1.00 20.00     0.125 C 
HETATM    8  C8  UNL     1     -38.380  14.530  -4.253  1.00 20.00     0.152 C 
HETATM    9  N9  UNL     1     -36.988  14.921  -4.051  1.00 20.00    -0.356 N 
HETATM   10  O10 UNL     1     -36.198  12.779  -4.458  1.00 20.00    -0.273 OA
ENDROOT
TORSDOF 0
ENDMDL
MODEL 5
REMARK VINA RESULT:      -3.9     16.194     17.559
REMARK  0 active torsions:
REMARK  status: ('A' for Active; 'I' for Inactive)
ROOT
HETATM    1  C1  UNL     1     -36.233  15.551  -3.944  1.00 20.00     0.219 C 
HETATM    2  C2  UNL     1     -35.311  14.348  -4.052  1.00 20.00     0.103 C 
HETATM    3  C3  UNL     1     -33.977  14.674  -4.717  1.00 20.00     0.009 C 
HETATM    4  C4  UNL     1     -32.917  15.305  -3.809  1.00 20.00     0.001 C 
HETATM    5  C5  UNL     1     -33.178  16.771  -3.460  1.00 20.00     0.002 C 
HETATM    6  C6  UNL     1     -33.796  16.998  -2.080  1.00 20.00     0.020 C 
HETATM    7  C7  UNL     1     -35.072  16.211  -1.794  1.00 20.00     0.125 C 
HETATM    8  C8  UNL     1     -36.928  17.571  -2.717  1.00 20.00     0.152 C 
HETATM    9  N9  UNL     1     -36.088  16.384  -2.836  1.00 20.00    -0.356 N 
HETATM   10  O10 UNL     1     -37.057  15.746  -4.843  1.00 20.00    -0.273 OA
ENDROOT
TORSDOF 0
ENDMDL
MODEL 6
REMARK VINA RESULT:      -3.8     17.070     18.612
REMARK  0 active torsions:
REMARK  status: ('A' for Active; 'I' for Inactive)
ROOT
HETATM    1  C1  UNL     1     -34.393  14.764  -5.551  1.00 20.00     0.219 C 
HETATM    2  C2  UNL     1     -33.784  14.388  -4.210  1.00 20.00     0.103 C 
HETATM    3  C3  UNL     1     -33.292  15.594  -3.417  1.00 20.00     0.009 C 
HETATM    4  C4  UNL     1     -34.363  16.353  -2.627  1.00 20.00     0.001 C 
HETATM    5  C5  UNL     1     -35.290  17.212  -3.487  1.00 20.00     0.002 C 
HETATM    6  C6  UNL     1     -36.650  16.581  -3.787  1.00 20.00     0.020 C 
HETATM    7  C7  UNL     1     -36.605  15.182  -4.395  1.00 20.00     0.125 C 
HETATM    8  C8  UNL     1     -36.355  15.513  -6.839  1.00 20.00     0.152 C 
HETATM    9  N9  UNL     1     -35.744  15.107  -5.577  1.00 20.00    -0.356 N 
HETATM   10  O10 UNL     1     -33.667  14.763  -6.550  1.00 20.00    -0.273 OA
ENDROOT
TORSDOF 0
ENDMDL
MODEL 7
REMARK VINA RESULT:      -3.8     17.051     18.465
REMARK  0 active torsions:
REMARK  status: ('A' for Active; 'I' for Inactive)
ROOT
HETATM    1  C1  UNL     1     -35.816  16.245  -5.622  1.00 20.00     0.219 C 
HETATM    2  C2  UNL     1     -35.262  14.870  -5.959  1.00 20.00     0.103 C 
HETATM    3  C3  UNL     1     -33.743  14.793  -5.845  1.00 20.00     0.009 C 
HETATM    4  C4  UNL     1     -33.191  14.581  -4.432  1.00 20.00     0.001 C 
HETATM    5  C5  UNL     1     -33.262  15.818  -3.536  1.00 20.00     0.002 C 
HETATM    6  C6  UNL     1     -34.434  15.827  -2.553  1.00 20.00     0.020 C 
HETATM    7  C7  UNL     1     -35.812  15.613  -3.172  1.00 20.00     0.125 C 
HETATM    8  C8  UNL     1     -36.576  17.851  -3.916  1.00 20.00     0.152 C 
HETATM    9  N9  UNL     1     -36.081  16.528  -4.283  1.00 20.00    -0.356 N 
HETATM   10  O10 UNL     1     -35.994  17.051  -6.541  1.00 20.00    -0.273 OA
ENDROOT
TORSDOF 0
ENDMDL
MODEL 8
REMARK VINA RESULT:      -3.8     17.027     18.382
REMARK  0 active torsions:
REMARK  status: ('A' for Active; 'I' for Inactive)
ROOT
HETATM    1  C1  UNL     1     -36.944  14.779  -4.399  1.00 20.00     0.219 C 
HETATM    2  C2  UNL     1     -37.292  16.252  -4.532  1.00 20.00     0.103 C 
HETATM    3  C3  UNL     1     -37.387  16.969  -3.189  1.00 20.00     0.009 C 
HETATM    4  C4  UNL     1     -36.057  17.420  -2.579  1.00 20.00     0.001 C 
HETATM    5  C5  UNL     1     -35.216  16.286  -1.991  1.00 20.00     0.002 C 
HETATM    6  C6  UNL     1     -34.081  15.799  -2.893  1.00 20.00     0.020 C 
HETATM    7  C7  UNL     1     -34.492  15.397  -4.307  1.00 20.00     0.125 C 
HETATM    8  C8  UNL     1     -35.224  13.033  -4.153  1.00 20.00     0.152 C 
HETATM    9  N9  UNL     1     -35.596  14.434  -4.322  1.00 20.00    -0.356 N 
HETATM   10  O10 UNL     1     -37.865  13.957  -4.352  1.00 20.00    -0.273 OA
ENDROOT
TORSDOF 0
ENDMDL
MODEL 9
REMARK VINA RESULT:      -3.8     16.852     18.261
REMARK  0 active torsions:
REMARK  status: ('A' for Active; 'I' for Inactive)
ROOT
HETATM    1  C1  UNL     1     -36.971  16.224  -4.342  1.00 20.00     0.219 C 
HETATM    2  C2  UNL     1     -37.153  14.734  -4.106  1.00 20.00     0.103 C 
HETATM    3  C3  UNL     1     -36.048  13.889  -4.731  1.00 20.00     0.009 C 
HETATM    4  C4  UNL     1     -34.754  13.779  -3.918  1.00 20.00     0.001 C 
HETATM    5  C5  UNL     1     -33.891  15.040  -3.932  1.00 20.00     0.002 C 
HETATM    6  C6  UNL     1     -34.025  15.920  -2.688  1.00 20.00     0.020 C 
HETATM    7  C7  UNL     1     -35.449  16.328  -2.323  1.00 20.00     0.125 C 
HETATM    8  C8  UNL     1     -35.939  18.356  -3.663  1.00 20.00     0.152 C 
HETATM    9  N9  UNL     1     -36.170  16.931  -3.446  1.00 20.00    -0.356 N 
HETATM   10  O10 UNL     1     -37.524  16.740  -5.319  1.00 20.00    -0.273 OA
ENDROOT
TORSDOF 0
ENDMDL
