MODEL 1
REMARK VINA RESULT:      -3.9      0.000      0.000
REMARK  5 active torsions:
REMARK  status: ('A' for Active; 'I' for Inactive)
REMARK    1  A    between atoms: C1_1  and  C6_6 
REMARK    2  A    between atoms: C1_1  and  S11_11 
REMARK    3  A    between atoms: C6_6  and  C8_8 
REMARK    4  A    between atoms: C7_7  and  C9_9 
REMARK    5  A    between atoms: C9_9  and  S11_11 
ROOT
HETATM    1  C1  UNL     1     -36.631  14.540  -4.354  1.00 20.00     0.186 C 
HETATM    2  O10 UNL     1     -37.431  13.619  -4.457  1.00 20.00    -0.285 OA
ENDROOT
BRANCH   1   3
HETATM    3  C6  UNL     1     -35.306  14.442  -3.619  1.00 20.00     0.094 C 
BRANCH   3   4
HETATM    4  C8  UNL     1     -34.701  15.813  -3.276  1.00 20.00    -0.015 C 
HETATM    5  C3  UNL     1     -35.002  16.170  -1.819  1.00 20.00     0.010 C 
HETATM    6  C4  UNL     1     -33.189  15.831  -3.511  1.00 20.00     0.010 C 
ENDBRANCH   3   4
ENDBRANCH   1   3
BRANCH   1   7
HETATM    7  S11 UNL     1     -36.896  16.118  -5.107  1.00 20.00    -0.088 SA
BRANCH   7   8
HETATM    8  C9  UNL     1     -36.312  15.786  -6.782  1.00 20.00     0.051 C 
HETATM    9  C5  UNL     1     -37.246  16.481  -7.771  1.00 20.00     0.022 C 
BRANCH   8  10
HETATM   10  C7  UNL     1     -34.862  16.247  -6.985  1.00 20.00     0.011 C 
HETATM   11  C2  UNL     1     -33.867  15.104  -7.144  1.00 20.00     0.006 C 
ENDBRANCH   8  10
ENDBRANCH   7   8
ENDBRANCH   1   7
TORSDOF 5
ENDMDL
MODEL 2
REMARK VINA RESULT:      -3.8      1.129      4.248
REMARK  5 active torsions:
REMARK  status: ('A' for Active; 'I' for Inactive)
REMARK    1  A    between atoms: C1_1  and  C6_6 
REMARK    2  A    between atoms: C1_1  and  S11_11 
REMARK    3  A    between atoms: C6_6  and  C8_8 
REMARK    4  A    between atoms: C7_7  and  C9_9 
REMARK    5  A    between atoms: C9_9  and  S11_11 
ROOT
HETATM    1  C1  UNL     1     -36.034  13.989  -5.025  1.00 20.00     0.186 C 
HETATM    2  O10 UNL     1     -35.968  12.866  -4.544  1.00 20.00    -0.285 OA
ENDROOT
BRANCH   1   3
HETATM    3  C6  UNL     1     -35.970  14.286  -6.514  1.00 20.00     0.094 C 
BRANCH   3   4
HETATM    4  C8  UNL     1     -35.238  15.600  -6.837  1.00 20.00    -0.015 C 
HETATM    5  C3  UNL     1     -33.887  15.300  -7.488  1.00 20.00     0.010 C 
HETATM    6  C4  UNL     1     -36.072  16.490  -7.762  1.00 20.00     0.010 C 
ENDBRANCH   3   4
ENDBRANCH   1   3
BRANCH   1   7
HETATM    7  S11 UNL     1     -36.270  15.435  -4.034  1.00 20.00    -0.088 SA
BRANCH   7   8
HETATM    8  C9  UNL     1     -34.877  15.284  -2.895  1.00 20.00     0.051 C 
HETATM    9  C5  UNL     1     -33.580  15.425  -3.690  1.00 20.00     0.022 C 
BRANCH   8  10
HETATM   10  C7  UNL     1     -34.943  16.324  -1.768  1.00 20.00     0.011 C 
HETATM   11  C2  UNL     1     -33.756  17.279  -1.738  1.00 20.00     0.006 C 
ENDBRANCH   8  10
ENDBRANCH   7   8
ENDBRANCH   1   7
TORSDOF 5
ENDMDL
MODEL 3
REMARK VINA RESULT:      -3.7      1.664      2.335
REMARK  5 active torsions:
REMARK  status: ('A' for Active; 'I' for Inactive)
REMARK    1  A    between atoms: C1_1  and  C6_6 
REMARK    2  A    between atoms: C1_1  and  S11_11 
REMARK    3  A    between atoms: C6_6  and  C8_8 
REMARK    4  A    between atoms: C7_7  and  C9_9 
REMARK    5  A    between atoms: C9_9  and  S11_11 
ROOT
HETATM    1  C1  UNL     1     -34.684  14.175  -4.434  1.00 20.00     0.186 C 
HETATM    2  O10 UNL     1     -34.864  13.086  -3.905  1.00 20.00    -0.285 OA
ENDROOT
BRANCH   1   3
HETATM    3  C6  UNL     1     -33.640  15.181  -3.982  1.00 20.00     0.094 C 
BRANCH   3   4
HETATM    4  C8  UNL     1     -33.991  15.860  -2.648  1.00 20.00    -0.015 C 
HETATM    5  C3  UNL     1     -33.095  17.079  -2.428  1.00 20.00     0.010 C 
HETATM    6  C4  UNL     1     -35.461  16.284  -2.607  1.00 20.00     0.010 C 
ENDBRANCH   3   4
ENDBRANCH   1   3
BRANCH   1   7
HETATM    7  S11 UNL     1     -35.598  14.706  -5.852  1.00 20.00    -0.088 SA
BRANCH   7   8
HETATM    8  C9  UNL     1     -34.475  15.952  -6.520  1.00 20.00     0.051 C 
HETATM    9  C5  UNL     1     -34.028  15.509  -7.912  1.00 20.00     0.022 C 
BRANCH   8  10
HETATM   10  C7  UNL     1     -35.125  17.341  -6.571  1.00 20.00     0.011 C 
HETATM   11  C2  UNL     1     -34.392  18.397  -5.753  1.00 20.00     0.006 C 
ENDBRANCH   8  10
ENDBRANCH   7   8
ENDBRANCH   1   7
TORSDOF 5
ENDMDL
MODEL 4
REMARK VINA RESULT:      -3.7      1.914      2.715
REMARK  5 active torsions:
REMARK  status: ('A' for Active; 'I' for Inactive)
REMARK    1  A    between atoms: C1_1  and  C6_6 
REMARK    2  A    between atoms: C1_1  and  S11_11 
REMARK    3  A    between atoms: C6_6  and  C8_8 
REMARK    4  A    between atoms: C7_7  and  C9_9 
REMARK    5  A    between atoms: C9_9  and  S11_11 
ROOT
HETATM    1  C1  UNL     1     -35.750  13.948  -4.478  1.00 20.00     0.186 C 
HETATM    2  O10 UNL     1     -35.896  12.733  -4.464  1.00 20.00    -0.285 OA
ENDROOT
BRANCH   1   3
HETATM    3  C6  UNL     1     -35.076  14.740  -3.371  1.00 20.00     0.094 C 
BRANCH   3   4
HETATM    4  C8  UNL     1     -33.849  15.531  -3.855  1.00 20.00    -0.015 C 
HETATM    5  C3  UNL     1     -33.332  16.434  -2.734  1.00 20.00     0.010 C 
HETATM    6  C4  UNL     1     -32.731  14.596  -4.323  1.00 20.00     0.010 C 
ENDBRANCH   3   4
ENDBRANCH   1   3
BRANCH   1   7
HETATM    7  S11 UNL     1     -36.270  14.952  -5.838  1.00 20.00    -0.088 SA
BRANCH   7   8
HETATM    8  C9  UNL     1     -37.168  16.251  -4.964  1.00 20.00     0.051 C 
HETATM    9  C5  UNL     1     -36.694  17.607  -5.485  1.00 20.00     0.022 C 
BRANCH   8  10
HETATM   10  C7  UNL     1     -38.687  16.105  -5.124  1.00 20.00     0.011 C 
HETATM   11  C2  UNL     1     -39.299  15.016  -4.252  1.00 20.00     0.006 C 
ENDBRANCH   8  10
ENDBRANCH   7   8
ENDBRANCH   1   7
TORSDOF 5
ENDMDL
MODEL 5
REMARK VINA RESULT:      -3.7      1.304      2.393
REMARK  5 active torsions:
REMARK  status: ('A' for Active; 'I' for Inactive)
REMARK    1  A    between atoms: C1_1  and  C6_6 
REMARK    2  A    between atoms: C1_1  and  S11_11 
REMARK    3  A    between atoms: C6_6  and  C8_8 
REMARK    4  A    between atoms: C7_7  and  C9_9 
REMARK    5  A    between atoms: C9_9  and  S11_11 
ROOT
HETATM    1  C1  UNL     1     -35.916  14.064  -4.815  1.00 20.00     0.186 C 
HETATM    2  O10 UNL     1     -35.906  12.876  -4.523  1.00 20.00    -0.285 OA
ENDROOT
BRANCH   1   3
HETATM    3  C6  UNL     1     -36.020  15.192  -3.802  1.00 20.00     0.094 C 
BRANCH   3   4
HETATM    4  C8  UNL     1     -34.824  15.251  -2.838  1.00 20.00    -0.015 C 
HETATM    5  C3  UNL     1     -33.536  15.520  -3.617  1.00 20.00     0.010 C 
HETATM    6  C4  UNL     1     -35.019  16.331  -1.772  1.00 20.00     0.010 C 
ENDBRANCH   3   4
ENDBRANCH   1   3
BRANCH   1   7
HETATM    7  S11 UNL     1     -35.754  14.635  -6.481  1.00 20.00    -0.088 SA
BRANCH   7   8
HETATM    8  C9  UNL     1     -35.985  16.410  -6.244  1.00 20.00     0.051 C 
HETATM    9  C5  UNL     1     -34.749  17.137  -6.771  1.00 20.00     0.022 C 
BRANCH   8  10
HETATM   10  C7  UNL     1     -37.256  16.920  -6.938  1.00 20.00     0.011 C 
HETATM   11  C2  UNL     1     -38.539  16.623  -6.172  1.00 20.00     0.006 C 
ENDBRANCH   8  10
ENDBRANCH   7   8
ENDBRANCH   1   7
TORSDOF 5
ENDMDL
MODEL 6
REMARK VINA RESULT:      -3.7      4.580      6.202
REMARK  5 active torsions:
REMARK  status: ('A' for Active; 'I' for Inactive)
REMARK    1  A    between atoms: C1_1  and  C6_6 
REMARK    2  A    between atoms: C1_1  and  S11_11 
REMARK    3  A    between atoms: C6_6  and  C8_8 
REMARK    4  A    between atoms: C7_7  and  C9_9 
REMARK    5  A    between atoms: C9_9  and  S11_11 
ROOT
HETATM    1  C1  UNL     1     -31.769  18.670  -0.776  1.00 20.00     0.186 C 
HETATM    2  O10 UNL     1     -30.581  18.381  -0.710  1.00 20.00    -0.285 OA
ENDROOT
BRANCH   1   3
HETATM    3  C6  UNL     1     -32.576  19.236   0.379  1.00 20.00     0.094 C 
BRANCH   3   4
HETATM    4  C8  UNL     1     -32.838  18.209   1.494  1.00 20.00    -0.015 C 
HETATM    5  C3  UNL     1     -31.981  18.535   2.718  1.00 20.00     0.010 C 
HETATM    6  C4  UNL     1     -34.315  18.180   1.890  1.00 20.00     0.010 C 
ENDBRANCH   3   4
ENDBRANCH   1   3
BRANCH   1   7
HETATM    7  S11 UNL     1     -32.703  18.513  -2.270  1.00 20.00    -0.088 SA
BRANCH   7   8
HETATM    8  C9  UNL     1     -33.338  16.833  -2.085  1.00 20.00     0.051 C 
HETATM    9  C5  UNL     1     -34.782  16.908  -1.594  1.00 20.00     0.022 C 
BRANCH   8  10
HETATM   10  C7  UNL     1     -33.248  16.039  -3.396  1.00 20.00     0.011 C 
HETATM   11  C2  UNL     1     -34.341  14.990  -3.560  1.00 20.00     0.006 C 
ENDBRANCH   8  10
ENDBRANCH   7   8
ENDBRANCH   1   7
TORSDOF 5
ENDMDL
MODEL 7
REMARK VINA RESULT:      -3.6      2.046      3.099
REMARK  5 active torsions:
REMARK  status: ('A' for Active; 'I' for Inactive)
REMARK    1  A    between atoms: C1_1  and  C6_6 
REMARK    2  A    between atoms: C1_1  and  S11_11 
REMARK    3  A    between atoms: C6_6  and  C8_8 
REMARK    4  A    between atoms: C7_7  and  C9_9 
REMARK    5  A    between atoms: C9_9  and  S11_11 
ROOT
HETATM    1  C1  UNL     1     -34.062  14.884  -4.884  1.00 20.00     0.186 C 
HETATM    2  O10 UNL     1     -33.314  13.942  -4.654  1.00 20.00    -0.285 OA
ENDROOT
BRANCH   1   3
HETATM    3  C6  UNL     1     -33.947  16.246  -4.223  1.00 20.00     0.094 C 
BRANCH   3   4
HETATM    4  C8  UNL     1     -33.723  16.165  -2.704  1.00 20.00    -0.015 C 
HETATM    5  C3  UNL     1     -32.880  17.351  -2.234  1.00 20.00     0.010 C 
HETATM    6  C4  UNL     1     -35.051  16.140  -1.945  1.00 20.00     0.010 C 
ENDBRANCH   3   4
ENDBRANCH   1   3
BRANCH   1   7
HETATM    7  S11 UNL     1     -35.364  14.793  -6.076  1.00 20.00    -0.088 SA
BRANCH   7   8
HETATM    8  C9  UNL     1     -36.707  15.574  -5.156  1.00 20.00     0.051 C 
HETATM    9  C5  UNL     1     -37.605  16.320  -6.141  1.00 20.00     0.022 C 
BRANCH   8  10
HETATM   10  C7  UNL     1     -37.517  14.551  -4.347  1.00 20.00     0.011 C 
HETATM   11  C2  UNL     1     -38.989  14.914  -4.189  1.00 20.00     0.006 C 
ENDBRANCH   8  10
ENDBRANCH   7   8
ENDBRANCH   1   7
TORSDOF 5
ENDMDL
MODEL 8
REMARK VINA RESULT:      -3.6      2.002      2.526
REMARK  5 active torsions:
REMARK  status: ('A' for Active; 'I' for Inactive)
REMARK    1  A    between atoms: C1_1  and  C6_6 
REMARK    2  A    between atoms: C1_1  and  S11_11 
REMARK    3  A    between atoms: C6_6  and  C8_8 
REMARK    4  A    between atoms: C7_7  and  C9_9 
REMARK    5  A    between atoms: C9_9  and  S11_11 
ROOT
HETATM    1  C1  UNL     1     -35.802  14.002  -4.489  1.00 20.00     0.186 C 
HETATM    2  O10 UNL     1     -36.026  12.800  -4.540  1.00 20.00    -0.285 OA
ENDROOT
BRANCH   1   3
HETATM    3  C6  UNL     1     -35.055  14.684  -3.356  1.00 20.00     0.094 C 
BRANCH   3   4
HETATM    4  C8  UNL     1     -33.859  15.522  -3.838  1.00 20.00    -0.015 C 
HETATM    5  C3  UNL     1     -33.383  16.448  -2.717  1.00 20.00     0.010 C 
HETATM    6  C4  UNL     1     -32.703  14.631  -4.298  1.00 20.00     0.010 C 
ENDBRANCH   3   4
ENDBRANCH   1   3
BRANCH   1   7
HETATM    7  S11 UNL     1     -36.281  15.114  -5.778  1.00 20.00    -0.088 SA
BRANCH   7   8
HETATM    8  C9  UNL     1     -37.777  15.825  -5.061  1.00 20.00     0.051 C 
HETATM    9  C5  UNL     1     -38.500  14.739  -4.265  1.00 20.00     0.022 C 
BRANCH   8  10
HETATM   10  C7  UNL     1     -37.466  17.037  -4.172  1.00 20.00     0.011 C 
HETATM   11  C2  UNL     1     -36.386  17.954  -4.733  1.00 20.00     0.006 C 
ENDBRANCH   8  10
ENDBRANCH   7   8
ENDBRANCH   1   7
TORSDOF 5
ENDMDL
MODEL 9
REMARK VINA RESULT:      -3.6      2.164      3.131
REMARK  5 active torsions:
REMARK  status: ('A' for Active; 'I' for Inactive)
REMARK    1  A    between atoms: C1_1  and  C6_6 
REMARK    2  A    between atoms: C1_1  and  S11_11 
REMARK    3  A    between atoms: C6_6  and  C8_8 
REMARK    4  A    between atoms: C7_7  and  C9_9 
REMARK    5  A    between atoms: C9_9  and  S11_11 
ROOT
HETATM    1  C1  UNL     1     -33.717  14.986  -4.863  1.00 20.00     0.186 C 
HETATM    2  O10 UNL     1     -33.137  13.994  -4.442  1.00 20.00    -0.285 OA
ENDROOT
BRANCH   1   3
HETATM    3  C6  UNL     1     -33.750  16.325  -4.147  1.00 20.00     0.094 C 
BRANCH   3   4
HETATM    4  C8  UNL     1     -33.668  16.195  -2.617  1.00 20.00    -0.015 C 
HETATM    5  C3  UNL     1     -32.920  17.392  -2.028  1.00 20.00     0.010 C 
HETATM    6  C4  UNL     1     -35.060  16.094  -1.990  1.00 20.00     0.010 C 
ENDBRANCH   3   4
ENDBRANCH   1   3
BRANCH   1   7
HETATM    7  S11 UNL     1     -34.564  15.004  -6.416  1.00 20.00    -0.088 SA
BRANCH   7   8
HETATM    8  C9  UNL     1     -36.252  14.665  -5.873  1.00 20.00     0.051 C 
HETATM    9  C5  UNL     1     -36.199  13.713  -4.680  1.00 20.00     0.022 C 
BRANCH   8  10
HETATM   10  C7  UNL     1     -37.007  15.952  -5.512  1.00 20.00     0.011 C 
HETATM   11  C2  UNL     1     -37.909  15.817  -4.291  1.00 20.00     0.006 C 
ENDBRANCH   8  10
ENDBRANCH   7   8
ENDBRANCH   1   7
TORSDOF 5
ENDMDL
