MODEL 1
REMARK VINA RESULT:      -4.5      0.000      0.000
REMARK  1 active torsions:
REMARK  status: ('A' for Active; 'I' for Inactive)
REMARK    1  A    between atoms: C3_3  and  C6_6 
ROOT
HETATM    1  C1  UNL     1     -33.193   4.564   3.037  1.00 20.00     0.202 C 
HETATM    2  C2  UNL     1     -33.619   5.953   2.628  1.00 20.00     0.144 C 
HETATM    3  C3  UNL     1     -34.950   5.233   4.305  1.00 20.00     0.260 C 
HETATM    4  C4  UNL     1     -32.465   6.880   2.308  1.00 20.00     0.042 C 
HETATM    5  O7  UNL     1     -34.332   4.066   3.742  1.00 20.00    -0.359 OA
HETATM    6  O8  UNL     1     -34.333   6.416   3.777  1.00 20.00    -0.354 OA
ENDROOT
BRANCH   3   7
HETATM    7  C6  UNL     1     -34.802   5.219   5.813  1.00 20.00     0.056 C 
HETATM    8  C5  UNL     1     -34.177   6.479   6.328  1.00 20.00     0.010 C 
ENDBRANCH   3   7
TORSDOF 1
ENDMDL
MODEL 2
REMARK VINA RESULT:      -3.7     12.040     12.663
REMARK  1 active torsions:
REMARK  status: ('A' for Active; 'I' for Inactive)
REMARK    1  A    between atoms: C3_3  and  C6_6 
ROOT
HETATM    1  C1  UNL     1     -35.643  14.619  -5.855  1.00 20.00     0.202 C 
HETATM    2  C2  UNL     1     -36.285  13.988  -4.643  1.00 20.00     0.144 C 
HETATM    3  C3  UNL     1     -34.092  14.336  -4.226  1.00 20.00     0.260 C 
HETATM    4  C4  UNL     1     -37.674  14.508  -4.342  1.00 20.00     0.042 C 
HETATM    5  O7  UNL     1     -34.250  14.377  -5.651  1.00 20.00    -0.359 OA
HETATM    6  O8  UNL     1     -35.379  14.332  -3.592  1.00 20.00    -0.354 OA
ENDROOT
BRANCH   3   7
HETATM    7  C6  UNL     1     -33.305  15.544  -3.757  1.00 20.00     0.056 C 
HETATM    8  C5  UNL     1     -33.920  16.183  -2.551  1.00 20.00     0.010 C 
ENDBRANCH   3   7
TORSDOF 1
ENDMDL
MODEL 3
REMARK VINA RESULT:      -3.6     16.427     17.129
REMARK  1 active torsions:
REMARK  status: ('A' for Active; 'I' for Inactive)
REMARK    1  A    between atoms: C3_3  and  C6_6 
ROOT
HETATM    1  C1  UNL     1     -22.526  17.665  11.325  1.00 20.00     0.202 C 
HETATM    2  C2  UNL     1     -23.110  17.626   9.934  1.00 20.00     0.144 C 
HETATM    3  C3  UNL     1     -24.562  16.668  11.375  1.00 20.00     0.260 C 
HETATM    4  C4  UNL     1     -22.854  18.880   9.125  1.00 20.00     0.042 C 
HETATM    5  O7  UNL     1     -23.283  16.677  12.026  1.00 20.00    -0.359 OA
HETATM    6  O8  UNL     1     -24.509  17.465  10.183  1.00 20.00    -0.354 OA
ENDROOT
BRANCH   3   7
HETATM    7  C6  UNL     1     -25.620  17.227  12.306  1.00 20.00     0.056 C 
HETATM    8  C5  UNL     1     -26.117  18.565  11.853  1.00 20.00     0.010 C 
ENDBRANCH   3   7
TORSDOF 1
ENDMDL
MODEL 4
REMARK VINA RESULT:      -3.5     16.238     17.044
REMARK  1 active torsions:
REMARK  status: ('A' for Active; 'I' for Inactive)
REMARK    1  A    between atoms: C3_3  and  C6_6 
ROOT
HETATM    1  C1  UNL     1     -24.536  18.512   9.149  1.00 20.00     0.202 C 
HETATM    2  C2  UNL     1     -23.118  18.409   9.654  1.00 20.00     0.144 C 
HETATM    3  C3  UNL     1     -24.543  18.156  11.388  1.00 20.00     0.260 C 
HETATM    4  C4  UNL     1     -22.189  17.653   8.728  1.00 20.00     0.042 C 
HETATM    5  O7  UNL     1     -25.287  18.783  10.334  1.00 20.00    -0.359 OA
HETATM    6  O8  UNL     1     -23.273  17.709  10.892  1.00 20.00    -0.354 OA
ENDROOT
BRANCH   3   7
HETATM    7  C6  UNL     1     -25.316  16.970  11.931  1.00 20.00     0.056 C 
HETATM    8  C5  UNL     1     -24.574  15.683  11.744  1.00 20.00     0.010 C 
ENDBRANCH   3   7
TORSDOF 1
ENDMDL
MODEL 5
REMARK VINA RESULT:      -3.5     16.388     17.474
REMARK  1 active torsions:
REMARK  status: ('A' for Active; 'I' for Inactive)
REMARK    1  A    between atoms: C3_3  and  C6_6 
ROOT
HETATM    1  C1  UNL     1     -24.975  16.370  11.838  1.00 20.00     0.202 C 
HETATM    2  C2  UNL     1     -25.213  17.776  12.332  1.00 20.00     0.144 C 
HETATM    3  C3  UNL     1     -23.075  17.589  11.628  1.00 20.00     0.260 C 
HETATM    4  C4  UNL     1     -26.568  18.337  11.958  1.00 20.00     0.042 C 
HETATM    5  O7  UNL     1     -23.550  16.254  11.853  1.00 20.00    -0.359 OA
HETATM    6  O8  UNL     1     -24.168  18.516  11.695  1.00 20.00    -0.354 OA
ENDROOT
BRANCH   3   7
HETATM    7  C6  UNL     1     -22.421  17.682  10.264  1.00 20.00     0.056 C 
HETATM    8  C5  UNL     1     -23.190  18.564   9.330  1.00 20.00     0.010 C 
ENDBRANCH   3   7
TORSDOF 1
ENDMDL
MODEL 6
REMARK VINA RESULT:      -3.4      1.519      3.581
REMARK  1 active torsions:
REMARK  status: ('A' for Active; 'I' for Inactive)
REMARK    1  A    between atoms: C3_3  and  C6_6 
ROOT
HETATM    1  C1  UNL     1     -33.686   4.926   2.700  1.00 20.00     0.202 C 
HETATM    2  C2  UNL     1     -33.932   5.489   4.079  1.00 20.00     0.144 C 
HETATM    3  C3  UNL     1     -32.616   6.913   2.920  1.00 20.00     0.260 C 
HETATM    4  C4  UNL     1     -35.344   5.281   4.584  1.00 20.00     0.042 C 
HETATM    5  O7  UNL     1     -32.534   5.645   2.254  1.00 20.00    -0.359 OA
HETATM    6  O8  UNL     1     -33.660   6.882   3.904  1.00 20.00    -0.354 OA
ENDROOT
BRANCH   3   7
HETATM    7  C6  UNL     1     -32.908   8.008   1.913  1.00 20.00     0.056 C 
HETATM    8  C5  UNL     1     -32.089   7.860   0.669  1.00 20.00     0.010 C 
ENDBRANCH   3   7
TORSDOF 1
ENDMDL
MODEL 7
REMARK VINA RESULT:      -3.4     16.176     17.284
REMARK  1 active torsions:
REMARK  status: ('A' for Active; 'I' for Inactive)
REMARK    1  A    between atoms: C3_3  and  C6_6 
ROOT
HETATM    1  C1  UNL     1     -24.929  18.095  11.161  1.00 20.00     0.202 C 
HETATM    2  C2  UNL     1     -24.672  16.656  10.785  1.00 20.00     0.144 C 
HETATM    3  C3  UNL     1     -23.770  18.006   9.214  1.00 20.00     0.260 C 
HETATM    4  C4  UNL     1     -24.329  15.766  11.960  1.00 20.00     0.042 C 
HETATM    5  O7  UNL     1     -24.730  18.796   9.931  1.00 20.00    -0.359 OA
HETATM    6  O8  UNL     1     -23.562  16.757   9.889  1.00 20.00    -0.354 OA
ENDROOT
BRANCH   3   7
HETATM    7  C6  UNL     1     -22.454  18.752   9.120  1.00 20.00     0.056 C 
HETATM    8  C5  UNL     1     -21.293  17.896   9.519  1.00 20.00     0.010 C 
ENDBRANCH   3   7
TORSDOF 1
ENDMDL
MODEL 8
REMARK VINA RESULT:      -3.4      8.911      9.590
REMARK  1 active torsions:
REMARK  status: ('A' for Active; 'I' for Inactive)
REMARK    1  A    between atoms: C3_3  and  C6_6 
ROOT
HETATM    1  C1  UNL     1     -41.139   5.872  -0.772  1.00 20.00     0.202 C 
HETATM    2  C2  UNL     1     -42.485   5.223  -0.562  1.00 20.00     0.144 C 
HETATM    3  C3  UNL     1     -42.395   7.147   0.619  1.00 20.00     0.260 C 
HETATM    4  C4  UNL     1     -43.065   4.593  -1.810  1.00 20.00     0.042 C 
HETATM    5  O7  UNL     1     -41.039   6.783   0.324  1.00 20.00    -0.359 OA
HETATM    6  O8  UNL     1     -43.297   6.316  -0.126  1.00 20.00    -0.354 OA
ENDROOT
BRANCH   3   7
HETATM    7  C6  UNL     1     -42.632   8.599   0.255  1.00 20.00     0.056 C 
HETATM    8  C5  UNL     1     -41.374   9.408   0.320  1.00 20.00     0.010 C 
ENDBRANCH   3   7
TORSDOF 1
ENDMDL
MODEL 9
REMARK VINA RESULT:      -3.3      8.762      9.568
REMARK  1 active torsions:
REMARK  status: ('A' for Active; 'I' for Inactive)
REMARK    1  A    between atoms: C3_3  and  C6_6 
ROOT
HETATM    1  C1  UNL     1     -43.103   5.334  -0.615  1.00 20.00     0.202 C 
HETATM    2  C2  UNL     1     -42.444   5.319   0.742  1.00 20.00     0.144 C 
HETATM    3  C3  UNL     1     -41.197   6.560  -0.674  1.00 20.00     0.260 C 
HETATM    4  C4  UNL     1     -43.417   5.409   1.899  1.00 20.00     0.042 C 
HETATM    5  O7  UNL     1     -42.047   5.739  -1.488  1.00 20.00    -0.359 OA
HETATM    6  O8  UNL     1     -41.605   6.476   0.699  1.00 20.00    -0.354 OA
ENDROOT
BRANCH   3   7
HETATM    7  C6  UNL     1     -41.278   8.003  -1.134  1.00 20.00     0.056 C 
HETATM    8  C5  UNL     1     -41.555   8.940   0.000  1.00 20.00     0.010 C 
ENDBRANCH   3   7
TORSDOF 1
ENDMDL
