MODEL 1
REMARK VINA RESULT:      -4.0      0.000      0.000
REMARK  1 active torsions:
REMARK  status: ('A' for Active; 'I' for Inactive)
REMARK    1  A    between atoms: C7_7  and  O9_9 
ROOT
HETATM    1  C1  UNL     1     -24.660  15.870  11.465  1.00 20.00    -0.023 C 
HETATM    2  C2  UNL     1     -25.435  16.731  12.144  1.00 20.00    -0.023 C 
HETATM    3  C3  UNL     1     -22.719  17.388  11.545  1.00 20.00     0.012 C 
HETATM    4  C4  UNL     1     -23.616  18.385  12.332  1.00 20.00     0.012 C 
HETATM    5  C5  UNL     1     -23.730  16.694  10.604  1.00 20.00     0.037 C 
HETATM    6  C6  UNL     1     -25.017  18.124  11.733  1.00 20.00     0.037 C 
HETATM    7  C7  UNL     1     -24.691  17.839  10.261  1.00 20.00     0.136 C 
ENDROOT
BRANCH   7   8
HETATM    8  O9  UNL     1     -24.055  18.915   9.603  1.00 20.00    -0.389 OA
HETATM    9  C8  UNL     1     -24.419  18.986   8.228  1.00 20.00     0.202 C 
ENDBRANCH   7   8
TORSDOF 1
ENDMDL
MODEL 2
REMARK VINA RESULT:      -4.0     16.935     18.457
REMARK  1 active torsions:
REMARK  status: ('A' for Active; 'I' for Inactive)
REMARK    1  A    between atoms: C7_7  and  O9_9 
ROOT
HETATM    1  C1  UNL     1     -34.906  15.885  -2.212  1.00 20.00    -0.023 C 
HETATM    2  C2  UNL     1     -33.691  16.372  -2.512  1.00 20.00    -0.023 C 
HETATM    3  C3  UNL     1     -34.714  14.084  -3.886  1.00 20.00     0.012 C 
HETATM    4  C4  UNL     1     -33.307  14.647  -4.232  1.00 20.00     0.012 C 
HETATM    5  C5  UNL     1     -35.502  15.356  -3.498  1.00 20.00     0.037 C 
HETATM    6  C6  UNL     1     -33.482  16.165  -3.995  1.00 20.00     0.037 C 
HETATM    7  C7  UNL     1     -34.924  16.400  -4.462  1.00 20.00     0.136 C 
ENDROOT
BRANCH   7   8
HETATM    8  O9  UNL     1     -35.139  16.075  -5.820  1.00 20.00    -0.389 OA
HETATM    9  C8  UNL     1     -36.466  16.386  -6.236  1.00 20.00     0.202 C 
ENDBRANCH   7   8
TORSDOF 1
ENDMDL
MODEL 3
REMARK VINA RESULT:      -4.0      1.463      2.245
REMARK  1 active torsions:
REMARK  status: ('A' for Active; 'I' for Inactive)
REMARK    1  A    between atoms: C7_7  and  O9_9 
ROOT
HETATM    1  C1  UNL     1     -25.373  18.437  11.071  1.00 20.00    -0.023 C 
HETATM    2  C2  UNL     1     -24.907  18.398  12.330  1.00 20.00    -0.023 C 
HETATM    3  C3  UNL     1     -24.357  16.261  10.514  1.00 20.00     0.012 C 
HETATM    4  C4  UNL     1     -23.818  16.215  11.971  1.00 20.00     0.012 C 
HETATM    5  C5  UNL     1     -24.337  17.773  10.193  1.00 20.00     0.037 C 
HETATM    6  C6  UNL     1     -23.563  17.708  12.285  1.00 20.00     0.037 C 
HETATM    7  C7  UNL     1     -23.077  18.243  10.931  1.00 20.00     0.136 C 
ENDROOT
BRANCH   7   8
HETATM    8  O9  UNL     1     -21.899  17.618  10.465  1.00 20.00    -0.389 OA
HETATM    9  C8  UNL     1     -21.437  18.199   9.248  1.00 20.00     0.202 C 
ENDBRANCH   7   8
TORSDOF 1
ENDMDL
MODEL 4
REMARK VINA RESULT:      -3.8     16.753     18.164
REMARK  1 active torsions:
REMARK  status: ('A' for Active; 'I' for Inactive)
REMARK    1  A    between atoms: C7_7  and  O9_9 
ROOT
HETATM    1  C1  UNL     1     -33.556  14.626  -4.212  1.00 20.00    -0.023 C 
HETATM    2  C2  UNL     1     -34.772  14.186  -3.849  1.00 20.00    -0.023 C 
HETATM    3  C3  UNL     1     -33.597  16.441  -2.543  1.00 20.00     0.012 C 
HETATM    4  C4  UNL     1     -35.003  15.931  -2.121  1.00 20.00     0.012 C 
HETATM    5  C5  UNL     1     -33.563  16.130  -4.057  1.00 20.00     0.037 C 
HETATM    6  C6  UNL     1     -35.583  15.399  -3.452  1.00 20.00     0.037 C 
HETATM    7  C7  UNL     1     -35.017  16.395  -4.472  1.00 20.00     0.136 C 
ENDROOT
BRANCH   7   8
HETATM    8  O9  UNL     1     -35.421  17.729  -4.245  1.00 20.00    -0.389 OA
HETATM    9  C8  UNL     1     -36.715  17.989  -4.781  1.00 20.00     0.202 C 
ENDBRANCH   7   8
TORSDOF 1
ENDMDL
MODEL 5
REMARK VINA RESULT:      -3.8     22.829     23.595
REMARK  1 active torsions:
REMARK  status: ('A' for Active; 'I' for Inactive)
REMARK    1  A    between atoms: C7_7  and  O9_9 
ROOT
HETATM    1  C1  UNL     1     -43.417   6.038   1.423  1.00 20.00    -0.023 C 
HETATM    2  C2  UNL     1     -42.371   5.228   1.196  1.00 20.00    -0.023 C 
HETATM    3  C3  UNL     1     -43.417   6.863  -0.901  1.00 20.00     0.012 C 
HETATM    4  C4  UNL     1     -42.207   5.924  -1.164  1.00 20.00     0.012 C 
HETATM    5  C5  UNL     1     -43.214   7.274   0.575  1.00 20.00     0.037 C 
HETATM    6  C6  UNL     1     -41.475   5.926   0.199  1.00 20.00     0.037 C 
HETATM    7  C7  UNL     1     -41.686   7.369   0.676  1.00 20.00     0.136 C 
ENDROOT
BRANCH   7   8
HETATM    8  O9  UNL     1     -41.135   8.338  -0.193  1.00 20.00    -0.389 OA
HETATM    9  C8  UNL     1     -41.271   9.657   0.330  1.00 20.00     0.202 C 
ENDBRANCH   7   8
TORSDOF 1
ENDMDL
MODEL 6
REMARK VINA RESULT:      -3.8     17.783     19.223
REMARK  1 active torsions:
REMARK  status: ('A' for Active; 'I' for Inactive)
REMARK    1  A    between atoms: C7_7  and  O9_9 
ROOT
HETATM    1  C1  UNL     1     -35.786  16.055  -3.486  1.00 20.00    -0.023 C 
HETATM    2  C2  UNL     1     -34.700  15.547  -2.881  1.00 20.00    -0.023 C 
HETATM    3  C3  UNL     1     -36.245  13.940  -4.669  1.00 20.00     0.012 C 
HETATM    4  C4  UNL     1     -34.989  13.353  -3.967  1.00 20.00     0.012 C 
HETATM    5  C5  UNL     1     -35.863  15.426  -4.859  1.00 20.00     0.037 C 
HETATM    6  C6  UNL     1     -34.059  14.583  -3.852  1.00 20.00     0.037 C 
HETATM    7  C7  UNL     1     -34.360  15.338  -5.154  1.00 20.00     0.136 C 
ENDROOT
BRANCH   7   8
HETATM    8  O9  UNL     1     -34.069  14.594  -6.320  1.00 20.00    -0.389 OA
HETATM    9  C8  UNL     1     -34.057  15.416  -7.483  1.00 20.00     0.202 C 
ENDBRANCH   7   8
TORSDOF 1
ENDMDL
MODEL 7
REMARK VINA RESULT:      -3.8     16.667     18.221
REMARK  1 active torsions:
REMARK  status: ('A' for Active; 'I' for Inactive)
REMARK    1  A    between atoms: C7_7  and  O9_9 
ROOT
HETATM    1  C1  UNL     1     -33.500  16.495  -2.381  1.00 20.00    -0.023 C 
HETATM    2  C2  UNL     1     -34.762  16.413  -1.931  1.00 20.00    -0.023 C 
HETATM    3  C3  UNL     1     -34.238  16.895  -4.699  1.00 20.00     0.012 C 
HETATM    4  C4  UNL     1     -35.700  16.802  -4.179  1.00 20.00     0.012 C 
HETATM    5  C5  UNL     1     -33.486  15.910  -3.775  1.00 20.00     0.037 C 
HETATM    6  C6  UNL     1     -35.584  15.776  -3.028  1.00 20.00     0.037 C 
HETATM    7  C7  UNL     1     -34.528  14.803  -3.568  1.00 20.00     0.136 C 
ENDROOT
BRANCH   7   8
HETATM    8  O9  UNL     1     -34.906  14.168  -4.772  1.00 20.00    -0.389 OA
HETATM    9  C8  UNL     1     -36.120  13.438  -4.628  1.00 20.00     0.202 C 
ENDBRANCH   7   8
TORSDOF 1
ENDMDL
MODEL 8
REMARK VINA RESULT:      -3.7      1.918      2.729
REMARK  1 active torsions:
REMARK  status: ('A' for Active; 'I' for Inactive)
REMARK    1  A    between atoms: C7_7  and  O9_9 
ROOT
HETATM    1  C1  UNL     1     -22.778  17.799  11.452  1.00 20.00    -0.023 C 
HETATM    2  C2  UNL     1     -23.842  16.985  11.369  1.00 20.00    -0.023 C 
HETATM    3  C3  UNL     1     -23.458  19.067   9.449  1.00 20.00     0.012 C 
HETATM    4  C4  UNL     1     -24.691  18.126   9.354  1.00 20.00     0.012 C 
HETATM    5  C5  UNL     1     -22.369  18.141  10.036  1.00 20.00     0.037 C 
HETATM    6  C6  UNL     1     -24.139  16.788   9.899  1.00 20.00     0.037 C 
HETATM    7  C7  UNL     1     -22.697  16.796   9.374  1.00 20.00     0.136 C 
ENDROOT
BRANCH   7   8
HETATM    8  O9  UNL     1     -22.609  16.840   7.964  1.00 20.00    -0.389 OA
HETATM    9  C8  UNL     1     -21.293  17.163   7.526  1.00 20.00     0.202 C 
ENDBRANCH   7   8
TORSDOF 1
ENDMDL
MODEL 9
REMARK VINA RESULT:      -3.7     16.003     17.636
REMARK  1 active torsions:
REMARK  status: ('A' for Active; 'I' for Inactive)
REMARK    1  A    between atoms: C7_7  and  O9_9 
ROOT
HETATM    1  C1  UNL     1     -34.630  14.399  -3.864  1.00 20.00    -0.023 C 
HETATM    2  C2  UNL     1     -33.387  14.851  -4.094  1.00 20.00    -0.023 C 
HETATM    3  C3  UNL     1     -35.617  16.636  -4.187  1.00 20.00     0.012 C 
HETATM    4  C4  UNL     1     -34.177  17.158  -4.454  1.00 20.00     0.012 C 
HETATM    5  C5  UNL     1     -35.382  15.505  -3.159  1.00 20.00     0.037 C 
HETATM    6  C6  UNL     1     -33.315  16.256  -3.541  1.00 20.00     0.037 C 
HETATM    7  C7  UNL     1     -34.226  16.067  -2.321  1.00 20.00     0.136 C 
ENDROOT
BRANCH   7   8
HETATM    8  O9  UNL     1     -34.555  17.276  -1.667  1.00 20.00    -0.389 OA
HETATM    9  C8  UNL     1     -35.324  17.049  -0.490  1.00 20.00     0.202 C 
ENDBRANCH   7   8
TORSDOF 1
ENDMDL
