MODEL 1
REMARK VINA RESULT:      -2.7      0.000      0.000
REMARK  1 active torsions:
REMARK  status: ('A' for Active; 'I' for Inactive)
REMARK       I    between atoms: C1_1  and  N3_3 
REMARK    1  A    between atoms: C1_1  and  S5_5 
ROOT
HETATM    1  C1  UNL     1     -33.349   5.751   2.988  1.00 20.00     0.276 C 
HETATM    2  C2  UNL     1     -34.981   5.130   4.755  1.00 20.00     0.150 C 
HETATM    3  N3  UNL     1     -34.143   6.081   4.062  1.00 20.00    -0.356 N 
HETATM    4  O4  UNL     1     -33.222   4.653   2.462  1.00 20.00    -0.261 OA
HETATM    5  H9  UNL     1     -34.133   7.041   4.391  1.00 20.00     0.162 HD
ENDROOT
BRANCH   1   6
HETATM    6  S5  UNL     1     -32.474   7.158   2.407  1.00 20.00    -0.082 SA
HETATM    7  H10 UNL     1     -31.723   6.519   1.499  1.00 20.00     0.112 HD
ENDBRANCH   1   6
TORSDOF 1
ENDMDL
MODEL 2
REMARK VINA RESULT:      -2.7      2.035      2.599
REMARK  1 active torsions:
REMARK  status: ('A' for Active; 'I' for Inactive)
REMARK       I    between atoms: C1_1  and  N3_3 
REMARK    1  A    between atoms: C1_1  and  S5_5 
ROOT
HETATM    1  C1  UNL     1     -33.712   5.382   3.271  1.00 20.00     0.276 C 
HETATM    2  C2  UNL     1     -32.336   7.279   2.445  1.00 20.00     0.150 C 
HETATM    3  N3  UNL     1     -33.305   6.695   3.343  1.00 20.00    -0.356 N 
HETATM    4  O4  UNL     1     -33.342   4.529   2.476  1.00 20.00    -0.261 OA
HETATM    5  H9  UNL     1     -33.714   7.287   4.059  1.00 20.00     0.162 HD
ENDROOT
BRANCH   1   6
HETATM    6  S5  UNL     1     -34.895   5.030   4.519  1.00 20.00    -0.082 SA
HETATM    7  H10 UNL     1     -35.043   3.727   4.238  1.00 20.00     0.112 HD
ENDBRANCH   1   6
TORSDOF 1
ENDMDL
MODEL 3
REMARK VINA RESULT:      -2.7      2.771      3.183
REMARK  1 active torsions:
REMARK  status: ('A' for Active; 'I' for Inactive)
REMARK       I    between atoms: C1_1  and  N3_3 
REMARK    1  A    between atoms: C1_1  and  S5_5 
ROOT
HETATM    1  C1  UNL     1     -33.870   6.355   4.473  1.00 20.00     0.276 C 
HETATM    2  C2  UNL     1     -32.277   7.232   2.780  1.00 20.00     0.150 C 
HETATM    3  N3  UNL     1     -33.332   6.343   3.206  1.00 20.00    -0.356 N 
HETATM    4  O4  UNL     1     -33.564   7.084   5.407  1.00 20.00    -0.261 OA
HETATM    5  H9  UNL     1     -33.689   5.666   2.539  1.00 20.00     0.162 HD
ENDROOT
BRANCH   1   6
HETATM    6  S5  UNL     1     -35.126   5.137   4.626  1.00 20.00    -0.082 SA
HETATM    7  H10 UNL     1     -34.921   4.545   3.440  1.00 20.00     0.112 HD
ENDBRANCH   1   6
TORSDOF 1
ENDMDL
MODEL 4
REMARK VINA RESULT:      -2.7     17.117     17.213
REMARK  1 active torsions:
REMARK  status: ('A' for Active; 'I' for Inactive)
REMARK       I    between atoms: C1_1  and  N3_3 
REMARK    1  A    between atoms: C1_1  and  S5_5 
ROOT
HETATM    1  C1  UNL     1     -23.345  17.035  10.926  1.00 20.00     0.276 C 
HETATM    2  C2  UNL     1     -21.928  17.140   8.887  1.00 20.00     0.150 C 
HETATM    3  N3  UNL     1     -22.924  16.513   9.724  1.00 20.00    -0.356 N 
HETATM    4  O4  UNL     1     -22.967  18.067  11.464  1.00 20.00    -0.261 OA
HETATM    5  H9  UNL     1     -23.328  15.635   9.414  1.00 20.00     0.162 HD
ENDROOT
BRANCH   1   6
HETATM    6  S5  UNL     1     -24.560  16.002  11.660  1.00 20.00    -0.082 SA
HETATM    7  H10 UNL     1     -25.175  15.644  10.524  1.00 20.00     0.112 HD
ENDBRANCH   1   6
TORSDOF 1
ENDMDL
MODEL 5
REMARK VINA RESULT:      -2.7     11.677     11.775
REMARK  1 active torsions:
REMARK  status: ('A' for Active; 'I' for Inactive)
REMARK       I    between atoms: C1_1  and  N3_3 
REMARK    1  A    between atoms: C1_1  and  S5_5 
ROOT
HETATM    1  C1  UNL     1     -35.948  13.854  -4.416  1.00 20.00     0.276 C 
HETATM    2  C2  UNL     1     -33.541  14.469  -4.376  1.00 20.00     0.150 C 
HETATM    3  N3  UNL     1     -34.947  14.796  -4.346  1.00 20.00    -0.356 N 
HETATM    4  O4  UNL     1     -35.824  12.640  -4.511  1.00 20.00    -0.261 OA
HETATM    5  H9  UNL     1     -35.211  15.774  -4.280  1.00 20.00     0.162 HD
ENDROOT
BRANCH   1   6
HETATM    6  S5  UNL     1     -37.526  14.619  -4.353  1.00 20.00    -0.082 SA
HETATM    7  H10 UNL     1     -38.163  13.622  -3.721  1.00 20.00     0.112 HD
ENDBRANCH   1   6
TORSDOF 1
ENDMDL
MODEL 6
REMARK VINA RESULT:      -2.6     17.919     17.971
REMARK  1 active torsions:
REMARK  status: ('A' for Active; 'I' for Inactive)
REMARK       I    between atoms: C1_1  and  N3_3 
REMARK    1  A    between atoms: C1_1  and  S5_5 
ROOT
HETATM    1  C1  UNL     1     -22.963  18.835   9.329  1.00 20.00     0.276 C 
HETATM    2  C2  UNL     1     -22.495  17.801  11.540  1.00 20.00     0.150 C 
HETATM    3  N3  UNL     1     -23.391  18.256  10.502  1.00 20.00    -0.356 N 
HETATM    4  O4  UNL     1     -21.810  19.052   8.982  1.00 20.00    -0.261 OA
HETATM    5  H9  UNL     1     -24.390  18.152  10.651  1.00 20.00     0.162 HD
ENDROOT
BRANCH   1   6
HETATM    6  S5  UNL     1     -24.329  19.260   8.313  1.00 20.00    -0.082 SA
HETATM    7  H10 UNL     1     -23.986  18.507   7.257  1.00 20.00     0.112 HD
ENDBRANCH   1   6
TORSDOF 1
ENDMDL
MODEL 7
REMARK VINA RESULT:      -2.6     16.730     16.829
REMARK  1 active torsions:
REMARK  status: ('A' for Active; 'I' for Inactive)
REMARK       I    between atoms: C1_1  and  N3_3 
REMARK    1  A    between atoms: C1_1  and  S5_5 
ROOT
HETATM    1  C1  UNL     1     -23.036  17.224  10.281  1.00 20.00     0.276 C 
HETATM    2  C2  UNL     1     -24.610  15.843  11.619  1.00 20.00     0.150 C 
HETATM    3  N3  UNL     1     -23.887  16.149  10.407  1.00 20.00    -0.356 N 
HETATM    4  O4  UNL     1     -22.760  18.060  11.131  1.00 20.00    -0.261 OA
HETATM    5  H9  UNL     1     -24.021  15.545   9.602  1.00 20.00     0.162 HD
ENDROOT
BRANCH   1   6
HETATM    6  S5  UNL     1     -22.339  17.278   8.671  1.00 20.00    -0.082 SA
HETATM    7  H10 UNL     1     -22.406  18.608   8.511  1.00 20.00     0.112 HD
ENDBRANCH   1   6
TORSDOF 1
ENDMDL
MODEL 8
REMARK VINA RESULT:      -2.6     11.493     11.679
REMARK  1 active torsions:
REMARK  status: ('A' for Active; 'I' for Inactive)
REMARK       I    between atoms: C1_1  and  N3_3 
REMARK    1  A    between atoms: C1_1  and  S5_5 
ROOT
HETATM    1  C1  UNL     1     -35.970  13.965  -4.224  1.00 20.00     0.276 C 
HETATM    2  C2  UNL     1     -38.376  14.581  -4.210  1.00 20.00     0.150 C 
HETATM    3  N3  UNL     1     -36.979  14.868  -3.984  1.00 20.00    -0.356 N 
HETATM    4  O4  UNL     1     -36.076  12.822  -4.650  1.00 20.00    -0.261 OA
HETATM    5  H9  UNL     1     -36.730  15.782  -3.618  1.00 20.00     0.162 HD
ENDROOT
BRANCH   1   6
HETATM    6  S5  UNL     1     -34.407  14.662  -3.833  1.00 20.00    -0.082 SA
HETATM    7  H10 UNL     1     -34.569  14.685  -2.502  1.00 20.00     0.112 HD
ENDBRANCH   1   6
TORSDOF 1
ENDMDL
MODEL 9
REMARK VINA RESULT:      -2.5     17.513     17.646
REMARK  1 active torsions:
REMARK  status: ('A' for Active; 'I' for Inactive)
REMARK       I    between atoms: C1_1  and  N3_3 
REMARK    1  A    between atoms: C1_1  and  S5_5 
ROOT
HETATM    1  C1  UNL     1     -24.932  17.831  11.872  1.00 20.00     0.276 C 
HETATM    2  C2  UNL     1     -22.492  17.757  12.332  1.00 20.00     0.150 C 
HETATM    3  N3  UNL     1     -23.752  18.452  12.213  1.00 20.00    -0.356 N 
HETATM    4  O4  UNL     1     -25.108  16.646  11.624  1.00 20.00    -0.261 OA
HETATM    5  H9  UNL     1     -23.766  19.453  12.380  1.00 20.00     0.162 HD
ENDROOT
BRANCH   1   6
HETATM    6  S5  UNL     1     -26.251  18.989  11.824  1.00 20.00    -0.082 SA
HETATM    7  H10 UNL     1     -25.499  20.095  11.923  1.00 20.00     0.112 HD
ENDBRANCH   1   6
TORSDOF 1
ENDMDL
