MODEL 1
REMARK VINA RESULT:      -5.7      0.000      0.000
REMARK  2 active torsions:
REMARK  status: ('A' for Active; 'I' for Inactive)
REMARK    1  A    between atoms: C2_2  and  C3_3 
REMARK    2  A    between atoms: C3_3  and  O10_10 
ROOT
HETATM    1  C1  UNL     1     -33.742   5.802   3.719  1.00 20.00    -0.074 C 
HETATM    2  C2  UNL     1     -33.113   5.964   2.550  1.00 20.00     0.085 C 
HETATM    3  C4  UNL     1     -34.476   4.557   4.128  1.00 20.00     0.034 C 
HETATM    4  C5  UNL     1     -33.812   6.842   4.802  1.00 20.00     0.034 C 
HETATM    5  C6  UNL     1     -35.246   5.003   5.365  1.00 20.00     0.005 C 
HETATM    6  C7  UNL     1     -34.347   6.058   5.995  1.00 20.00     0.005 C 
ENDROOT
BRANCH   2   7
HETATM    7  C3  UNL     1     -32.423   7.236   2.252  1.00 20.00     0.282 C 
HETATM    8  O9  UNL     1     -31.594   7.774   2.968  1.00 20.00    -0.260 OA
BRANCH   7   9
HETATM    9  O10 UNL     1     -32.880   7.680   1.050  1.00 20.00    -0.323 OA
HETATM   10  C8  UNL     1     -32.864   9.100   0.874  1.00 20.00     0.213 C 
ENDBRANCH   7   9
ENDBRANCH   2   7
TORSDOF 2
ENDMDL
MODEL 2
REMARK VINA RESULT:      -5.1     11.120     11.825
REMARK  2 active torsions:
REMARK  status: ('A' for Active; 'I' for Inactive)
REMARK    1  A    between atoms: C2_2  and  C3_3 
REMARK    2  A    between atoms: C3_3  and  O10_10 
ROOT
HETATM    1  C1  UNL     1     -35.191  15.457  -3.150  1.00 20.00    -0.074 C 
HETATM    2  C2  UNL     1     -36.259  14.722  -3.481  1.00 20.00     0.085 C 
HETATM    3  C4  UNL     1     -35.127  16.386  -1.972  1.00 20.00     0.034 C 
HETATM    4  C5  UNL     1     -33.894  15.465  -3.908  1.00 20.00     0.034 C 
HETATM    5  C6  UNL     1     -33.853  17.181  -2.231  1.00 20.00     0.005 C 
HETATM    6  C7  UNL     1     -32.950  16.196  -2.961  1.00 20.00     0.005 C 
ENDROOT
BRANCH   2   7
HETATM    7  C3  UNL     1     -36.211  13.840  -4.666  1.00 20.00     0.282 C 
HETATM    8  O9  UNL     1     -35.842  12.677  -4.667  1.00 20.00    -0.260 OA
BRANCH   7   9
HETATM    9  O10 UNL     1     -36.650  14.562  -5.733  1.00 20.00    -0.323 OA
HETATM   10  C8  UNL     1     -35.745  14.634  -6.839  1.00 20.00     0.213 C 
ENDBRANCH   7   9
ENDBRANCH   2   7
TORSDOF 2
ENDMDL
MODEL 3
REMARK VINA RESULT:      -5.0     10.962     11.813
REMARK  2 active torsions:
REMARK  status: ('A' for Active; 'I' for Inactive)
REMARK    1  A    between atoms: C2_2  and  C3_3 
REMARK    2  A    between atoms: C3_3  and  O10_10 
ROOT
HETATM    1  C1  UNL     1     -34.466  15.496  -3.872  1.00 20.00    -0.074 C 
HETATM    2  C2  UNL     1     -34.825  14.753  -4.924  1.00 20.00     0.085 C 
HETATM    3  C4  UNL     1     -33.315  16.461  -3.861  1.00 20.00     0.034 C 
HETATM    4  C5  UNL     1     -35.158  15.477  -2.538  1.00 20.00     0.034 C 
HETATM    5  C6  UNL     1     -33.155  16.788  -2.382  1.00 20.00     0.005 C 
HETATM    6  C7  UNL     1     -34.572  16.693  -1.832  1.00 20.00     0.005 C 
ENDROOT
BRANCH   2   7
HETATM    7  C3  UNL     1     -35.977  13.833  -4.821  1.00 20.00     0.282 C 
HETATM    8  O9  UNL     1     -35.929  12.682  -4.419  1.00 20.00    -0.260 OA
BRANCH   7   9
HETATM    9  O10 UNL     1     -37.079  14.506  -5.251  1.00 20.00    -0.323 OA
HETATM   10  C8  UNL     1     -38.157  14.581  -4.313  1.00 20.00     0.213 C 
ENDBRANCH   7   9
ENDBRANCH   2   7
TORSDOF 2
ENDMDL
MODEL 4
REMARK VINA RESULT:      -5.0     10.848     11.656
REMARK  2 active torsions:
REMARK  status: ('A' for Active; 'I' for Inactive)
REMARK    1  A    between atoms: C2_2  and  C3_3 
REMARK    2  A    between atoms: C3_3  and  O10_10 
ROOT
HETATM    1  C1  UNL     1     -33.793  15.934  -3.063  1.00 20.00    -0.074 C 
HETATM    2  C2  UNL     1     -33.406  15.121  -4.051  1.00 20.00     0.085 C 
HETATM    3  C4  UNL     1     -32.980  17.082  -2.534  1.00 20.00     0.034 C 
HETATM    4  C5  UNL     1     -35.099  15.824  -2.328  1.00 20.00     0.034 C 
HETATM    5  C6  UNL     1     -33.713  17.460  -1.253  1.00 20.00     0.005 C 
HETATM    6  C7  UNL     1     -35.169  17.135  -1.556  1.00 20.00     0.005 C 
ENDROOT
BRANCH   2   7
HETATM    7  C3  UNL     1     -34.289  14.020  -4.491  1.00 20.00     0.282 C 
HETATM    8  O9  UNL     1     -34.439  12.959  -3.908  1.00 20.00    -0.260 OA
BRANCH   7   9
HETATM    9  O10 UNL     1     -34.890  14.413  -5.647  1.00 20.00    -0.323 OA
HETATM   10  C8  UNL     1     -34.028  15.030  -6.608  1.00 20.00     0.213 C 
ENDBRANCH   7   9
ENDBRANCH   2   7
TORSDOF 2
ENDMDL
MODEL 5
REMARK VINA RESULT:      -5.0     10.782     11.676
REMARK  2 active torsions:
REMARK  status: ('A' for Active; 'I' for Inactive)
REMARK    1  A    between atoms: C2_2  and  C3_3 
REMARK    2  A    between atoms: C3_3  and  O10_10 
ROOT
HETATM    1  C1  UNL     1     -34.400  15.795  -2.738  1.00 20.00    -0.074 C 
HETATM    2  C2  UNL     1     -34.905  14.713  -3.340  1.00 20.00     0.085 C 
HETATM    3  C4  UNL     1     -35.054  16.520  -1.596  1.00 20.00     0.034 C 
HETATM    4  C5  UNL     1     -33.102  16.452  -3.113  1.00 20.00     0.034 C 
HETATM    5  C6  UNL     1     -34.252  17.813  -1.506  1.00 20.00     0.005 C 
HETATM    6  C7  UNL     1     -32.854  17.407  -1.952  1.00 20.00     0.005 C 
ENDROOT
BRANCH   2   7
HETATM    7  C3  UNL     1     -34.175  14.080  -4.457  1.00 20.00     0.282 C 
HETATM    8  O9  UNL     1     -33.162  13.407  -4.348  1.00 20.00    -0.260 OA
BRANCH   7   9
HETATM    9  O10 UNL     1     -34.836  14.385  -5.606  1.00 20.00    -0.323 OA
HETATM   10  C8  UNL     1     -34.069  15.090  -6.588  1.00 20.00     0.213 C 
ENDBRANCH   7   9
ENDBRANCH   2   7
TORSDOF 2
ENDMDL
MODEL 6
REMARK VINA RESULT:      -4.9     15.450     16.125
REMARK  2 active torsions:
REMARK  status: ('A' for Active; 'I' for Inactive)
REMARK    1  A    between atoms: C2_2  and  C3_3 
REMARK    2  A    between atoms: C3_3  and  O10_10 
ROOT
HETATM    1  C1  UNL     1     -23.935  17.202  10.466  1.00 20.00    -0.074 C 
HETATM    2  C2  UNL     1     -23.077  17.135   9.442  1.00 20.00     0.085 C 
HETATM    3  C4  UNL     1     -24.325  16.036  11.329  1.00 20.00     0.034 C 
HETATM    4  C5  UNL     1     -24.640  18.453  10.908  1.00 20.00     0.034 C 
HETATM    5  C6  UNL     1     -25.522  16.571  12.107  1.00 20.00     0.005 C 
HETATM    6  C7  UNL     1     -25.225  18.056  12.258  1.00 20.00     0.005 C 
ENDROOT
BRANCH   2   7
HETATM    7  C3  UNL     1     -22.766  18.349   8.658  1.00 20.00     0.282 C 
HETATM    8  O9  UNL     1     -22.046  19.262   9.026  1.00 20.00    -0.260 OA
BRANCH   7   9
HETATM    9  O10 UNL     1     -23.424  18.250   7.471  1.00 20.00    -0.323 OA
HETATM   10  C8  UNL     1     -24.508  19.168   7.292  1.00 20.00     0.213 C 
ENDBRANCH   7   9
ENDBRANCH   2   7
TORSDOF 2
ENDMDL
MODEL 7
REMARK VINA RESULT:      -4.9     11.161     11.794
REMARK  2 active torsions:
REMARK  status: ('A' for Active; 'I' for Inactive)
REMARK    1  A    between atoms: C2_2  and  C3_3 
REMARK    2  A    between atoms: C3_3  and  O10_10 
ROOT
HETATM    1  C1  UNL     1     -34.434  15.400  -3.591  1.00 20.00    -0.074 C 
HETATM    2  C2  UNL     1     -34.470  14.471  -4.553  1.00 20.00     0.085 C 
HETATM    3  C4  UNL     1     -33.217  16.200  -3.223  1.00 20.00     0.034 C 
HETATM    4  C5  UNL     1     -35.605  15.783  -2.732  1.00 20.00     0.034 C 
HETATM    5  C6  UNL     1     -33.623  16.854  -1.908  1.00 20.00     0.005 C 
HETATM    6  C7  UNL     1     -35.125  17.058  -2.049  1.00 20.00     0.005 C 
ENDROOT
BRANCH   2   7
HETATM    7  C3  UNL     1     -35.724  13.742  -4.831  1.00 20.00     0.282 C 
HETATM    8  O9  UNL     1     -36.059  12.689  -4.313  1.00 20.00    -0.260 OA
BRANCH   7   9
HETATM    9  O10 UNL     1     -36.420  14.458  -5.755  1.00 20.00    -0.323 OA
HETATM   10  C8  UNL     1     -35.690  14.811  -6.934  1.00 20.00     0.213 C 
ENDBRANCH   7   9
ENDBRANCH   2   7
TORSDOF 2
ENDMDL
MODEL 8
REMARK VINA RESULT:      -4.8     11.185     12.002
REMARK  2 active torsions:
REMARK  status: ('A' for Active; 'I' for Inactive)
REMARK    1  A    between atoms: C2_2  and  C3_3 
REMARK    2  A    between atoms: C3_3  and  O10_10 
ROOT
HETATM    1  C1  UNL     1     -35.185  15.383  -3.387  1.00 20.00    -0.074 C 
HETATM    2  C2  UNL     1     -35.171  14.228  -4.062  1.00 20.00     0.085 C 
HETATM    3  C4  UNL     1     -34.060  15.881  -2.525  1.00 20.00     0.034 C 
HETATM    4  C5  UNL     1     -36.328  16.358  -3.389  1.00 20.00     0.034 C 
HETATM    5  C6  UNL     1     -34.697  17.039  -1.767  1.00 20.00     0.005 C 
HETATM    6  C7  UNL     1     -35.720  17.599  -2.746  1.00 20.00     0.005 C 
ENDROOT
BRANCH   2   7
HETATM    7  C3  UNL     1     -36.337  13.837  -4.881  1.00 20.00     0.282 C 
HETATM    8  O9  UNL     1     -37.459  13.618  -4.455  1.00 20.00    -0.260 OA
BRANCH   7   9
HETATM    9  O10 UNL     1     -35.925  13.771  -6.176  1.00 20.00    -0.323 OA
HETATM   10  C8  UNL     1     -35.842  15.026  -6.859  1.00 20.00     0.213 C 
ENDBRANCH   7   9
ENDBRANCH   2   7
TORSDOF 2
ENDMDL
MODEL 9
REMARK VINA RESULT:      -4.5     11.102     12.230
REMARK  2 active torsions:
REMARK  status: ('A' for Active; 'I' for Inactive)
REMARK    1  A    between atoms: C2_2  and  C3_3 
REMARK    2  A    between atoms: C3_3  and  O10_10 
ROOT
HETATM    1  C1  UNL     1     -33.795  16.807  -2.168  1.00 20.00    -0.074 C 
HETATM    2  C2  UNL     1     -33.413  17.774  -1.327  1.00 20.00     0.085 C 
HETATM    3  C4  UNL     1     -35.099  16.066  -2.081  1.00 20.00     0.034 C 
HETATM    4  C5  UNL     1     -32.978  16.313  -3.328  1.00 20.00     0.034 C 
HETATM    5  C6  UNL     1     -34.897  14.902  -3.043  1.00 20.00     0.005 C 
HETATM    6  C7  UNL     1     -33.974  15.468  -4.113  1.00 20.00     0.005 C 
ENDROOT
BRANCH   2   7
HETATM    7  C3  UNL     1     -32.104  18.436  -1.507  1.00 20.00     0.282 C 
HETATM    8  O9  UNL     1     -31.842  19.263  -2.365  1.00 20.00    -0.260 OA
BRANCH   7   9
HETATM    9  O10 UNL     1     -31.266  17.955  -0.550  1.00 20.00    -0.323 OA
HETATM   10  C8  UNL     1     -31.588  18.330   0.794  1.00 20.00     0.213 C 
ENDBRANCH   7   9
ENDBRANCH   2   7
TORSDOF 2
ENDMDL
