MODEL 1
REMARK VINA RESULT:      -4.7      0.000      0.000
REMARK  4 active torsions:
REMARK  status: ('A' for Active; 'I' for Inactive)
REMARK    1  A    between atoms: C1_1  and  C4_4 
REMARK    2  A    between atoms: C2_2  and  C7_7 
REMARK    3  A    between atoms: C7_7  and  C8_8 
REMARK    4  A    between atoms: C8_8  and  O9_9 
ROOT
HETATM    1  C1  UNL     1     -33.516   6.605   3.741  1.00 20.00    -0.072 C 
HETATM    2  C2  UNL     1     -32.949   7.088   2.799  1.00 20.00    -0.099 C 
ENDROOT
BRANCH   2   3
HETATM    3  C7  UNL     1     -32.254   7.683   1.647  1.00 20.00     0.125 C 
BRANCH   3   4
HETATM    4  C8  UNL     1     -33.155   8.672   0.903  1.00 20.00     0.125 C 
HETATM    5  C6  UNL     1     -33.251   8.323  -0.577  1.00 20.00     0.040 C 
BRANCH   4   6
HETATM    6  O9  UNL     1     -32.601   9.981   1.026  1.00 20.00    -0.395 OA
HETATM    7  H21 UNL     1     -33.281  10.529   1.445  1.00 20.00     0.210 HD
ENDBRANCH   4   6
ENDBRANCH   3   4
ENDBRANCH   2   3
BRANCH   1   8
HETATM    8  C4  UNL     1     -34.192   6.028   4.857  1.00 20.00    -0.018 C 
HETATM    9  C3  UNL     1     -34.110   6.626   6.055  1.00 20.00     0.028 C 
HETATM   10  C5  UNL     1     -34.978   4.765   4.657  1.00 20.00     0.057 C 
ENDBRANCH   1   8
TORSDOF 4
ENDMDL
MODEL 2
REMARK VINA RESULT:      -4.4      2.602      5.222
REMARK  4 active torsions:
REMARK  status: ('A' for Active; 'I' for Inactive)
REMARK    1  A    between atoms: C1_1  and  C4_4 
REMARK    2  A    between atoms: C2_2  and  C7_7 
REMARK    3  A    between atoms: C7_7  and  C8_8 
REMARK    4  A    between atoms: C8_8  and  O9_9 
ROOT
HETATM    1  C1  UNL     1     -32.885   7.143   1.886  1.00 20.00    -0.072 C 
HETATM    2  C2  UNL     1     -33.205   6.290   2.667  1.00 20.00    -0.099 C 
ENDROOT
BRANCH   2   3
HETATM    3  C7  UNL     1     -33.596   5.242   3.623  1.00 20.00     0.125 C 
BRANCH   3   4
HETATM    4  C8  UNL     1     -34.746   5.706   4.519  1.00 20.00     0.125 C 
HETATM    5  C6  UNL     1     -34.226   6.271   5.834  1.00 20.00     0.040 C 
BRANCH   4   6
HETATM    6  O9  UNL     1     -35.586   4.589   4.805  1.00 20.00    -0.395 OA
HETATM    7  H21 UNL     1     -36.169   4.862   5.530  1.00 20.00     0.210 HD
ENDBRANCH   4   6
ENDBRANCH   3   4
ENDBRANCH   2   3
BRANCH   1   8
HETATM    8  C4  UNL     1     -32.508   8.159   0.957  1.00 20.00    -0.018 C 
HETATM    9  C3  UNL     1     -31.631   7.868  -0.015  1.00 20.00     0.028 C 
HETATM   10  C5  UNL     1     -33.108   9.528   1.096  1.00 20.00     0.057 C 
ENDBRANCH   1   8
TORSDOF 4
ENDMDL
MODEL 3
REMARK VINA RESULT:      -4.2     10.394     10.968
REMARK  4 active torsions:
REMARK  status: ('A' for Active; 'I' for Inactive)
REMARK    1  A    between atoms: C1_1  and  C4_4 
REMARK    2  A    between atoms: C2_2  and  C7_7 
REMARK    3  A    between atoms: C7_7  and  C8_8 
REMARK    4  A    between atoms: C8_8  and  O9_9 
ROOT
HETATM    1  C1  UNL     1     -34.413  16.193  -2.223  1.00 20.00    -0.072 C 
HETATM    2  C2  UNL     1     -34.359  15.375  -3.099  1.00 20.00    -0.099 C 
ENDROOT
BRANCH   2   3
HETATM    3  C7  UNL     1     -34.294  14.370  -4.173  1.00 20.00     0.125 C 
BRANCH   3   4
HETATM    4  C8  UNL     1     -34.298  15.030  -5.554  1.00 20.00     0.125 C 
HETATM    5  C6  UNL     1     -35.559  14.672  -6.331  1.00 20.00     0.040 C 
BRANCH   4   6
HETATM    6  O9  UNL     1     -33.166  14.567  -6.288  1.00 20.00    -0.395 OA
HETATM    7  H21 UNL     1     -33.353  14.743  -7.222  1.00 20.00     0.210 HD
ENDBRANCH   4   6
ENDBRANCH   3   4
ENDBRANCH   2   3
BRANCH   1   8
HETATM    8  C4  UNL     1     -34.474  17.166  -1.181  1.00 20.00    -0.018 C 
HETATM    9  C3  UNL     1     -35.565  17.229  -0.404  1.00 20.00     0.028 C 
HETATM   10  C5  UNL     1     -33.310  18.093  -0.984  1.00 20.00     0.057 C 
ENDBRANCH   1   8
TORSDOF 4
ENDMDL
MODEL 4
REMARK VINA RESULT:      -4.1     10.167     10.837
REMARK  4 active torsions:
REMARK  status: ('A' for Active; 'I' for Inactive)
REMARK    1  A    between atoms: C1_1  and  C4_4 
REMARK    2  A    between atoms: C2_2  and  C7_7 
REMARK    3  A    between atoms: C7_7  and  C8_8 
REMARK    4  A    between atoms: C8_8  and  O9_9 
ROOT
HETATM    1  C1  UNL     1     -34.680  15.817  -2.486  1.00 20.00    -0.072 C 
HETATM    2  C2  UNL     1     -34.955  14.933  -3.250  1.00 20.00    -0.099 C 
ENDROOT
BRANCH   2   3
HETATM    3  C7  UNL     1     -35.292  13.848  -4.185  1.00 20.00     0.125 C 
BRANCH   3   4
HETATM    4  C8  UNL     1     -36.646  14.091  -4.855  1.00 20.00     0.125 C 
HETATM    5  C6  UNL     1     -36.682  15.448  -5.547  1.00 20.00     0.040 C 
BRANCH   4   6
HETATM    6  O9  UNL     1     -37.665  14.063  -3.857  1.00 20.00    -0.395 OA
HETATM    7  H21 UNL     1     -37.331  14.580  -3.109  1.00 20.00     0.210 HD
ENDBRANCH   4   6
ENDBRANCH   3   4
ENDBRANCH   2   3
BRANCH   1   8
HETATM    8  C4  UNL     1     -34.351  16.868  -1.579  1.00 20.00    -0.018 C 
HETATM    9  C3  UNL     1     -33.222  17.568  -1.765  1.00 20.00     0.028 C 
HETATM   10  C5  UNL     1     -35.283  17.162  -0.439  1.00 20.00     0.057 C 
ENDBRANCH   1   8
TORSDOF 4
ENDMDL
MODEL 5
REMARK VINA RESULT:      -4.1     10.399     10.716
REMARK  4 active torsions:
REMARK  status: ('A' for Active; 'I' for Inactive)
REMARK    1  A    between atoms: C1_1  and  C4_4 
REMARK    2  A    between atoms: C2_2  and  C7_7 
REMARK    3  A    between atoms: C7_7  and  C8_8 
REMARK    4  A    between atoms: C8_8  and  O9_9 
ROOT
HETATM    1  C1  UNL     1     -34.419  16.032  -2.655  1.00 20.00    -0.072 C 
HETATM    2  C2  UNL     1     -34.497  15.281  -3.589  1.00 20.00    -0.099 C 
ENDROOT
BRANCH   2   3
HETATM    3  C7  UNL     1     -34.593  14.360  -4.732  1.00 20.00     0.125 C 
BRANCH   3   4
HETATM    4  C8  UNL     1     -35.993  13.751  -4.841  1.00 20.00     0.125 C 
HETATM    5  C6  UNL     1     -37.027  14.619  -4.135  1.00 20.00     0.040 C 
BRANCH   4   6
HETATM    6  O9  UNL     1     -35.984  12.464  -4.225  1.00 20.00    -0.395 OA
HETATM    7  H21 UNL     1     -35.826  11.822  -4.933  1.00 20.00     0.210 HD
ENDBRANCH   4   6
ENDBRANCH   3   4
ENDBRANCH   2   3
BRANCH   1   8
HETATM    8  C4  UNL     1     -34.324  16.926  -1.546  1.00 20.00    -0.018 C 
HETATM    9  C3  UNL     1     -35.322  16.971  -0.652  1.00 20.00     0.028 C 
HETATM   10  C5  UNL     1     -33.105  17.790  -1.414  1.00 20.00     0.057 C 
ENDBRANCH   1   8
TORSDOF 4
ENDMDL
MODEL 6
REMARK VINA RESULT:      -4.0     10.423     11.536
REMARK  4 active torsions:
REMARK  status: ('A' for Active; 'I' for Inactive)
REMARK    1  A    between atoms: C1_1  and  C4_4 
REMARK    2  A    between atoms: C2_2  and  C7_7 
REMARK    3  A    between atoms: C7_7  and  C8_8 
REMARK    4  A    between atoms: C8_8  and  O9_9 
ROOT
HETATM    1  C1  UNL     1     -33.360  16.500  -2.846  1.00 20.00    -0.072 C 
HETATM    2  C2  UNL     1     -32.838  17.454  -2.337  1.00 20.00    -0.099 C 
ENDROOT
BRANCH   2   3
HETATM    3  C7  UNL     1     -32.200  18.623  -1.712  1.00 20.00     0.125 C 
BRANCH   3   4
HETATM    4  C8  UNL     1     -31.719  18.304  -0.295  1.00 20.00     0.125 C 
HETATM    5  C6  UNL     1     -32.324  19.263   0.722  1.00 20.00     0.040 C 
BRANCH   4   6
HETATM    6  O9  UNL     1     -30.298  18.434  -0.251  1.00 20.00    -0.395 OA
HETATM    7  H21 UNL     1     -30.058  19.057  -0.954  1.00 20.00     0.210 HD
ENDBRANCH   4   6
ENDBRANCH   3   4
ENDBRANCH   2   3
BRANCH   1   8
HETATM    8  C4  UNL     1     -33.980  15.367  -3.454  1.00 20.00    -0.018 C 
HETATM    9  C3  UNL     1     -35.257  15.080  -3.161  1.00 20.00     0.028 C 
HETATM   10  C5  UNL     1     -33.180  14.528  -4.408  1.00 20.00     0.057 C 
ENDBRANCH   1   8
TORSDOF 4
ENDMDL
MODEL 7
REMARK VINA RESULT:      -4.0     14.861     15.923
REMARK  4 active torsions:
REMARK  status: ('A' for Active; 'I' for Inactive)
REMARK    1  A    between atoms: C1_1  and  C4_4 
REMARK    2  A    between atoms: C2_2  and  C7_7 
REMARK    3  A    between atoms: C7_7  and  C8_8 
REMARK    4  A    between atoms: C8_8  and  O9_9 
ROOT
HETATM    1  C1  UNL     1     -25.082  18.963   7.376  1.00 20.00    -0.072 C 
HETATM    2  C2  UNL     1     -24.180  18.834   8.158  1.00 20.00    -0.099 C 
ENDROOT
BRANCH   2   3
HETATM    3  C7  UNL     1     -23.074  18.678   9.115  1.00 20.00     0.125 C 
BRANCH   3   4
HETATM    4  C8  UNL     1     -23.214  17.385   9.922  1.00 20.00     0.125 C 
HETATM    5  C6  UNL     1     -22.726  17.574  11.353  1.00 20.00     0.040 C 
BRANCH   4   6
HETATM    6  O9  UNL     1     -22.427  16.369   9.304  1.00 20.00    -0.395 OA
HETATM    7  H21 UNL     1     -22.945  16.036   8.556  1.00 20.00     0.210 HD
ENDBRANCH   4   6
ENDBRANCH   3   4
ENDBRANCH   2   3
BRANCH   1   8
HETATM    8  C4  UNL     1     -26.153  19.114   6.446  1.00 20.00    -0.018 C 
HETATM    9  C3  UNL     1     -25.877  19.230   5.138  1.00 20.00     0.028 C 
HETATM   10  C5  UNL     1     -27.563  19.136   6.960  1.00 20.00     0.057 C 
ENDBRANCH   1   8
TORSDOF 4
ENDMDL
MODEL 8
REMARK VINA RESULT:      -4.0     10.836     11.736
REMARK  4 active torsions:
REMARK  status: ('A' for Active; 'I' for Inactive)
REMARK    1  A    between atoms: C1_1  and  C4_4 
REMARK    2  A    between atoms: C2_2  and  C7_7 
REMARK    3  A    between atoms: C7_7  and  C8_8 
REMARK    4  A    between atoms: C8_8  and  O9_9 
ROOT
HETATM    1  C1  UNL     1     -32.965  17.335  -1.874  1.00 20.00    -0.072 C 
HETATM    2  C2  UNL     1     -32.310  18.109  -1.230  1.00 20.00    -0.099 C 
ENDROOT
BRANCH   2   3
HETATM    3  C7  UNL     1     -31.507  19.055  -0.439  1.00 20.00     0.125 C 
BRANCH   3   4
HETATM    4  C8  UNL     1     -30.861  18.366   0.765  1.00 20.00     0.125 C 
HETATM    5  C6  UNL     1     -31.840  18.258   1.927  1.00 20.00     0.040 C 
BRANCH   4   6
HETATM    6  O9  UNL     1     -29.738  19.138   1.188  1.00 20.00    -0.395 OA
HETATM    7  H21 UNL     1     -30.062  20.041   1.328  1.00 20.00     0.210 HD
ENDBRANCH   4   6
ENDBRANCH   3   4
ENDBRANCH   2   3
BRANCH   1   8
HETATM    8  C4  UNL     1     -33.746  16.418  -2.638  1.00 20.00    -0.018 C 
HETATM    9  C3  UNL     1     -33.184  15.786  -3.680  1.00 20.00     0.028 C 
HETATM   10  C5  UNL     1     -35.177  16.185  -2.252  1.00 20.00     0.057 C 
ENDBRANCH   1   8
TORSDOF 4
ENDMDL
MODEL 9
REMARK VINA RESULT:      -3.8     10.158     10.945
REMARK  4 active torsions:
REMARK  status: ('A' for Active; 'I' for Inactive)
REMARK    1  A    between atoms: C1_1  and  C4_4 
REMARK    2  A    between atoms: C2_2  and  C7_7 
REMARK    3  A    between atoms: C7_7  and  C8_8 
REMARK    4  A    between atoms: C8_8  and  O9_9 
ROOT
HETATM    1  C1  UNL     1     -34.409  15.740  -2.724  1.00 20.00    -0.072 C 
HETATM    2  C2  UNL     1     -34.477  16.563  -1.852  1.00 20.00    -0.099 C 
ENDROOT
BRANCH   2   3
HETATM    3  C7  UNL     1     -34.560  17.571  -0.783  1.00 20.00     0.125 C 
BRANCH   3   4
HETATM    4  C8  UNL     1     -35.530  17.135   0.318  1.00 20.00     0.125 C 
HETATM    5  C6  UNL     1     -36.812  17.956   0.278  1.00 20.00     0.040 C 
BRANCH   4   6
HETATM    6  O9  UNL     1     -34.904  17.331   1.585  1.00 20.00    -0.395 OA
HETATM    7  H21 UNL     1     -35.538  17.820   2.131  1.00 20.00     0.210 HD
ENDBRANCH   4   6
ENDBRANCH   3   4
ENDBRANCH   2   3
BRANCH   1   8
HETATM    8  C4  UNL     1     -34.330  14.763  -3.761  1.00 20.00    -0.018 C 
HETATM    9  C3  UNL     1     -33.161  14.563  -4.388  1.00 20.00     0.028 C 
HETATM   10  C5  UNL     1     -35.562  13.984  -4.120  1.00 20.00     0.057 C 
ENDBRANCH   1   8
TORSDOF 4
ENDMDL
