MODEL 1
REMARK VINA RESULT:      -4.3      0.000      0.000
REMARK  2 active torsions:
REMARK  status: ('A' for Active; 'I' for Inactive)
REMARK    1  A    between atoms: C3_3  and  C5_5 
REMARK    2  A    between atoms: C5_5  and  C6_6 
ROOT
HETATM    1  C1  UNL     1     -33.901   4.435   3.779  1.00 20.00     0.202 C 
HETATM    2  C2  UNL     1     -34.773   5.408   4.537  1.00 20.00     0.144 C 
HETATM    3  C3  UNL     1     -33.762   6.489   2.832  1.00 20.00     0.261 C 
HETATM    4  C4  UNL     1     -34.747   5.217   6.037  1.00 20.00     0.042 C 
HETATM    5  O7  UNL     1     -33.692   5.089   2.526  1.00 20.00    -0.359 OA
HETATM    6  O8  UNL     1     -34.215   6.674   4.180  1.00 20.00    -0.354 OA
ENDROOT
BRANCH   3   7
HETATM    7  C5  UNL     1     -32.392   7.122   2.671  1.00 20.00     0.075 C 
BRANCH   7   8
HETATM    8  C6  UNL     1     -32.134   7.673   1.271  1.00 20.00     0.119 C 
HETATM    9 CL9  UNL     1     -33.036   9.175   0.971  1.00 20.00    -0.130 Cl
ENDBRANCH   7   8
ENDBRANCH   3   7
TORSDOF 2
ENDMDL
MODEL 2
REMARK VINA RESULT:      -3.7     10.923     12.254
REMARK  2 active torsions:
REMARK  status: ('A' for Active; 'I' for Inactive)
REMARK    1  A    between atoms: C3_3  and  C5_5 
REMARK    2  A    between atoms: C5_5  and  C6_6 
ROOT
HETATM    1  C1  UNL     1     -38.250  14.820  -4.229  1.00 20.00     0.202 C 
HETATM    2  C2  UNL     1     -37.720  15.800  -5.249  1.00 20.00     0.144 C 
HETATM    3  C3  UNL     1     -36.237  14.117  -4.997  1.00 20.00     0.261 C 
HETATM    4  C4  UNL     1     -37.981  17.250  -4.903  1.00 20.00     0.042 C 
HETATM    5  O7  UNL     1     -37.488  13.639  -4.483  1.00 20.00    -0.359 OA
HETATM    6  O8  UNL     1     -36.318  15.526  -5.250  1.00 20.00    -0.354 OA
ENDROOT
BRANCH   3   7
HETATM    7  C5  UNL     1     -35.131  13.850  -3.993  1.00 20.00     0.075 C 
BRANCH   7   8
HETATM    8  C6  UNL     1     -34.361  15.102  -3.583  1.00 20.00     0.119 C 
HETATM    9 CL9  UNL     1     -35.050  15.861  -2.130  1.00 20.00    -0.130 Cl
ENDBRANCH   7   8
ENDBRANCH   3   7
TORSDOF 2
ENDMDL
MODEL 3
REMARK VINA RESULT:      -3.6     11.052     11.971
REMARK  2 active torsions:
REMARK  status: ('A' for Active; 'I' for Inactive)
REMARK    1  A    between atoms: C3_3  and  C5_5 
REMARK    2  A    between atoms: C5_5  and  C6_6 
ROOT
HETATM    1  C1  UNL     1     -35.909  13.849  -4.372  1.00 20.00     0.202 C 
HETATM    2  C2  UNL     1     -36.064  14.885  -5.459  1.00 20.00     0.144 C 
HETATM    3  C3  UNL     1     -33.904  14.811  -4.805  1.00 20.00     0.261 C 
HETATM    4  C4  UNL     1     -37.335  15.700  -5.357  1.00 20.00     0.042 C 
HETATM    5  O7  UNL     1     -34.506  13.584  -4.368  1.00 20.00    -0.359 OA
HETATM    6  O8  UNL     1     -34.916  15.715  -5.268  1.00 20.00    -0.354 OA
ENDROOT
BRANCH   3   7
HETATM    7  C5  UNL     1     -33.144  15.451  -3.659  1.00 20.00     0.075 C 
BRANCH   7   8
HETATM    8  C6  UNL     1     -33.850  16.662  -3.057  1.00 20.00     0.119 C 
HETATM    9 CL9  UNL     1     -35.018  16.194  -1.800  1.00 20.00    -0.130 Cl
ENDBRANCH   7   8
ENDBRANCH   3   7
TORSDOF 2
ENDMDL
MODEL 4
REMARK VINA RESULT:      -3.5     11.237     12.243
REMARK  2 active torsions:
REMARK  status: ('A' for Active; 'I' for Inactive)
REMARK    1  A    between atoms: C3_3  and  C5_5 
REMARK    2  A    between atoms: C5_5  and  C6_6 
ROOT
HETATM    1  C1  UNL     1     -36.115  13.937  -5.187  1.00 20.00     0.202 C 
HETATM    2  C2  UNL     1     -35.322  14.680  -6.236  1.00 20.00     0.144 C 
HETATM    3  C3  UNL     1     -34.141  14.627  -4.312  1.00 20.00     0.261 C 
HETATM    4  C4  UNL     1     -36.160  15.577  -7.120  1.00 20.00     0.042 C 
HETATM    5  O7  UNL     1     -35.128  13.589  -4.215  1.00 20.00    -0.359 OA
HETATM    6  O8  UNL     1     -34.411  15.454  -5.453  1.00 20.00    -0.354 OA
ENDROOT
BRANCH   3   7
HETATM    7  C5  UNL     1     -34.162  15.479  -3.057  1.00 20.00     0.075 C 
BRANCH   7   8
HETATM    8  C6  UNL     1     -33.150  16.622  -3.077  1.00 20.00     0.119 C 
HETATM    9 CL9  UNL     1     -33.124  17.513  -1.539  1.00 20.00    -0.130 Cl
ENDBRANCH   7   8
ENDBRANCH   3   7
TORSDOF 2
ENDMDL
MODEL 5
REMARK VINA RESULT:      -3.5     11.431     12.607
REMARK  2 active torsions:
REMARK  status: ('A' for Active; 'I' for Inactive)
REMARK    1  A    between atoms: C3_3  and  C5_5 
REMARK    2  A    between atoms: C5_5  and  C6_6 
ROOT
HETATM    1  C1  UNL     1     -36.043  15.836  -5.931  1.00 20.00     0.202 C 
HETATM    2  C2  UNL     1     -35.064  14.829  -6.486  1.00 20.00     0.144 C 
HETATM    3  C3  UNL     1     -35.231  14.549  -4.252  1.00 20.00     0.261 C 
HETATM    4  C4  UNL     1     -34.170  15.377  -7.577  1.00 20.00     0.042 C 
HETATM    5  O7  UNL     1     -36.392  15.289  -4.659  1.00 20.00    -0.359 OA
HETATM    6  O8  UNL     1     -34.295  14.471  -5.336  1.00 20.00    -0.354 OA
ENDROOT
BRANCH   3   7
HETATM    7  C5  UNL     1     -34.572  15.232  -3.068  1.00 20.00     0.075 C 
BRANCH   7   8
HETATM    8  C6  UNL     1     -33.268  15.942  -3.420  1.00 20.00     0.119 C 
HETATM    9 CL9  UNL     1     -32.890  17.246  -2.272  1.00 20.00    -0.130 Cl
ENDBRANCH   7   8
ENDBRANCH   3   7
TORSDOF 2
ENDMDL
MODEL 6
REMARK VINA RESULT:      -3.4     11.396     12.123
REMARK  2 active torsions:
REMARK  status: ('A' for Active; 'I' for Inactive)
REMARK    1  A    between atoms: C3_3  and  C5_5 
REMARK    2  A    between atoms: C5_5  and  C6_6 
ROOT
HETATM    1  C1  UNL     1     -34.280  14.924  -5.542  1.00 20.00     0.202 C 
HETATM    2  C2  UNL     1     -33.901  14.747  -4.090  1.00 20.00     0.144 C 
HETATM    3  C3  UNL     1     -35.960  13.885  -4.431  1.00 20.00     0.261 C 
HETATM    4  C4  UNL     1     -33.164  15.928  -3.499  1.00 20.00     0.042 C 
HETATM    5  O7  UNL     1     -35.339  13.983  -5.721  1.00 20.00    -0.359 OA
HETATM    6  O8  UNL     1     -35.169  14.574  -3.453  1.00 20.00    -0.354 OA
ENDROOT
BRANCH   3   7
HETATM    7  C5  UNL     1     -37.347  14.498  -4.478  1.00 20.00     0.075 C 
BRANCH   7   8
HETATM    8  C6  UNL     1     -37.404  15.926  -3.941  1.00 20.00     0.119 C 
HETATM    9 CL9  UNL     1     -37.116  17.128  -5.219  1.00 20.00    -0.130 Cl
ENDBRANCH   7   8
ENDBRANCH   3   7
TORSDOF 2
ENDMDL
MODEL 7
REMARK VINA RESULT:      -3.3     10.976     11.869
REMARK  2 active torsions:
REMARK  status: ('A' for Active; 'I' for Inactive)
REMARK    1  A    between atoms: C3_3  and  C5_5 
REMARK    2  A    between atoms: C5_5  and  C6_6 
ROOT
HETATM    1  C1  UNL     1     -33.128  14.819  -4.470  1.00 20.00     0.202 C 
HETATM    2  C2  UNL     1     -33.620  15.576  -3.259  1.00 20.00     0.144 C 
HETATM    3  C3  UNL     1     -35.092  13.939  -3.762  1.00 20.00     0.261 C 
HETATM    4  C4  UNL     1     -33.396  17.070  -3.334  1.00 20.00     0.042 C 
HETATM    5  O7  UNL     1     -33.861  13.594  -4.412  1.00 20.00    -0.359 OA
HETATM    6  O8  UNL     1     -35.018  15.276  -3.248  1.00 20.00    -0.354 OA
ENDROOT
BRANCH   3   7
HETATM    7  C5  UNL     1     -36.242  13.843  -4.748  1.00 20.00     0.075 C 
BRANCH   7   8
HETATM    8  C6  UNL     1     -36.842  15.195  -5.120  1.00 20.00     0.119 C 
HETATM    9 CL9  UNL     1     -35.984  15.953  -6.481  1.00 20.00    -0.130 Cl
ENDBRANCH   7   8
ENDBRANCH   3   7
TORSDOF 2
ENDMDL
MODEL 8
REMARK VINA RESULT:      -3.3      9.331      9.934
REMARK  2 active torsions:
REMARK  status: ('A' for Active; 'I' for Inactive)
REMARK    1  A    between atoms: C3_3  and  C5_5 
REMARK    2  A    between atoms: C5_5  and  C6_6 
ROOT
HETATM    1  C1  UNL     1     -41.065   7.252  -1.136  1.00 20.00     0.202 C 
HETATM    2  C2  UNL     1     -41.272   7.765   0.270  1.00 20.00     0.144 C 
HETATM    3  C3  UNL     1     -41.983   5.625   0.147  1.00 20.00     0.261 C 
HETATM    4  C4  UNL     1     -41.748   9.199   0.337  1.00 20.00     0.042 C 
HETATM    5  O7  UNL     1     -41.118   5.834  -0.978  1.00 20.00    -0.359 OA
HETATM    6  O8  UNL     1     -42.268   6.878   0.784  1.00 20.00    -0.354 OA
ENDROOT
BRANCH   3   7
HETATM    7  C5  UNL     1     -43.282   4.987  -0.310  1.00 20.00     0.075 C 
BRANCH   7   8
HETATM    8  C6  UNL     1     -43.417   4.897  -1.827  1.00 20.00     0.119 C 
HETATM    9 CL9  UNL     1     -42.961   3.292  -2.442  1.00 20.00    -0.130 Cl
ENDBRANCH   7   8
ENDBRANCH   3   7
TORSDOF 2
ENDMDL
MODEL 9
REMARK VINA RESULT:      -3.3      2.208      3.936
REMARK  2 active torsions:
REMARK  status: ('A' for Active; 'I' for Inactive)
REMARK    1  A    between atoms: C3_3  and  C5_5 
REMARK    2  A    between atoms: C5_5  and  C6_6 
ROOT
HETATM    1  C1  UNL     1     -33.184   5.628   1.493  1.00 20.00     0.202 C 
HETATM    2  C2  UNL     1     -32.551   6.786   2.227  1.00 20.00     0.144 C 
HETATM    3  C3  UNL     1     -33.498   5.386   3.724  1.00 20.00     0.261 C 
HETATM    4  C4  UNL     1     -32.724   8.121   1.537  1.00 20.00     0.042 C 
HETATM    5  O7  UNL     1     -33.335   4.637   2.510  1.00 20.00    -0.359 OA
HETATM    6  O8  UNL     1     -33.235   6.775   3.482  1.00 20.00    -0.354 OA
ENDROOT
BRANCH   3   7
HETATM    7  C5  UNL     1     -34.914   5.225   4.244  1.00 20.00     0.075 C 
BRANCH   7   8
HETATM    8  C6  UNL     1     -35.020   5.304   5.764  1.00 20.00     0.119 C 
HETATM    9 CL9  UNL     1     -34.199   6.741   6.415  1.00 20.00    -0.130 Cl
ENDBRANCH   7   8
ENDBRANCH   3   7
TORSDOF 2
ENDMDL
