MODEL 1
REMARK VINA RESULT:      -4.6      0.000      0.000
REMARK  0 active torsions:
REMARK  status: ('A' for Active; 'I' for Inactive)
ROOT
HETATM    1  C1  UNL     1     -32.993  15.265  -4.149  1.00 20.00     0.006 C 
HETATM    2  C2  UNL     1     -33.447  16.230  -3.047  1.00 20.00     0.006 C 
HETATM    3  C3  UNL     1     -35.132  13.992  -4.040  1.00 20.00     0.021 C 
HETATM    4  C4  UNL     1     -34.141  14.667  -4.996  1.00 20.00     0.005 C 
HETATM    5  C5  UNL     1     -34.713  15.750  -2.313  1.00 20.00    -0.005 C 
HETATM    6  C6  UNL     1     -35.763  15.151  -3.274  1.00 20.00     0.052 C 
HETATM    7  C7  UNL     1     -34.984  15.680  -5.821  1.00 20.00     0.005 C 
HETATM    8  C8  UNL     1     -35.288  16.866  -1.438  1.00 20.00     0.011 C 
HETATM    9  C9  UNL     1     -35.748  14.969  -6.955  1.00 20.00     0.027 C 
HETATM   10  C10 UNL     1     -34.187  16.836  -6.428  1.00 20.00     0.027 C 
HETATM   11  S11 UNL     1     -36.229  16.308  -4.619  1.00 20.00    -0.154 SA
ENDROOT
TORSDOF 0
ENDMDL
MODEL 2
REMARK VINA RESULT:      -4.3      1.091      3.750
REMARK  0 active torsions:
REMARK  status: ('A' for Active; 'I' for Inactive)
ROOT
HETATM    1  C1  UNL     1     -35.357  13.765  -4.112  1.00 20.00     0.006 C 
HETATM    2  C2  UNL     1     -36.233  14.288  -5.257  1.00 20.00     0.006 C 
HETATM    3  C3  UNL     1     -33.297  14.725  -5.131  1.00 20.00     0.021 C 
HETATM    4  C4  UNL     1     -34.095  14.613  -3.827  1.00 20.00     0.005 C 
HETATM    5  C5  UNL     1     -35.413  14.791  -6.459  1.00 20.00    -0.005 C 
HETATM    6  C6  UNL     1     -34.168  15.597  -6.031  1.00 20.00     0.052 C 
HETATM    7  C7  UNL     1     -34.341  16.076  -3.363  1.00 20.00     0.005 C 
HETATM    8  C8  UNL     1     -36.303  15.563  -7.438  1.00 20.00     0.011 C 
HETATM    9  C9  UNL     1     -33.094  16.653  -2.667  1.00 20.00     0.027 C 
HETATM   10  C10 UNL     1     -35.541  16.262  -2.433  1.00 20.00     0.027 C 
HETATM   11  S11 UNL     1     -34.584  17.007  -4.933  1.00 20.00    -0.154 SA
ENDROOT
TORSDOF 0
ENDMDL
MODEL 3
REMARK VINA RESULT:      -4.3      1.260      3.789
REMARK  0 active torsions:
REMARK  status: ('A' for Active; 'I' for Inactive)
ROOT
HETATM    1  C1  UNL     1     -36.246  14.007  -4.949  1.00 20.00     0.006 C 
HETATM    2  C2  UNL     1     -35.881  14.675  -6.281  1.00 20.00     0.006 C 
HETATM    3  C3  UNL     1     -33.931  14.286  -4.072  1.00 20.00     0.021 C 
HETATM    4  C4  UNL     1     -35.414  14.488  -3.738  1.00 20.00     0.005 C 
HETATM    5  C5  UNL     1     -34.363  14.848  -6.469  1.00 20.00    -0.005 C 
HETATM    6  C6  UNL     1     -33.654  15.303  -5.175  1.00 20.00     0.052 C 
HETATM    7  C7  UNL     1     -35.555  15.989  -3.361  1.00 20.00     0.005 C 
HETATM    8  C8  UNL     1     -34.065  15.769  -7.656  1.00 20.00     0.011 C 
HETATM    9  C9  UNL     1     -35.090  16.242  -1.914  1.00 20.00     0.027 C 
HETATM   10  C10 UNL     1     -36.963  16.563  -3.522  1.00 20.00     0.027 C 
HETATM   11  S11 UNL     1     -34.371  16.844  -4.483  1.00 20.00    -0.154 SA
ENDROOT
TORSDOF 0
ENDMDL
MODEL 4
REMARK VINA RESULT:      -4.1      1.612      3.330
REMARK  0 active torsions:
REMARK  status: ('A' for Active; 'I' for Inactive)
ROOT
HETATM    1  C1  UNL     1     -34.785  16.229  -1.962  1.00 20.00     0.006 C 
HETATM    2  C2  UNL     1     -35.761  15.395  -2.802  1.00 20.00     0.006 C 
HETATM    3  C3  UNL     1     -32.913  15.798  -3.548  1.00 20.00     0.021 C 
HETATM    4  C4  UNL     1     -33.648  16.896  -2.769  1.00 20.00     0.005 C 
HETATM    5  C5  UNL     1     -35.057  14.559  -3.886  1.00 20.00    -0.005 C 
HETATM    6  C6  UNL     1     -33.925  15.337  -4.592  1.00 20.00     0.052 C 
HETATM    7  C7  UNL     1     -34.083  17.940  -3.834  1.00 20.00     0.005 C 
HETATM    8  C8  UNL     1     -36.076  13.983  -4.873  1.00 20.00     0.011 C 
HETATM    9  C9  UNL     1     -32.909  18.860  -4.220  1.00 20.00     0.027 C 
HETATM   10  C10 UNL     1     -35.268  18.817  -3.427  1.00 20.00     0.027 C 
HETATM   11  S11 UNL     1     -34.503  16.923  -5.311  1.00 20.00    -0.154 SA
ENDROOT
TORSDOF 0
ENDMDL
MODEL 5
REMARK VINA RESULT:      -4.1      1.919      3.065
REMARK  0 active torsions:
REMARK  status: ('A' for Active; 'I' for Inactive)
ROOT
HETATM    1  C1  UNL     1     -34.027  15.541  -3.091  1.00 20.00     0.006 C 
HETATM    2  C2  UNL     1     -32.942  16.625  -3.046  1.00 20.00     0.006 C 
HETATM    3  C3  UNL     1     -35.305  16.619  -1.244  1.00 20.00     0.021 C 
HETATM    4  C4  UNL     1     -35.430  16.016  -2.648  1.00 20.00     0.005 C 
HETATM    5  C5  UNL     1     -33.042  17.523  -1.800  1.00 20.00    -0.005 C 
HETATM    6  C6  UNL     1     -34.500  17.898  -1.455  1.00 20.00     0.052 C 
HETATM    7  C7  UNL     1     -36.087  17.123  -3.519  1.00 20.00     0.005 C 
HETATM    8  C8  UNL     1     -32.139  18.752  -1.944  1.00 20.00     0.011 C 
HETATM    9  C9  UNL     1     -37.610  17.173  -3.295  1.00 20.00     0.027 C 
HETATM   10  C10 UNL     1     -35.824  17.000  -5.020  1.00 20.00     0.027 C 
HETATM   11  S11 UNL     1     -35.375  18.689  -2.860  1.00 20.00    -0.154 SA
ENDROOT
TORSDOF 0
ENDMDL
MODEL 6
REMARK VINA RESULT:      -4.0      1.654      2.759
REMARK  0 active torsions:
REMARK  status: ('A' for Active; 'I' for Inactive)
ROOT
HETATM    1  C1  UNL     1     -33.984  16.351  -2.247  1.00 20.00     0.006 C 
HETATM    2  C2  UNL     1     -33.397  17.461  -3.128  1.00 20.00     0.006 C 
HETATM    3  C3  UNL     1     -36.256  16.655  -3.223  1.00 20.00     0.021 C 
HETATM    4  C4  UNL     1     -35.193  15.610  -2.863  1.00 20.00     0.005 C 
HETATM    5  C5  UNL     1     -34.477  18.301  -3.835  1.00 20.00    -0.005 C 
HETATM    6  C6  UNL     1     -35.638  17.438  -4.377  1.00 20.00     0.052 C 
HETATM    7  C7  UNL     1     -34.920  14.826  -4.177  1.00 20.00     0.005 C 
HETATM    8  C8  UNL     1     -33.853  19.189  -4.915  1.00 20.00     0.011 C 
HETATM    9  C9  UNL     1     -36.015  13.773  -4.431  1.00 20.00     0.027 C 
HETATM   10  C10 UNL     1     -33.559  14.132  -4.241  1.00 20.00     0.027 C 
HETATM   11  S11 UNL     1     -35.061  16.104  -5.496  1.00 20.00    -0.154 SA
ENDROOT
TORSDOF 0
ENDMDL
MODEL 7
REMARK VINA RESULT:      -3.9      1.383      3.502
REMARK  0 active torsions:
REMARK  status: ('A' for Active; 'I' for Inactive)
ROOT
HETATM    1  C1  UNL     1     -33.212  15.734  -3.555  1.00 20.00     0.006 C 
HETATM    2  C2  UNL     1     -34.203  14.573  -3.710  1.00 20.00     0.006 C 
HETATM    3  C3  UNL     1     -34.526  17.178  -5.103  1.00 20.00     0.021 C 
HETATM    4  C4  UNL     1     -33.833  17.139  -3.736  1.00 20.00     0.005 C 
HETATM    5  C5  UNL     1     -35.196  14.781  -4.867  1.00 20.00    -0.005 C 
HETATM    6  C6  UNL     1     -35.714  16.234  -4.948  1.00 20.00     0.052 C 
HETATM    7  C7  UNL     1     -34.923  17.545  -2.705  1.00 20.00     0.005 C 
HETATM    8  C8  UNL     1     -36.332  13.757  -4.798  1.00 20.00     0.011 C 
HETATM    9  C9  UNL     1     -35.116  19.073  -2.677  1.00 20.00     0.027 C 
HETATM   10  C10 UNL     1     -34.668  17.065  -1.276  1.00 20.00     0.027 C 
HETATM   11  S11 UNL     1     -36.469  16.801  -3.375  1.00 20.00    -0.154 SA
ENDROOT
TORSDOF 0
ENDMDL
MODEL 8
REMARK VINA RESULT:      -3.9      1.761      3.604
REMARK  0 active torsions:
REMARK  status: ('A' for Active; 'I' for Inactive)
ROOT
HETATM    1  C1  UNL     1     -37.100  14.426  -4.213  1.00 20.00     0.006 C 
HETATM    2  C2  UNL     1     -37.736  15.778  -4.558  1.00 20.00     0.006 C 
HETATM    3  C3  UNL     1     -35.654  14.487  -6.240  1.00 20.00     0.021 C 
HETATM    4  C4  UNL     1     -35.653  14.244  -4.726  1.00 20.00     0.005 C 
HETATM    5  C5  UNL     1     -37.412  16.246  -5.989  1.00 20.00    -0.005 C 
HETATM    6  C6  UNL     1     -35.943  15.978  -6.381  1.00 20.00     0.052 C 
HETATM    7  C7  UNL     1     -34.592  15.222  -4.149  1.00 20.00     0.005 C 
HETATM    8  C8  UNL     1     -37.814  17.710  -6.185  1.00 20.00     0.011 C 
HETATM    9  C9  UNL     1     -33.167  14.669  -4.341  1.00 20.00     0.027 C 
HETATM   10  C10 UNL     1     -34.778  15.574  -2.673  1.00 20.00     0.027 C 
HETATM   11  S11 UNL     1     -34.752  16.725  -5.202  1.00 20.00    -0.154 SA
ENDROOT
TORSDOF 0
ENDMDL
MODEL 9
REMARK VINA RESULT:      -3.9      1.733      2.971
REMARK  0 active torsions:
REMARK  status: ('A' for Active; 'I' for Inactive)
ROOT
HETATM    1  C1  UNL     1     -35.453  16.494  -1.694  1.00 20.00     0.006 C 
HETATM    2  C2  UNL     1     -36.107  17.736  -2.313  1.00 20.00     0.006 C 
HETATM    3  C3  UNL     1     -36.115  15.072  -3.630  1.00 20.00     0.021 C 
HETATM    4  C4  UNL     1     -34.942  15.456  -2.720  1.00 20.00     0.005 C 
HETATM    5  C5  UNL     1     -37.008  17.404  -3.516  1.00 20.00    -0.005 C 
HETATM    6  C6  UNL     1     -36.389  16.334  -4.442  1.00 20.00     0.052 C 
HETATM    7  C7  UNL     1     -33.814  15.935  -3.676  1.00 20.00     0.005 C 
HETATM    8  C8  UNL     1     -37.396  18.678  -4.271  1.00 20.00     0.011 C 
HETATM    9  C9  UNL     1     -33.070  14.738  -4.298  1.00 20.00     0.027 C 
HETATM   10  C10 UNL     1     -32.781  16.864  -3.037  1.00 20.00     0.027 C 
HETATM   11  S11 UNL     1     -34.714  16.797  -5.032  1.00 20.00    -0.154 SA
ENDROOT
TORSDOF 0
ENDMDL
