MODEL 1
REMARK VINA RESULT:      -4.5      0.000      0.000
REMARK  1 active torsions:
REMARK  status: ('A' for Active; 'I' for Inactive)
REMARK    1  A    between atoms: C5_5  and  C10_10 
ROOT
HETATM    1  C1  UNL     1     -24.590  18.195   9.352  1.00 20.00    -0.018 C 
HETATM    2  C2  UNL     1     -23.383  18.599   8.932  1.00 20.00    -0.025 C 
HETATM    3  C3  UNL     1     -23.527  16.993  11.265  1.00 20.00     0.135 C 
HETATM    4  C4  UNL     1     -22.366  17.955  11.145  1.00 20.00     0.087 C 
HETATM    5  C5  UNL     1     -24.838  17.396  10.598  1.00 20.00     0.081 C 
HETATM    6  C6  UNL     1     -22.107  18.327   9.682  1.00 20.00     0.010 C 
HETATM    7  C7  UNL     1     -21.303  17.242   8.963  1.00 20.00     0.014 C 
HETATM    8  O11 UNL     1     -23.446  15.974  11.952  1.00 20.00    -0.297 OA
ENDROOT
BRANCH   5   9
HETATM    9  C10 UNL     1     -25.701  18.166  11.590  1.00 20.00    -0.008 C 
HETATM   10  C8  UNL     1     -26.493  19.263  10.878  1.00 20.00     0.010 C 
HETATM   11  C9  UNL     1     -26.646  17.221  12.332  1.00 20.00     0.010 C 
ENDBRANCH   5   9
TORSDOF 1
ENDMDL
MODEL 2
REMARK VINA RESULT:      -4.5     17.595     18.667
REMARK  1 active torsions:
REMARK  status: ('A' for Active; 'I' for Inactive)
REMARK    1  A    between atoms: C5_5  and  C10_10 
ROOT
HETATM    1  C1  UNL     1     -35.687  16.687  -4.323  1.00 20.00    -0.018 C 
HETATM    2  C2  UNL     1     -35.397  16.803  -5.627  1.00 20.00    -0.025 C 
HETATM    3  C3  UNL     1     -34.685  14.400  -4.300  1.00 20.00     0.135 C 
HETATM    4  C4  UNL     1     -33.850  14.820  -5.489  1.00 20.00     0.087 C 
HETATM    5  C5  UNL     1     -35.322  15.508  -3.469  1.00 20.00     0.081 C 
HETATM    6  C6  UNL     1     -34.631  15.768  -6.404  1.00 20.00     0.010 C 
HETATM    7  C7  UNL     1     -35.581  14.999  -7.325  1.00 20.00     0.014 C 
HETATM    8  O11 UNL     1     -34.769  13.218  -3.963  1.00 20.00    -0.297 OA
ENDROOT
BRANCH   5   9
HETATM    9  C10 UNL     1     -34.377  15.909  -2.343  1.00 20.00    -0.008 C 
HETATM   10  C8  UNL     1     -33.212  16.737  -2.884  1.00 20.00     0.010 C 
HETATM   11  C9  UNL     1     -35.126  16.686  -1.260  1.00 20.00     0.010 C 
ENDBRANCH   5   9
TORSDOF 1
ENDMDL
MODEL 3
REMARK VINA RESULT:      -4.4     18.169     19.430
REMARK  1 active torsions:
REMARK  status: ('A' for Active; 'I' for Inactive)
REMARK    1  A    between atoms: C5_5  and  C10_10 
ROOT
HETATM    1  C1  UNL     1     -35.745  15.905  -3.064  1.00 20.00    -0.018 C 
HETATM    2  C2  UNL     1     -36.876  16.339  -3.639  1.00 20.00    -0.025 C 
HETATM    3  C3  UNL     1     -35.862  13.805  -4.409  1.00 20.00     0.135 C 
HETATM    4  C4  UNL     1     -36.681  14.572  -5.424  1.00 20.00     0.087 C 
HETATM    5  C5  UNL     1     -35.051  14.620  -3.408  1.00 20.00     0.081 C 
HETATM    6  C6  UNL     1     -37.588  15.597  -4.738  1.00 20.00     0.010 C 
HETATM    7  C7  UNL     1     -38.856  14.942  -4.187  1.00 20.00     0.014 C 
HETATM    8  O11 UNL     1     -35.779  12.577  -4.451  1.00 20.00    -0.297 OA
ENDROOT
BRANCH   5   9
HETATM    9  C10 UNL     1     -33.656  14.874  -3.966  1.00 20.00    -0.008 C 
HETATM   10  C8  UNL     1     -33.695  14.982  -5.490  1.00 20.00     0.010 C 
HETATM   11  C9  UNL     1     -33.052  16.139  -3.357  1.00 20.00     0.010 C 
ENDBRANCH   5   9
TORSDOF 1
ENDMDL
MODEL 4
REMARK VINA RESULT:      -4.3     16.669     17.869
REMARK  1 active torsions:
REMARK  status: ('A' for Active; 'I' for Inactive)
REMARK    1  A    between atoms: C5_5  and  C10_10 
ROOT
HETATM    1  C1  UNL     1     -35.101  16.078  -2.521  1.00 20.00    -0.018 C 
HETATM    2  C2  UNL     1     -36.077  15.620  -3.319  1.00 20.00    -0.025 C 
HETATM    3  C3  UNL     1     -33.385  15.171  -4.092  1.00 20.00     0.135 C 
HETATM    4  C4  UNL     1     -34.423  15.270  -5.188  1.00 20.00     0.087 C 
HETATM    5  C5  UNL     1     -33.634  15.974  -2.820  1.00 20.00     0.081 C 
HETATM    6  C6  UNL     1     -35.824  14.963  -4.649  1.00 20.00     0.010 C 
HETATM    7  C7  UNL     1     -36.063  13.456  -4.538  1.00 20.00     0.014 C 
HETATM    8  O11 UNL     1     -32.338  14.544  -4.257  1.00 20.00    -0.297 OA
ENDROOT
BRANCH   5   9
HETATM    9  C10 UNL     1     -32.995  17.352  -2.953  1.00 20.00    -0.008 C 
HETATM   10  C8  UNL     1     -33.997  18.359  -3.515  1.00 20.00     0.010 C 
HETATM   11  C9  UNL     1     -32.457  17.830  -1.605  1.00 20.00     0.010 C 
ENDBRANCH   5   9
TORSDOF 1
ENDMDL
MODEL 5
REMARK VINA RESULT:      -4.2     17.031     18.157
REMARK  1 active torsions:
REMARK  status: ('A' for Active; 'I' for Inactive)
REMARK    1  A    between atoms: C5_5  and  C10_10 
ROOT
HETATM    1  C1  UNL     1     -33.255  15.405  -3.679  1.00 20.00    -0.018 C 
HETATM    2  C2  UNL     1     -33.788  14.621  -4.627  1.00 20.00    -0.025 C 
HETATM    3  C3  UNL     1     -34.149  17.426  -4.844  1.00 20.00     0.135 C 
HETATM    4  C4  UNL     1     -35.207  16.532  -5.452  1.00 20.00     0.087 C 
HETATM    5  C5  UNL     1     -33.410  16.897  -3.619  1.00 20.00     0.081 C 
HETATM    6  C6  UNL     1     -34.647  15.138  -5.749  1.00 20.00     0.010 C 
HETATM    7  C7  UNL     1     -33.857  15.120  -7.059  1.00 20.00     0.014 C 
HETATM    8  O11 UNL     1     -33.959  18.568  -5.262  1.00 20.00    -0.297 OA
ENDROOT
BRANCH   5   9
HETATM    9  C10 UNL     1     -34.141  17.330  -2.355  1.00 20.00    -0.008 C 
HETATM   10  C8  UNL     1     -34.987  16.183  -1.801  1.00 20.00     0.010 C 
HETATM   11  C9  UNL     1     -33.152  17.821  -1.299  1.00 20.00     0.010 C 
ENDBRANCH   5   9
TORSDOF 1
ENDMDL
MODEL 6
REMARK VINA RESULT:      -4.1     16.256     17.503
REMARK  1 active torsions:
REMARK  status: ('A' for Active; 'I' for Inactive)
REMARK    1  A    between atoms: C5_5  and  C10_10 
ROOT
HETATM    1  C1  UNL     1     -35.383  16.070  -2.588  1.00 20.00    -0.018 C 
HETATM    2  C2  UNL     1     -35.087  16.549  -1.372  1.00 20.00    -0.025 C 
HETATM    3  C3  UNL     1     -33.564  17.463  -3.583  1.00 20.00     0.135 C 
HETATM    4  C4  UNL     1     -32.895  17.448  -2.227  1.00 20.00     0.087 C 
HETATM    5  C5  UNL     1     -34.633  16.407  -3.845  1.00 20.00     0.081 C 
HETATM    6  C6  UNL     1     -33.931  17.473  -1.100  1.00 20.00     0.010 C 
HETATM    7  C7  UNL     1     -34.448  18.891  -0.847  1.00 20.00     0.014 C 
HETATM    8  O11 UNL     1     -33.196  18.233  -4.471  1.00 20.00    -0.297 OA
ENDROOT
BRANCH   5   9
HETATM    9  C10 UNL     1     -33.990  15.168  -4.457  1.00 20.00    -0.008 C 
HETATM   10  C8  UNL     1     -34.626  13.897  -3.897  1.00 20.00     0.010 C 
HETATM   11  C9  UNL     1     -34.105  15.197  -5.981  1.00 20.00     0.010 C 
ENDBRANCH   5   9
TORSDOF 1
ENDMDL
MODEL 7
REMARK VINA RESULT:      -4.1     16.299     17.350
REMARK  1 active torsions:
REMARK  status: ('A' for Active; 'I' for Inactive)
REMARK    1  A    between atoms: C5_5  and  C10_10 
ROOT
HETATM    1  C1  UNL     1     -33.437  16.938  -2.695  1.00 20.00    -0.018 C 
HETATM    2  C2  UNL     1     -32.986  15.894  -3.404  1.00 20.00    -0.025 C 
HETATM    3  C3  UNL     1     -35.789  16.211  -3.115  1.00 20.00     0.135 C 
HETATM    4  C4  UNL     1     -35.257  14.808  -3.308  1.00 20.00     0.087 C 
HETATM    5  C5  UNL     1     -34.884  17.208  -2.400  1.00 20.00     0.081 C 
HETATM    6  C6  UNL     1     -33.880  14.828  -3.978  1.00 20.00     0.010 C 
HETATM    7  C7  UNL     1     -33.998  15.008  -5.493  1.00 20.00     0.014 C 
HETATM    8  O11 UNL     1     -36.940  16.509  -3.437  1.00 20.00    -0.297 OA
ENDROOT
BRANCH   5   9
HETATM    9  C10 UNL     1     -35.163  17.169  -0.902  1.00 20.00    -0.008 C 
HETATM   10  C8  UNL     1     -34.015  17.810  -0.122  1.00 20.00     0.010 C 
HETATM   11  C9  UNL     1     -36.484  17.868  -0.579  1.00 20.00     0.010 C 
ENDBRANCH   5   9
TORSDOF 1
ENDMDL
MODEL 8
REMARK VINA RESULT:      -4.1     17.222     18.294
REMARK  1 active torsions:
REMARK  status: ('A' for Active; 'I' for Inactive)
REMARK    1  A    between atoms: C5_5  and  C10_10 
ROOT
HETATM    1  C1  UNL     1     -34.342  14.953  -3.565  1.00 20.00    -0.018 C 
HETATM    2  C2  UNL     1     -33.247  15.725  -3.516  1.00 20.00    -0.025 C 
HETATM    3  C3  UNL     1     -35.763  16.924  -2.991  1.00 20.00     0.135 C 
HETATM    4  C4  UNL     1     -34.674  17.801  -3.567  1.00 20.00     0.087 C 
HETATM    5  C5  UNL     1     -35.746  15.448  -3.374  1.00 20.00     0.081 C 
HETATM    6  C6  UNL     1     -33.287  17.212  -3.289  1.00 20.00     0.010 C 
HETATM    7  C7  UNL     1     -32.818  17.535  -1.869  1.00 20.00     0.014 C 
HETATM    8  O11 UNL     1     -36.679  17.400  -2.319  1.00 20.00    -0.297 OA
ENDROOT
BRANCH   5   9
HETATM    9  C10 UNL     1     -36.587  15.235  -4.627  1.00 20.00    -0.008 C 
HETATM   10  C8  UNL     1     -35.875  14.297  -5.601  1.00 20.00     0.010 C 
HETATM   11  C9  UNL     1     -37.966  14.683  -4.265  1.00 20.00     0.010 C 
ENDBRANCH   5   9
TORSDOF 1
ENDMDL
MODEL 9
REMARK VINA RESULT:      -4.0     17.627     18.691
REMARK  1 active torsions:
REMARK  status: ('A' for Active; 'I' for Inactive)
REMARK    1  A    between atoms: C5_5  and  C10_10 
ROOT
HETATM    1  C1  UNL     1     -36.092  16.232  -2.915  1.00 20.00    -0.018 C 
HETATM    2  C2  UNL     1     -34.994  16.219  -2.146  1.00 20.00    -0.025 C 
HETATM    3  C3  UNL     1     -34.664  16.122  -4.961  1.00 20.00     0.135 C 
HETATM    4  C4  UNL     1     -33.593  15.481  -4.105  1.00 20.00     0.087 C 
HETATM    5  C5  UNL     1     -36.086  16.124  -4.413  1.00 20.00     0.081 C 
HETATM    6  C6  UNL     1     -33.599  16.062  -2.688  1.00 20.00     0.010 C 
HETATM    7  C7  UNL     1     -32.864  17.402  -2.630  1.00 20.00     0.014 C 
HETATM    8  O11 UNL     1     -34.414  16.539  -6.092  1.00 20.00    -0.297 OA
ENDROOT
BRANCH   5   9
HETATM    9  C10 UNL     1     -36.817  14.872  -4.882  1.00 20.00    -0.008 C 
HETATM   10  C8  UNL     1     -36.050  13.615  -4.476  1.00 20.00     0.010 C 
HETATM   11  C9  UNL     1     -38.239  14.835  -4.323  1.00 20.00     0.010 C 
ENDBRANCH   5   9
TORSDOF 1
ENDMDL
