MODEL 1
REMARK VINA RESULT:      -3.7      0.000      0.000
REMARK  1 active torsions:
REMARK  status: ('A' for Active; 'I' for Inactive)
REMARK    1  A    between atoms: C3_3  and  C4_4 
ROOT
HETATM    1  C1  UNL     1     -23.019  16.900   9.775  1.00 20.00     0.086 C 
HETATM    2  C2  UNL     1     -22.806  17.676  12.111  1.00 20.00     0.050 C 
HETATM    3  C4  UNL     1     -23.765  17.256  10.995  1.00 20.00     0.134 C 
HETATM    4  N5  UNL     1     -22.429  16.625   8.813  1.00 20.00    -0.195 NA
HETATM    5 CL7  UNL     1     -24.602  15.747  11.523  1.00 20.00    -0.102 Cl
ENDROOT
BRANCH   3   6
HETATM    6  C3  UNL     1     -24.845  18.309  10.708  1.00 20.00     0.155 C 
HETATM    7 CL6  UNL     1     -25.751  18.804  12.166  1.00 20.00    -0.127 Cl
ENDBRANCH   3   6
TORSDOF 1
ENDMDL
MODEL 2
REMARK VINA RESULT:      -3.5     22.715     23.330
REMARK  1 active torsions:
REMARK  status: ('A' for Active; 'I' for Inactive)
REMARK    1  A    between atoms: C3_3  and  C4_4 
ROOT
HETATM    1  C1  UNL     1     -41.649   9.086   0.243  1.00 20.00     0.086 C 
HETATM    2  C2  UNL     1     -42.641   7.586  -1.452  1.00 20.00     0.050 C 
HETATM    3  C4  UNL     1     -42.077   7.702  -0.034  1.00 20.00     0.134 C 
HETATM    4  N5  UNL     1     -41.309  10.175   0.457  1.00 20.00    -0.195 NA
HETATM    5 CL7  UNL     1     -43.417   7.356   1.124  1.00 20.00    -0.102 Cl
ENDROOT
BRANCH   3   6
HETATM    6  C3  UNL     1     -40.950   6.698   0.246  1.00 20.00     0.155 C 
HETATM    7 CL6  UNL     1     -40.819   5.423  -1.000  1.00 20.00    -0.127 Cl
ENDBRANCH   3   6
TORSDOF 1
ENDMDL
MODEL 3
REMARK VINA RESULT:      -3.5     18.093     18.565
REMARK  1 active torsions:
REMARK  status: ('A' for Active; 'I' for Inactive)
REMARK    1  A    between atoms: C3_3  and  C4_4 
ROOT
HETATM    1  C1  UNL     1     -35.390  13.842  -4.312  1.00 20.00     0.086 C 
HETATM    2  C2  UNL     1     -35.067  16.144  -5.147  1.00 20.00     0.050 C 
HETATM    3  C4  UNL     1     -34.691  15.118  -4.076  1.00 20.00     0.134 C 
HETATM    4  N5  UNL     1     -35.945  12.839  -4.498  1.00 20.00    -0.195 NA
HETATM    5 CL7  UNL     1     -32.931  14.760  -4.246  1.00 20.00    -0.102 Cl
ENDROOT
BRANCH   3   6
HETATM    6  C3  UNL     1     -34.924  15.632  -2.648  1.00 20.00     0.155 C 
HETATM    7 CL6  UNL     1     -33.655  16.760  -2.090  1.00 20.00    -0.127 Cl
ENDBRANCH   3   6
TORSDOF 1
ENDMDL
MODEL 4
REMARK VINA RESULT:      -3.5     18.716     19.167
REMARK  1 active torsions:
REMARK  status: ('A' for Active; 'I' for Inactive)
REMARK    1  A    between atoms: C3_3  and  C4_4 
ROOT
HETATM    1  C1  UNL     1     -35.323  13.817  -4.351  1.00 20.00     0.086 C 
HETATM    2  C2  UNL     1     -33.011  14.686  -4.275  1.00 20.00     0.050 C 
HETATM    3  C4  UNL     1     -34.499  15.027  -4.177  1.00 20.00     0.134 C 
HETATM    4  N5  UNL     1     -35.970  12.863  -4.492  1.00 20.00    -0.195 NA
HETATM    5 CL7  UNL     1     -34.823  15.612  -2.501  1.00 20.00    -0.102 Cl
ENDROOT
BRANCH   3   6
HETATM    6  C3  UNL     1     -34.922  16.141  -5.146  1.00 20.00     0.155 C 
HETATM    7 CL6  UNL     1     -34.453  15.815  -6.840  1.00 20.00    -0.127 Cl
ENDBRANCH   3   6
TORSDOF 1
ENDMDL
MODEL 5
REMARK VINA RESULT:      -3.4     19.080     19.582
REMARK  1 active torsions:
REMARK  status: ('A' for Active; 'I' for Inactive)
REMARK    1  A    between atoms: C3_3  and  C4_4 
ROOT
HETATM    1  C1  UNL     1     -37.074  14.369  -4.451  1.00 20.00     0.086 C 
HETATM    2  C2  UNL     1     -35.324  15.019  -6.069  1.00 20.00     0.050 C 
HETATM    3  C4  UNL     1     -35.698  14.877  -4.593  1.00 20.00     0.134 C 
HETATM    4  N5  UNL     1     -38.161  13.973  -4.343  1.00 20.00    -0.195 NA
HETATM    5 CL7  UNL     1     -34.628  13.618  -3.869  1.00 20.00    -0.102 Cl
ENDROOT
BRANCH   3   6
HETATM    6  C3  UNL     1     -35.492  16.174  -3.797  1.00 20.00     0.155 C 
HETATM    7 CL6  UNL     1     -34.512  15.945  -2.320  1.00 20.00    -0.127 Cl
ENDBRANCH   3   6
TORSDOF 1
ENDMDL
MODEL 6
REMARK VINA RESULT:      -3.4     18.479     18.896
REMARK  1 active torsions:
REMARK  status: ('A' for Active; 'I' for Inactive)
REMARK    1  A    between atoms: C3_3  and  C4_4 
ROOT
HETATM    1  C1  UNL     1     -35.480  13.862  -4.262  1.00 20.00     0.086 C 
HETATM    2  C2  UNL     1     -33.208  14.833  -4.242  1.00 20.00     0.050 C 
HETATM    3  C4  UNL     1     -34.705  15.104  -4.082  1.00 20.00     0.134 C 
HETATM    4  N5  UNL     1     -36.087  12.883  -4.408  1.00 20.00    -0.195 NA
HETATM    5 CL7  UNL     1     -34.995  15.628  -2.381  1.00 20.00    -0.102 Cl
ENDROOT
BRANCH   3   6
HETATM    6  C3  UNL     1     -35.212  16.222  -5.005  1.00 20.00     0.155 C 
HETATM    7 CL6  UNL     1     -34.151  17.659  -5.017  1.00 20.00    -0.127 Cl
ENDBRANCH   3   6
TORSDOF 1
ENDMDL
MODEL 7
REMARK VINA RESULT:      -3.4     18.887     19.420
REMARK  1 active torsions:
REMARK  status: ('A' for Active; 'I' for Inactive)
REMARK    1  A    between atoms: C3_3  and  C4_4 
ROOT
HETATM    1  C1  UNL     1     -36.590  14.496  -4.338  1.00 20.00     0.086 C 
HETATM    2  C2  UNL     1     -34.973  15.531  -2.783  1.00 20.00     0.050 C 
HETATM    3  C4  UNL     1     -35.451  15.426  -4.233  1.00 20.00     0.134 C 
HETATM    4  N5  UNL     1     -37.484  13.759  -4.419  1.00 20.00    -0.195 NA
HETATM    5 CL7  UNL     1     -36.082  17.042  -4.726  1.00 20.00    -0.102 Cl
ENDROOT
BRANCH   3   6
HETATM    6  C3  UNL     1     -34.325  15.050  -5.208  1.00 20.00     0.155 C 
HETATM    7 CL6  UNL     1     -32.853  14.456  -4.387  1.00 20.00    -0.127 Cl
ENDBRANCH   3   6
TORSDOF 1
ENDMDL
MODEL 8
REMARK VINA RESULT:      -3.3      2.553      2.672
REMARK  1 active torsions:
REMARK  status: ('A' for Active; 'I' for Inactive)
REMARK    1  A    between atoms: C3_3  and  C4_4 
ROOT
HETATM    1  C1  UNL     1     -22.041  17.292   8.042  1.00 20.00     0.086 C 
HETATM    2  C2  UNL     1     -21.540  18.061  10.336  1.00 20.00     0.050 C 
HETATM    3  C4  UNL     1     -22.626  17.830   9.284  1.00 20.00     0.134 C 
HETATM    4  N5  UNL     1     -21.577  16.873   7.064  1.00 20.00    -0.195 NA
HETATM    5 CL7  UNL     1     -23.735  16.550   9.905  1.00 20.00    -0.102 Cl
ENDROOT
BRANCH   3   6
HETATM    6  C3  UNL     1     -23.471  19.083   9.012  1.00 20.00     0.155 C 
HETATM    7 CL6  UNL     1     -24.460  18.957   7.529  1.00 20.00    -0.127 Cl
ENDBRANCH   3   6
TORSDOF 1
ENDMDL
MODEL 9
REMARK VINA RESULT:      -3.3     23.087     23.629
REMARK  1 active torsions:
REMARK  status: ('A' for Active; 'I' for Inactive)
REMARK    1  A    between atoms: C3_3  and  C4_4 
ROOT
HETATM    1  C1  UNL     1     -41.902   8.785   0.215  1.00 20.00     0.086 C 
HETATM    2  C2  UNL     1     -41.165   6.431   0.078  1.00 20.00     0.050 C 
HETATM    3  C4  UNL     1     -42.357   7.390   0.072  1.00 20.00     0.134 C 
HETATM    4  N5  UNL     1     -41.542   9.882   0.333  1.00 20.00    -0.195 NA
HETATM    5 CL7  UNL     1     -43.141   7.287  -1.550  1.00 20.00    -0.102 Cl
ENDROOT
BRANCH   3   6
HETATM    6  C3  UNL     1     -43.417   7.032   1.123  1.00 20.00     0.155 C 
HETATM    7 CL6  UNL     1     -43.198   5.400   1.818  1.00 20.00    -0.127 Cl
ENDBRANCH   3   6
TORSDOF 1
ENDMDL
