MODEL 1
REMARK VINA RESULT:      -4.8      0.000      0.000
REMARK  0 active torsions:
REMARK  status: ('A' for Active; 'I' for Inactive)
ROOT
HETATM    1  C1  UNL     1     -34.913  14.002  -4.034  1.00 20.00     0.130 C 
HETATM    2  C2  UNL     1     -33.679  14.591  -4.675  1.00 20.00     0.079 C 
HETATM    3  C3  UNL     1     -32.945  15.502  -3.700  1.00 20.00     0.016 C 
HETATM    4  C4  UNL     1     -35.107  15.987  -2.483  1.00 20.00     0.020 C 
HETATM    5  C5  UNL     1     -35.864  14.954  -3.331  1.00 20.00     0.052 C 
HETATM    6  C6  UNL     1     -33.839  16.615  -3.111  1.00 20.00    -0.047 C 
HETATM    7  C7  UNL     1     -36.842  15.555  -4.333  1.00 20.00     0.018 C 
HETATM    8  C8  UNL     1     -33.052  17.338  -1.996  1.00 20.00     0.015 C 
HETATM    9  C9  UNL     1     -34.184  17.667  -4.178  1.00 20.00     0.015 C 
HETATM   10  O10 UNL     1     -35.189  12.809  -4.167  1.00 20.00    -0.298 OA
ENDROOT
TORSDOF 0
ENDMDL
MODEL 2
REMARK VINA RESULT:      -4.4      1.672      2.386
REMARK  0 active torsions:
REMARK  status: ('A' for Active; 'I' for Inactive)
ROOT
HETATM    1  C1  UNL     1     -37.243  14.407  -4.493  1.00 20.00     0.130 C 
HETATM    2  C2  UNL     1     -36.081  13.450  -4.605  1.00 20.00     0.079 C 
HETATM    3  C3  UNL     1     -34.872  13.974  -3.843  1.00 20.00     0.016 C 
HETATM    4  C4  UNL     1     -35.664  16.352  -4.168  1.00 20.00     0.020 C 
HETATM    5  C5  UNL     1     -36.980  15.872  -4.796  1.00 20.00     0.052 C 
HETATM    6  C6  UNL     1     -34.450  15.397  -4.268  1.00 20.00    -0.047 C 
HETATM    7  C7  UNL     1     -37.096  16.128  -6.293  1.00 20.00     0.018 C 
HETATM    8  C8  UNL     1     -33.357  15.896  -3.298  1.00 20.00     0.015 C 
HETATM    9  C9  UNL     1     -33.835  15.392  -5.679  1.00 20.00     0.015 C 
HETATM   10  O10 UNL     1     -38.382  13.999  -4.266  1.00 20.00    -0.298 OA
ENDROOT
TORSDOF 0
ENDMDL
MODEL 3
REMARK VINA RESULT:      -4.4      1.499      1.919
REMARK  0 active torsions:
REMARK  status: ('A' for Active; 'I' for Inactive)
ROOT
HETATM    1  C1  UNL     1     -37.171  14.592  -4.313  1.00 20.00     0.130 C 
HETATM    2  C2  UNL     1     -35.793  14.102  -4.688  1.00 20.00     0.079 C 
HETATM    3  C3  UNL     1     -34.755  14.584  -3.684  1.00 20.00     0.016 C 
HETATM    4  C4  UNL     1     -36.184  16.593  -3.129  1.00 20.00     0.020 C 
HETATM    5  C5  UNL     1     -37.333  16.070  -4.002  1.00 20.00     0.052 C 
HETATM    6  C6  UNL     1     -34.756  16.115  -3.489  1.00 20.00    -0.047 C 
HETATM    7  C7  UNL     1     -37.558  16.856  -5.288  1.00 20.00     0.018 C 
HETATM    8  C8  UNL     1     -33.817  16.461  -2.312  1.00 20.00     0.015 C 
HETATM    9  C9  UNL     1     -34.205  16.830  -4.734  1.00 20.00     0.015 C 
HETATM   10  O10 UNL     1     -38.146  13.841  -4.358  1.00 20.00    -0.298 OA
ENDROOT
TORSDOF 0
ENDMDL
MODEL 4
REMARK VINA RESULT:      -4.3      1.825      2.670
REMARK  0 active torsions:
REMARK  status: ('A' for Active; 'I' for Inactive)
ROOT
HETATM    1  C1  UNL     1     -36.437  15.205  -5.262  1.00 20.00     0.130 C 
HETATM    2  C2  UNL     1     -35.995  14.287  -4.148  1.00 20.00     0.079 C 
HETATM    3  C3  UNL     1     -35.094  15.023  -3.166  1.00 20.00     0.016 C 
HETATM    4  C4  UNL     1     -34.355  16.609  -4.990  1.00 20.00     0.020 C 
HETATM    5  C5  UNL     1     -35.367  16.011  -5.977  1.00 20.00     0.052 C 
HETATM    6  C6  UNL     1     -33.876  15.694  -3.837  1.00 20.00    -0.047 C 
HETATM    7  C7  UNL     1     -34.745  15.184  -7.096  1.00 20.00     0.018 C 
HETATM    8  C8  UNL     1     -33.157  16.571  -2.787  1.00 20.00     0.015 C 
HETATM    9  C9  UNL     1     -32.862  14.642  -4.319  1.00 20.00     0.015 C 
HETATM   10  O10 UNL     1     -37.608  15.221  -5.645  1.00 20.00    -0.298 OA
ENDROOT
TORSDOF 0
ENDMDL
MODEL 5
REMARK VINA RESULT:      -4.3      1.357      1.962
REMARK  0 active torsions:
REMARK  status: ('A' for Active; 'I' for Inactive)
ROOT
HETATM    1  C1  UNL     1     -35.616  13.805  -4.478  1.00 20.00     0.130 C 
HETATM    2  C2  UNL     1     -34.440  14.337  -3.694  1.00 20.00     0.079 C 
HETATM    3  C3  UNL     1     -34.835  15.575  -2.901  1.00 20.00     0.016 C 
HETATM    4  C4  UNL     1     -36.644  16.109  -4.582  1.00 20.00     0.020 C 
HETATM    5  C5  UNL     1     -36.399  14.790  -5.327  1.00 20.00     0.052 C 
HETATM    6  C6  UNL     1     -35.459  16.687  -3.772  1.00 20.00    -0.047 C 
HETATM    7  C7  UNL     1     -35.741  14.948  -6.692  1.00 20.00     0.018 C 
HETATM    8  C8  UNL     1     -36.000  17.794  -2.840  1.00 20.00     0.015 C 
HETATM    9  C9  UNL     1     -34.400  17.336  -4.680  1.00 20.00     0.015 C 
HETATM   10  O10 UNL     1     -35.865  12.599  -4.508  1.00 20.00    -0.298 OA
ENDROOT
TORSDOF 0
ENDMDL
MODEL 6
REMARK VINA RESULT:      -4.2      1.181      1.426
REMARK  0 active torsions:
REMARK  status: ('A' for Active; 'I' for Inactive)
ROOT
HETATM    1  C1  UNL     1     -34.074  14.961  -3.767  1.00 20.00     0.130 C 
HETATM    2  C2  UNL     1     -33.078  16.091  -3.869  1.00 20.00     0.079 C 
HETATM    3  C3  UNL     1     -32.946  16.817  -2.537  1.00 20.00     0.016 C 
HETATM    4  C4  UNL     1     -35.302  16.152  -1.909  1.00 20.00     0.020 C 
HETATM    5  C5  UNL     1     -35.430  15.269  -3.158  1.00 20.00     0.052 C 
HETATM    6  C6  UNL     1     -34.294  17.324  -1.980  1.00 20.00    -0.047 C 
HETATM    7  C7  UNL     1     -36.373  15.815  -4.223  1.00 20.00     0.018 C 
HETATM    8  C8  UNL     1     -34.064  17.855  -0.547  1.00 20.00     0.015 C 
HETATM    9  C9  UNL     1     -34.831  18.497  -2.817  1.00 20.00     0.015 C 
HETATM   10  O10 UNL     1     -33.831  13.856  -4.254  1.00 20.00    -0.298 OA
ENDROOT
TORSDOF 0
ENDMDL
MODEL 7
REMARK VINA RESULT:      -4.2      1.532      2.465
REMARK  0 active torsions:
REMARK  status: ('A' for Active; 'I' for Inactive)
ROOT
HETATM    1  C1  UNL     1     -34.470  15.749  -5.535  1.00 20.00     0.130 C 
HETATM    2  C2  UNL     1     -35.210  16.941  -4.977  1.00 20.00     0.079 C 
HETATM    3  C3  UNL     1     -34.341  17.699  -3.983  1.00 20.00     0.016 C 
HETATM    4  C4  UNL     1     -33.064  15.587  -3.443  1.00 20.00     0.020 C 
HETATM    5  C5  UNL     1     -33.796  14.812  -4.548  1.00 20.00     0.052 C 
HETATM    6  C6  UNL     1     -33.796  16.812  -2.843  1.00 20.00    -0.047 C 
HETATM    7  C7  UNL     1     -34.793  13.777  -4.041  1.00 20.00     0.018 C 
HETATM    8  C8  UNL     1     -32.777  17.634  -2.024  1.00 20.00     0.015 C 
HETATM    9  C9  UNL     1     -34.922  16.397  -1.880  1.00 20.00     0.015 C 
HETATM   10  O10 UNL     1     -34.499  15.490  -6.739  1.00 20.00    -0.298 OA
ENDROOT
TORSDOF 0
ENDMDL
MODEL 8
REMARK VINA RESULT:      -4.2      2.508      4.138
REMARK  0 active torsions:
REMARK  status: ('A' for Active; 'I' for Inactive)
ROOT
HETATM    1  C1  UNL     1     -33.598  17.740  -1.172  1.00 20.00     0.130 C 
HETATM    2  C2  UNL     1     -35.060  17.396  -1.319  1.00 20.00     0.079 C 
HETATM    3  C3  UNL     1     -35.232  16.029  -1.965  1.00 20.00     0.016 C 
HETATM    4  C4  UNL     1     -33.012  16.276  -3.145  1.00 20.00     0.020 C 
HETATM    5  C5  UNL     1     -32.711  17.581  -2.394  1.00 20.00     0.052 C 
HETATM    6  C6  UNL     1     -34.502  15.895  -3.318  1.00 20.00    -0.047 C 
HETATM    7  C7  UNL     1     -32.774  18.836  -3.257  1.00 20.00     0.018 C 
HETATM    8  C8  UNL     1     -34.576  14.420  -3.773  1.00 20.00     0.015 C 
HETATM    9  C9  UNL     1     -35.191  16.739  -4.404  1.00 20.00     0.015 C 
HETATM   10  O10 UNL     1     -33.162  18.230  -0.129  1.00 20.00    -0.298 OA
ENDROOT
TORSDOF 0
ENDMDL
MODEL 9
REMARK VINA RESULT:      -4.1      1.752      2.847
REMARK  0 active torsions:
REMARK  status: ('A' for Active; 'I' for Inactive)
ROOT
HETATM    1  C1  UNL     1     -35.092  13.809  -4.297  1.00 20.00     0.130 C 
HETATM    2  C2  UNL     1     -36.236  14.102  -5.238  1.00 20.00     0.079 C 
HETATM    3  C3  UNL     1     -35.796  15.046  -6.348  1.00 20.00     0.016 C 
HETATM    4  C4  UNL     1     -34.018  16.029  -4.845  1.00 20.00     0.020 C 
HETATM    5  C5  UNL     1     -34.309  14.990  -3.752  1.00 20.00     0.052 C 
HETATM    6  C6  UNL     1     -35.170  16.357  -5.824  1.00 20.00    -0.047 C 
HETATM    7  C7  UNL     1     -34.997  15.552  -2.514  1.00 20.00     0.018 C 
HETATM    8  C8  UNL     1     -34.583  17.134  -7.023  1.00 20.00     0.015 C 
HETATM    9  C9  UNL     1     -36.237  17.258  -5.179  1.00 20.00     0.015 C 
HETATM   10  O10 UNL     1     -34.869  12.663  -3.906  1.00 20.00    -0.298 OA
ENDROOT
TORSDOF 0
ENDMDL
