MODEL 1
REMARK VINA RESULT:      -5.1      0.000      0.000
REMARK  2 active torsions:
REMARK  status: ('A' for Active; 'I' for Inactive)
REMARK    1  A    between atoms: C6_6  and  C11_11 
REMARK    2  A    between atoms: C11_11  and  O12_12 
ROOT
HETATM    1  C1  UNL     1     -35.871  16.925  -3.713  1.00 20.00     0.005 C 
HETATM    2  C2  UNL     1     -34.593  17.498  -4.341  1.00 20.00     0.006 C 
HETATM    3  C3  UNL     1     -33.983  16.232  -2.453  1.00 20.00     0.010 C 
HETATM    4  C4  UNL     1     -35.353  15.721  -2.904  1.00 20.00    -0.007 C 
HETATM    5  C5  UNL     1     -33.512  16.499  -3.891  1.00 20.00    -0.006 C 
HETATM    6  C6  UNL     1     -34.941  14.538  -3.819  1.00 20.00     0.026 C 
HETATM    7  C7  UNL     1     -33.692  15.103  -4.579  1.00 20.00    -0.038 C 
HETATM    8  C8  UNL     1     -33.841  15.194  -6.106  1.00 20.00     0.015 C 
HETATM    9  C9  UNL     1     -32.458  14.216  -4.302  1.00 20.00     0.015 C 
ENDROOT
BRANCH   6  10
HETATM   10  C11 UNL     1     -36.073  13.960  -4.657  1.00 20.00     0.119 C 
HETATM   11  C10 UNL     1     -37.438  14.371  -4.124  1.00 20.00     0.040 C 
BRANCH  10  12
HETATM   12  O12 UNL     1     -35.978  12.540  -4.656  1.00 20.00    -0.396 OA
HETATM   13  H32 UNL     1     -35.108  12.319  -5.024  1.00 20.00     0.210 HD
ENDBRANCH  10  12
ENDBRANCH   6  10
TORSDOF 2
ENDMDL
MODEL 2
REMARK VINA RESULT:      -4.8      1.990      3.027
REMARK  2 active torsions:
REMARK  status: ('A' for Active; 'I' for Inactive)
REMARK    1  A    between atoms: C6_6  and  C11_11 
REMARK    2  A    between atoms: C11_11  and  O12_12 
ROOT
HETATM    1  C1  UNL     1     -36.279  16.806  -2.864  1.00 20.00     0.005 C 
HETATM    2  C2  UNL     1     -35.944  18.290  -2.658  1.00 20.00     0.006 C 
HETATM    3  C3  UNL     1     -35.098  17.081  -0.824  1.00 20.00     0.010 C 
HETATM    4  C4  UNL     1     -35.243  16.089  -1.979  1.00 20.00    -0.007 C 
HETATM    5  C5  UNL     1     -34.699  18.238  -1.753  1.00 20.00    -0.006 C 
HETATM    6  C6  UNL     1     -33.818  16.138  -2.592  1.00 20.00     0.026 C 
HETATM    7  C7  UNL     1     -33.456  17.660  -2.513  1.00 20.00    -0.038 C 
HETATM    8  C8  UNL     1     -33.200  18.345  -3.864  1.00 20.00     0.015 C 
HETATM    9  C9  UNL     1     -32.182  17.857  -1.662  1.00 20.00     0.015 C 
ENDROOT
BRANCH   6  10
HETATM   10  C11 UNL     1     -33.686  15.452  -3.945  1.00 20.00     0.119 C 
HETATM   11  C10 UNL     1     -34.519  14.181  -4.019  1.00 20.00     0.040 C 
BRANCH  10  12
HETATM   12  O12 UNL     1     -32.319  15.131  -4.176  1.00 20.00    -0.396 OA
HETATM   13  H32 UNL     1     -32.247  14.873  -5.108  1.00 20.00     0.210 HD
ENDBRANCH  10  12
ENDBRANCH   6  10
TORSDOF 2
ENDMDL
MODEL 3
REMARK VINA RESULT:      -4.7      1.372      3.115
REMARK  2 active torsions:
REMARK  status: ('A' for Active; 'I' for Inactive)
REMARK    1  A    between atoms: C6_6  and  C11_11 
REMARK    2  A    between atoms: C11_11  and  O12_12 
ROOT
HETATM    1  C1  UNL     1     -33.637  16.342  -4.075  1.00 20.00     0.005 C 
HETATM    2  C2  UNL     1     -34.194  15.634  -2.832  1.00 20.00     0.006 C 
HETATM    3  C3  UNL     1     -35.827  17.133  -3.621  1.00 20.00     0.010 C 
HETATM    4  C4  UNL     1     -34.907  16.820  -4.802  1.00 20.00    -0.007 C 
HETATM    5  C5  UNL     1     -35.717  15.714  -3.045  1.00 20.00    -0.006 C 
HETATM    6  C6  UNL     1     -35.673  15.648  -5.471  1.00 20.00     0.026 C 
HETATM    7  C7  UNL     1     -36.179  14.816  -4.243  1.00 20.00    -0.038 C 
HETATM    8  C8  UNL     1     -35.649  13.376  -4.163  1.00 20.00     0.015 C 
HETATM    9  C9  UNL     1     -37.721  14.724  -4.266  1.00 20.00     0.015 C 
ENDROOT
BRANCH   6  10
HETATM   10  C11 UNL     1     -34.888  14.909  -6.547  1.00 20.00     0.119 C 
HETATM   11  C10 UNL     1     -34.225  15.869  -7.523  1.00 20.00     0.040 C 
BRANCH  10  12
HETATM   12  O12 UNL     1     -35.768  14.048  -7.260  1.00 20.00    -0.396 OA
HETATM   13  H32 UNL     1     -35.293  13.761  -8.056  1.00 20.00     0.210 HD
ENDBRANCH  10  12
ENDBRANCH   6  10
TORSDOF 2
ENDMDL
MODEL 4
REMARK VINA RESULT:      -4.7      1.528      2.211
REMARK  2 active torsions:
REMARK  status: ('A' for Active; 'I' for Inactive)
REMARK    1  A    between atoms: C6_6  and  C11_11 
REMARK    2  A    between atoms: C11_11  and  O12_12 
ROOT
HETATM    1  C1  UNL     1     -34.982  15.497  -2.751  1.00 20.00     0.005 C 
HETATM    2  C2  UNL     1     -33.689  16.171  -3.229  1.00 20.00     0.006 C 
HETATM    3  C3  UNL     1     -33.731  13.974  -4.071  1.00 20.00     0.010 C 
HETATM    4  C4  UNL     1     -35.180  14.359  -3.769  1.00 20.00    -0.007 C 
HETATM    5  C5  UNL     1     -33.353  15.394  -4.516  1.00 20.00    -0.006 C 
HETATM    6  C6  UNL     1     -35.640  14.888  -5.153  1.00 20.00     0.026 C 
HETATM    7  C7  UNL     1     -34.390  15.688  -5.654  1.00 20.00    -0.038 C 
HETATM    8  C8  UNL     1     -34.622  17.189  -5.890  1.00 20.00     0.015 C 
HETATM    9  C9  UNL     1     -33.884  15.098  -6.990  1.00 20.00     0.015 C 
ENDROOT
BRANCH   6  10
HETATM   10  C11 UNL     1     -36.980  15.610  -5.142  1.00 20.00     0.119 C 
HETATM   11  C10 UNL     1     -38.008  14.883  -4.289  1.00 20.00     0.040 C 
BRANCH  10  12
HETATM   12  O12 UNL     1     -37.467  15.714  -6.476  1.00 20.00    -0.396 OA
HETATM   13  H32 UNL     1     -36.709  15.957  -7.031  1.00 20.00     0.210 HD
ENDBRANCH  10  12
ENDBRANCH   6  10
TORSDOF 2
ENDMDL
MODEL 5
REMARK VINA RESULT:      -4.6      1.561      2.656
REMARK  2 active torsions:
REMARK  status: ('A' for Active; 'I' for Inactive)
REMARK    1  A    between atoms: C6_6  and  C11_11 
REMARK    2  A    between atoms: C11_11  and  O12_12 
ROOT
HETATM    1  C1  UNL     1     -33.825  17.737  -3.912  1.00 20.00     0.005 C 
HETATM    2  C2  UNL     1     -33.275  16.801  -2.828  1.00 20.00     0.006 C 
HETATM    3  C3  UNL     1     -35.605  16.502  -2.947  1.00 20.00     0.010 C 
HETATM    4  C4  UNL     1     -35.165  17.081  -4.293  1.00 20.00    -0.007 C 
HETATM    5  C5  UNL     1     -34.322  15.674  -2.784  1.00 20.00    -0.006 C 
HETATM    6  C6  UNL     1     -34.965  15.785  -5.122  1.00 20.00     0.026 C 
HETATM    7  C7  UNL     1     -34.297  14.811  -4.092  1.00 20.00    -0.038 C 
HETATM    8  C8  UNL     1     -32.890  14.322  -4.468  1.00 20.00     0.015 C 
HETATM    9  C9  UNL     1     -35.174  13.553  -3.908  1.00 20.00     0.015 C 
ENDROOT
BRANCH   6  10
HETATM   10  C11 UNL     1     -34.262  15.988  -6.457  1.00 20.00     0.119 C 
HETATM   11  C10 UNL     1     -34.771  17.225  -7.182  1.00 20.00     0.040 C 
BRANCH  10  12
HETATM   12  O12 UNL     1     -34.473  14.844  -7.276  1.00 20.00    -0.396 OA
HETATM   13  H32 UNL     1     -35.210  14.351  -6.882  1.00 20.00     0.210 HD
ENDBRANCH  10  12
ENDBRANCH   6  10
TORSDOF 2
ENDMDL
MODEL 6
REMARK VINA RESULT:      -4.5      0.972      1.021
REMARK  2 active torsions:
REMARK  status: ('A' for Active; 'I' for Inactive)
REMARK    1  A    between atoms: C6_6  and  C11_11 
REMARK    2  A    between atoms: C11_11  and  O12_12 
ROOT
HETATM    1  C1  UNL     1     -35.563  17.645  -3.579  1.00 20.00     0.005 C 
HETATM    2  C2  UNL     1     -34.166  17.635  -4.215  1.00 20.00     0.006 C 
HETATM    3  C3  UNL     1     -34.118  16.258  -2.308  1.00 20.00     0.010 C 
HETATM    4  C4  UNL     1     -35.579  16.346  -2.752  1.00 20.00    -0.007 C 
HETATM    5  C5  UNL     1     -33.586  16.287  -3.748  1.00 20.00    -0.006 C 
HETATM    6  C6  UNL     1     -35.692  15.085  -3.649  1.00 20.00     0.026 C 
HETATM    7  C7  UNL     1     -34.326  15.078  -4.416  1.00 20.00    -0.038 C 
HETATM    8  C8  UNL     1     -34.431  15.201  -5.944  1.00 20.00     0.015 C 
HETATM    9  C9  UNL     1     -33.562  13.768  -4.124  1.00 20.00     0.015 C 
ENDROOT
BRANCH   6  10
HETATM   10  C11 UNL     1     -36.967  15.010  -4.479  1.00 20.00     0.119 C 
HETATM   11  C10 UNL     1     -38.075  15.871  -3.893  1.00 20.00     0.040 C 
BRANCH  10  12
HETATM   12  O12 UNL     1     -37.406  13.657  -4.541  1.00 20.00    -0.396 OA
HETATM   13  H32 UNL     1     -36.620  13.103  -4.411  1.00 20.00     0.210 HD
ENDBRANCH  10  12
ENDBRANCH   6  10
TORSDOF 2
ENDMDL
MODEL 7
REMARK VINA RESULT:      -4.4      1.403      2.305
REMARK  2 active torsions:
REMARK  status: ('A' for Active; 'I' for Inactive)
REMARK    1  A    between atoms: C6_6  and  C11_11 
REMARK    2  A    between atoms: C11_11  and  O12_12 
ROOT
HETATM    1  C1  UNL     1     -35.092  15.617  -2.452  1.00 20.00     0.005 C 
HETATM    2  C2  UNL     1     -35.312  17.132  -2.557  1.00 20.00     0.006 C 
HETATM    3  C3  UNL     1     -33.241  16.618  -3.549  1.00 20.00     0.010 C 
HETATM    4  C4  UNL     1     -34.074  15.334  -3.571  1.00 20.00    -0.007 C 
HETATM    5  C5  UNL     1     -34.463  17.518  -3.782  1.00 20.00    -0.006 C 
HETATM    6  C6  UNL     1     -34.717  15.423  -4.981  1.00 20.00     0.026 C 
HETATM    7  C7  UNL     1     -35.070  16.944  -5.108  1.00 20.00    -0.038 C 
HETATM    8  C8  UNL     1     -36.565  17.258  -5.277  1.00 20.00     0.015 C 
HETATM    9  C9  UNL     1     -34.343  17.555  -6.327  1.00 20.00     0.015 C 
ENDROOT
BRANCH   6  10
HETATM   10  C11 UNL     1     -35.832  14.417  -5.233  1.00 20.00     0.119 C 
HETATM   11  C10 UNL     1     -35.701  13.192  -4.340  1.00 20.00     0.040 C 
BRANCH  10  12
HETATM   12  O12 UNL     1     -35.795  14.010  -6.596  1.00 20.00    -0.396 OA
HETATM   13  H32 UNL     1     -36.645  14.268  -6.986  1.00 20.00     0.210 HD
ENDBRANCH  10  12
ENDBRANCH   6  10
TORSDOF 2
ENDMDL
MODEL 8
REMARK VINA RESULT:      -4.4      2.134      3.495
REMARK  2 active torsions:
REMARK  status: ('A' for Active; 'I' for Inactive)
REMARK    1  A    between atoms: C6_6  and  C11_11 
REMARK    2  A    between atoms: C11_11  and  O12_12 
ROOT
HETATM    1  C1  UNL     1     -36.058  14.543  -5.219  1.00 20.00     0.005 C 
HETATM    2  C2  UNL     1     -35.361  13.785  -4.080  1.00 20.00     0.006 C 
HETATM    3  C3  UNL     1     -33.709  14.829  -5.391  1.00 20.00     0.010 C 
HETATM    4  C4  UNL     1     -35.012  15.595  -5.629  1.00 20.00    -0.007 C 
HETATM    5  C5  UNL     1     -34.038  14.555  -3.916  1.00 20.00    -0.006 C 
HETATM    6  C6  UNL     1     -34.884  16.731  -4.579  1.00 20.00     0.026 C 
HETATM    7  C7  UNL     1     -34.274  15.993  -3.339  1.00 20.00    -0.038 C 
HETATM    8  C8  UNL     1     -35.147  16.003  -2.075  1.00 20.00     0.015 C 
HETATM    9  C9  UNL     1     -32.922  16.633  -2.955  1.00 20.00     0.015 C 
ENDROOT
BRANCH   6  10
HETATM   10  C11 UNL     1     -36.156  17.539  -4.363  1.00 20.00     0.119 C 
HETATM   11  C10 UNL     1     -36.868  17.836  -5.673  1.00 20.00     0.040 C 
BRANCH  10  12
HETATM   12  O12 UNL     1     -35.826  18.766  -3.720  1.00 20.00    -0.396 OA
HETATM   13  H32 UNL     1     -34.994  18.616  -3.244  1.00 20.00     0.210 HD
ENDBRANCH  10  12
ENDBRANCH   6  10
TORSDOF 2
ENDMDL
MODEL 9
REMARK VINA RESULT:      -4.4      1.962      2.911
REMARK  2 active torsions:
REMARK  status: ('A' for Active; 'I' for Inactive)
REMARK    1  A    between atoms: C6_6  and  C11_11 
REMARK    2  A    between atoms: C11_11  and  O12_12 
ROOT
HETATM    1  C1  UNL     1     -34.079  15.942  -2.689  1.00 20.00     0.005 C 
HETATM    2  C2  UNL     1     -33.067  15.610  -3.795  1.00 20.00     0.006 C 
HETATM    3  C3  UNL     1     -34.754  13.969  -3.821  1.00 20.00     0.010 C 
HETATM    4  C4  UNL     1     -35.351  15.206  -3.147  1.00 20.00    -0.007 C 
HETATM    5  C5  UNL     1     -33.910  14.801  -4.798  1.00 20.00    -0.006 C 
HETATM    6  C6  UNL     1     -36.025  15.905  -4.358  1.00 20.00     0.026 C 
HETATM    7  C7  UNL     1     -34.982  15.697  -5.507  1.00 20.00    -0.038 C 
HETATM    8  C8  UNL     1     -34.396  16.987  -6.103  1.00 20.00     0.015 C 
HETATM    9  C9  UNL     1     -35.629  14.918  -6.674  1.00 20.00     0.015 C 
ENDROOT
BRANCH   6  10
HETATM   10  C11 UNL     1     -36.499  17.327  -4.085  1.00 20.00     0.119 C 
HETATM   11  C10 UNL     1     -37.050  17.479  -2.676  1.00 20.00     0.040 C 
BRANCH  10  12
HETATM   12  O12 UNL     1     -37.511  17.671  -5.025  1.00 20.00    -0.396 OA
HETATM   13  H32 UNL     1     -37.217  17.335  -5.886  1.00 20.00     0.210 HD
ENDBRANCH  10  12
ENDBRANCH   6  10
TORSDOF 2
ENDMDL
