MODEL 1
REMARK VINA RESULT:      -4.2      0.000      0.000
REMARK  3 active torsions:
REMARK  status: ('A' for Active; 'I' for Inactive)
REMARK    1  A    between atoms: C1_1  and  C4_4 
REMARK    2  A    between atoms: C2_2  and  C7_7 
REMARK    3  A    between atoms: C7_7  and  O8_8 
ROOT
HETATM    1  C1  UNL     1     -35.049  15.537  -2.954  1.00 20.00    -0.070 C 
HETATM    2  C2  UNL     1     -35.536  14.756  -3.728  1.00 20.00    -0.070 C 
ENDROOT
BRANCH   2   3
HETATM    3  C7  UNL     1     -36.130  13.802  -4.671  1.00 20.00     0.193 C 
HETATM    4  C6  UNL     1     -35.924  14.251  -6.109  1.00 20.00     0.053 C 
BRANCH   3   5
HETATM    5  O8  UNL     1     -37.533  13.696  -4.439  1.00 20.00    -0.384 OA
HETATM    6  H18 UNL     1     -37.955  13.651  -5.312  1.00 20.00     0.211 HD
ENDBRANCH   3   5
ENDBRANCH   2   3
BRANCH   1   7
HETATM    7  C4  UNL     1     -34.474  16.468  -2.040  1.00 20.00    -0.018 C 
HETATM    8  C3  UNL     1     -35.176  16.850  -0.963  1.00 20.00     0.028 C 
HETATM    9  C5  UNL     1     -33.095  16.995  -2.310  1.00 20.00     0.057 C 
ENDBRANCH   1   7
TORSDOF 3
ENDMDL
MODEL 2
REMARK VINA RESULT:      -4.1      0.070      1.242
REMARK  3 active torsions:
REMARK  status: ('A' for Active; 'I' for Inactive)
REMARK    1  A    between atoms: C1_1  and  C4_4 
REMARK    2  A    between atoms: C2_2  and  C7_7 
REMARK    3  A    between atoms: C7_7  and  O8_8 
ROOT
HETATM    1  C1  UNL     1     -35.033  15.531  -2.962  1.00 20.00    -0.070 C 
HETATM    2  C2  UNL     1     -35.525  14.753  -3.735  1.00 20.00    -0.070 C 
ENDROOT
BRANCH   2   3
HETATM    3  C7  UNL     1     -36.128  13.803  -4.677  1.00 20.00     0.193 C 
HETATM    4  C6  UNL     1     -35.938  14.261  -6.115  1.00 20.00     0.053 C 
BRANCH   3   5
HETATM    5  O8  UNL     1     -37.527  13.693  -4.431  1.00 20.00    -0.384 OA
HETATM    6  H18 UNL     1     -37.671  12.817  -4.040  1.00 20.00     0.211 HD
ENDBRANCH   3   5
ENDBRANCH   2   3
BRANCH   1   7
HETATM    7  C4  UNL     1     -34.443  16.455  -2.050  1.00 20.00    -0.018 C 
HETATM    8  C3  UNL     1     -33.210  16.922  -2.292  1.00 20.00     0.028 C 
HETATM    9  C5  UNL     1     -35.225  16.880  -0.841  1.00 20.00     0.057 C 
ENDBRANCH   1   7
TORSDOF 3
ENDMDL
MODEL 3
REMARK VINA RESULT:      -4.0      1.416      1.475
REMARK  3 active torsions:
REMARK  status: ('A' for Active; 'I' for Inactive)
REMARK    1  A    between atoms: C1_1  and  C4_4 
REMARK    2  A    between atoms: C2_2  and  C7_7 
REMARK    3  A    between atoms: C7_7  and  O8_8 
ROOT
HETATM    1  C1  UNL     1     -34.503  15.982  -2.515  1.00 20.00    -0.070 C 
HETATM    2  C2  UNL     1     -34.783  15.145  -3.331  1.00 20.00    -0.070 C 
ENDROOT
BRANCH   2   3
HETATM    3  C7  UNL     1     -35.127  14.125  -4.328  1.00 20.00     0.193 C 
HETATM    4  C6  UNL     1     -36.634  13.993  -4.481  1.00 20.00     0.053 C 
BRANCH   3   5
HETATM    5  O8  UNL     1     -34.613  12.858  -3.926  1.00 20.00    -0.384 OA
HETATM    6  H18 UNL     1     -33.939  12.613  -4.581  1.00 20.00     0.211 HD
ENDBRANCH   3   5
ENDBRANCH   2   3
BRANCH   1   7
HETATM    7  C4  UNL     1     -34.164  16.971  -1.545  1.00 20.00    -0.018 C 
HETATM    8  C3  UNL     1     -35.014  17.223  -0.539  1.00 20.00     0.028 C 
HETATM    9  C5  UNL     1     -32.861  17.704  -1.680  1.00 20.00     0.057 C 
ENDBRANCH   1   7
TORSDOF 3
ENDMDL
MODEL 4
REMARK VINA RESULT:      -3.9      0.938      1.663
REMARK  3 active torsions:
REMARK  status: ('A' for Active; 'I' for Inactive)
REMARK    1  A    between atoms: C1_1  and  C4_4 
REMARK    2  A    between atoms: C2_2  and  C7_7 
REMARK    3  A    between atoms: C7_7  and  O8_8 
ROOT
HETATM    1  C1  UNL     1     -34.865  15.656  -2.943  1.00 20.00    -0.070 C 
HETATM    2  C2  UNL     1     -35.413  14.885  -3.686  1.00 20.00    -0.070 C 
ENDROOT
BRANCH   2   3
HETATM    3  C7  UNL     1     -36.084  13.946  -4.592  1.00 20.00     0.193 C 
HETATM    4  C6  UNL     1     -37.593  14.122  -4.545  1.00 20.00     0.053 C 
BRANCH   3   5
HETATM    5  O8  UNL     1     -35.784  12.605  -4.213  1.00 20.00    -0.384 OA
HETATM    6  H18 UNL     1     -35.651  12.109  -5.037  1.00 20.00     0.211 HD
ENDBRANCH   3   5
ENDBRANCH   2   3
BRANCH   1   7
HETATM    7  C4  UNL     1     -34.209  16.568  -2.065  1.00 20.00    -0.018 C 
HETATM    8  C3  UNL     1     -32.970  16.989  -2.360  1.00 20.00     0.028 C 
HETATM    9  C5  UNL     1     -34.927  17.031  -0.831  1.00 20.00     0.057 C 
ENDBRANCH   1   7
TORSDOF 3
ENDMDL
MODEL 5
REMARK VINA RESULT:      -3.9      2.166      2.809
REMARK  3 active torsions:
REMARK  status: ('A' for Active; 'I' for Inactive)
REMARK    1  A    between atoms: C1_1  and  C4_4 
REMARK    2  A    between atoms: C2_2  and  C7_7 
REMARK    3  A    between atoms: C7_7  and  O8_8 
ROOT
HETATM    1  C1  UNL     1     -33.455  16.554  -2.582  1.00 20.00    -0.070 C 
HETATM    2  C2  UNL     1     -33.626  15.710  -3.421  1.00 20.00    -0.070 C 
ENDROOT
BRANCH   2   3
HETATM    3  C7  UNL     1     -33.837  14.677  -4.441  1.00 20.00     0.193 C 
HETATM    4  C6  UNL     1     -35.011  13.781  -4.082  1.00 20.00     0.053 C 
BRANCH   3   5
HETATM    5  O8  UNL     1     -32.676  13.858  -4.554  1.00 20.00    -0.384 OA
HETATM    6  H18 UNL     1     -31.960  14.329  -4.098  1.00 20.00     0.211 HD
ENDBRANCH   3   5
ENDBRANCH   2   3
BRANCH   1   7
HETATM    7  C4  UNL     1     -33.251  17.562  -1.594  1.00 20.00    -0.018 C 
HETATM    8  C3  UNL     1     -32.112  18.271  -1.602  1.00 20.00     0.028 C 
HETATM    9  C5  UNL     1     -34.320  17.800  -0.568  1.00 20.00     0.057 C 
ENDBRANCH   1   7
TORSDOF 3
ENDMDL
MODEL 6
REMARK VINA RESULT:      -3.9     15.514     17.299
REMARK  3 active torsions:
REMARK  status: ('A' for Active; 'I' for Inactive)
REMARK    1  A    between atoms: C1_1  and  C4_4 
REMARK    2  A    between atoms: C2_2  and  C7_7 
REMARK    3  A    between atoms: C7_7  and  O8_8 
ROOT
HETATM    1  C1  UNL     1     -24.065  17.825   9.819  1.00 20.00    -0.070 C 
HETATM    2  C2  UNL     1     -24.277  18.428   8.800  1.00 20.00    -0.070 C 
ENDROOT
BRANCH   2   3
HETATM    3  C7  UNL     1     -24.539  19.163   7.558  1.00 20.00     0.193 C 
HETATM    4  C6  UNL     1     -25.944  18.892   7.046  1.00 20.00     0.053 C 
BRANCH   3   5
HETATM    5  O8  UNL     1     -23.617  18.759   6.549  1.00 20.00    -0.384 OA
HETATM    6  H18 UNL     1     -24.125  18.680   5.726  1.00 20.00     0.211 HD
ENDBRANCH   3   5
ENDBRANCH   2   3
BRANCH   1   7
HETATM    7  C4  UNL     1     -23.806  17.113  11.027  1.00 20.00    -0.018 C 
HETATM    8  C3  UNL     1     -24.527  16.019  11.313  1.00 20.00     0.028 C 
HETATM    9  C5  UNL     1     -22.729  17.611  11.947  1.00 20.00     0.057 C 
ENDBRANCH   1   7
TORSDOF 3
ENDMDL
MODEL 7
REMARK VINA RESULT:      -3.8     10.702     11.088
REMARK  3 active torsions:
REMARK  status: ('A' for Active; 'I' for Inactive)
REMARK    1  A    between atoms: C1_1  and  C4_4 
REMARK    2  A    between atoms: C2_2  and  C7_7 
REMARK    3  A    between atoms: C7_7  and  O8_8 
ROOT
HETATM    1  C1  UNL     1     -33.430   6.776   3.438  1.00 20.00    -0.070 C 
HETATM    2  C2  UNL     1     -32.880   7.389   2.562  1.00 20.00    -0.070 C 
ENDROOT
BRANCH   2   3
HETATM    3  C7  UNL     1     -32.207   8.136   1.494  1.00 20.00     0.193 C 
HETATM    4  C6  UNL     1     -33.119   9.204   0.912  1.00 20.00     0.053 C 
BRANCH   3   5
HETATM    5  O8  UNL     1     -31.836   7.251   0.440  1.00 20.00    -0.384 OA
HETATM    6  H18 UNL     1     -32.176   6.375   0.681  1.00 20.00     0.211 HD
ENDBRANCH   3   5
ENDBRANCH   2   3
BRANCH   1   7
HETATM    7  C4  UNL     1     -34.089   6.052   4.474  1.00 20.00    -0.018 C 
HETATM    8  C3  UNL     1     -34.735   4.915   4.174  1.00 20.00     0.028 C 
HETATM    9  C5  UNL     1     -34.041   6.584   5.877  1.00 20.00     0.057 C 
ENDBRANCH   1   7
TORSDOF 3
ENDMDL
MODEL 8
REMARK VINA RESULT:      -3.7      2.150      2.274
REMARK  3 active torsions:
REMARK  status: ('A' for Active; 'I' for Inactive)
REMARK    1  A    between atoms: C1_1  and  C4_4 
REMARK    2  A    between atoms: C2_2  and  C7_7 
REMARK    3  A    between atoms: C7_7  and  O8_8 
ROOT
HETATM    1  C1  UNL     1     -34.126  16.188  -3.815  1.00 20.00    -0.070 C 
HETATM    2  C2  UNL     1     -34.198  15.826  -4.959  1.00 20.00    -0.070 C 
ENDROOT
BRANCH   2   3
HETATM    3  C7  UNL     1     -34.287  15.382  -6.354  1.00 20.00     0.193 C 
HETATM    4  C6  UNL     1     -35.589  14.640  -6.612  1.00 20.00     0.053 C 
BRANCH   3   5
HETATM    5  O8  UNL     1     -33.210  14.498  -6.654  1.00 20.00    -0.384 OA
HETATM    6  H18 UNL     1     -32.711  14.906  -7.381  1.00 20.00     0.211 HD
ENDBRANCH   3   5
ENDBRANCH   2   3
BRANCH   1   7
HETATM    7  C4  UNL     1     -34.040  16.625  -2.460  1.00 20.00    -0.018 C 
HETATM    8  C3  UNL     1     -35.034  16.331  -1.610  1.00 20.00     0.028 C 
HETATM    9  C5  UNL     1     -32.834  17.405  -2.024  1.00 20.00     0.057 C 
ENDBRANCH   1   7
TORSDOF 3
ENDMDL
MODEL 9
REMARK VINA RESULT:      -3.7     11.581     11.949
REMARK  3 active torsions:
REMARK  status: ('A' for Active; 'I' for Inactive)
REMARK    1  A    between atoms: C1_1  and  C4_4 
REMARK    2  A    between atoms: C2_2  and  C7_7 
REMARK    3  A    between atoms: C7_7  and  O8_8 
ROOT
HETATM    1  C1  UNL     1     -33.272   6.608   3.125  1.00 20.00    -0.070 C 
HETATM    2  C2  UNL     1     -34.006   5.856   3.710  1.00 20.00    -0.070 C 
ENDROOT
BRANCH   2   3
HETATM    3  C7  UNL     1     -34.901   4.937   4.422  1.00 20.00     0.193 C 
HETATM    4  C6  UNL     1     -34.898   5.216   5.916  1.00 20.00     0.053 C 
BRANCH   3   5
HETATM    5  O8  UNL     1     -34.477   3.591   4.223  1.00 20.00    -0.384 OA
HETATM    6  H18 UNL     1     -34.822   3.317   3.358  1.00 20.00     0.211 HD
ENDBRANCH   3   5
ENDBRANCH   2   3
BRANCH   1   7
HETATM    7  C4  UNL     1     -32.400   7.502   2.437  1.00 20.00    -0.018 C 
HETATM    8  C3  UNL     1     -31.248   7.872   3.016  1.00 20.00     0.028 C 
HETATM    9  C5  UNL     1     -32.799   8.006   1.081  1.00 20.00     0.057 C 
ENDBRANCH   1   7
TORSDOF 3
ENDMDL
