MODEL 1
REMARK VINA RESULT:      -4.5      0.000      0.000
REMARK  1 active torsions:
REMARK  status: ('A' for Active; 'I' for Inactive)
REMARK    1  A    between atoms: C3_3  and  C6_6 
ROOT
HETATM    1  C1  UNL     1     -35.747  17.406  -4.117  1.00 20.00    -0.024 C 
HETATM    2  C2  UNL     1     -36.400  16.252  -4.351  1.00 20.00    -0.076 C 
HETATM    3  C4  UNL     1     -34.530  17.523  -3.249  1.00 20.00     0.028 C 
HETATM    4  C5  UNL     1     -34.270  16.271  -2.409  1.00 20.00     0.009 C 
HETATM    5  C6  UNL     1     -35.914  14.940  -3.767  1.00 20.00     0.079 C 
HETATM    6  C7  UNL     1     -34.465  14.981  -3.219  1.00 20.00    -0.004 C 
HETATM    7  C8  UNL     1     -37.684  16.247  -5.135  1.00 20.00     0.044 C 
HETATM    8  C9  UNL     1     -33.377  14.857  -4.296  1.00 20.00     0.011 C 
ENDROOT
BRANCH   5   9
HETATM    9  C3  UNL     1     -36.071  13.831  -4.770  1.00 20.00     0.240 C 
HETATM   10  O10 UNL     1     -35.917  12.645  -4.496  1.00 20.00    -0.306 OA
ENDBRANCH   5   9
TORSDOF 1
ENDMDL
MODEL 2
REMARK VINA RESULT:      -4.5      2.217      3.834
REMARK  1 active torsions:
REMARK  status: ('A' for Active; 'I' for Inactive)
REMARK    1  A    between atoms: C3_3  and  C6_6 
ROOT
HETATM    1  C1  UNL     1     -32.966  15.767  -3.672  1.00 20.00    -0.024 C 
HETATM    2  C2  UNL     1     -33.607  16.405  -2.674  1.00 20.00    -0.076 C 
HETATM    3  C4  UNL     1     -33.551  14.630  -4.455  1.00 20.00     0.028 C 
HETATM    4  C5  UNL     1     -34.821  14.056  -3.823  1.00 20.00     0.009 C 
HETATM    5  C6  UNL     1     -35.024  16.034  -2.283  1.00 20.00     0.079 C 
HETATM    6  C7  UNL     1     -35.767  15.160  -3.326  1.00 20.00    -0.004 C 
HETATM    7  C8  UNL     1     -32.899  17.455  -1.860  1.00 20.00     0.044 C 
HETATM    8  C9  UNL     1     -36.344  15.944  -4.514  1.00 20.00     0.011 C 
ENDROOT
BRANCH   5   9
HETATM    9  C3  UNL     1     -35.820  17.268  -1.963  1.00 20.00     0.240 C 
HETATM   10  O10 UNL     1     -36.297  17.497  -0.856  1.00 20.00    -0.306 OA
ENDBRANCH   5   9
TORSDOF 1
ENDMDL
MODEL 3
REMARK VINA RESULT:      -4.5     11.631     12.865
REMARK  1 active torsions:
REMARK  status: ('A' for Active; 'I' for Inactive)
REMARK    1  A    between atoms: C3_3  and  C6_6 
ROOT
HETATM    1  C1  UNL     1     -33.764   6.396   5.998  1.00 20.00    -0.024 C 
HETATM    2  C2  UNL     1     -33.267   6.989   4.897  1.00 20.00    -0.076 C 
HETATM    3  C4  UNL     1     -34.827   5.338   5.977  1.00 20.00     0.028 C 
HETATM    4  C5  UNL     1     -35.514   5.205   4.616  1.00 20.00     0.009 C 
HETATM    5  C6  UNL     1     -33.732   6.591   3.509  1.00 20.00     0.079 C 
HETATM    6  C7  UNL     1     -34.510   5.251   3.455  1.00 20.00    -0.004 C 
HETATM    7  C8  UNL     1     -32.291   8.128   5.017  1.00 20.00     0.044 C 
HETATM    8  C9  UNL     1     -33.618   4.001   3.470  1.00 20.00     0.011 C 
ENDROOT
BRANCH   5   9
HETATM    9  C3  UNL     1     -32.572   6.570   2.554  1.00 20.00     0.240 C 
HETATM   10  O10 UNL     1     -32.389   7.425   1.693  1.00 20.00    -0.306 OA
ENDBRANCH   5   9
TORSDOF 1
ENDMDL
MODEL 4
REMARK VINA RESULT:      -4.4      1.371      2.105
REMARK  1 active torsions:
REMARK  status: ('A' for Active; 'I' for Inactive)
REMARK    1  A    between atoms: C3_3  and  C6_6 
ROOT
HETATM    1  C1  UNL     1     -36.593  16.067  -3.613  1.00 20.00    -0.024 C 
HETATM    2  C2  UNL     1     -35.789  15.051  -3.979  1.00 20.00    -0.076 C 
HETATM    3  C4  UNL     1     -36.248  17.073  -2.555  1.00 20.00     0.028 C 
HETATM    4  C5  UNL     1     -35.034  16.669  -1.716  1.00 20.00     0.009 C 
HETATM    5  C6  UNL     1     -34.419  14.866  -3.357  1.00 20.00     0.079 C 
HETATM    6  C7  UNL     1     -33.897  16.102  -2.579  1.00 20.00    -0.004 C 
HETATM    7  C8  UNL     1     -36.266  14.016  -4.962  1.00 20.00     0.044 C 
HETATM    8  C9  UNL     1     -33.301  17.204  -3.468  1.00 20.00     0.011 C 
ENDROOT
BRANCH   5   9
HETATM    9  C3  UNL     1     -33.424  14.438  -4.399  1.00 20.00     0.240 C 
HETATM   10  O10 UNL     1     -32.893  13.332  -4.414  1.00 20.00    -0.306 OA
ENDBRANCH   5   9
TORSDOF 1
ENDMDL
MODEL 5
REMARK VINA RESULT:      -4.3      1.953      2.624
REMARK  1 active torsions:
REMARK  status: ('A' for Active; 'I' for Inactive)
REMARK    1  A    between atoms: C3_3  and  C6_6 
ROOT
HETATM    1  C1  UNL     1     -35.315  15.526  -2.451  1.00 20.00    -0.024 C 
HETATM    2  C2  UNL     1     -35.003  14.948  -3.627  1.00 20.00    -0.076 C 
HETATM    3  C4  UNL     1     -34.520  16.629  -1.819  1.00 20.00     0.028 C 
HETATM    4  C5  UNL     1     -33.153  16.836  -2.476  1.00 20.00     0.009 C 
HETATM    5  C6  UNL     1     -33.810  15.412  -4.441  1.00 20.00     0.079 C 
HETATM    6  C7  UNL     1     -33.236  16.785  -4.009  1.00 20.00    -0.004 C 
HETATM    7  C8  UNL     1     -35.786  13.765  -4.128  1.00 20.00     0.044 C 
HETATM    8  C9  UNL     1     -34.018  17.995  -4.542  1.00 20.00     0.011 C 
ENDROOT
BRANCH   5   9
HETATM    9  C3  UNL     1     -34.145  15.415  -5.906  1.00 20.00     0.240 C 
HETATM   10  O10 UNL     1     -33.582  14.701  -6.730  1.00 20.00    -0.306 OA
ENDBRANCH   5   9
TORSDOF 1
ENDMDL
MODEL 6
REMARK VINA RESULT:      -4.2      1.456      2.264
REMARK  1 active torsions:
REMARK  status: ('A' for Active; 'I' for Inactive)
REMARK    1  A    between atoms: C3_3  and  C6_6 
ROOT
HETATM    1  C1  UNL     1     -34.018  16.470  -3.057  1.00 20.00    -0.024 C 
HETATM    2  C2  UNL     1     -35.288  16.043  -2.923  1.00 20.00    -0.076 C 
HETATM    3  C4  UNL     1     -32.958  15.732  -3.820  1.00 20.00     0.028 C 
HETATM    4  C5  UNL     1     -33.364  14.301  -4.179  1.00 20.00     0.009 C 
HETATM    5  C6  UNL     1     -35.763  14.765  -3.586  1.00 20.00     0.079 C 
HETATM    6  C7  UNL     1     -34.813  14.221  -4.683  1.00 20.00    -0.004 C 
HETATM    7  C8  UNL     1     -36.254  16.783  -2.038  1.00 20.00     0.044 C 
HETATM    8  C9  UNL     1     -34.945  14.926  -6.042  1.00 20.00     0.011 C 
ENDROOT
BRANCH   5   9
HETATM    9  C3  UNL     1     -37.154  14.942  -4.129  1.00 20.00     0.240 C 
HETATM   10  O10 UNL     1     -37.922  14.009  -4.337  1.00 20.00    -0.306 OA
ENDBRANCH   5   9
TORSDOF 1
ENDMDL
MODEL 7
REMARK VINA RESULT:      -4.1      2.851      4.391
REMARK  1 active torsions:
REMARK  status: ('A' for Active; 'I' for Inactive)
REMARK    1  A    between atoms: C3_3  and  C6_6 
ROOT
HETATM    1  C1  UNL     1     -32.864  17.271  -2.424  1.00 20.00    -0.024 C 
HETATM    2  C2  UNL     1     -33.648  17.555  -1.367  1.00 20.00    -0.076 C 
HETATM    3  C4  UNL     1     -33.206  16.259  -3.477  1.00 20.00     0.028 C 
HETATM    4  C5  UNL     1     -34.381  15.359  -3.085  1.00 20.00     0.009 C 
HETATM    5  C6  UNL     1     -34.992  16.879  -1.178  1.00 20.00     0.079 C 
HETATM    6  C7  UNL     1     -35.526  16.153  -2.440  1.00 20.00    -0.004 C 
HETATM    7  C8  UNL     1     -33.171  18.494  -0.292  1.00 20.00     0.044 C 
HETATM    8  C9  UNL     1     -36.183  17.080  -3.473  1.00 20.00     0.011 C 
ENDROOT
BRANCH   5   9
HETATM    9  C3  UNL     1     -36.006  17.863  -0.664  1.00 20.00     0.240 C 
HETATM   10  O10 UNL     1     -36.721  17.651   0.310  1.00 20.00    -0.306 OA
ENDBRANCH   5   9
TORSDOF 1
ENDMDL
MODEL 8
REMARK VINA RESULT:      -4.1      1.419      1.558
REMARK  1 active torsions:
REMARK  status: ('A' for Active; 'I' for Inactive)
REMARK    1  A    between atoms: C3_3  and  C6_6 
ROOT
HETATM    1  C1  UNL     1     -34.074  17.763  -4.372  1.00 20.00    -0.024 C 
HETATM    2  C2  UNL     1     -34.947  17.057  -5.115  1.00 20.00    -0.076 C 
HETATM    3  C4  UNL     1     -33.411  17.242  -3.132  1.00 20.00     0.028 C 
HETATM    4  C5  UNL     1     -34.040  15.948  -2.613  1.00 20.00     0.009 C 
HETATM    5  C6  UNL     1     -35.305  15.626  -4.762  1.00 20.00     0.079 C 
HETATM    6  C7  UNL     1     -34.342  14.957  -3.747  1.00 20.00    -0.004 C 
HETATM    7  C8  UNL     1     -35.660  17.700  -6.274  1.00 20.00     0.044 C 
HETATM    8  C9  UNL     1     -33.035  14.436  -4.363  1.00 20.00     0.011 C 
ENDROOT
BRANCH   5   9
HETATM    9  C3  UNL     1     -35.423  14.793  -6.008  1.00 20.00     0.240 C 
HETATM   10  O10 UNL     1     -36.013  13.718  -6.049  1.00 20.00    -0.306 OA
ENDBRANCH   5   9
TORSDOF 1
ENDMDL
MODEL 9
REMARK VINA RESULT:      -4.0      1.781      2.868
REMARK  1 active torsions:
REMARK  status: ('A' for Active; 'I' for Inactive)
REMARK    1  A    between atoms: C3_3  and  C6_6 
ROOT
HETATM    1  C1  UNL     1     -34.442  17.193  -4.559  1.00 20.00    -0.024 C 
HETATM    2  C2  UNL     1     -34.668  15.938  -4.127  1.00 20.00    -0.076 C 
HETATM    3  C4  UNL     1     -34.403  17.591  -6.005  1.00 20.00     0.028 C 
HETATM    4  C5  UNL     1     -34.342  16.392  -6.955  1.00 20.00     0.009 C 
HETATM    5  C6  UNL     1     -34.947  14.808  -5.099  1.00 20.00     0.079 C 
HETATM    6  C7  UNL     1     -35.305  15.272  -6.534  1.00 20.00    -0.004 C 
HETATM    7  C8  UNL     1     -34.567  15.605  -2.663  1.00 20.00     0.044 C 
HETATM    8  C9  UNL     1     -36.762  15.726  -6.708  1.00 20.00     0.011 C 
ENDROOT
BRANCH   5   9
HETATM    9  C3  UNL     1     -36.013  13.900  -4.554  1.00 20.00     0.240 C 
HETATM   10  O10 UNL     1     -35.907  12.678  -4.517  1.00 20.00    -0.306 OA
ENDBRANCH   5   9
TORSDOF 1
ENDMDL
