MODEL 1
REMARK VINA RESULT:      -4.7      0.000      0.000
REMARK  0 active torsions:
REMARK  status: ('A' for Active; 'I' for Inactive)
ROOT
HETATM    1  C1  UNL     1     -36.079  14.912  -3.421  1.00 20.00     0.047 C 
HETATM    2  C2  UNL     1     -35.575  16.083  -3.019  1.00 20.00    -0.014 C 
HETATM    3  C3  UNL     1     -35.275  13.973  -4.237  1.00 20.00     0.152 C 
HETATM    4  C4  UNL     1     -33.260  15.406  -3.757  1.00 20.00     0.025 C 
HETATM    5  C5  UNL     1     -33.907  14.410  -4.727  1.00 20.00     0.056 C 
HETATM    6  C6  UNL     1     -34.163  16.564  -3.272  1.00 20.00    -0.029 C 
HETATM    7  C7  UNL     1     -34.009  14.904  -6.164  1.00 20.00     0.018 C 
HETATM    8  C8  UNL     1     -34.195  17.724  -4.280  1.00 20.00     0.019 C 
HETATM    9  C9  UNL     1     -33.579  17.105  -1.950  1.00 20.00     0.019 C 
HETATM   10  O10 UNL     1     -35.753  12.884  -4.551  1.00 20.00    -0.293 OA
ENDROOT
TORSDOF 0
ENDMDL
MODEL 2
REMARK VINA RESULT:      -4.7     11.210     12.164
REMARK  0 active torsions:
REMARK  status: ('A' for Active; 'I' for Inactive)
ROOT
HETATM    1  C1  UNL     1     -33.554   4.721   2.989  1.00 20.00     0.047 C 
HETATM    2  C2  UNL     1     -32.738   5.623   2.435  1.00 20.00    -0.014 C 
HETATM    3  C3  UNL     1     -34.526   5.110   4.036  1.00 20.00     0.152 C 
HETATM    4  C4  UNL     1     -34.008   7.519   3.509  1.00 20.00     0.025 C 
HETATM    5  C5  UNL     1     -34.499   6.529   4.573  1.00 20.00     0.056 C 
HETATM    6  C6  UNL     1     -32.734   7.104   2.736  1.00 20.00    -0.029 C 
HETATM    7  C7  UNL     1     -33.719   6.570   5.881  1.00 20.00     0.018 C 
HETATM    8  C8  UNL     1     -31.455   7.461   3.511  1.00 20.00     0.019 C 
HETATM    9  C9  UNL     1     -32.709   7.882   1.403  1.00 20.00     0.019 C 
HETATM   10  O10 UNL     1     -35.294   4.265   4.492  1.00 20.00    -0.293 OA
ENDROOT
TORSDOF 0
ENDMDL
MODEL 3
REMARK VINA RESULT:      -4.6      1.115      1.381
REMARK  0 active torsions:
REMARK  status: ('A' for Active; 'I' for Inactive)
ROOT
HETATM    1  C1  UNL     1     -36.936  14.722  -4.263  1.00 20.00     0.047 C 
HETATM    2  C2  UNL     1     -36.865  15.984  -3.826  1.00 20.00    -0.014 C 
HETATM    3  C3  UNL     1     -35.757  13.827  -4.209  1.00 20.00     0.152 C 
HETATM    4  C4  UNL     1     -34.606  15.560  -2.787  1.00 20.00     0.025 C 
HETATM    5  C5  UNL     1     -34.420  14.397  -3.770  1.00 20.00     0.056 C 
HETATM    6  C6  UNL     1     -35.653  16.625  -3.189  1.00 20.00    -0.029 C 
HETATM    7  C7  UNL     1     -33.577  14.732  -4.993  1.00 20.00     0.018 C 
HETATM    8  C8  UNL     1     -35.064  17.668  -4.154  1.00 20.00     0.019 C 
HETATM    9  C9  UNL     1     -36.097  17.365  -1.910  1.00 20.00     0.019 C 
HETATM   10  O10 UNL     1     -35.869  12.659  -4.575  1.00 20.00    -0.293 OA
ENDROOT
TORSDOF 0
ENDMDL
MODEL 4
REMARK VINA RESULT:      -4.4     17.462     18.430
REMARK  0 active torsions:
REMARK  status: ('A' for Active; 'I' for Inactive)
ROOT
HETATM    1  C1  UNL     1     -25.215  18.939  10.147  1.00 20.00     0.047 C 
HETATM    2  C2  UNL     1     -24.144  18.690   9.387  1.00 20.00    -0.014 C 
HETATM    3  C3  UNL     1     -25.323  18.393  11.520  1.00 20.00     0.152 C 
HETATM    4  C4  UNL     1     -22.902  17.714  11.355  1.00 20.00     0.025 C 
HETATM    5  C5  UNL     1     -24.258  17.432  12.014  1.00 20.00     0.056 C 
HETATM    6  C6  UNL     1     -22.924  17.908   9.820  1.00 20.00    -0.029 C 
HETATM    7  C7  UNL     1     -24.748  15.998  11.863  1.00 20.00     0.018 C 
HETATM    8  C8  UNL     1     -22.892  16.563   9.075  1.00 20.00     0.019 C 
HETATM    9  C9  UNL     1     -21.661  18.698   9.420  1.00 20.00     0.019 C 
HETATM   10  O10 UNL     1     -26.300  18.681  12.209  1.00 20.00    -0.293 OA
ENDROOT
TORSDOF 0
ENDMDL
MODEL 5
REMARK VINA RESULT:      -4.4      1.448      1.681
REMARK  0 active torsions:
REMARK  status: ('A' for Active; 'I' for Inactive)
ROOT
HETATM    1  C1  UNL     1     -37.383  15.931  -3.622  1.00 20.00     0.047 C 
HETATM    2  C2  UNL     1     -36.288  16.635  -3.315  1.00 20.00    -0.014 C 
HETATM    3  C3  UNL     1     -37.280  14.584  -4.230  1.00 20.00     0.152 C 
HETATM    4  C4  UNL     1     -34.813  14.629  -3.722  1.00 20.00     0.025 C 
HETATM    5  C5  UNL     1     -35.913  14.058  -4.625  1.00 20.00     0.056 C 
HETATM    6  C6  UNL     1     -34.863  16.156  -3.478  1.00 20.00    -0.029 C 
HETATM    7  C7  UNL     1     -35.688  14.282  -6.115  1.00 20.00     0.018 C 
HETATM    8  C8  UNL     1     -34.192  16.939  -4.619  1.00 20.00     0.019 C 
HETATM    9  C9  UNL     1     -34.087  16.458  -2.179  1.00 20.00     0.019 C 
HETATM   10  O10 UNL     1     -38.306  13.944  -4.456  1.00 20.00    -0.293 OA
ENDROOT
TORSDOF 0
ENDMDL
MODEL 6
REMARK VINA RESULT:      -4.3      2.514      3.949
REMARK  0 active torsions:
REMARK  status: ('A' for Active; 'I' for Inactive)
ROOT
HETATM    1  C1  UNL     1     -33.002  17.454  -1.953  1.00 20.00     0.047 C 
HETATM    2  C2  UNL     1     -32.874  16.855  -3.141  1.00 20.00    -0.014 C 
HETATM    3  C3  UNL     1     -34.232  17.294  -1.145  1.00 20.00     0.152 C 
HETATM    4  C4  UNL     1     -34.945  15.474  -2.734  1.00 20.00     0.025 C 
HETATM    5  C5  UNL     1     -35.410  16.544  -1.739  1.00 20.00     0.056 C 
HETATM    6  C6  UNL     1     -33.888  15.926  -3.769  1.00 20.00    -0.029 C 
HETATM    7  C7  UNL     1     -36.419  17.536  -2.303  1.00 20.00     0.018 C 
HETATM    8  C8  UNL     1     -34.535  16.623  -4.978  1.00 20.00     0.019 C 
HETATM    9  C9  UNL     1     -33.158  14.669  -4.287  1.00 20.00     0.019 C 
HETATM   10  O10 UNL     1     -34.298  17.821  -0.035  1.00 20.00    -0.293 OA
ENDROOT
TORSDOF 0
ENDMDL
MODEL 7
REMARK VINA RESULT:      -4.2      1.702      2.555
REMARK  0 active torsions:
REMARK  status: ('A' for Active; 'I' for Inactive)
ROOT
HETATM    1  C1  UNL     1     -35.586  16.578  -5.603  1.00 20.00     0.047 C 
HETATM    2  C2  UNL     1     -34.365  16.590  -5.061  1.00 20.00    -0.014 C 
HETATM    3  C3  UNL     1     -36.654  15.705  -5.063  1.00 20.00     0.152 C 
HETATM    4  C4  UNL     1     -35.164  15.239  -3.086  1.00 20.00     0.025 C 
HETATM    5  C5  UNL     1     -36.311  14.719  -3.961  1.00 20.00     0.056 C 
HETATM    6  C6  UNL     1     -33.938  15.803  -3.842  1.00 20.00    -0.029 C 
HETATM    7  C7  UNL     1     -36.074  13.339  -4.561  1.00 20.00     0.018 C 
HETATM    8  C8  UNL     1     -32.970  14.688  -4.272  1.00 20.00     0.019 C 
HETATM    9  C9  UNL     1     -33.177  16.744  -2.885  1.00 20.00     0.019 C 
HETATM   10  O10 UNL     1     -37.780  15.753  -5.556  1.00 20.00    -0.293 OA
ENDROOT
TORSDOF 0
ENDMDL
MODEL 8
REMARK VINA RESULT:      -4.2     10.744     12.170
REMARK  0 active torsions:
REMARK  status: ('A' for Active; 'I' for Inactive)
ROOT
HETATM    1  C1  UNL     1     -43.417   6.797   1.250  1.00 20.00     0.047 C 
HETATM    2  C2  UNL     1     -43.114   7.971   0.688  1.00 20.00    -0.014 C 
HETATM    3  C3  UNL     1     -42.569   5.603   1.030  1.00 20.00     0.152 C 
HETATM    4  C4  UNL     1     -40.849   7.114  -0.019  1.00 20.00     0.025 C 
HETATM    5  C5  UNL     1     -41.415   5.691   0.050  1.00 20.00     0.056 C 
HETATM    6  C6  UNL     1     -41.890   8.250  -0.155  1.00 20.00    -0.029 C 
HETATM    7  C7  UNL     1     -41.836   5.113  -1.295  1.00 20.00     0.018 C 
HETATM    8  C8  UNL     1     -42.318   8.459  -1.617  1.00 20.00     0.019 C 
HETATM    9  C9  UNL     1     -41.237   9.559   0.335  1.00 20.00     0.019 C 
HETATM   10  O10 UNL     1     -42.851   4.549   1.599  1.00 20.00    -0.293 OA
ENDROOT
TORSDOF 0
ENDMDL
MODEL 9
REMARK VINA RESULT:      -4.2     10.225     11.711
REMARK  0 active torsions:
REMARK  status: ('A' for Active; 'I' for Inactive)
ROOT
HETATM    1  C1  UNL     1     -40.731   6.113   0.390  1.00 20.00     0.047 C 
HETATM    2  C2  UNL     1     -41.174   7.274   0.882  1.00 20.00    -0.014 C 
HETATM    3  C3  UNL     1     -41.060   5.693  -0.991  1.00 20.00     0.152 C 
HETATM    4  C4  UNL     1     -41.949   8.014  -1.402  1.00 20.00     0.025 C 
HETATM    5  C5  UNL     1     -42.021   6.537  -1.808  1.00 20.00     0.056 C 
HETATM    6  C6  UNL     1     -41.980   8.301   0.118  1.00 20.00    -0.029 C 
HETATM    7  C7  UNL     1     -43.417   5.932  -1.745  1.00 20.00     0.018 C 
HETATM    8  C8  UNL     1     -43.417   8.327   0.664  1.00 20.00     0.019 C 
HETATM    9  C9  UNL     1     -41.362   9.694   0.355  1.00 20.00     0.019 C 
HETATM   10  O10 UNL     1     -40.597   4.640  -1.428  1.00 20.00    -0.293 OA
ENDROOT
TORSDOF 0
ENDMDL
