MODEL 1
REMARK VINA RESULT:      -3.0      0.000      0.000
REMARK  0 active torsions:
REMARK  status: ('A' for Active; 'I' for Inactive)
ROOT
HETATM    1  C1  UNL     1     -34.772   5.470   5.489  1.00 20.00     0.061 A 
HETATM    2  C2  UNL     1     -34.812   4.642   4.441  1.00 20.00     0.061 A 
HETATM    3  C3  UNL     1     -33.173   6.530   3.739  1.00 20.00     0.254 A 
HETATM    4  O4  UNL     1     -32.385   7.248   3.143  1.00 20.00    -0.272 OA
HETATM    5  S5  UNL     1     -33.757   6.868   5.367  1.00 20.00    -0.052 SA
HETATM    6  S6  UNL     1     -33.845   5.049   3.064  1.00 20.00    -0.052 SA
ENDROOT
TORSDOF 0
ENDMDL
MODEL 2
REMARK VINA RESULT:      -3.0      0.007      1.862
REMARK  0 active torsions:
REMARK  status: ('A' for Active; 'I' for Inactive)
ROOT
HETATM    1  C1  UNL     1     -34.810   4.634   4.438  1.00 20.00     0.061 A 
HETATM    2  C2  UNL     1     -34.773   5.460   5.488  1.00 20.00     0.061 A 
HETATM    3  C3  UNL     1     -33.176   6.527   3.741  1.00 20.00     0.254 A 
HETATM    4  O4  UNL     1     -32.389   7.248   3.145  1.00 20.00    -0.272 OA
HETATM    5  S5  UNL     1     -33.845   5.046   3.061  1.00 20.00    -0.052 SA
HETATM    6  S6  UNL     1     -33.761   6.860   5.368  1.00 20.00    -0.052 SA
ENDROOT
TORSDOF 0
ENDMDL
MODEL 3
REMARK VINA RESULT:      -3.0     16.579     16.623
REMARK  0 active torsions:
REMARK  status: ('A' for Active; 'I' for Inactive)
ROOT
HETATM    1  C1  UNL     1     -23.307  17.226  10.558  1.00 20.00     0.061 A 
HETATM    2  C2  UNL     1     -24.353  18.055  10.621  1.00 20.00     0.061 A 
HETATM    3  C3  UNL     1     -23.482  18.262   8.184  1.00 20.00     0.254 A 
HETATM    4  O4  UNL     1     -23.312  18.565   7.012  1.00 20.00    -0.272 OA
HETATM    5  S5  UNL     1     -22.467  17.110   9.048  1.00 20.00    -0.052 SA
HETATM    6  S6  UNL     1     -24.766  18.930   9.186  1.00 20.00    -0.052 SA
ENDROOT
TORSDOF 0
ENDMDL
MODEL 4
REMARK VINA RESULT:      -2.9     16.659     17.031
REMARK  0 active torsions:
REMARK  status: ('A' for Active; 'I' for Inactive)
ROOT
HETATM    1  C1  UNL     1     -23.757  18.059  10.717  1.00 20.00     0.061 A 
HETATM    2  C2  UNL     1     -22.454  17.766  10.780  1.00 20.00     0.061 A 
HETATM    3  C3  UNL     1     -22.941  18.112   8.253  1.00 20.00     0.254 A 
HETATM    4  O4  UNL     1     -22.861  18.209   7.037  1.00 20.00    -0.272 OA
HETATM    5  S5  UNL     1     -24.435  18.357   9.153  1.00 20.00    -0.052 SA
HETATM    6  S6  UNL     1     -21.575  17.713   9.290  1.00 20.00    -0.052 SA
ENDROOT
TORSDOF 0
ENDMDL
MODEL 5
REMARK VINA RESULT:      -2.9     11.888     12.558
REMARK  0 active torsions:
REMARK  status: ('A' for Active; 'I' for Inactive)
ROOT
HETATM    1  C1  UNL     1     -36.572  16.249  -3.912  1.00 20.00     0.061 A 
HETATM    2  C2  UNL     1     -35.248  16.232  -3.734  1.00 20.00     0.061 A 
HETATM    3  C3  UNL     1     -35.872  13.784  -4.331  1.00 20.00     0.254 A 
HETATM    4  O4  UNL     1     -35.855  12.587  -4.578  1.00 20.00    -0.272 OA
HETATM    5  S5  UNL     1     -37.342  14.756  -4.330  1.00 20.00    -0.052 SA
HETATM    6  S6  UNL     1     -34.433  14.718  -3.938  1.00 20.00    -0.052 SA
ENDROOT
TORSDOF 0
ENDMDL
MODEL 6
REMARK VINA RESULT:      -2.9     12.290     13.016
REMARK  0 active torsions:
REMARK  status: ('A' for Active; 'I' for Inactive)
ROOT
HETATM    1  C1  UNL     1     -33.727  14.864  -5.001  1.00 20.00     0.061 A 
HETATM    2  C2  UNL     1     -34.197  15.080  -6.233  1.00 20.00     0.061 A 
HETATM    3  C3  UNL     1     -36.200  14.079  -4.920  1.00 20.00     0.254 A 
HETATM    4  O4  UNL     1     -37.291  13.643  -4.580  1.00 20.00    -0.272 OA
HETATM    5  S5  UNL     1     -34.816  14.188  -3.837  1.00 20.00    -0.052 SA
HETATM    6  S6  UNL     1     -35.848  14.662  -6.543  1.00 20.00    -0.052 SA
ENDROOT
TORSDOF 0
ENDMDL
MODEL 7
REMARK VINA RESULT:      -2.9     12.295     13.105
REMARK  0 active torsions:
REMARK  status: ('A' for Active; 'I' for Inactive)
ROOT
HETATM    1  C1  UNL     1     -34.210  15.090  -6.245  1.00 20.00     0.061 A 
HETATM    2  C2  UNL     1     -33.730  14.882  -5.015  1.00 20.00     0.061 A 
HETATM    3  C3  UNL     1     -36.196  14.074  -4.917  1.00 20.00     0.254 A 
HETATM    4  O4  UNL     1     -37.281  13.631  -4.570  1.00 20.00    -0.272 OA
HETATM    5  S5  UNL     1     -35.859  14.657  -6.545  1.00 20.00    -0.052 SA
HETATM    6  S6  UNL     1     -34.806  14.199  -3.843  1.00 20.00    -0.052 SA
ENDROOT
TORSDOF 0
ENDMDL
MODEL 8
REMARK VINA RESULT:      -2.8      9.189      9.492
REMARK  0 active torsions:
REMARK  status: ('A' for Active; 'I' for Inactive)
ROOT
HETATM    1  C1  UNL     1     -42.714   8.182   0.331  1.00 20.00     0.061 A 
HETATM    2  C2  UNL     1     -43.184   7.136   1.016  1.00 20.00     0.061 A 
HETATM    3  C3  UNL     1     -41.377   6.143  -0.562  1.00 20.00     0.254 A 
HETATM    4  O4  UNL     1     -40.611   5.405  -1.164  1.00 20.00    -0.272 OA
HETATM    5  S5  UNL     1     -41.471   7.881  -0.836  1.00 20.00    -0.052 SA
HETATM    6  S6  UNL     1     -42.503   5.582   0.670  1.00 20.00    -0.052 SA
ENDROOT
TORSDOF 0
ENDMDL
MODEL 9
REMARK VINA RESULT:      -2.8      9.209      9.517
REMARK  0 active torsions:
REMARK  status: ('A' for Active; 'I' for Inactive)
ROOT
HETATM    1  C1  UNL     1     -43.167   7.132   1.014  1.00 20.00     0.061 A 
HETATM    2  C2  UNL     1     -42.704   8.176   0.321  1.00 20.00     0.061 A 
HETATM    3  C3  UNL     1     -41.386   6.133  -0.589  1.00 20.00     0.254 A 
HETATM    4  O4  UNL     1     -40.630   5.392  -1.200  1.00 20.00    -0.272 OA
HETATM    5  S5  UNL     1     -42.496   5.575   0.660  1.00 20.00    -0.052 SA
HETATM    6  S6  UNL     1     -41.478   7.870  -0.863  1.00 20.00    -0.052 SA
ENDROOT
TORSDOF 0
ENDMDL
