MODEL 1
REMARK VINA RESULT:      -3.7      0.000      0.000
REMARK  2 active torsions:
REMARK  status: ('A' for Active; 'I' for Inactive)
REMARK    1  A    between atoms: C3_3  and  C4_4 
REMARK    2  A    between atoms: C4_4  and  S8_8 
ROOT
HETATM    1  C1  UNL     1     -22.314  17.509   8.177  1.00 20.00     0.109 C 
HETATM    2  C3  UNL     1     -23.116  18.194   9.165  1.00 20.00     0.116 C 
HETATM    3  N5  UNL     1     -21.674  16.964   7.376  1.00 20.00    -0.191 NA
HETATM    4  S7  UNL     1     -22.885  17.726  10.752  1.00 20.00    -0.071 SA
ENDROOT
BRANCH   2   5
HETATM    5  C4  UNL     1     -24.099  19.263   8.746  1.00 20.00     0.206 C 
HETATM    6  C2  UNL     1     -24.524  19.087   7.350  1.00 20.00     0.080 C 
HETATM    7  N6  UNL     1     -24.856  18.950   6.246  1.00 20.00    -0.196 NA
BRANCH   5   8
HETATM    8  S8  UNL     1     -25.525  19.225   9.883  1.00 20.00    -0.157 SA
HETATM    9  H10 UNL     1     -26.126  20.310   9.380  1.00 20.00     0.103 HD
ENDBRANCH   5   8
ENDBRANCH   2   5
TORSDOF 2
ENDMDL
MODEL 2
REMARK VINA RESULT:      -3.6     16.771     17.766
REMARK  2 active torsions:
REMARK  status: ('A' for Active; 'I' for Inactive)
REMARK    1  A    between atoms: C3_3  and  C4_4 
REMARK    2  A    between atoms: C4_4  and  S8_8 
ROOT
HETATM    1  C1  UNL     1     -36.937  14.612  -4.074  1.00 20.00     0.109 C 
HETATM    2  C3  UNL     1     -35.881  15.505  -3.655  1.00 20.00     0.116 C 
HETATM    3  N5  UNL     1     -37.779  13.888  -4.413  1.00 20.00    -0.191 NA
HETATM    4  S7  UNL     1     -36.366  16.984  -3.049  1.00 20.00    -0.071 SA
ENDROOT
BRANCH   2   5
HETATM    5  C4  UNL     1     -34.433  15.089  -3.779  1.00 20.00     0.206 C 
HETATM    6  C2  UNL     1     -34.055  14.864  -5.182  1.00 20.00     0.080 C 
HETATM    7  N6  UNL     1     -33.758  14.682  -6.289  1.00 20.00    -0.196 NA
BRANCH   5   8
HETATM    8  S8  UNL     1     -33.388  16.370  -3.008  1.00 20.00    -0.157 SA
HETATM    9  H10 UNL     1     -32.504  15.518  -2.474  1.00 20.00     0.103 HD
ENDBRANCH   5   8
ENDBRANCH   2   5
TORSDOF 2
ENDMDL
MODEL 3
REMARK VINA RESULT:      -3.5      2.816      3.352
REMARK  2 active torsions:
REMARK  status: ('A' for Active; 'I' for Inactive)
REMARK    1  A    between atoms: C3_3  and  C4_4 
REMARK    2  A    between atoms: C4_4  and  S8_8 
ROOT
HETATM    1  C1  UNL     1     -22.949  17.234   9.166  1.00 20.00     0.109 C 
HETATM    2  C3  UNL     1     -23.968  18.048   9.789  1.00 20.00     0.116 C 
HETATM    3  N5  UNL     1     -22.129  16.576   8.675  1.00 20.00    -0.191 NA
HETATM    4  S7  UNL     1     -24.684  19.202   8.816  1.00 20.00    -0.071 SA
ENDROOT
BRANCH   2   5
HETATM    5  C4  UNL     1     -24.334  17.839  11.241  1.00 20.00     0.206 C 
HETATM    6  C2  UNL     1     -25.546  18.587  11.604  1.00 20.00     0.080 C 
HETATM    7  N6  UNL     1     -26.501  19.182  11.892  1.00 20.00    -0.196 NA
BRANCH   5   8
HETATM    8  S8  UNL     1     -24.544  16.052  11.540  1.00 20.00    -0.157 SA
HETATM    9  H10 UNL     1     -24.930  16.175  12.816  1.00 20.00     0.103 HD
ENDBRANCH   5   8
ENDBRANCH   2   5
TORSDOF 2
ENDMDL
MODEL 4
REMARK VINA RESULT:      -3.5      2.245      2.925
REMARK  2 active torsions:
REMARK  status: ('A' for Active; 'I' for Inactive)
REMARK    1  A    between atoms: C3_3  and  C4_4 
REMARK    2  A    between atoms: C4_4  and  S8_8 
ROOT
HETATM    1  C1  UNL     1     -22.199  17.760  11.546  1.00 20.00     0.109 C 
HETATM    2  C3  UNL     1     -23.254  17.743  10.558  1.00 20.00     0.116 C 
HETATM    3  N5  UNL     1     -21.345  17.779  12.332  1.00 20.00    -0.191 NA
HETATM    4  S7  UNL     1     -24.624  16.877  10.961  1.00 20.00    -0.071 SA
ENDROOT
BRANCH   2   5
HETATM    5  C4  UNL     1     -23.087  18.477   9.247  1.00 20.00     0.206 C 
HETATM    6  C2  UNL     1     -22.406  17.642   8.246  1.00 20.00     0.080 C 
HETATM    7  N6  UNL     1     -21.864  16.985   7.458  1.00 20.00    -0.196 NA
BRANCH   5   8
HETATM    8  S8  UNL     1     -24.731  19.006   8.660  1.00 20.00    -0.157 SA
HETATM    9  H10 UNL     1     -25.217  17.770   8.492  1.00 20.00     0.103 HD
ENDBRANCH   5   8
ENDBRANCH   2   5
TORSDOF 2
ENDMDL
MODEL 5
REMARK VINA RESULT:      -3.4     16.635     17.720
REMARK  2 active torsions:
REMARK  status: ('A' for Active; 'I' for Inactive)
REMARK    1  A    between atoms: C3_3  and  C4_4 
REMARK    2  A    between atoms: C4_4  and  S8_8 
ROOT
HETATM    1  C1  UNL     1     -34.636  14.365  -3.777  1.00 20.00     0.109 C 
HETATM    2  C3  UNL     1     -35.356  15.552  -3.375  1.00 20.00     0.116 C 
HETATM    3  N5  UNL     1     -34.065  13.410  -4.108  1.00 20.00    -0.191 NA
HETATM    4  S7  UNL     1     -34.737  16.377  -2.062  1.00 20.00    -0.071 SA
ENDROOT
BRANCH   2   5
HETATM    5  C4  UNL     1     -36.596  15.985  -4.123  1.00 20.00     0.206 C 
HETATM    6  C2  UNL     1     -37.551  14.877  -4.272  1.00 20.00     0.080 C 
HETATM    7  N6  UNL     1     -38.302  14.001  -4.393  1.00 20.00    -0.196 NA
BRANCH   5   8
HETATM    8  S8  UNL     1     -37.348  17.395  -3.242  1.00 20.00    -0.157 SA
HETATM    9  H10 UNL     1     -38.429  16.726  -2.820  1.00 20.00     0.103 HD
ENDBRANCH   5   8
ENDBRANCH   2   5
TORSDOF 2
ENDMDL
MODEL 6
REMARK VINA RESULT:      -3.4      2.576      3.401
REMARK  2 active torsions:
REMARK  status: ('A' for Active; 'I' for Inactive)
REMARK    1  A    between atoms: C3_3  and  C4_4 
REMARK    2  A    between atoms: C4_4  and  S8_8 
ROOT
HETATM    1  C1  UNL     1     -24.667  16.637  11.267  1.00 20.00     0.109 C 
HETATM    2  C3  UNL     1     -24.810  17.985  10.765  1.00 20.00     0.116 C 
HETATM    3  N5  UNL     1     -24.545  15.552  11.662  1.00 20.00    -0.191 NA
HETATM    4  S7  UNL     1     -25.994  18.916  11.487  1.00 20.00    -0.071 SA
ENDROOT
BRANCH   2   5
HETATM    5  C4  UNL     1     -23.923  18.484   9.649  1.00 20.00     0.206 C 
HETATM    6  C2  UNL     1     -23.022  17.428   9.162  1.00 20.00     0.080 C 
HETATM    7  N6  UNL     1     -22.308  16.595   8.782  1.00 20.00    -0.196 NA
BRANCH   5   8
HETATM    8  S8  UNL     1     -24.977  19.125   8.305  1.00 20.00    -0.157 SA
HETATM    9  H10 UNL     1     -25.599  17.965   8.059  1.00 20.00     0.103 HD
ENDBRANCH   5   8
ENDBRANCH   2   5
TORSDOF 2
ENDMDL
MODEL 7
REMARK VINA RESULT:      -3.4     15.499     16.718
REMARK  2 active torsions:
REMARK  status: ('A' for Active; 'I' for Inactive)
REMARK    1  A    between atoms: C3_3  and  C4_4 
REMARK    2  A    between atoms: C4_4  and  S8_8 
ROOT
HETATM    1  C1  UNL     1     -35.457  13.725  -4.143  1.00 20.00     0.109 C 
HETATM    2  C3  UNL     1     -34.530  14.746  -3.710  1.00 20.00     0.116 C 
HETATM    3  N5  UNL     1     -36.208  12.909  -4.485  1.00 20.00    -0.191 NA
HETATM    4  S7  UNL     1     -33.022  14.722  -4.429  1.00 20.00    -0.071 SA
ENDROOT
BRANCH   2   5
HETATM    5  C4  UNL     1     -34.937  15.755  -2.662  1.00 20.00     0.206 C 
HETATM    6  C2  UNL     1     -33.818  16.636  -2.297  1.00 20.00     0.080 C 
HETATM    7  N6  UNL     1     -32.933  17.328  -2.007  1.00 20.00    -0.196 NA
BRANCH   5   8
HETATM    8  S8  UNL     1     -36.356  16.713  -3.292  1.00 20.00    -0.157 SA
HETATM    9  H10 UNL     1     -37.267  16.143  -2.493  1.00 20.00     0.103 HD
ENDBRANCH   5   8
ENDBRANCH   2   5
TORSDOF 2
ENDMDL
MODEL 8
REMARK VINA RESULT:      -3.3     17.608     18.198
REMARK  2 active torsions:
REMARK  status: ('A' for Active; 'I' for Inactive)
REMARK    1  A    between atoms: C3_3  and  C4_4 
REMARK    2  A    between atoms: C4_4  and  S8_8 
ROOT
HETATM    1  C1  UNL     1     -34.452  15.479  -6.218  1.00 20.00     0.109 C 
HETATM    2  C3  UNL     1     -35.350  16.106  -5.273  1.00 20.00     0.116 C 
HETATM    3  N5  UNL     1     -33.732  14.967  -6.970  1.00 20.00    -0.191 NA
HETATM    4  S7  UNL     1     -35.764  17.692  -5.595  1.00 20.00    -0.071 SA
ENDROOT
BRANCH   2   5
HETATM    5  C4  UNL     1     -35.858  15.339  -4.075  1.00 20.00     0.206 C 
HETATM    6  C2  UNL     1     -35.851  13.888  -4.321  1.00 20.00     0.080 C 
HETATM    7  N6  UNL     1     -35.849  12.745  -4.517  1.00 20.00    -0.196 NA
BRANCH   5   8
HETATM    8  S8  UNL     1     -34.835  15.770  -2.627  1.00 20.00    -0.157 SA
HETATM    9  H10 UNL     1     -34.469  16.977  -3.077  1.00 20.00     0.103 HD
ENDBRANCH   5   8
ENDBRANCH   2   5
TORSDOF 2
ENDMDL
MODEL 9
REMARK VINA RESULT:      -3.3     16.803     17.973
REMARK  2 active torsions:
REMARK  status: ('A' for Active; 'I' for Inactive)
REMARK    1  A    between atoms: C3_3  and  C4_4 
REMARK    2  A    between atoms: C4_4  and  S8_8 
ROOT
HETATM    1  C1  UNL     1     -33.765  14.717  -4.837  1.00 20.00     0.109 C 
HETATM    2  C3  UNL     1     -34.863  15.579  -5.212  1.00 20.00     0.116 C 
HETATM    3  N5  UNL     1     -32.888  14.023  -4.526  1.00 20.00    -0.191 NA
HETATM    4  S7  UNL     1     -34.777  16.256  -6.737  1.00 20.00    -0.071 SA
ENDROOT
BRANCH   2   5
HETATM    5  C4  UNL     1     -36.001  15.831  -4.251  1.00 20.00     0.206 C 
HETATM    6  C2  UNL     1     -37.000  14.752  -4.303  1.00 20.00     0.080 C 
HETATM    7  N6  UNL     1     -37.789  13.903  -4.348  1.00 20.00    -0.196 NA
BRANCH   5   8
HETATM    8  S8  UNL     1     -35.317  16.020  -2.570  1.00 20.00    -0.157 SA
HETATM    9  H10 UNL     1     -34.080  15.615  -2.884  1.00 20.00     0.103 HD
ENDBRANCH   5   8
ENDBRANCH   2   5
TORSDOF 2
ENDMDL
