MODEL 1
REMARK VINA RESULT:      -4.2      0.000      0.000
REMARK  2 active torsions:
REMARK  status: ('A' for Active; 'I' for Inactive)
REMARK    1  A    between atoms: C3_3  and  S9_9 
REMARK    2  A    between atoms: C6_6  and  S9_9 
ROOT
HETATM    1  C1  UNL     1     -32.930   9.318   0.334  1.00 20.00     0.013 C 
HETATM    2  C2  UNL     1     -32.727   8.331   0.986  1.00 20.00    -0.107 C 
HETATM    3  C6  UNL     1     -32.478   7.121   1.773  1.00 20.00     0.174 C 
ENDROOT
BRANCH   3   4
HETATM    4  S9  UNL     1     -32.224   7.491   3.523  1.00 20.00    -0.092 SA
BRANCH   4   5
HETATM    5  C3  UNL     1     -33.476   6.509   4.209  1.00 20.00     0.125 C 
HETATM    6  N7  UNL     1     -34.066   5.567   3.552  1.00 20.00    -0.275 NA
HETATM    7  C4  UNL     1     -35.118   4.974   4.406  1.00 20.00     0.161 C 
HETATM    8  C5  UNL     1     -34.776   5.182   5.874  1.00 20.00     0.103 C 
HETATM    9  S8  UNL     1     -33.941   6.779   5.864  1.00 20.00    -0.102 SA
ENDBRANCH   4   5
ENDBRANCH   3   4
TORSDOF 2
ENDMDL
MODEL 2
REMARK VINA RESULT:      -3.7     11.244     12.149
REMARK  2 active torsions:
REMARK  status: ('A' for Active; 'I' for Inactive)
REMARK    1  A    between atoms: C3_3  and  S9_9 
REMARK    2  A    between atoms: C6_6  and  S9_9 
ROOT
HETATM    1  C1  UNL     1     -34.471  16.245  -2.295  1.00 20.00     0.013 C 
HETATM    2  C2  UNL     1     -34.601  15.304  -3.029  1.00 20.00    -0.107 C 
HETATM    3  C6  UNL     1     -34.756  14.151  -3.919  1.00 20.00     0.174 C 
ENDROOT
BRANCH   3   4
HETATM    4  S9  UNL     1     -35.519  14.607  -5.492  1.00 20.00    -0.092 SA
BRANCH   4   5
HETATM    5  C3  UNL     1     -37.109  15.013  -4.933  1.00 20.00     0.125 C 
HETATM    6  N7  UNL     1     -37.926  14.138  -4.451  1.00 20.00    -0.275 NA
HETATM    7  C4  UNL     1     -39.207  14.805  -4.131  1.00 20.00     0.161 C 
HETATM    8  C5  UNL     1     -38.972  16.286  -3.871  1.00 20.00     0.103 C 
HETATM    9  S8  UNL     1     -37.618  16.676  -4.994  1.00 20.00    -0.102 SA
ENDBRANCH   4   5
ENDBRANCH   3   4
TORSDOF 2
ENDMDL
MODEL 3
REMARK VINA RESULT:      -3.5     11.382     12.809
REMARK  2 active torsions:
REMARK  status: ('A' for Active; 'I' for Inactive)
REMARK    1  A    between atoms: C3_3  and  S9_9 
REMARK    2  A    between atoms: C6_6  and  S9_9 
ROOT
HETATM    1  C1  UNL     1     -35.155  16.873  -0.998  1.00 20.00     0.013 C 
HETATM    2  C2  UNL     1     -34.603  16.391  -1.948  1.00 20.00    -0.107 C 
HETATM    3  C6  UNL     1     -33.922  15.807  -3.106  1.00 20.00     0.174 C 
ENDROOT
BRANCH   3   4
HETATM    4  S9  UNL     1     -34.881  14.471  -3.854  1.00 20.00    -0.092 SA
BRANCH   4   5
HETATM    5  C3  UNL     1     -34.771  14.937  -5.520  1.00 20.00     0.125 C 
HETATM    6  N7  UNL     1     -33.742  14.675  -6.253  1.00 20.00    -0.275 NA
HETATM    7  C4  UNL     1     -33.948  15.263  -7.595  1.00 20.00     0.161 C 
HETATM    8  C5  UNL     1     -35.436  15.407  -7.878  1.00 20.00     0.103 C 
HETATM    9  S8  UNL     1     -36.116  15.767  -6.248  1.00 20.00    -0.102 SA
ENDBRANCH   4   5
ENDBRANCH   3   4
TORSDOF 2
ENDMDL
MODEL 4
REMARK VINA RESULT:      -3.4     11.332     13.101
REMARK  2 active torsions:
REMARK  status: ('A' for Active; 'I' for Inactive)
REMARK    1  A    between atoms: C3_3  and  S9_9 
REMARK    2  A    between atoms: C6_6  and  S9_9 
ROOT
HETATM    1  C1  UNL     1     -34.841  16.320  -1.964  1.00 20.00     0.013 C 
HETATM    2  C2  UNL     1     -34.692  15.460  -2.788  1.00 20.00    -0.107 C 
HETATM    3  C6  UNL     1     -34.502  14.409  -3.790  1.00 20.00     0.174 C 
ENDROOT
BRANCH   3   4
HETATM    4  S9  UNL     1     -36.053  13.954  -4.598  1.00 20.00    -0.092 SA
BRANCH   4   5
HETATM    5  C3  UNL     1     -35.897  14.875  -6.058  1.00 20.00     0.125 C 
HETATM    6  N7  UNL     1     -36.911  15.363  -6.689  1.00 20.00    -0.275 NA
HETATM    7  C4  UNL     1     -36.432  16.033  -7.918  1.00 20.00     0.161 C 
HETATM    8  C5  UNL     1     -34.988  16.475  -7.741  1.00 20.00     0.103 C 
HETATM    9  S8  UNL     1     -34.304  15.182  -6.687  1.00 20.00    -0.102 SA
ENDBRANCH   4   5
ENDBRANCH   3   4
TORSDOF 2
ENDMDL
MODEL 5
REMARK VINA RESULT:      -3.4     11.035     11.920
REMARK  2 active torsions:
REMARK  status: ('A' for Active; 'I' for Inactive)
REMARK    1  A    between atoms: C3_3  and  S9_9 
REMARK    2  A    between atoms: C6_6  and  S9_9 
ROOT
HETATM    1  C1  UNL     1     -30.963  18.552   0.312  1.00 20.00     0.013 C 
HETATM    2  C2  UNL     1     -31.603  18.409  -0.693  1.00 20.00    -0.107 C 
HETATM    3  C6  UNL     1     -32.378  18.235  -1.924  1.00 20.00     0.174 C 
ENDROOT
BRANCH   3   4
HETATM    4  S9  UNL     1     -34.023  17.563  -1.602  1.00 20.00    -0.092 SA
BRANCH   4   5
HETATM    5  C3  UNL     1     -34.051  16.293  -2.781  1.00 20.00     0.125 C 
HETATM    6  N7  UNL     1     -32.982  15.833  -3.339  1.00 20.00    -0.275 NA
HETATM    7  C4  UNL     1     -33.365  14.808  -4.334  1.00 20.00     0.161 C 
HETATM    8  C5  UNL     1     -34.708  14.198  -3.964  1.00 20.00     0.103 C 
HETATM    9  S8  UNL     1     -35.580  15.585  -3.214  1.00 20.00    -0.102 SA
ENDBRANCH   4   5
ENDBRANCH   3   4
TORSDOF 2
ENDMDL
MODEL 6
REMARK VINA RESULT:      -3.3     11.602     12.356
REMARK  2 active torsions:
REMARK  status: ('A' for Active; 'I' for Inactive)
REMARK    1  A    between atoms: C3_3  and  S9_9 
REMARK    2  A    between atoms: C6_6  and  S9_9 
ROOT
HETATM    1  C1  UNL     1     -35.441  15.318  -3.169  1.00 20.00     0.013 C 
HETATM    2  C2  UNL     1     -34.342  15.799  -3.122  1.00 20.00    -0.107 C 
HETATM    3  C6  UNL     1     -32.998  16.378  -3.066  1.00 20.00     0.174 C 
ENDROOT
BRANCH   3   4
HETATM    4  S9  UNL     1     -33.041  18.180  -2.935  1.00 20.00    -0.092 SA
BRANCH   4   5
HETATM    5  C3  UNL     1     -32.434  18.364  -1.322  1.00 20.00     0.125 C 
HETATM    6  N7  UNL     1     -31.183  18.548  -1.062  1.00 20.00    -0.275 NA
HETATM    7  C4  UNL     1     -31.003  18.602   0.405  1.00 20.00     0.161 C 
HETATM    8  C5  UNL     1     -32.295  19.046   1.073  1.00 20.00     0.103 C 
HETATM    9  S8  UNL     1     -33.559  18.331   0.005  1.00 20.00    -0.102 SA
ENDBRANCH   4   5
ENDBRANCH   3   4
TORSDOF 2
ENDMDL
MODEL 7
REMARK VINA RESULT:      -3.2     11.587     11.915
REMARK  2 active torsions:
REMARK  status: ('A' for Active; 'I' for Inactive)
REMARK    1  A    between atoms: C3_3  and  S9_9 
REMARK    2  A    between atoms: C6_6  and  S9_9 
ROOT
HETATM    1  C1  UNL     1     -35.110  16.694  -1.167  1.00 20.00     0.013 C 
HETATM    2  C2  UNL     1     -34.288  16.556  -2.031  1.00 20.00    -0.107 C 
HETATM    3  C6  UNL     1     -33.280  16.384  -3.079  1.00 20.00     0.174 C 
ENDROOT
BRANCH   3   4
HETATM    4  S9  UNL     1     -33.956  16.686  -4.727  1.00 20.00    -0.092 SA
BRANCH   4   5
HETATM    5  C3  UNL     1     -35.224  15.505  -4.738  1.00 20.00     0.125 C 
HETATM    6  N7  UNL     1     -35.002  14.239  -4.620  1.00 20.00    -0.275 NA
HETATM    7  C4  UNL     1     -36.288  13.516  -4.732  1.00 20.00     0.161 C 
HETATM    8  C5  UNL     1     -37.436  14.428  -4.328  1.00 20.00     0.103 C 
HETATM    9  S8  UNL     1     -36.871  16.046  -4.885  1.00 20.00    -0.102 SA
ENDBRANCH   4   5
ENDBRANCH   3   4
TORSDOF 2
ENDMDL
MODEL 8
REMARK VINA RESULT:      -3.2     11.293     11.968
REMARK  2 active torsions:
REMARK  status: ('A' for Active; 'I' for Inactive)
REMARK    1  A    between atoms: C3_3  and  S9_9 
REMARK    2  A    between atoms: C6_6  and  S9_9 
ROOT
HETATM    1  C1  UNL     1     -31.807  18.213  -1.006  1.00 20.00     0.013 C 
HETATM    2  C2  UNL     1     -32.512  17.745  -1.857  1.00 20.00    -0.107 C 
HETATM    3  C6  UNL     1     -33.367  17.176  -2.901  1.00 20.00     0.174 C 
ENDROOT
BRANCH   3   4
HETATM    4  S9  UNL     1     -34.736  16.220  -2.211  1.00 20.00    -0.092 SA
BRANCH   4   5
HETATM    5  C3  UNL     1     -35.175  15.297  -3.611  1.00 20.00     0.125 C 
HETATM    6  N7  UNL     1     -36.274  14.624  -3.689  1.00 20.00    -0.275 NA
HETATM    7  C4  UNL     1     -36.305  13.908  -4.983  1.00 20.00     0.161 C 
HETATM    8  C5  UNL     1     -35.438  14.632  -6.001  1.00 20.00     0.103 C 
HETATM    9  S8  UNL     1     -34.107  15.298  -4.984  1.00 20.00    -0.102 SA
ENDBRANCH   4   5
ENDBRANCH   3   4
TORSDOF 2
ENDMDL
MODEL 9
REMARK VINA RESULT:      -3.1     11.670     12.707
REMARK  2 active torsions:
REMARK  status: ('A' for Active; 'I' for Inactive)
REMARK    1  A    between atoms: C3_3  and  S9_9 
REMARK    2  A    between atoms: C6_6  and  S9_9 
ROOT
HETATM    1  C1  UNL     1     -32.287  18.151  -1.558  1.00 20.00     0.013 C 
HETATM    2  C2  UNL     1     -33.041  17.348  -2.035  1.00 20.00    -0.107 C 
HETATM    3  C6  UNL     1     -33.968  16.372  -2.612  1.00 20.00     0.174 C 
ENDROOT
BRANCH   3   4
HETATM    4  S9  UNL     1     -33.184  15.366  -3.891  1.00 20.00    -0.092 SA
BRANCH   4   5
HETATM    5  C3  UNL     1     -34.413  15.442  -5.111  1.00 20.00     0.125 C 
HETATM    6  N7  UNL     1     -34.628  14.484  -5.949  1.00 20.00    -0.275 NA
HETATM    7  C4  UNL     1     -35.696  14.898  -6.885  1.00 20.00     0.161 C 
HETATM    8  C5  UNL     1     -36.583  15.947  -6.232  1.00 20.00     0.103 C 
HETATM    9  S8  UNL     1     -35.423  16.856  -5.194  1.00 20.00    -0.102 SA
ENDBRANCH   4   5
ENDBRANCH   3   4
TORSDOF 2
ENDMDL
