MODEL 1
REMARK VINA RESULT:      -4.5      0.000      0.000
REMARK  2 active torsions:
REMARK  status: ('A' for Active; 'I' for Inactive)
REMARK    1  A    between atoms: C4_4  and  C6_6 
REMARK    2  A    between atoms: C5_5  and  C6_6 
ROOT
HETATM    1  C1  UNL     1     -34.680   5.707   5.982  1.00 20.00     0.012 C 
HETATM    2  C2  UNL     1     -34.539   5.172   4.917  1.00 20.00    -0.117 C 
HETATM    3  C5  UNL     1     -34.371   4.514   3.614  1.00 20.00     0.095 C 
ENDROOT
BRANCH   3   4
HETATM    4  C6  UNL     1     -33.229   5.145   2.819  1.00 20.00     0.046 C 
BRANCH   4   5
HETATM    5  C4  UNL     1     -33.222   6.638   2.945  1.00 20.00     0.146 A 
HETATM    6  C3  UNL     1     -32.508   7.499   1.941  1.00 20.00     0.200 A 
HETATM    7  O7  UNL     1     -31.938   7.205   3.225  1.00 20.00    -0.381 OA
ENDBRANCH   4   5
ENDBRANCH   3   4
TORSDOF 2
ENDMDL
MODEL 2
REMARK VINA RESULT:      -4.5      1.891      3.418
REMARK  2 active torsions:
REMARK  status: ('A' for Active; 'I' for Inactive)
REMARK    1  A    between atoms: C4_4  and  C6_6 
REMARK    2  A    between atoms: C5_5  and  C6_6 
ROOT
HETATM    1  C1  UNL     1     -32.364   7.204   2.636  1.00 20.00     0.012 C 
HETATM    2  C2  UNL     1     -32.952   6.158   2.622  1.00 20.00    -0.117 C 
HETATM    3  C5  UNL     1     -33.671   4.877   2.599  1.00 20.00     0.095 C 
ENDROOT
BRANCH   3   4
HETATM    4  C6  UNL     1     -34.058   4.435   4.009  1.00 20.00     0.046 C 
BRANCH   4   5
HETATM    5  C4  UNL     1     -34.838   5.492   4.730  1.00 20.00     0.146 A 
HETATM    6  C3  UNL     1     -34.240   6.250   5.881  1.00 20.00     0.200 A 
HETATM    7  O7  UNL     1     -35.164   5.170   6.086  1.00 20.00    -0.381 OA
ENDBRANCH   4   5
ENDBRANCH   3   4
TORSDOF 2
ENDMDL
MODEL 3
REMARK VINA RESULT:      -4.3      1.758      3.943
REMARK  2 active torsions:
REMARK  status: ('A' for Active; 'I' for Inactive)
REMARK    1  A    between atoms: C4_4  and  C6_6 
REMARK    2  A    between atoms: C5_5  and  C6_6 
ROOT
HETATM    1  C1  UNL     1     -32.543   8.268   1.138  1.00 20.00     0.012 C 
HETATM    2  C2  UNL     1     -32.732   7.318   1.847  1.00 20.00    -0.117 C 
HETATM    3  C5  UNL     1     -32.960   6.152   2.711  1.00 20.00     0.095 C 
ENDROOT
BRANCH   3   4
HETATM    4  C6  UNL     1     -33.605   6.561   4.033  1.00 20.00     0.046 C 
BRANCH   4   5
HETATM    5  C4  UNL     1     -34.799   5.716   4.357  1.00 20.00     0.146 A 
HETATM    6  C3  UNL     1     -34.901   4.983   5.664  1.00 20.00     0.200 A 
HETATM    7  O7  UNL     1     -34.527   4.314   4.450  1.00 20.00    -0.381 OA
ENDBRANCH   4   5
ENDBRANCH   3   4
TORSDOF 2
ENDMDL
MODEL 4
REMARK VINA RESULT:      -4.0      1.567      2.148
REMARK  2 active torsions:
REMARK  status: ('A' for Active; 'I' for Inactive)
REMARK    1  A    between atoms: C4_4  and  C6_6 
REMARK    2  A    between atoms: C5_5  and  C6_6 
ROOT
HETATM    1  C1  UNL     1     -33.659   7.320   6.243  1.00 20.00     0.012 C 
HETATM    2  C2  UNL     1     -34.243   6.317   5.936  1.00 20.00    -0.117 C 
HETATM    3  C5  UNL     1     -34.961   5.090   5.565  1.00 20.00     0.095 C 
ENDROOT
BRANCH   3   4
HETATM    4  C6  UNL     1     -34.931   4.868   4.054  1.00 20.00     0.046 C 
BRANCH   4   5
HETATM    5  C4  UNL     1     -33.533   4.855   3.519  1.00 20.00     0.146 A 
HETATM    6  C3  UNL     1     -33.062   5.901   2.548  1.00 20.00     0.200 A 
HETATM    7  O7  UNL     1     -33.434   4.583   2.117  1.00 20.00    -0.381 OA
ENDBRANCH   4   5
ENDBRANCH   3   4
TORSDOF 2
ENDMDL
MODEL 5
REMARK VINA RESULT:      -3.8      1.585      2.201
REMARK  2 active torsions:
REMARK  status: ('A' for Active; 'I' for Inactive)
REMARK    1  A    between atoms: C4_4  and  C6_6 
REMARK    2  A    between atoms: C5_5  and  C6_6 
ROOT
HETATM    1  C1  UNL     1     -34.879   5.071   4.353  1.00 20.00     0.012 C 
HETATM    2  C2  UNL     1     -34.078   5.369   3.511  1.00 20.00    -0.117 C 
HETATM    3  C5  UNL     1     -33.097   5.731   2.478  1.00 20.00     0.095 C 
ENDROOT
BRANCH   3   4
HETATM    4  C6  UNL     1     -32.667   7.191   2.610  1.00 20.00     0.046 C 
BRANCH   4   5
HETATM    5  C4  UNL     1     -32.308   7.788   1.285  1.00 20.00     0.146 A 
HETATM    6  C3  UNL     1     -32.844   9.128   0.864  1.00 20.00     0.200 A 
HETATM    7  O7  UNL     1     -33.400   7.901   0.366  1.00 20.00    -0.381 OA
ENDBRANCH   4   5
ENDBRANCH   3   4
TORSDOF 2
ENDMDL
MODEL 6
REMARK VINA RESULT:      -3.7     11.348     12.213
REMARK  2 active torsions:
REMARK  status: ('A' for Active; 'I' for Inactive)
REMARK    1  A    between atoms: C4_4  and  C6_6 
REMARK    2  A    between atoms: C5_5  and  C6_6 
ROOT
HETATM    1  C1  UNL     1     -33.238  16.723  -2.648  1.00 20.00     0.012 C 
HETATM    2  C2  UNL     1     -33.461  15.801  -3.383  1.00 20.00    -0.117 C 
HETATM    3  C5  UNL     1     -33.730  14.673  -4.286  1.00 20.00     0.095 C 
ENDROOT
BRANCH   3   4
HETATM    4  C6  UNL     1     -34.996  13.924  -3.874  1.00 20.00     0.046 C 
BRANCH   4   5
HETATM    5  C4  UNL     1     -36.144  14.226  -4.787  1.00 20.00     0.146 A 
HETATM    6  C3  UNL     1     -37.371  14.936  -4.285  1.00 20.00     0.200 A 
HETATM    7  O7  UNL     1     -37.348  13.514  -4.484  1.00 20.00    -0.381 OA
ENDBRANCH   4   5
ENDBRANCH   3   4
TORSDOF 2
ENDMDL
MODEL 7
REMARK VINA RESULT:      -3.7     11.422     12.158
REMARK  2 active torsions:
REMARK  status: ('A' for Active; 'I' for Inactive)
REMARK    1  A    between atoms: C4_4  and  C6_6 
REMARK    2  A    between atoms: C5_5  and  C6_6 
ROOT
HETATM    1  C1  UNL     1     -33.060  17.485  -1.968  1.00 20.00     0.012 C 
HETATM    2  C2  UNL     1     -33.229  16.601  -2.761  1.00 20.00    -0.117 C 
HETATM    3  C5  UNL     1     -33.431  15.518  -3.734  1.00 20.00     0.095 C 
ENDROOT
BRANCH   3   4
HETATM    4  C6  UNL     1     -34.671  14.694  -3.394  1.00 20.00     0.046 C 
BRANCH   4   5
HETATM    5  C4  UNL     1     -35.368  14.202  -4.625  1.00 20.00     0.146 A 
HETATM    6  C3  UNL     1     -36.852  13.962  -4.635  1.00 20.00     0.200 A 
HETATM    7  O7  UNL     1     -35.912  12.883  -4.514  1.00 20.00    -0.381 OA
ENDBRANCH   4   5
ENDBRANCH   3   4
TORSDOF 2
ENDMDL
MODEL 8
REMARK VINA RESULT:      -3.7     11.759     12.105
REMARK  2 active torsions:
REMARK  status: ('A' for Active; 'I' for Inactive)
REMARK    1  A    between atoms: C4_4  and  C6_6 
REMARK    2  A    between atoms: C5_5  and  C6_6 
ROOT
HETATM    1  C1  UNL     1     -35.088  16.496  -1.498  1.00 20.00     0.012 C 
HETATM    2  C2  UNL     1     -34.407  16.076  -2.392  1.00 20.00    -0.117 C 
HETATM    3  C5  UNL     1     -33.568  15.564  -3.485  1.00 20.00     0.095 C 
ENDROOT
BRANCH   3   4
HETATM    4  C6  UNL     1     -34.216  14.356  -4.160  1.00 20.00     0.046 C 
BRANCH   4   5
HETATM    5  C4  UNL     1     -35.481  14.727  -4.870  1.00 20.00     0.146 A 
HETATM    6  C3  UNL     1     -36.785  14.058  -4.536  1.00 20.00     0.200 A 
HETATM    7  O7  UNL     1     -36.024  13.692  -5.697  1.00 20.00    -0.381 OA
ENDBRANCH   4   5
ENDBRANCH   3   4
TORSDOF 2
ENDMDL
MODEL 9
REMARK VINA RESULT:      -3.6      1.265      2.015
REMARK  2 active torsions:
REMARK  status: ('A' for Active; 'I' for Inactive)
REMARK    1  A    between atoms: C4_4  and  C6_6 
REMARK    2  A    between atoms: C5_5  and  C6_6 
ROOT
HETATM    1  C1  UNL     1     -34.975   4.864   5.970  1.00 20.00     0.012 C 
HETATM    2  C2  UNL     1     -34.394   5.909   5.869  1.00 20.00    -0.117 C 
HETATM    3  C5  UNL     1     -33.684   7.190   5.751  1.00 20.00     0.095 C 
ENDROOT
BRANCH   3   4
HETATM    4  C6  UNL     1     -32.750   7.195   4.542  1.00 20.00     0.046 C 
BRANCH   4   5
HETATM    5  C4  UNL     1     -33.454   6.767   3.292  1.00 20.00     0.146 A 
HETATM    6  C3  UNL     1     -33.021   5.542   2.536  1.00 20.00     0.200 A 
HETATM    7  O7  UNL     1     -32.665   6.864   2.101  1.00 20.00    -0.381 OA
ENDBRANCH   4   5
ENDBRANCH   3   4
TORSDOF 2
ENDMDL
