MODEL 1
REMARK VINA RESULT:      -4.9      0.000      0.000
REMARK  0 active torsions:
REMARK  status: ('A' for Active; 'I' for Inactive)
ROOT
HETATM    1  C1  UNL     1     -34.124   5.915   4.798  1.00 20.00     0.017 A 
HETATM    2  C2  UNL     1     -34.039   4.848   3.795  1.00 20.00     0.296 A 
HETATM    3  C3  UNL     1     -33.013   6.672   2.955  1.00 20.00     0.270 A 
HETATM    4  C4  UNL     1     -34.725   5.740   5.976  1.00 20.00     0.025 C 
HETATM    5  C5  UNL     1     -33.465   7.141   4.302  1.00 20.00     0.155 A 
HETATM    6  O6  UNL     1     -34.475   3.715   3.878  1.00 20.00    -0.259 OA
HETATM    7  O7  UNL     1     -32.401   7.359   2.148  1.00 20.00    -0.264 OA
HETATM    8  O8  UNL     1     -33.368   5.374   2.737  1.00 20.00    -0.241 OA
ENDROOT
TORSDOF 0
ENDMDL
MODEL 2
REMARK VINA RESULT:      -4.7     11.369     11.922
REMARK  0 active torsions:
REMARK  status: ('A' for Active; 'I' for Inactive)
ROOT
HETATM    1  C1  UNL     1     -34.740  15.128  -3.481  1.00 20.00     0.017 A 
HETATM    2  C2  UNL     1     -34.393  13.872  -4.151  1.00 20.00     0.296 A 
HETATM    3  C3  UNL     1     -36.634  14.103  -4.233  1.00 20.00     0.270 A 
HETATM    4  C4  UNL     1     -33.817  15.930  -2.945  1.00 20.00     0.025 C 
HETATM    5  C5  UNL     1     -36.203  15.336  -3.503  1.00 20.00     0.155 A 
HETATM    6  O6  UNL     1     -33.283  13.398  -4.312  1.00 20.00    -0.259 OA
HETATM    7  O7  UNL     1     -37.794  13.822  -4.499  1.00 20.00    -0.264 OA
HETATM    8  O8  UNL     1     -35.565  13.326  -4.567  1.00 20.00    -0.241 OA
ENDROOT
TORSDOF 0
ENDMDL
MODEL 3
REMARK VINA RESULT:      -4.7      1.356      2.892
REMARK  0 active torsions:
REMARK  status: ('A' for Active; 'I' for Inactive)
ROOT
HETATM    1  C1  UNL     1     -33.260   6.406   3.347  1.00 20.00     0.017 A 
HETATM    2  C2  UNL     1     -33.576   5.024   2.974  1.00 20.00     0.296 A 
HETATM    3  C3  UNL     1     -34.551   5.444   4.963  1.00 20.00     0.270 A 
HETATM    4  C4  UNL     1     -32.515   7.201   2.576  1.00 20.00     0.025 C 
HETATM    5  C5  UNL     1     -33.875   6.741   4.648  1.00 20.00     0.155 A 
HETATM    6  O6  UNL     1     -33.231   4.429   1.970  1.00 20.00    -0.259 OA
HETATM    7  O7  UNL     1     -35.209   5.229   5.972  1.00 20.00    -0.264 OA
HETATM    8  O8  UNL     1     -34.341   4.524   3.978  1.00 20.00    -0.241 OA
ENDROOT
TORSDOF 0
ENDMDL
MODEL 4
REMARK VINA RESULT:      -4.6      1.677      3.400
REMARK  0 active torsions:
REMARK  status: ('A' for Active; 'I' for Inactive)
ROOT
HETATM    1  C1  UNL     1     -33.660   5.167   3.154  1.00 20.00     0.017 A 
HETATM    2  C2  UNL     1     -33.225   6.516   3.527  1.00 20.00     0.296 A 
HETATM    3  C3  UNL     1     -34.536   5.729   5.184  1.00 20.00     0.270 A 
HETATM    4  C4  UNL     1     -33.292   4.589   2.009  1.00 20.00     0.025 C 
HETATM    5  C5  UNL     1     -34.526   4.596   4.207  1.00 20.00     0.155 A 
HETATM    6  O6  UNL     1     -32.508   7.266   2.892  1.00 20.00    -0.259 OA
HETATM    7  O7  UNL     1     -35.138   5.724   6.249  1.00 20.00    -0.264 OA
HETATM    8  O8  UNL     1     -33.783   6.774   4.738  1.00 20.00    -0.241 OA
ENDROOT
TORSDOF 0
ENDMDL
MODEL 5
REMARK VINA RESULT:      -4.6      1.823      2.095
REMARK  0 active torsions:
REMARK  status: ('A' for Active; 'I' for Inactive)
ROOT
HETATM    1  C1  UNL     1     -34.191   5.563   4.080  1.00 20.00     0.017 A 
HETATM    2  C2  UNL     1     -33.658   6.677   4.870  1.00 20.00     0.296 A 
HETATM    3  C3  UNL     1     -32.747   6.792   2.811  1.00 20.00     0.270 A 
HETATM    4  C4  UNL     1     -35.062   4.684   4.581  1.00 20.00     0.025 C 
HETATM    5  C5  UNL     1     -33.629   5.587   2.714  1.00 20.00     0.155 A 
HETATM    6  O6  UNL     1     -33.911   6.952   6.028  1.00 20.00    -0.259 OA
HETATM    7  O7  UNL     1     -32.055   7.222   1.899  1.00 20.00    -0.264 OA
HETATM    8  O8  UNL     1     -32.814   7.355   4.051  1.00 20.00    -0.241 OA
ENDROOT
TORSDOF 0
ENDMDL
MODEL 6
REMARK VINA RESULT:      -4.4     11.917     12.608
REMARK  0 active torsions:
REMARK  status: ('A' for Active; 'I' for Inactive)
ROOT
HETATM    1  C1  UNL     1     -34.421  15.062  -4.138  1.00 20.00     0.017 A 
HETATM    2  C2  UNL     1     -34.474  14.587  -5.524  1.00 20.00     0.296 A 
HETATM    3  C3  UNL     1     -36.446  14.094  -4.548  1.00 20.00     0.270 A 
HETATM    4  C4  UNL     1     -33.346  15.670  -3.632  1.00 20.00     0.025 C 
HETATM    5  C5  UNL     1     -35.692  14.767  -3.444  1.00 20.00     0.155 A 
HETATM    6  O6  UNL     1     -33.603  14.668  -6.369  1.00 20.00    -0.259 OA
HETATM    7  O7  UNL     1     -37.585  13.658  -4.448  1.00 20.00    -0.264 OA
HETATM    8  O8  UNL     1     -35.701  14.028  -5.688  1.00 20.00    -0.241 OA
ENDROOT
TORSDOF 0
ENDMDL
MODEL 7
REMARK VINA RESULT:      -4.3     11.423     12.219
REMARK  0 active torsions:
REMARK  status: ('A' for Active; 'I' for Inactive)
ROOT
HETATM    1  C1  UNL     1     -34.276  15.516  -3.326  1.00 20.00     0.017 A 
HETATM    2  C2  UNL     1     -35.696  15.833  -3.150  1.00 20.00     0.296 A 
HETATM    3  C3  UNL     1     -35.556  13.814  -4.143  1.00 20.00     0.270 A 
HETATM    4  C4  UNL     1     -33.305  16.344  -2.933  1.00 20.00     0.025 C 
HETATM    5  C5  UNL     1     -34.120  14.198  -3.975  1.00 20.00     0.155 A 
HETATM    6  O6  UNL     1     -36.176  16.834  -2.651  1.00 20.00    -0.259 OA
HETATM    7  O7  UNL     1     -35.943  12.770  -4.650  1.00 20.00    -0.264 OA
HETATM    8  O8  UNL     1     -36.387  14.780  -3.657  1.00 20.00    -0.241 OA
ENDROOT
TORSDOF 0
ENDMDL
MODEL 8
REMARK VINA RESULT:      -4.2      9.210      9.377
REMARK  0 active torsions:
REMARK  status: ('A' for Active; 'I' for Inactive)
ROOT
HETATM    1  C1  UNL     1     -41.444   6.386  -0.511  1.00 20.00     0.017 A 
HETATM    2  C2  UNL     1     -42.299   6.338   0.678  1.00 20.00     0.296 A 
HETATM    3  C3  UNL     1     -41.979   8.505   0.143  1.00 20.00     0.270 A 
HETATM    4  C4  UNL     1     -40.983   5.282  -1.104  1.00 20.00     0.025 C 
HETATM    5  C5  UNL     1     -41.198   7.787  -0.913  1.00 20.00     0.155 A 
HETATM    6  O6  UNL     1     -42.694   5.350   1.269  1.00 20.00    -0.259 OA
HETATM    7  O7  UNL     1     -42.078   9.721   0.228  1.00 20.00    -0.264 OA
HETATM    8  O8  UNL     1     -42.572   7.629   1.002  1.00 20.00    -0.241 OA
ENDROOT
TORSDOF 0
ENDMDL
MODEL 9
REMARK VINA RESULT:      -4.2     11.368     11.948
REMARK  0 active torsions:
REMARK  status: ('A' for Active; 'I' for Inactive)
ROOT
HETATM    1  C1  UNL     1     -35.991  15.351  -3.764  1.00 20.00     0.017 A 
HETATM    2  C2  UNL     1     -36.535  14.081  -4.255  1.00 20.00     0.296 A 
HETATM    3  C3  UNL     1     -34.290  13.887  -4.173  1.00 20.00     0.270 A 
HETATM    4  C4  UNL     1     -36.770  16.386  -3.447  1.00 20.00     0.025 C 
HETATM    5  C5  UNL     1     -34.516  15.284  -3.688  1.00 20.00     0.155 A 
HETATM    6  O6  UNL     1     -37.703  13.795  -4.436  1.00 20.00    -0.259 OA
HETATM    7  O7  UNL     1     -33.192  13.360  -4.287  1.00 20.00    -0.264 OA
HETATM    8  O8  UNL     1     -35.468  13.269  -4.472  1.00 20.00    -0.241 OA
ENDROOT
TORSDOF 0
ENDMDL
