MODEL 1
REMARK VINA RESULT:      -4.9      0.000      0.000
REMARK  0 active torsions:
REMARK  status: ('A' for Active; 'I' for Inactive)
ROOT
HETATM    1  C1  UNL     1     -33.972   4.088   4.303  1.00 20.00    -0.021 C 
HETATM    2  C2  UNL     1     -34.244   4.435   5.572  1.00 20.00    -0.025 C 
HETATM    3  C3  UNL     1     -33.430   6.410   3.734  1.00 20.00    -0.081 C 
HETATM    4  C4  UNL     1     -32.549   6.969   2.901  1.00 20.00     0.015 C 
HETATM    5  C5  UNL     1     -33.720   6.842   5.168  1.00 20.00     0.042 C 
HETATM    6  C6  UNL     1     -35.596   5.728   4.211  1.00 20.00     0.022 C 
HETATM    7  C7  UNL     1     -34.366   5.255   3.427  1.00 20.00     0.036 C 
HETATM    8  C8  UNL     1     -34.834   5.831   5.538  1.00 20.00     0.013 C 
ENDROOT
TORSDOF 0
ENDMDL
MODEL 2
REMARK VINA RESULT:      -4.7      0.918      1.518
REMARK  0 active torsions:
REMARK  status: ('A' for Active; 'I' for Inactive)
ROOT
HETATM    1  C1  UNL     1     -34.400   4.651   5.607  1.00 20.00    -0.021 C 
HETATM    2  C2  UNL     1     -34.224   5.934   5.963  1.00 20.00    -0.025 C 
HETATM    3  C3  UNL     1     -33.686   5.139   3.313  1.00 20.00    -0.081 C 
HETATM    4  C4  UNL     1     -33.014   4.442   2.394  1.00 20.00     0.015 C 
HETATM    5  C5  UNL     1     -33.464   6.602   3.681  1.00 20.00     0.042 C 
HETATM    6  C6  UNL     1     -35.692   5.922   4.175  1.00 20.00     0.022 C 
HETATM    7  C7  UNL     1     -34.844   4.645   4.162  1.00 20.00     0.036 C 
HETATM    8  C8  UNL     1     -34.565   6.785   4.755  1.00 20.00     0.013 C 
ENDROOT
TORSDOF 0
ENDMDL
MODEL 3
REMARK VINA RESULT:      -4.6      0.946      2.036
REMARK  0 active torsions:
REMARK  status: ('A' for Active; 'I' for Inactive)
ROOT
HETATM    1  C1  UNL     1     -33.443   5.617   3.214  1.00 20.00    -0.021 C 
HETATM    2  C2  UNL     1     -33.813   4.367   3.539  1.00 20.00    -0.025 C 
HETATM    3  C3  UNL     1     -34.043   6.427   5.448  1.00 20.00    -0.081 C 
HETATM    4  C4  UNL     1     -33.539   7.369   6.249  1.00 20.00     0.015 C 
HETATM    5  C5  UNL     1     -34.464   5.020   5.858  1.00 20.00     0.042 C 
HETATM    6  C6  UNL     1     -35.641   5.735   3.915  1.00 20.00     0.022 C 
HETATM    7  C7  UNL     1     -34.351   6.562   3.967  1.00 20.00     0.036 C 
HETATM    8  C8  UNL     1     -34.979   4.481   4.500  1.00 20.00     0.013 C 
ENDROOT
TORSDOF 0
ENDMDL
MODEL 4
REMARK VINA RESULT:      -4.3      8.457      9.515
REMARK  0 active torsions:
REMARK  status: ('A' for Active; 'I' for Inactive)
ROOT
HETATM    1  C1  UNL     1     -42.719   6.384   1.066  1.00 20.00    -0.021 C 
HETATM    2  C2  UNL     1     -43.364   6.011  -0.051  1.00 20.00    -0.025 C 
HETATM    3  C3  UNL     1     -41.692   8.278  -0.103  1.00 20.00    -0.081 C 
HETATM    4  C4  UNL     1     -41.349   9.512   0.274  1.00 20.00     0.015 C 
HETATM    5  C5  UNL     1     -42.415   7.892  -1.389  1.00 20.00     0.042 C 
HETATM    6  C6  UNL     1     -41.109   6.080  -0.562  1.00 20.00     0.022 C 
HETATM    7  C7  UNL     1     -41.400   6.986   0.640  1.00 20.00     0.036 C 
HETATM    8  C8  UNL     1     -42.466   6.353  -1.223  1.00 20.00     0.013 C 
ENDROOT
TORSDOF 0
ENDMDL
MODEL 5
REMARK VINA RESULT:      -4.3      8.568      9.645
REMARK  0 active torsions:
REMARK  status: ('A' for Active; 'I' for Inactive)
ROOT
HETATM    1  C1  UNL     1     -43.181   7.893  -1.352  1.00 20.00    -0.021 C 
HETATM    2  C2  UNL     1     -43.417   8.215  -0.069  1.00 20.00    -0.025 C 
HETATM    3  C3  UNL     1     -41.399   6.347  -0.686  1.00 20.00    -0.081 C 
HETATM    4  C4  UNL     1     -40.965   5.183  -1.174  1.00 20.00     0.015 C 
HETATM    5  C5  UNL     1     -41.644   6.679   0.782  1.00 20.00     0.042 C 
HETATM    6  C6  UNL     1     -41.181   8.647  -0.476  1.00 20.00     0.022 C 
HETATM    7  C7  UNL     1     -41.702   7.609  -1.476  1.00 20.00     0.036 C 
HETATM    8  C8  UNL     1     -42.089   8.157   0.659  1.00 20.00     0.013 C 
ENDROOT
TORSDOF 0
ENDMDL
MODEL 6
REMARK VINA RESULT:      -4.3      8.628      9.816
REMARK  0 active torsions:
REMARK  status: ('A' for Active; 'I' for Inactive)
ROOT
HETATM    1  C1  UNL     1     -42.367   8.717   0.386  1.00 20.00    -0.021 C 
HETATM    2  C2  UNL     1     -41.213   8.589  -0.290  1.00 20.00    -0.025 C 
HETATM    3  C3  UNL     1     -42.566   6.283   0.601  1.00 20.00    -0.081 C 
HETATM    4  C4  UNL     1     -43.053   5.483   1.552  1.00 20.00     0.015 C 
HETATM    5  C5  UNL     1     -41.254   6.097  -0.155  1.00 20.00     0.042 C 
HETATM    6  C6  UNL     1     -42.810   7.367  -1.435  1.00 20.00     0.022 C 
HETATM    7  C7  UNL     1     -43.227   7.526   0.031  1.00 20.00     0.036 C 
HETATM    8  C8  UNL     1     -41.312   7.317  -1.108  1.00 20.00     0.013 C 
ENDROOT
TORSDOF 0
ENDMDL
MODEL 7
REMARK VINA RESULT:      -4.3      8.288      9.561
REMARK  0 active torsions:
REMARK  status: ('A' for Active; 'I' for Inactive)
ROOT
HETATM    1  C1  UNL     1     -41.191   6.602  -1.150  1.00 20.00    -0.021 C 
HETATM    2  C2  UNL     1     -41.882   7.710  -1.465  1.00 20.00    -0.025 C 
HETATM    3  C3  UNL     1     -42.599   6.228   0.822  1.00 20.00    -0.081 C 
HETATM    4  C4  UNL     1     -43.045   5.130   1.436  1.00 20.00     0.015 C 
HETATM    5  C5  UNL     1     -43.414   7.474   0.491  1.00 20.00     0.042 C 
HETATM    6  C6  UNL     1     -41.098   7.992   0.693  1.00 20.00     0.022 C 
HETATM    7  C7  UNL     1     -41.179   6.498   0.358  1.00 20.00     0.036 C 
HETATM    8  C8  UNL     1     -42.318   8.352  -0.164  1.00 20.00     0.013 C 
ENDROOT
TORSDOF 0
ENDMDL
MODEL 8
REMARK VINA RESULT:      -4.2      8.544      9.669
REMARK  0 active torsions:
REMARK  status: ('A' for Active; 'I' for Inactive)
ROOT
HETATM    1  C1  UNL     1     -41.191   8.388   0.580  1.00 20.00    -0.021 C 
HETATM    2  C2  UNL     1     -42.173   9.050  -0.055  1.00 20.00    -0.025 C 
HETATM    3  C3  UNL     1     -41.723   6.332  -0.644  1.00 20.00    -0.081 C 
HETATM    4  C4  UNL     1     -40.983   5.321  -1.106  1.00 20.00     0.015 C 
HETATM    5  C5  UNL     1     -42.840   7.052  -1.392  1.00 20.00     0.042 C 
HETATM    6  C6  UNL     1     -43.143   7.214   0.964  1.00 20.00     0.022 C 
HETATM    7  C7  UNL     1     -41.649   6.956   0.738  1.00 20.00     0.036 C 
HETATM    8  C8  UNL     1     -43.292   8.060  -0.307  1.00 20.00     0.013 C 
ENDROOT
TORSDOF 0
ENDMDL
MODEL 9
REMARK VINA RESULT:      -4.2     15.830     16.965
REMARK  0 active torsions:
REMARK  status: ('A' for Active; 'I' for Inactive)
ROOT
HETATM    1  C1  UNL     1     -24.802  16.174  11.682  1.00 20.00    -0.021 C 
HETATM    2  C2  UNL     1     -24.099  16.218  10.538  1.00 20.00    -0.025 C 
HETATM    3  C3  UNL     1     -25.452  18.524  11.429  1.00 20.00    -0.081 C 
HETATM    4  C4  UNL     1     -26.554  19.210  11.743  1.00 20.00     0.015 C 
HETATM    5  C5  UNL     1     -24.673  18.611  10.121  1.00 20.00     0.042 C 
HETATM    6  C6  UNL     1     -23.272  17.890  11.907  1.00 20.00     0.022 C 
HETATM    7  C7  UNL     1     -24.708  17.542  12.317  1.00 20.00     0.036 C 
HETATM    8  C8  UNL     1     -23.524  17.616  10.419  1.00 20.00     0.013 C 
ENDROOT
TORSDOF 0
ENDMDL
