MODEL 1
REMARK VINA RESULT:      -4.6      0.000      0.000
REMARK  1 active torsions:
REMARK  status: ('A' for Active; 'I' for Inactive)
REMARK    1  A    between atoms: C1_1  and  C2_2 
ROOT
HETATM    1  C2  UNL     1     -34.801   5.249   4.472  1.00 20.00     0.412 C 
HETATM    2  F4  UNL     1     -36.062   5.500   4.060  1.00 20.00    -0.168 F 
HETATM    3  F5  UNL     1     -34.457   4.023   4.026  1.00 20.00    -0.168 F 
HETATM    4  F6  UNL     1     -33.987   6.152   3.886  1.00 20.00    -0.168 F 
ENDROOT
BRANCH   1   5
HETATM    5  C1  UNL     1     -34.704   5.325   5.970  1.00 20.00     0.339 C 
HETATM    6  F3  UNL     1     -34.450   6.611   6.327  1.00 20.00    -0.246 F 
ENDBRANCH   1   5
TORSDOF 1
ENDMDL
MODEL 2
REMARK VINA RESULT:      -4.5      0.008      1.540
REMARK  1 active torsions:
REMARK  status: ('A' for Active; 'I' for Inactive)
REMARK    1  A    between atoms: C1_1  and  C2_2 
ROOT
HETATM    1  C2  UNL     1     -34.804   5.247   4.471  1.00 20.00     0.412 C 
HETATM    2  F4  UNL     1     -34.465   4.018   4.028  1.00 20.00    -0.168 F 
HETATM    3  F5  UNL     1     -33.978   6.140   3.886  1.00 20.00    -0.168 F 
HETATM    4  F6  UNL     1     -36.062   5.505   4.056  1.00 20.00    -0.168 F 
ENDROOT
BRANCH   1   5
HETATM    5  C1  UNL     1     -34.703   5.322   5.968  1.00 20.00     0.339 C 
HETATM    6  F3  UNL     1     -34.458   6.609   6.327  1.00 20.00    -0.246 F 
ENDBRANCH   1   5
TORSDOF 1
ENDMDL
MODEL 3
REMARK VINA RESULT:      -4.5      0.011      1.547
REMARK  1 active torsions:
REMARK  status: ('A' for Active; 'I' for Inactive)
REMARK    1  A    between atoms: C1_1  and  C2_2 
ROOT
HETATM    1  C2  UNL     1     -34.801   5.243   4.475  1.00 20.00     0.412 C 
HETATM    2  F4  UNL     1     -33.976   6.137   3.891  1.00 20.00    -0.168 F 
HETATM    3  F5  UNL     1     -36.058   5.506   4.058  1.00 20.00    -0.168 F 
HETATM    4  F6  UNL     1     -34.461   4.014   4.033  1.00 20.00    -0.168 F 
ENDROOT
BRANCH   1   5
HETATM    5  C1  UNL     1     -34.702   5.324   5.973  1.00 20.00     0.339 C 
HETATM    6  F3  UNL     1     -34.457   6.613   6.325  1.00 20.00    -0.246 F 
ENDBRANCH   1   5
TORSDOF 1
ENDMDL
MODEL 4
REMARK VINA RESULT:      -4.5      1.049      1.539
REMARK  1 active torsions:
REMARK  status: ('A' for Active; 'I' for Inactive)
REMARK    1  A    between atoms: C1_1  and  C2_2 
ROOT
HETATM    1  C2  UNL     1     -34.909   5.283   4.799  1.00 20.00     0.412 C 
HETATM    2  F4  UNL     1     -35.224   5.048   6.090  1.00 20.00    -0.168 F 
HETATM    3  F5  UNL     1     -34.336   4.166   4.303  1.00 20.00    -0.168 F 
HETATM    4  F6  UNL     1     -36.058   5.500   4.125  1.00 20.00    -0.168 F 
ENDROOT
BRANCH   1   5
HETATM    5  C1  UNL     1     -33.984   6.461   4.681  1.00 20.00     0.339 C 
HETATM    6  F3  UNL     1     -33.973   7.129   5.863  1.00 20.00    -0.246 F 
ENDBRANCH   1   5
TORSDOF 1
ENDMDL
MODEL 5
REMARK VINA RESULT:      -4.5      1.050      1.555
REMARK  1 active torsions:
REMARK  status: ('A' for Active; 'I' for Inactive)
REMARK    1  A    between atoms: C1_1  and  C2_2 
ROOT
HETATM    1  C2  UNL     1     -34.907   5.281   4.806  1.00 20.00     0.412 C 
HETATM    2  F4  UNL     1     -36.054   5.494   4.128  1.00 20.00    -0.168 F 
HETATM    3  F5  UNL     1     -35.226   5.052   6.097  1.00 20.00    -0.168 F 
HETATM    4  F6  UNL     1     -34.334   4.164   4.311  1.00 20.00    -0.168 F 
ENDROOT
BRANCH   1   5
HETATM    5  C1  UNL     1     -33.985   6.462   4.680  1.00 20.00     0.339 C 
HETATM    6  F3  UNL     1     -33.963   7.128   5.864  1.00 20.00    -0.246 F 
ENDBRANCH   1   5
TORSDOF 1
ENDMDL
MODEL 6
REMARK VINA RESULT:      -4.5      1.050      1.893
REMARK  1 active torsions:
REMARK  status: ('A' for Active; 'I' for Inactive)
REMARK    1  A    between atoms: C1_1  and  C2_2 
ROOT
HETATM    1  C2  UNL     1     -34.914   5.287   4.795  1.00 20.00     0.412 C 
HETATM    2  F4  UNL     1     -34.341   4.170   4.299  1.00 20.00    -0.168 F 
HETATM    3  F5  UNL     1     -36.062   5.498   4.118  1.00 20.00    -0.168 F 
HETATM    4  F6  UNL     1     -35.225   5.054   6.087  1.00 20.00    -0.168 F 
ENDROOT
BRANCH   1   5
HETATM    5  C1  UNL     1     -33.988   6.464   4.666  1.00 20.00     0.339 C 
HETATM    6  F3  UNL     1     -33.940   7.115   5.858  1.00 20.00    -0.246 F 
ENDBRANCH   1   5
TORSDOF 1
ENDMDL
MODEL 7
REMARK VINA RESULT:      -4.2      1.153      2.425
REMARK  1 active torsions:
REMARK  status: ('A' for Active; 'I' for Inactive)
REMARK    1  A    between atoms: C1_1  and  C2_2 
ROOT
HETATM    1  C2  UNL     1     -34.950   5.385   4.696  1.00 20.00     0.412 C 
HETATM    2  F4  UNL     1     -36.140   5.623   4.106  1.00 20.00    -0.168 F 
HETATM    3  F5  UNL     1     -34.236   6.530   4.663  1.00 20.00    -0.168 F 
HETATM    4  F6  UNL     1     -35.182   5.073   5.989  1.00 20.00    -0.168 F 
ENDROOT
BRANCH   1   5
HETATM    5  C1  UNL     1     -34.218   4.275   3.996  1.00 20.00     0.339 C 
HETATM    6  F3  UNL     1     -33.700   4.756   2.836  1.00 20.00    -0.246 F 
ENDBRANCH   1   5
TORSDOF 1
ENDMDL
MODEL 8
REMARK VINA RESULT:      -3.9      1.261      2.659
REMARK  1 active torsions:
REMARK  status: ('A' for Active; 'I' for Inactive)
REMARK    1  A    between atoms: C1_1  and  C2_2 
ROOT
HETATM    1  C2  UNL     1     -34.549   5.561   5.797  1.00 20.00     0.412 C 
HETATM    2  F4  UNL     1     -33.851   4.541   6.341  1.00 20.00    -0.168 F 
HETATM    3  F5  UNL     1     -35.585   5.836   6.617  1.00 20.00    -0.168 F 
HETATM    4  F6  UNL     1     -33.743   6.643   5.762  1.00 20.00    -0.168 F 
ENDROOT
BRANCH   1   5
HETATM    5  C1  UNL     1     -35.033   5.203   4.420  1.00 20.00     0.339 C 
HETATM    6  F3  UNL     1     -34.463   4.027   4.048  1.00 20.00    -0.246 F 
ENDBRANCH   1   5
TORSDOF 1
ENDMDL
MODEL 9
REMARK VINA RESULT:      -3.6      2.486      2.945
REMARK  1 active torsions:
REMARK  status: ('A' for Active; 'I' for Inactive)
REMARK    1  A    between atoms: C1_1  and  C2_2 
ROOT
HETATM    1  C2  UNL     1     -32.728   6.809   2.979  1.00 20.00     0.412 C 
HETATM    2  F4  UNL     1     -33.136   7.653   2.008  1.00 20.00    -0.168 F 
HETATM    3  F5  UNL     1     -32.494   5.607   2.412  1.00 20.00    -0.168 F 
HETATM    4  F6  UNL     1     -31.561   7.276   3.471  1.00 20.00    -0.168 F 
ENDROOT
BRANCH   1   5
HETATM    5  C1  UNL     1     -33.765   6.701   4.062  1.00 20.00     0.339 C 
HETATM    6  F3  UNL     1     -33.215   7.104   5.237  1.00 20.00    -0.246 F 
ENDBRANCH   1   5
TORSDOF 1
ENDMDL
