MODEL 1
REMARK VINA RESULT:      -4.3      0.000      0.000
REMARK  3 active torsions:
REMARK  status: ('A' for Active; 'I' for Inactive)
REMARK    1  A    between atoms: C1_1  and  C7_7 
REMARK    2  A    between atoms: C4_4  and  C6_6 
REMARK    3  A    between atoms: C6_6  and  C7_7 
ROOT
HETATM    1  C6  UNL     1     -34.442   6.560   3.548  1.00 20.00     0.015 C 
ENDROOT
BRANCH   1   2
HETATM    2  C4  UNL     1     -33.026   6.396   3.008  1.00 20.00    -0.014 A 
HETATM    3  C2  UNL     1     -32.500   7.340   1.962  1.00 20.00     0.005 A 
HETATM    4  C3  UNL     1     -31.960   7.395   3.364  1.00 20.00     0.005 A 
ENDBRANCH   1   2
BRANCH   1   5
HETATM    5  C7  UNL     1     -34.904   5.349   4.369  1.00 20.00     0.043 C 
HETATM    6  C5  UNL     1     -34.142   4.092   3.954  1.00 20.00     0.017 C 
BRANCH   5   7
HETATM    7  C1  UNL     1     -34.709   5.536   5.864  1.00 20.00     0.235 C 
HETATM    8  O8  UNL     1     -34.266   6.549   6.393  1.00 20.00    -0.306 OA
ENDBRANCH   5   7
ENDBRANCH   1   5
TORSDOF 3
ENDMDL
MODEL 2
REMARK VINA RESULT:      -4.1      2.322      4.100
REMARK  3 active torsions:
REMARK  status: ('A' for Active; 'I' for Inactive)
REMARK    1  A    between atoms: C1_1  and  C7_7 
REMARK    2  A    between atoms: C4_4  and  C6_6 
REMARK    3  A    between atoms: C6_6  and  C7_7 
ROOT
HETATM    1  C6  UNL     1     -33.425   5.890   3.224  1.00 20.00     0.015 C 
ENDROOT
BRANCH   1   2
HETATM    2  C4  UNL     1     -34.597   5.933   4.197  1.00 20.00    -0.014 A 
HETATM    3  C2  UNL     1     -34.786   4.831   5.204  1.00 20.00     0.005 A 
HETATM    4  C3  UNL     1     -34.358   6.199   5.657  1.00 20.00     0.005 A 
ENDBRANCH   1   2
BRANCH   1   5
HETATM    5  C7  UNL     1     -32.882   7.287   2.894  1.00 20.00     0.043 C 
HETATM    6  C5  UNL     1     -31.603   7.568   3.680  1.00 20.00     0.017 C 
BRANCH   5   7
HETATM    7  C1  UNL     1     -32.568   7.469   1.419  1.00 20.00     0.235 C 
HETATM    8  O8  UNL     1     -32.694   8.518   0.798  1.00 20.00    -0.306 OA
ENDBRANCH   5   7
ENDBRANCH   1   5
TORSDOF 3
ENDMDL
MODEL 3
REMARK VINA RESULT:      -4.1      2.339      3.981
REMARK  3 active torsions:
REMARK  status: ('A' for Active; 'I' for Inactive)
REMARK    1  A    between atoms: C1_1  and  C7_7 
REMARK    2  A    between atoms: C4_4  and  C6_6 
REMARK    3  A    between atoms: C6_6  and  C7_7 
ROOT
HETATM    1  C6  UNL     1     -33.561   6.856   4.066  1.00 20.00     0.015 C 
ENDROOT
BRANCH   1   2
HETATM    2  C4  UNL     1     -33.985   5.553   4.735  1.00 20.00    -0.014 A 
HETATM    3  C2  UNL     1     -34.784   5.580   6.008  1.00 20.00     0.005 A 
HETATM    4  C3  UNL     1     -35.428   5.133   4.726  1.00 20.00     0.005 A 
ENDBRANCH   1   2
BRANCH   1   5
HETATM    5  C7  UNL     1     -32.676   6.626   2.834  1.00 20.00     0.043 C 
HETATM    6  C5  UNL     1     -33.026   5.303   2.157  1.00 20.00     0.017 C 
BRANCH   5   7
HETATM    7  C1  UNL     1     -32.807   7.726   1.795  1.00 20.00     0.235 C 
HETATM    8  O8  UNL     1     -32.059   7.880   0.836  1.00 20.00    -0.306 OA
ENDBRANCH   5   7
ENDBRANCH   1   5
TORSDOF 3
ENDMDL
MODEL 4
REMARK VINA RESULT:      -3.9     11.648     12.096
REMARK  3 active torsions:
REMARK  status: ('A' for Active; 'I' for Inactive)
REMARK    1  A    between atoms: C1_1  and  C7_7 
REMARK    2  A    between atoms: C4_4  and  C6_6 
REMARK    3  A    between atoms: C6_6  and  C7_7 
ROOT
HETATM    1  C6  UNL     1     -35.562  16.012  -3.551  1.00 20.00     0.015 C 
ENDROOT
BRANCH   1   2
HETATM    2  C4  UNL     1     -34.750  15.955  -2.262  1.00 20.00    -0.014 A 
HETATM    3  C2  UNL     1     -33.949  17.148  -1.818  1.00 20.00     0.005 A 
HETATM    4  C3  UNL     1     -35.184  16.746  -1.059  1.00 20.00     0.005 A 
ENDBRANCH   1   2
BRANCH   1   5
HETATM    5  C7  UNL     1     -35.172  14.910  -4.544  1.00 20.00     0.043 C 
HETATM    6  C5  UNL     1     -33.769  14.387  -4.246  1.00 20.00     0.017 C 
BRANCH   5   7
HETATM    7  C1  UNL     1     -36.122  13.725  -4.519  1.00 20.00     0.235 C 
HETATM    8  O8  UNL     1     -35.778  12.550  -4.464  1.00 20.00    -0.306 OA
ENDBRANCH   5   7
ENDBRANCH   1   5
TORSDOF 3
ENDMDL
MODEL 5
REMARK VINA RESULT:      -3.9     11.798     12.211
REMARK  3 active torsions:
REMARK  status: ('A' for Active; 'I' for Inactive)
REMARK    1  A    between atoms: C1_1  and  C7_7 
REMARK    2  A    between atoms: C4_4  and  C6_6 
REMARK    3  A    between atoms: C6_6  and  C7_7 
ROOT
HETATM    1  C6  UNL     1     -35.924  15.929  -3.582  1.00 20.00     0.015 C 
ENDROOT
BRANCH   1   2
HETATM    2  C4  UNL     1     -34.657  15.565  -2.817  1.00 20.00    -0.014 A 
HETATM    3  C2  UNL     1     -33.305  15.824  -3.423  1.00 20.00     0.005 A 
HETATM    4  C3  UNL     1     -33.776  16.645  -2.255  1.00 20.00     0.005 A 
ENDBRANCH   1   2
BRANCH   1   5
HETATM    5  C7  UNL     1     -36.819  14.713  -3.855  1.00 20.00     0.043 C 
HETATM    6  C5  UNL     1     -38.159  15.150  -4.443  1.00 20.00     0.017 C 
BRANCH   5   7
HETATM    7  C1  UNL     1     -36.193  13.720  -4.819  1.00 20.00     0.235 C 
HETATM    8  O8  UNL     1     -35.813  12.594  -4.519  1.00 20.00    -0.306 OA
ENDBRANCH   5   7
ENDBRANCH   1   5
TORSDOF 3
ENDMDL
MODEL 6
REMARK VINA RESULT:      -3.8      0.952      1.452
REMARK  3 active torsions:
REMARK  status: ('A' for Active; 'I' for Inactive)
REMARK    1  A    between atoms: C1_1  and  C7_7 
REMARK    2  A    between atoms: C4_4  and  C6_6 
REMARK    3  A    between atoms: C6_6  and  C7_7 
ROOT
HETATM    1  C6  UNL     1     -33.132   5.985   2.697  1.00 20.00     0.015 C 
ENDROOT
BRANCH   1   2
HETATM    2  C4  UNL     1     -32.420   7.296   2.382  1.00 20.00    -0.014 A 
HETATM    3  C2  UNL     1     -32.055   7.638   0.964  1.00 20.00     0.005 A 
HETATM    4  C3  UNL     1     -33.147   8.398   1.664  1.00 20.00     0.005 A 
ENDBRANCH   1   2
BRANCH   1   5
HETATM    5  C7  UNL     1     -34.166   6.130   3.820  1.00 20.00     0.043 C 
HETATM    6  C5  UNL     1     -34.687   4.762   4.255  1.00 20.00     0.017 C 
BRANCH   5   7
HETATM    7  C1  UNL     1     -33.611   6.826   5.052  1.00 20.00     0.235 C 
HETATM    8  O8  UNL     1     -34.087   6.746   6.178  1.00 20.00    -0.306 OA
ENDBRANCH   5   7
ENDBRANCH   1   5
TORSDOF 3
ENDMDL
MODEL 7
REMARK VINA RESULT:      -3.8      1.444      1.882
REMARK  3 active torsions:
REMARK  status: ('A' for Active; 'I' for Inactive)
REMARK    1  A    between atoms: C1_1  and  C7_7 
REMARK    2  A    between atoms: C4_4  and  C6_6 
REMARK    3  A    between atoms: C6_6  and  C7_7 
ROOT
HETATM    1  C6  UNL     1     -34.011   6.789   3.713  1.00 20.00     0.015 C 
ENDROOT
BRANCH   1   2
HETATM    2  C4  UNL     1     -32.793   6.619   2.811  1.00 20.00    -0.014 A 
HETATM    3  C2  UNL     1     -32.498   7.630   1.738  1.00 20.00     0.005 A 
HETATM    4  C3  UNL     1     -31.614   7.541   2.950  1.00 20.00     0.005 A 
ENDBRANCH   1   2
BRANCH   1   5
HETATM    5  C7  UNL     1     -33.836   6.104   5.074  1.00 20.00     0.043 C 
HETATM    6  C5  UNL     1     -34.049   7.101   6.211  1.00 20.00     0.017 C 
BRANCH   5   7
HETATM    7  C1  UNL     1     -34.801   4.950   5.286  1.00 20.00     0.235 C 
HETATM    8  O8  UNL     1     -35.131   4.144   4.423  1.00 20.00    -0.306 OA
ENDBRANCH   5   7
ENDBRANCH   1   5
TORSDOF 3
ENDMDL
MODEL 8
REMARK VINA RESULT:      -3.8     15.655     16.556
REMARK  3 active torsions:
REMARK  status: ('A' for Active; 'I' for Inactive)
REMARK    1  A    between atoms: C1_1  and  C7_7 
REMARK    2  A    between atoms: C4_4  and  C6_6 
REMARK    3  A    between atoms: C6_6  and  C7_7 
ROOT
HETATM    1  C6  UNL     1     -24.438  17.992   9.771  1.00 20.00     0.015 C 
ENDROOT
BRANCH   1   2
HETATM    2  C4  UNL     1     -23.825  16.742  10.393  1.00 20.00    -0.014 A 
HETATM    3  C2  UNL     1     -23.381  16.751  11.830  1.00 20.00     0.005 A 
HETATM    4  C3  UNL     1     -24.590  15.956  11.421  1.00 20.00     0.005 A 
ENDBRANCH   1   2
BRANCH   1   5
HETATM    5  C7  UNL     1     -23.551  18.603   8.679  1.00 20.00     0.043 C 
HETATM    6  C5  UNL     1     -22.464  17.619   8.253  1.00 20.00     0.017 C 
BRANCH   5   7
HETATM    7  C1  UNL     1     -24.329  19.000   7.436  1.00 20.00     0.235 C 
HETATM    8  O8  UNL     1     -23.878  19.002   6.296  1.00 20.00    -0.306 OA
ENDBRANCH   5   7
ENDBRANCH   1   5
TORSDOF 3
ENDMDL
MODEL 9
REMARK VINA RESULT:      -3.7     11.784     12.490
REMARK  3 active torsions:
REMARK  status: ('A' for Active; 'I' for Inactive)
REMARK    1  A    between atoms: C1_1  and  C7_7 
REMARK    2  A    between atoms: C4_4  and  C6_6 
REMARK    3  A    between atoms: C6_6  and  C7_7 
ROOT
HETATM    1  C6  UNL     1     -35.558  16.112  -4.415  1.00 20.00     0.015 C 
ENDROOT
BRANCH   1   2
HETATM    2  C4  UNL     1     -34.822  15.545  -3.206  1.00 20.00    -0.014 A 
HETATM    3  C2  UNL     1     -33.655  16.287  -2.613  1.00 20.00     0.005 A 
HETATM    4  C3  UNL     1     -34.955  16.206  -1.862  1.00 20.00     0.005 A 
ENDBRANCH   1   2
BRANCH   1   5
HETATM    5  C7  UNL     1     -36.239  15.023  -5.254  1.00 20.00     0.043 C 
HETATM    6  C5  UNL     1     -35.397  14.679  -6.480  1.00 20.00     0.017 C 
BRANCH   5   7
HETATM    7  C1  UNL     1     -36.475  13.737  -4.479  1.00 20.00     0.235 C 
HETATM    8  O8  UNL     1     -35.873  12.686  -4.663  1.00 20.00    -0.306 OA
ENDBRANCH   5   7
ENDBRANCH   1   5
TORSDOF 3
ENDMDL
