MODEL 1
REMARK VINA RESULT:      -3.1      0.000      0.000
REMARK  1 active torsions:
REMARK  status: ('A' for Active; 'I' for Inactive)
REMARK    1  A    between atoms: C1_1  and  C2_2 
ROOT
HETATM    1  C2  UNL     1     -34.578   5.438   4.435  1.00 20.00     0.200 C 
HETATM    2 CL4  UNL     1     -36.230   5.736   3.799  1.00 20.00    -0.083 Cl
HETATM    3 CL5  UNL     1     -34.690   5.266   6.213  1.00 20.00    -0.083 Cl
HETATM    4 CL6  UNL     1     -33.980   3.906   3.728  1.00 20.00    -0.083 Cl
ENDROOT
BRANCH   1   5
HETATM    5  C1  UNL     1     -33.683   6.617   4.045  1.00 20.00     0.173 C 
HETATM    6 CL3  UNL     1     -32.787   6.359   2.521  1.00 20.00    -0.126 Cl
ENDBRANCH   1   5
TORSDOF 1
ENDMDL
MODEL 2
REMARK VINA RESULT:      -3.1     16.519     17.425
REMARK  1 active torsions:
REMARK  status: ('A' for Active; 'I' for Inactive)
REMARK    1  A    between atoms: C1_1  and  C2_2 
ROOT
HETATM    1  C2  UNL     1     -23.834  17.192  11.061  1.00 20.00     0.200 C 
HETATM    2 CL4  UNL     1     -22.912  16.829   9.564  1.00 20.00    -0.083 Cl
HETATM    3 CL5  UNL     1     -24.613  15.679  11.614  1.00 20.00    -0.083 Cl
HETATM    4 CL6  UNL     1     -22.673  17.750  12.305  1.00 20.00    -0.083 Cl
ENDROOT
BRANCH   1   5
HETATM    5  C1  UNL     1     -24.874  18.271  10.747  1.00 20.00     0.173 C 
HETATM    6 CL3  UNL     1     -25.729  18.880  12.193  1.00 20.00    -0.126 Cl
ENDBRANCH   1   5
TORSDOF 1
ENDMDL
MODEL 3
REMARK VINA RESULT:      -3.1     16.504     17.445
REMARK  1 active torsions:
REMARK  status: ('A' for Active; 'I' for Inactive)
REMARK    1  A    between atoms: C1_1  and  C2_2 
ROOT
HETATM    1  C2  UNL     1     -23.836  17.177  11.000  1.00 20.00     0.200 C 
HETATM    2 CL4  UNL     1     -22.685  17.751  12.253  1.00 20.00    -0.083 Cl
HETATM    3 CL5  UNL     1     -22.903  16.802   9.520  1.00 20.00    -0.083 Cl
HETATM    4 CL6  UNL     1     -24.613  15.682  11.606  1.00 20.00    -0.083 Cl
ENDROOT
BRANCH   1   5
HETATM    5  C1  UNL     1     -24.870  18.277  10.743  1.00 20.00     0.173 C 
HETATM    6 CL3  UNL     1     -25.691  18.844  12.225  1.00 20.00    -0.126 Cl
ENDBRANCH   1   5
TORSDOF 1
ENDMDL
MODEL 4
REMARK VINA RESULT:      -3.1      0.031      2.058
REMARK  1 active torsions:
REMARK  status: ('A' for Active; 'I' for Inactive)
REMARK    1  A    between atoms: C1_1  and  C2_2 
ROOT
HETATM    1  C2  UNL     1     -34.611   5.464   4.439  1.00 20.00     0.200 C 
HETATM    2 CL4  UNL     1     -33.983   3.934   3.740  1.00 20.00    -0.083 Cl
HETATM    3 CL5  UNL     1     -36.255   5.737   3.788  1.00 20.00    -0.083 Cl
HETATM    4 CL6  UNL     1     -34.702   5.265   6.216  1.00 20.00    -0.083 Cl
ENDROOT
BRANCH   1   5
HETATM    5  C1  UNL     1     -33.663   6.604   4.055  1.00 20.00     0.173 C 
HETATM    6 CL3  UNL     1     -32.798   6.324   2.517  1.00 20.00    -0.126 Cl
ENDBRANCH   1   5
TORSDOF 1
ENDMDL
MODEL 5
REMARK VINA RESULT:      -3.1      0.032      2.055
REMARK  1 active torsions:
REMARK  status: ('A' for Active; 'I' for Inactive)
REMARK    1  A    between atoms: C1_1  and  C2_2 
ROOT
HETATM    1  C2  UNL     1     -34.596   5.450   4.404  1.00 20.00     0.200 C 
HETATM    2 CL4  UNL     1     -34.684   5.282   6.189  1.00 20.00    -0.083 Cl
HETATM    3 CL5  UNL     1     -33.976   3.912   3.732  1.00 20.00    -0.083 Cl
HETATM    4 CL6  UNL     1     -36.254   5.739   3.793  1.00 20.00    -0.083 Cl
ENDROOT
BRANCH   1   5
HETATM    5  C1  UNL     1     -33.667   6.620   4.067  1.00 20.00     0.173 C 
HETATM    6 CL3  UNL     1     -32.781   6.406   2.531  1.00 20.00    -0.126 Cl
ENDBRANCH   1   5
TORSDOF 1
ENDMDL
MODEL 6
REMARK VINA RESULT:      -3.1     16.500     17.361
REMARK  1 active torsions:
REMARK  status: ('A' for Active; 'I' for Inactive)
REMARK    1  A    between atoms: C1_1  and  C2_2 
ROOT
HETATM    1  C2  UNL     1     -23.801  17.196  11.013  1.00 20.00     0.200 C 
HETATM    2 CL4  UNL     1     -24.617  15.709  11.599  1.00 20.00    -0.083 Cl
HETATM    3 CL5  UNL     1     -22.641  17.724  12.270  1.00 20.00    -0.083 Cl
HETATM    4 CL6  UNL     1     -22.907  16.786   9.517  1.00 20.00    -0.083 Cl
ENDROOT
BRANCH   1   5
HETATM    5  C1  UNL     1     -24.863  18.268  10.751  1.00 20.00     0.173 C 
HETATM    6 CL3  UNL     1     -25.741  18.776  12.222  1.00 20.00    -0.126 Cl
ENDBRANCH   1   5
TORSDOF 1
ENDMDL
MODEL 7
REMARK VINA RESULT:      -3.0     16.845     17.616
REMARK  1 active torsions:
REMARK  status: ('A' for Active; 'I' for Inactive)
REMARK    1  A    between atoms: C1_1  and  C2_2 
ROOT
HETATM    1  C2  UNL     1     -24.081  17.603  11.422  1.00 20.00     0.200 C 
HETATM    2 CL4  UNL     1     -25.298  18.559  12.331  1.00 20.00    -0.083 Cl
HETATM    3 CL5  UNL     1     -22.511  17.756  12.268  1.00 20.00    -0.083 Cl
HETATM    4 CL6  UNL     1     -24.598  15.889  11.438  1.00 20.00    -0.083 Cl
ENDROOT
BRANCH   1   5
HETATM    5  C1  UNL     1     -23.998  18.146   9.993  1.00 20.00     0.173 C 
HETATM    6 CL3  UNL     1     -22.327  18.469   9.449  1.00 20.00    -0.126 Cl
ENDBRANCH   1   5
TORSDOF 1
ENDMDL
MODEL 8
REMARK VINA RESULT:      -3.0     16.590     17.399
REMARK  1 active torsions:
REMARK  status: ('A' for Active; 'I' for Inactive)
REMARK    1  A    between atoms: C1_1  and  C2_2 
ROOT
HETATM    1  C2  UNL     1     -24.148  17.597  11.474  1.00 20.00     0.200 C 
HETATM    2 CL4  UNL     1     -24.667  15.883  11.593  1.00 20.00    -0.083 Cl
HETATM    3 CL5  UNL     1     -25.381  18.608  12.286  1.00 20.00    -0.083 Cl
HETATM    4 CL6  UNL     1     -22.585  17.764  12.332  1.00 20.00    -0.083 Cl
ENDROOT
BRANCH   1   5
HETATM    5  C1  UNL     1     -24.012  17.967   9.994  1.00 20.00     0.173 C 
HETATM    6 CL3  UNL     1     -22.772  17.013   9.132  1.00 20.00    -0.126 Cl
ENDBRANCH   1   5
TORSDOF 1
ENDMDL
MODEL 9
REMARK VINA RESULT:      -3.0     16.597     17.473
REMARK  1 active torsions:
REMARK  status: ('A' for Active; 'I' for Inactive)
REMARK    1  A    between atoms: C1_1  and  C2_2 
ROOT
HETATM    1  C2  UNL     1     -24.162  17.589  11.471  1.00 20.00     0.200 C 
HETATM    2 CL4  UNL     1     -22.597  17.777  12.331  1.00 20.00    -0.083 Cl
HETATM    3 CL5  UNL     1     -24.652  15.871  11.581  1.00 20.00    -0.083 Cl
HETATM    4 CL6  UNL     1     -25.377  18.606  12.304  1.00 20.00    -0.083 Cl
ENDROOT
BRANCH   1   5
HETATM    5  C1  UNL     1     -23.976  18.023  10.015  1.00 20.00     0.173 C 
HETATM    6 CL3  UNL     1     -22.802  17.020   9.116  1.00 20.00    -0.126 Cl
ENDBRANCH   1   5
TORSDOF 1
ENDMDL
