MODEL 1
REMARK VINA RESULT:      -3.3      0.000      0.000
REMARK  0 active torsions:
REMARK  status: ('A' for Active; 'I' for Inactive)
ROOT
HETATM    1  C1  UNL     1     -35.082   5.139   4.293  1.00 20.00     0.050 C 
HETATM    2  C2  UNL     1     -34.153   6.106   4.474  1.00 20.00     0.094 C 
HETATM    3 CL3  UNL     1     -33.918   6.862   6.014  1.00 20.00    -0.072 Cl
HETATM    4 CL4  UNL     1     -33.141   6.644   3.174  1.00 20.00    -0.072 Cl
ENDROOT
TORSDOF 0
ENDMDL
MODEL 2
REMARK VINA RESULT:      -3.3      0.054      2.088
REMARK  0 active torsions:
REMARK  status: ('A' for Active; 'I' for Inactive)
ROOT
HETATM    1  C1  UNL     1     -35.043   5.161   4.305  1.00 20.00     0.050 C 
HETATM    2  C2  UNL     1     -34.109   6.127   4.465  1.00 20.00     0.094 C 
HETATM    3 CL3  UNL     1     -33.104   6.644   3.152  1.00 20.00    -0.072 Cl
HETATM    4 CL4  UNL     1     -33.863   6.905   5.993  1.00 20.00    -0.072 Cl
ENDROOT
TORSDOF 0
ENDMDL
MODEL 3
REMARK VINA RESULT:      -3.3      1.614      1.912
REMARK  0 active torsions:
REMARK  status: ('A' for Active; 'I' for Inactive)
ROOT
HETATM    1  C1  UNL     1     -33.907   6.842   5.824  1.00 20.00     0.050 C 
HETATM    2  C2  UNL     1     -34.052   6.253   4.614  1.00 20.00     0.094 C 
HETATM    3 CL3  UNL     1     -35.205   4.988   4.353  1.00 20.00    -0.072 Cl
HETATM    4 CL4  UNL     1     -33.092   6.731   3.254  1.00 20.00    -0.072 Cl
ENDROOT
TORSDOF 0
ENDMDL
MODEL 4
REMARK VINA RESULT:      -3.3      1.614      2.418
REMARK  0 active torsions:
REMARK  status: ('A' for Active; 'I' for Inactive)
ROOT
HETATM    1  C1  UNL     1     -33.906   6.844   5.822  1.00 20.00     0.050 C 
HETATM    2  C2  UNL     1     -34.050   6.255   4.612  1.00 20.00     0.094 C 
HETATM    3 CL3  UNL     1     -33.090   6.730   3.252  1.00 20.00    -0.072 Cl
HETATM    4 CL4  UNL     1     -35.206   4.991   4.352  1.00 20.00    -0.072 Cl
ENDROOT
TORSDOF 0
ENDMDL
MODEL 5
REMARK VINA RESULT:      -3.2      1.631      1.917
REMARK  0 active torsions:
REMARK  status: ('A' for Active; 'I' for Inactive)
ROOT
HETATM    1  C1  UNL     1     -33.233   6.593   3.295  1.00 20.00     0.050 C 
HETATM    2  C2  UNL     1     -34.008   6.265   4.354  1.00 20.00     0.094 C 
HETATM    3 CL3  UNL     1     -33.763   6.979   5.913  1.00 20.00    -0.072 Cl
HETATM    4 CL4  UNL     1     -35.292   5.111   4.214  1.00 20.00    -0.072 Cl
ENDROOT
TORSDOF 0
ENDMDL
MODEL 6
REMARK VINA RESULT:      -3.2      1.622      2.401
REMARK  0 active torsions:
REMARK  status: ('A' for Active; 'I' for Inactive)
ROOT
HETATM    1  C1  UNL     1     -33.224   6.626   3.324  1.00 20.00     0.050 C 
HETATM    2  C2  UNL     1     -34.008   6.274   4.370  1.00 20.00     0.094 C 
HETATM    3 CL3  UNL     1     -35.271   5.100   4.203  1.00 20.00    -0.072 Cl
HETATM    4 CL4  UNL     1     -33.796   6.979   5.938  1.00 20.00    -0.072 Cl
ENDROOT
TORSDOF 0
ENDMDL
MODEL 7
REMARK VINA RESULT:      -3.0      2.118      2.475
REMARK  0 active torsions:
REMARK  status: ('A' for Active; 'I' for Inactive)
ROOT
HETATM    1  C1  UNL     1     -32.432   7.275   2.434  1.00 20.00     0.050 C 
HETATM    2  C2  UNL     1     -33.135   6.316   3.080  1.00 20.00     0.094 C 
HETATM    3 CL3  UNL     1     -33.960   6.641   4.567  1.00 20.00    -0.072 Cl
HETATM    4 CL4  UNL     1     -33.250   4.704   2.456  1.00 20.00    -0.072 Cl
ENDROOT
TORSDOF 0
ENDMDL
MODEL 8
REMARK VINA RESULT:      -3.0      2.119      3.100
REMARK  0 active torsions:
REMARK  status: ('A' for Active; 'I' for Inactive)
ROOT
HETATM    1  C1  UNL     1     -32.433   7.276   2.435  1.00 20.00     0.050 C 
HETATM    2  C2  UNL     1     -33.134   6.315   3.079  1.00 20.00     0.094 C 
HETATM    3 CL3  UNL     1     -33.247   4.702   2.458  1.00 20.00    -0.072 Cl
HETATM    4 CL4  UNL     1     -33.963   6.641   4.565  1.00 20.00    -0.072 Cl
ENDROOT
TORSDOF 0
ENDMDL
MODEL 9
REMARK VINA RESULT:      -3.0      1.838      1.854
REMARK  0 active torsions:
REMARK  status: ('A' for Active; 'I' for Inactive)
ROOT
HETATM    1  C1  UNL     1     -33.284   4.890   2.554  1.00 20.00     0.050 C 
HETATM    2  C2  UNL     1     -33.233   6.160   3.017  1.00 20.00     0.094 C 
HETATM    3 CL3  UNL     1     -33.956   6.605   4.527  1.00 20.00    -0.072 Cl
HETATM    4 CL4  UNL     1     -32.442   7.418   2.126  1.00 20.00    -0.072 Cl
ENDROOT
TORSDOF 0
ENDMDL
