MODEL 1
REMARK VINA RESULT:      -2.8      0.000      0.000
REMARK  0 active torsions:
REMARK  status: ('A' for Active; 'I' for Inactive)
ROOT
HETATM    1  C1  UNL     1     -34.681   5.379   5.988  1.00 20.00     0.068 C 
HETATM    2  C2  UNL     1     -34.616   5.426   4.467  1.00 20.00     0.184 C 
HETATM    3 CL3  UNL     1     -36.245   5.729   3.803  1.00 20.00    -0.084 Cl
HETATM    4 CL4  UNL     1     -33.518   6.737   3.951  1.00 20.00    -0.084 Cl
HETATM    5 CL5  UNL     1     -34.007   3.869   3.841  1.00 20.00    -0.084 Cl
ENDROOT
TORSDOF 0
ENDMDL
MODEL 2
REMARK VINA RESULT:      -2.8      0.001      2.255
REMARK  0 active torsions:
REMARK  status: ('A' for Active; 'I' for Inactive)
ROOT
HETATM    1  C1  UNL     1     -34.681   5.379   5.988  1.00 20.00     0.068 C 
HETATM    2  C2  UNL     1     -34.616   5.427   4.467  1.00 20.00     0.184 C 
HETATM    3 CL3  UNL     1     -33.519   6.737   3.952  1.00 20.00    -0.084 Cl
HETATM    4 CL4  UNL     1     -34.007   3.869   3.841  1.00 20.00    -0.084 Cl
HETATM    5 CL5  UNL     1     -36.246   5.729   3.803  1.00 20.00    -0.084 Cl
ENDROOT
TORSDOF 0
ENDMDL
MODEL 3
REMARK VINA RESULT:      -2.8      0.001      2.255
REMARK  0 active torsions:
REMARK  status: ('A' for Active; 'I' for Inactive)
ROOT
HETATM    1  C1  UNL     1     -34.682   5.378   5.988  1.00 20.00     0.068 C 
HETATM    2  C2  UNL     1     -34.616   5.426   4.467  1.00 20.00     0.184 C 
HETATM    3 CL3  UNL     1     -34.006   3.869   3.842  1.00 20.00    -0.084 Cl
HETATM    4 CL4  UNL     1     -36.246   5.729   3.803  1.00 20.00    -0.084 Cl
HETATM    5 CL5  UNL     1     -33.519   6.737   3.952  1.00 20.00    -0.084 Cl
ENDROOT
TORSDOF 0
ENDMDL
MODEL 4
REMARK VINA RESULT:      -2.8     16.575     17.462
REMARK  0 active torsions:
REMARK  status: ('A' for Active; 'I' for Inactive)
ROOT
HETATM    1  C1  UNL     1     -23.133  16.908   9.739  1.00 20.00     0.068 C 
HETATM    2  C2  UNL     1     -23.797  17.137  11.091  1.00 20.00     0.184 C 
HETATM    3 CL3  UNL     1     -22.570  17.637  12.287  1.00 20.00    -0.084 Cl
HETATM    4 CL4  UNL     1     -25.033  18.419  10.945  1.00 20.00    -0.084 Cl
HETATM    5 CL5  UNL     1     -24.577  15.630  11.643  1.00 20.00    -0.084 Cl
ENDROOT
TORSDOF 0
ENDMDL
MODEL 5
REMARK VINA RESULT:      -2.7     16.801     17.702
REMARK  0 active torsions:
REMARK  status: ('A' for Active; 'I' for Inactive)
ROOT
HETATM    1  C1  UNL     1     -22.805  17.755  12.305  1.00 20.00     0.068 C 
HETATM    2  C2  UNL     1     -24.120  17.576  11.558  1.00 20.00     0.184 C 
HETATM    3 CL3  UNL     1     -23.925  18.096   9.861  1.00 20.00    -0.084 Cl
HETATM    4 CL4  UNL     1     -24.605  15.857  11.594  1.00 20.00    -0.084 Cl
HETATM    5 CL5  UNL     1     -25.392  18.561  12.332  1.00 20.00    -0.084 Cl
ENDROOT
TORSDOF 0
ENDMDL
MODEL 6
REMARK VINA RESULT:      -2.7     16.806     17.585
REMARK  0 active torsions:
REMARK  status: ('A' for Active; 'I' for Inactive)
ROOT
HETATM    1  C1  UNL     1     -22.812  17.760  12.320  1.00 20.00     0.068 C 
HETATM    2  C2  UNL     1     -24.123  17.579  11.565  1.00 20.00     0.184 C 
HETATM    3 CL3  UNL     1     -25.397  18.573  12.324  1.00 20.00    -0.084 Cl
HETATM    4 CL4  UNL     1     -23.915  18.088   9.866  1.00 20.00    -0.084 Cl
HETATM    5 CL5  UNL     1     -24.612  15.863  11.608  1.00 20.00    -0.084 Cl
ENDROOT
TORSDOF 0
ENDMDL
MODEL 7
REMARK VINA RESULT:      -2.7     16.781     17.753
REMARK  0 active torsions:
REMARK  status: ('A' for Active; 'I' for Inactive)
ROOT
HETATM    1  C1  UNL     1     -23.809  17.931  10.004  1.00 20.00     0.068 C 
HETATM    2  C2  UNL     1     -23.989  17.522  11.460  1.00 20.00     0.184 C 
HETATM    3 CL3  UNL     1     -24.520  15.820  11.545  1.00 20.00    -0.084 Cl
HETATM    4 CL4  UNL     1     -22.440  17.699  12.332  1.00 20.00    -0.084 Cl
HETATM    5 CL5  UNL     1     -25.219  18.561  12.231  1.00 20.00    -0.084 Cl
ENDROOT
TORSDOF 0
ENDMDL
MODEL 8
REMARK VINA RESULT:      -2.7     16.725     17.447
REMARK  0 active torsions:
REMARK  status: ('A' for Active; 'I' for Inactive)
ROOT
HETATM    1  C1  UNL     1     -24.538  15.905  11.438  1.00 20.00     0.068 C 
HETATM    2  C2  UNL     1     -23.806  17.149  10.952  1.00 20.00     0.184 C 
HETATM    3 CL3  UNL     1     -22.640  17.685  12.194  1.00 20.00    -0.084 Cl
HETATM    4 CL4  UNL     1     -22.927  16.780   9.442  1.00 20.00    -0.084 Cl
HETATM    5 CL5  UNL     1     -24.980  18.458  10.644  1.00 20.00    -0.084 Cl
ENDROOT
TORSDOF 0
ENDMDL
MODEL 9
REMARK VINA RESULT:      -2.7      8.240      8.936
REMARK  0 active torsions:
REMARK  status: ('A' for Active; 'I' for Inactive)
ROOT
HETATM    1  C1  UNL     1     -41.385   7.587   0.580  1.00 20.00     0.068 C 
HETATM    2  C2  UNL     1     -42.033   6.371  -0.067  1.00 20.00     0.184 C 
HETATM    3 CL3  UNL     1     -42.744   5.325   1.193  1.00 20.00    -0.084 Cl
HETATM    4 CL4  UNL     1     -43.321   6.900  -1.187  1.00 20.00    -0.084 Cl
HETATM    5 CL5  UNL     1     -40.808   5.446  -0.978  1.00 20.00    -0.084 Cl
ENDROOT
TORSDOF 0
ENDMDL
