MODEL 1
REMARK VINA RESULT:      -4.5      0.000      0.000
REMARK  1 active torsions:
REMARK  status: ('A' for Active; 'I' for Inactive)
REMARK    1  A    between atoms: C2_2  and  C5_5 
ROOT
HETATM    1  C1  UNL     1     -34.013   4.537   3.682  1.00 20.00     0.088 A 
HETATM    2  C2  UNL     1     -33.969   5.627   4.526  1.00 20.00     0.147 A 
HETATM    3  C3  UNL     1     -33.035   6.537   2.762  1.00 20.00     0.071 A 
HETATM    4  C4  UNL     1     -32.393   7.531   1.875  1.00 20.00     0.078 C 
HETATM    5  N6  UNL     1     -33.409   6.775   4.000  1.00 20.00    -0.241 NA
HETATM    6  S10 UNL     1     -33.329   4.954   2.167  1.00 20.00    -0.085 SA
ENDROOT
BRANCH   2   7
HETATM    7  C5  UNL     1     -34.464   5.663   5.916  1.00 20.00     0.435 C 
HETATM    8  F7  UNL     1     -34.471   6.915   6.479  1.00 20.00    -0.165 F 
HETATM    9  F8  UNL     1     -35.752   5.214   6.066  1.00 20.00    -0.165 F 
HETATM   10  F9  UNL     1     -33.721   4.895   6.774  1.00 20.00    -0.165 F 
ENDBRANCH   2   7
TORSDOF 1
ENDMDL
MODEL 2
REMARK VINA RESULT:      -4.3      3.058      4.055
REMARK  1 active torsions:
REMARK  status: ('A' for Active; 'I' for Inactive)
REMARK    1  A    between atoms: C2_2  and  C5_5 
ROOT
HETATM    1  C1  UNL     1     -33.374   5.131   2.550  1.00 20.00     0.088 A 
HETATM    2  C2  UNL     1     -33.173   6.422   2.992  1.00 20.00     0.147 A 
HETATM    3  C3  UNL     1     -34.269   5.646   4.726  1.00 20.00     0.071 A 
HETATM    4  C4  UNL     1     -34.935   5.579   6.045  1.00 20.00     0.078 C 
HETATM    5  N6  UNL     1     -33.686   6.719   4.239  1.00 20.00    -0.241 NA
HETATM    6  S10 UNL     1     -34.237   4.244   3.736  1.00 20.00    -0.085 SA
ENDROOT
BRANCH   2   7
HETATM    7  C5  UNL     1     -32.468   7.488   2.253  1.00 20.00     0.435 C 
HETATM    8  F7  UNL     1     -31.821   7.055   1.122  1.00 20.00    -0.165 F 
HETATM    9  F8  UNL     1     -33.282   8.501   1.814  1.00 20.00    -0.165 F 
HETATM   10  F9  UNL     1     -31.499   8.110   2.996  1.00 20.00    -0.165 F 
ENDBRANCH   2   7
TORSDOF 1
ENDMDL
MODEL 3
REMARK VINA RESULT:      -4.2     15.843     16.283
REMARK  1 active torsions:
REMARK  status: ('A' for Active; 'I' for Inactive)
REMARK    1  A    between atoms: C2_2  and  C5_5 
ROOT
HETATM    1  C1  UNL     1     -24.570  18.205   9.688  1.00 20.00     0.088 A 
HETATM    2  C2  UNL     1     -23.850  17.161  10.231  1.00 20.00     0.147 A 
HETATM    3  C3  UNL     1     -22.646  17.488   8.428  1.00 20.00     0.071 A 
HETATM    4  C4  UNL     1     -21.586  17.340   7.408  1.00 20.00     0.078 C 
HETATM    5  N6  UNL     1     -22.748  16.748   9.510  1.00 20.00    -0.241 NA
HETATM    6  S10 UNL     1     -23.844  18.699   8.216  1.00 20.00    -0.085 SA
ENDROOT
BRANCH   2   7
HETATM    7  C5  UNL     1     -24.160  16.466  11.497  1.00 20.00     0.435 C 
HETATM    8  F7  UNL     1     -23.070  16.256  12.304  1.00 20.00    -0.165 F 
HETATM    9  F8  UNL     1     -25.056  17.129  12.297  1.00 20.00    -0.165 F 
HETATM   10  F9  UNL     1     -24.706  15.223  11.310  1.00 20.00    -0.165 F 
ENDBRANCH   2   7
TORSDOF 1
ENDMDL
MODEL 4
REMARK VINA RESULT:      -4.1     12.156     12.845
REMARK  1 active torsions:
REMARK  status: ('A' for Active; 'I' for Inactive)
REMARK    1  A    between atoms: C2_2  and  C5_5 
ROOT
HETATM    1  C1  UNL     1     -35.159  15.853  -2.315  1.00 20.00     0.088 A 
HETATM    2  C2  UNL     1     -34.088  15.550  -3.130  1.00 20.00     0.147 A 
HETATM    3  C3  UNL     1     -33.223  17.266  -2.072  1.00 20.00     0.071 A 
HETATM    4  C4  UNL     1     -32.266  18.312  -1.650  1.00 20.00     0.078 C 
HETATM    5  N6  UNL     1     -32.977  16.359  -2.993  1.00 20.00    -0.241 NA
HETATM    6  S10 UNL     1     -34.770  17.203  -1.332  1.00 20.00    -0.085 SA
ENDROOT
BRANCH   2   7
HETATM    7  C5  UNL     1     -34.037  14.451  -4.115  1.00 20.00     0.435 C 
HETATM    8  F7  UNL     1     -34.729  13.327  -3.740  1.00 20.00    -0.165 F 
HETATM    9  F8  UNL     1     -34.552  14.776  -5.345  1.00 20.00    -0.165 F 
HETATM   10  F9  UNL     1     -32.764  14.013  -4.370  1.00 20.00    -0.165 F 
ENDBRANCH   2   7
TORSDOF 1
ENDMDL
MODEL 5
REMARK VINA RESULT:      -4.1     12.169     12.864
REMARK  1 active torsions:
REMARK  status: ('A' for Active; 'I' for Inactive)
REMARK    1  A    between atoms: C2_2  and  C5_5 
ROOT
HETATM    1  C1  UNL     1     -35.147  15.855  -2.335  1.00 20.00     0.088 A 
HETATM    2  C2  UNL     1     -34.069  15.554  -3.142  1.00 20.00     0.147 A 
HETATM    3  C3  UNL     1     -33.215  17.270  -2.075  1.00 20.00     0.071 A 
HETATM    4  C4  UNL     1     -32.263  18.316  -1.643  1.00 20.00     0.078 C 
HETATM    5  N6  UNL     1     -32.961  16.364  -2.994  1.00 20.00    -0.241 NA
HETATM    6  S10 UNL     1     -34.768  17.204  -1.348  1.00 20.00    -0.085 SA
ENDROOT
BRANCH   2   7
HETATM    7  C5  UNL     1     -34.008  14.457  -4.128  1.00 20.00     0.435 C 
HETATM    8  F7  UNL     1     -34.503  14.786  -5.365  1.00 20.00    -0.165 F 
HETATM    9  F8  UNL     1     -32.741  13.996  -4.379  1.00 20.00    -0.165 F 
HETATM   10  F9  UNL     1     -34.719  13.349  -3.748  1.00 20.00    -0.165 F 
ENDBRANCH   2   7
TORSDOF 1
ENDMDL
MODEL 6
REMARK VINA RESULT:      -4.0     12.188     12.847
REMARK  1 active torsions:
REMARK  status: ('A' for Active; 'I' for Inactive)
REMARK    1  A    between atoms: C2_2  and  C5_5 
ROOT
HETATM    1  C1  UNL     1     -32.971  16.615  -3.090  1.00 20.00     0.088 A 
HETATM    2  C2  UNL     1     -33.949  15.645  -3.152  1.00 20.00     0.147 A 
HETATM    3  C3  UNL     1     -34.745  16.810  -1.473  1.00 20.00     0.071 A 
HETATM    4  C4  UNL     1     -35.623  17.249  -0.367  1.00 20.00     0.078 C 
HETATM    5  N6  UNL     1     -34.967  15.754  -2.226  1.00 20.00    -0.241 NA
HETATM    6  S10 UNL     1     -33.330  17.715  -1.826  1.00 20.00    -0.085 SA
ENDROOT
BRANCH   2   7
HETATM    7  C5  UNL     1     -33.993  14.523  -4.112  1.00 20.00     0.435 C 
HETATM    8  F7  UNL     1     -32.770  13.957  -4.371  1.00 20.00    -0.165 F 
HETATM    9  F8  UNL     1     -34.778  13.472  -3.711  1.00 20.00    -0.165 F 
HETATM   10  F9  UNL     1     -34.483  14.882  -5.340  1.00 20.00    -0.165 F 
ENDBRANCH   2   7
TORSDOF 1
ENDMDL
MODEL 7
REMARK VINA RESULT:      -4.0      1.787      2.110
REMARK  1 active torsions:
REMARK  status: ('A' for Active; 'I' for Inactive)
REMARK    1  A    between atoms: C2_2  and  C5_5 
ROOT
HETATM    1  C1  UNL     1     -33.213   6.972   5.001  1.00 20.00     0.088 A 
HETATM    2  C2  UNL     1     -33.910   6.127   4.162  1.00 20.00     0.147 A 
HETATM    3  C3  UNL     1     -32.690   7.155   2.657  1.00 20.00     0.071 A 
HETATM    4  C4  UNL     1     -32.118   7.549   1.351  1.00 20.00     0.078 C 
HETATM    5  N6  UNL     1     -33.612   6.231   2.818  1.00 20.00    -0.241 NA
HETATM    6  S10 UNL     1     -32.137   7.938   4.080  1.00 20.00    -0.085 SA
ENDROOT
BRANCH   2   7
HETATM    7  C5  UNL     1     -34.927   5.142   4.580  1.00 20.00     0.435 C 
HETATM    8  F7  UNL     1     -35.090   5.044   5.939  1.00 20.00    -0.165 F 
HETATM    9  F8  UNL     1     -36.187   5.398   4.103  1.00 20.00    -0.165 F 
HETATM   10  F9  UNL     1     -34.645   3.866   4.166  1.00 20.00    -0.165 F 
ENDBRANCH   2   7
TORSDOF 1
ENDMDL
MODEL 8
REMARK VINA RESULT:      -3.9     12.142     12.674
REMARK  1 active torsions:
REMARK  status: ('A' for Active; 'I' for Inactive)
REMARK    1  A    between atoms: C2_2  and  C5_5 
ROOT
HETATM    1  C1  UNL     1     -33.812  15.170  -4.273  1.00 20.00     0.088 A 
HETATM    2  C2  UNL     1     -35.086  14.845  -3.856  1.00 20.00     0.147 A 
HETATM    3  C3  UNL     1     -34.587  16.299  -2.291  1.00 20.00     0.071 A 
HETATM    4  C4  UNL     1     -34.700  17.159  -1.094  1.00 20.00     0.078 C 
HETATM    5  N6  UNL     1     -35.532  15.490  -2.719  1.00 20.00    -0.241 NA
HETATM    6  S10 UNL     1     -33.137  16.331  -3.209  1.00 20.00    -0.085 SA
ENDROOT
BRANCH   2   7
HETATM    7  C5  UNL     1     -35.991  13.882  -4.515  1.00 20.00     0.435 C 
HETATM    8  F7  UNL     1     -35.749  12.570  -4.190  1.00 20.00    -0.165 F 
HETATM    9  F8  UNL     1     -37.318  14.067  -4.221  1.00 20.00    -0.165 F 
HETATM   10  F9  UNL     1     -35.922  13.925  -5.883  1.00 20.00    -0.165 F 
ENDBRANCH   2   7
TORSDOF 1
ENDMDL
MODEL 9
REMARK VINA RESULT:      -3.8     12.384     13.289
REMARK  1 active torsions:
REMARK  status: ('A' for Active; 'I' for Inactive)
REMARK    1  A    between atoms: C2_2  and  C5_5 
ROOT
HETATM    1  C1  UNL     1     -36.985  16.185  -3.818  1.00 20.00     0.088 A 
HETATM    2  C2  UNL     1     -36.878  14.854  -4.164  1.00 20.00     0.147 A 
HETATM    3  C3  UNL     1     -39.056  15.059  -4.311  1.00 20.00     0.071 A 
HETATM    4  C4  UNL     1     -40.481  14.728  -4.530  1.00 20.00     0.078 C 
HETATM    5  N6  UNL     1     -38.064  14.206  -4.446  1.00 20.00    -0.241 NA
HETATM    6  S10 UNL     1     -38.632  16.656  -3.846  1.00 20.00    -0.085 SA
ENDROOT
BRANCH   2   7
HETATM    7  C5  UNL     1     -35.621  14.084  -4.255  1.00 20.00     0.435 C 
HETATM    8  F7  UNL     1     -34.923  14.282  -5.419  1.00 20.00    -0.165 F 
HETATM    9  F8  UNL     1     -34.717  14.366  -3.262  1.00 20.00    -0.165 F 
HETATM   10  F9  UNL     1     -35.811  12.729  -4.184  1.00 20.00    -0.165 F 
ENDBRANCH   2   7
TORSDOF 1
ENDMDL
