MODEL 1
REMARK VINA RESULT:      -4.1      0.000      0.000
REMARK  0 active torsions:
REMARK  status: ('A' for Active; 'I' for Inactive)
ROOT
HETATM    1  C1  UNL     1     -33.343   6.239   3.169  1.00 20.00     0.409 C 
HETATM    2  C2  UNL     1     -34.149   4.256   3.861  1.00 20.00     0.247 C 
HETATM    3  C3  UNL     1     -34.809   5.365   4.613  1.00 20.00     0.343 C 
HETATM    4  O4  UNL     1     -32.689   7.064   2.549  1.00 20.00    -0.229 OA
HETATM    5  O5  UNL     1     -33.532   4.942   2.777  1.00 20.00    -0.293 OA
HETATM    6  O6  UNL     1     -33.982   6.484   4.353  1.00 20.00    -0.260 OA
HETATM    7  F7  UNL     1     -36.030   5.623   4.082  1.00 20.00    -0.217 F 
ENDROOT
TORSDOF 0
ENDMDL
MODEL 2
REMARK VINA RESULT:      -4.0      1.694      2.248
REMARK  0 active torsions:
REMARK  status: ('A' for Active; 'I' for Inactive)
ROOT
HETATM    1  C1  UNL     1     -34.015   5.430   3.661  1.00 20.00     0.409 C 
HETATM    2  C2  UNL     1     -34.251   6.734   5.479  1.00 20.00     0.247 C 
HETATM    3  C3  UNL     1     -34.890   5.406   5.719  1.00 20.00     0.343 C 
HETATM    4  O4  UNL     1     -33.691   5.060   2.543  1.00 20.00    -0.229 OA
HETATM    5  O5  UNL     1     -33.460   6.493   4.320  1.00 20.00    -0.293 OA
HETATM    6  O6  UNL     1     -34.987   4.843   4.424  1.00 20.00    -0.260 OA
HETATM    7  F7  UNL     1     -34.062   4.618   6.449  1.00 20.00    -0.217 F 
ENDROOT
TORSDOF 0
ENDMDL
MODEL 3
REMARK VINA RESULT:      -3.8     11.220     11.723
REMARK  0 active torsions:
REMARK  status: ('A' for Active; 'I' for Inactive)
ROOT
HETATM    1  C1  UNL     1     -35.314  13.680  -4.202  1.00 20.00     0.409 C 
HETATM    2  C2  UNL     1     -33.670  15.206  -4.037  1.00 20.00     0.247 C 
HETATM    3  C3  UNL     1     -34.896  15.701  -3.342  1.00 20.00     0.343 C 
HETATM    4  O4  UNL     1     -35.908  12.653  -4.494  1.00 20.00    -0.229 OA
HETATM    5  O5  UNL     1     -33.953  13.823  -4.218  1.00 20.00    -0.293 OA
HETATM    6  O6  UNL     1     -35.918  14.846  -3.818  1.00 20.00    -0.260 OA
HETATM    7  F7  UNL     1     -34.782  15.503  -2.004  1.00 20.00    -0.217 F 
ENDROOT
TORSDOF 0
ENDMDL
MODEL 4
REMARK VINA RESULT:      -3.8     17.355     17.658
REMARK  0 active torsions:
REMARK  status: ('A' for Active; 'I' for Inactive)
ROOT
HETATM    1  C1  UNL     1     -22.050  17.304   7.955  1.00 20.00     0.409 C 
HETATM    2  C2  UNL     1     -23.206  18.685   9.302  1.00 20.00     0.247 C 
HETATM    3  C3  UNL     1     -22.823  17.449  10.048  1.00 20.00     0.343 C 
HETATM    4  O4  UNL     1     -21.489  16.865   6.962  1.00 20.00    -0.229 OA
HETATM    5  O5  UNL     1     -22.379  18.618   8.145  1.00 20.00    -0.293 OA
HETATM    6  O6  UNL     1     -22.439  16.548   9.026  1.00 20.00    -0.260 OA
HETATM    7  F7  UNL     1     -21.731  17.691  10.815  1.00 20.00    -0.217 F 
ENDROOT
TORSDOF 0
ENDMDL
MODEL 5
REMARK VINA RESULT:      -3.7      1.335      2.102
REMARK  0 active torsions:
REMARK  status: ('A' for Active; 'I' for Inactive)
ROOT
HETATM    1  C1  UNL     1     -33.996   6.538   5.431  1.00 20.00     0.409 C 
HETATM    2  C2  UNL     1     -33.958   5.427   3.475  1.00 20.00     0.247 C 
HETATM    3  C3  UNL     1     -35.062   4.906   4.336  1.00 20.00     0.343 C 
HETATM    4  O4  UNL     1     -33.701   7.334   6.310  1.00 20.00    -0.229 OA
HETATM    5  O5  UNL     1     -33.609   6.645   4.123  1.00 20.00    -0.293 OA
HETATM    6  O6  UNL     1     -34.754   5.415   5.620  1.00 20.00    -0.260 OA
HETATM    7  F7  UNL     1     -36.245   5.449   3.951  1.00 20.00    -0.217 F 
ENDROOT
TORSDOF 0
ENDMDL
MODEL 6
REMARK VINA RESULT:      -3.7     11.944     12.312
REMARK  0 active torsions:
REMARK  status: ('A' for Active; 'I' for Inactive)
ROOT
HETATM    1  C1  UNL     1     -36.639  14.045  -4.669  1.00 20.00     0.409 C 
HETATM    2  C2  UNL     1     -34.855  14.723  -5.860  1.00 20.00     0.247 C 
HETATM    3  C3  UNL     1     -34.559  14.820  -4.399  1.00 20.00     0.343 C 
HETATM    4  O4  UNL     1     -37.754  13.622  -4.403  1.00 20.00    -0.229 OA
HETATM    5  O5  UNL     1     -36.027  13.915  -5.885  1.00 20.00    -0.293 OA
HETATM    6  O6  UNL     1     -35.833  14.719  -3.792  1.00 20.00    -0.260 OA
HETATM    7  F7  UNL     1     -33.828  13.748  -4.002  1.00 20.00    -0.217 F 
ENDROOT
TORSDOF 0
ENDMDL
MODEL 7
REMARK VINA RESULT:      -3.6     11.629     12.102
REMARK  0 active torsions:
REMARK  status: ('A' for Active; 'I' for Inactive)
ROOT
HETATM    1  C1  UNL     1     -36.585  14.095  -4.200  1.00 20.00     0.409 C 
HETATM    2  C2  UNL     1     -34.920  15.249  -3.220  1.00 20.00     0.247 C 
HETATM    3  C3  UNL     1     -34.353  14.161  -4.073  1.00 20.00     0.343 C 
HETATM    4  O4  UNL     1     -37.710  13.745  -4.523  1.00 20.00    -0.229 OA
HETATM    5  O5  UNL     1     -36.273  15.312  -3.658  1.00 20.00    -0.293 OA
HETATM    6  O6  UNL     1     -35.463  13.321  -4.326  1.00 20.00    -0.260 OA
HETATM    7  F7  UNL     1     -33.944  14.671  -5.262  1.00 20.00    -0.217 F 
ENDROOT
TORSDOF 0
ENDMDL
MODEL 8
REMARK VINA RESULT:      -3.5     16.946     17.623
REMARK  0 active torsions:
REMARK  status: ('A' for Active; 'I' for Inactive)
ROOT
HETATM    1  C1  UNL     1     -22.544  18.437   9.744  1.00 20.00     0.409 C 
HETATM    2  C2  UNL     1     -23.051  17.361  11.653  1.00 20.00     0.247 C 
HETATM    3  C3  UNL     1     -24.173  17.221  10.677  1.00 20.00     0.343 C 
HETATM    4  O4  UNL     1     -21.925  19.096   8.921  1.00 20.00    -0.229 OA
HETATM    5  O5  UNL     1     -21.985  17.831  10.835  1.00 20.00    -0.293 OA
HETATM    6  O6  UNL     1     -23.892  18.209   9.702  1.00 20.00    -0.260 OA
HETATM    7  F7  UNL     1     -24.108  16.011  10.067  1.00 20.00    -0.217 F 
ENDROOT
TORSDOF 0
ENDMDL
MODEL 9
REMARK VINA RESULT:      -3.5      8.757      8.987
REMARK  0 active torsions:
REMARK  status: ('A' for Active; 'I' for Inactive)
ROOT
HETATM    1  C1  UNL     1     -41.688   9.127   0.133  1.00 20.00     0.409 C 
HETATM    2  C2  UNL     1     -42.836   7.199  -0.036  1.00 20.00     0.247 C 
HETATM    3  C3  UNL     1     -41.431   6.999  -0.501  1.00 20.00     0.343 C 
HETATM    4  O4  UNL     1     -41.431  10.298   0.370  1.00 20.00    -0.229 OA
HETATM    5  O5  UNL     1     -42.762   8.448   0.643  1.00 20.00    -0.293 OA
HETATM    6  O6  UNL     1     -40.946   8.316  -0.681  1.00 20.00    -0.260 OA
HETATM    7  F7  UNL     1     -40.695   6.420   0.481  1.00 20.00    -0.217 F 
ENDROOT
TORSDOF 0
ENDMDL
