MODEL 1
REMARK VINA RESULT:      -4.9      0.000      0.000
REMARK  1 active torsions:
REMARK  status: ('A' for Active; 'I' for Inactive)
REMARK    1  A    between atoms: C3_3  and  C5_5 
ROOT
HETATM    1  C1  UNL     1     -35.730  15.383  -2.767  1.00 20.00     0.032 A 
HETATM    2  C2  UNL     1     -34.888  16.271  -2.070  1.00 20.00    -0.044 A 
HETATM    3  C3  UNL     1     -35.085  14.879  -3.886  1.00 20.00     0.068 A 
HETATM    4  C4  UNL     1     -33.665  16.405  -2.667  1.00 20.00    -0.010 A 
HETATM    5  C6  UNL     1     -34.980  17.101  -0.844  1.00 20.00     0.040 C 
HETATM    6  C7  UNL     1     -32.747  17.330  -1.963  1.00 20.00     0.047 C 
HETATM    7  C8  UNL     1     -33.737  18.036  -0.984  1.00 20.00     0.010 C 
HETATM    8  S10 UNL     1     -33.476  15.494  -4.056  1.00 20.00    -0.089 SA
ENDROOT
BRANCH   3   9
HETATM    9  C5  UNL     1     -35.573  13.956  -4.860  1.00 20.00     0.259 C 
HETATM   10  O9  UNL     1     -35.878  12.780  -4.519  1.00 20.00    -0.273 OA
HETATM   11 CL11 UNL     1     -35.774  14.408  -6.577  1.00 20.00    -0.038 Cl
ENDBRANCH   3   9
TORSDOF 1
ENDMDL
MODEL 2
REMARK VINA RESULT:      -4.7     15.373     16.633
REMARK  1 active torsions:
REMARK  status: ('A' for Active; 'I' for Inactive)
REMARK    1  A    between atoms: C3_3  and  C5_5 
ROOT
HETATM    1  C1  UNL     1     -25.187  18.563   9.238  1.00 20.00     0.032 A 
HETATM    2  C2  UNL     1     -24.375  18.216  10.335  1.00 20.00    -0.044 A 
HETATM    3  C3  UNL     1     -24.421  18.707   8.092  1.00 20.00     0.068 A 
HETATM    4  C4  UNL     1     -23.055  18.111   9.993  1.00 20.00    -0.010 A 
HETATM    5  C6  UNL     1     -24.580  17.928  11.776  1.00 20.00     0.040 C 
HETATM    6  C7  UNL     1     -22.166  17.746  11.119  1.00 20.00     0.047 C 
HETATM    7  C8  UNL     1     -23.121  17.973  12.332  1.00 20.00     0.010 C 
HETATM    8  S10 UNL     1     -22.738  18.416   8.379  1.00 20.00    -0.089 SA
ENDROOT
BRANCH   3   9
HETATM    9  C5  UNL     1     -24.841  19.050   6.772  1.00 20.00     0.259 C 
HETATM   10  O9  UNL     1     -23.984  19.263   5.870  1.00 20.00    -0.273 OA
HETATM   11 CL11 UNL     1     -26.568  19.193   6.334  1.00 20.00    -0.038 Cl
ENDBRANCH   3   9
TORSDOF 1
ENDMDL
MODEL 3
REMARK VINA RESULT:      -4.6      1.664      2.245
REMARK  1 active torsions:
REMARK  status: ('A' for Active; 'I' for Inactive)
REMARK    1  A    between atoms: C3_3  and  C5_5 
ROOT
HETATM    1  C1  UNL     1     -32.943  16.272  -3.300  1.00 20.00     0.032 A 
HETATM    2  C2  UNL     1     -33.040  17.155  -2.207  1.00 20.00    -0.044 A 
HETATM    3  C3  UNL     1     -34.122  15.561  -3.458  1.00 20.00     0.068 A 
HETATM    4  C4  UNL     1     -34.258  17.085  -1.589  1.00 20.00    -0.010 A 
HETATM    5  C6  UNL     1     -32.162  18.151  -1.547  1.00 20.00     0.040 C 
HETATM    6  C7  UNL     1     -34.404  17.999  -0.433  1.00 20.00     0.047 C 
HETATM    7  C8  UNL     1     -32.919  18.426  -0.210  1.00 20.00     0.010 C 
HETATM    8  S10 UNL     1     -35.314  15.985  -2.276  1.00 20.00    -0.089 SA
ENDROOT
BRANCH   3   9
HETATM    9  C5  UNL     1     -34.446  14.572  -4.434  1.00 20.00     0.259 C 
HETATM   10  O9  UNL     1     -33.651  14.340  -5.387  1.00 20.00    -0.273 OA
HETATM   11 CL11 UNL     1     -35.961  13.628  -4.361  1.00 20.00    -0.038 Cl
ENDBRANCH   3   9
TORSDOF 1
ENDMDL
MODEL 4
REMARK VINA RESULT:      -4.6      1.637      1.847
REMARK  1 active torsions:
REMARK  status: ('A' for Active; 'I' for Inactive)
REMARK    1  A    between atoms: C3_3  and  C5_5 
ROOT
HETATM    1  C1  UNL     1     -34.879  15.363  -2.772  1.00 20.00     0.032 A 
HETATM    2  C2  UNL     1     -34.049  16.496  -2.873  1.00 20.00    -0.044 A 
HETATM    3  C3  UNL     1     -35.536  15.133  -3.971  1.00 20.00     0.068 A 
HETATM    4  C4  UNL     1     -34.103  17.071  -4.113  1.00 20.00    -0.010 A 
HETATM    5  C6  UNL     1     -33.121  17.232  -1.980  1.00 20.00     0.040 C 
HETATM    6  C7  UNL     1     -33.241  18.267  -4.262  1.00 20.00     0.047 C 
HETATM    7  C8  UNL     1     -32.884  18.558  -2.771  1.00 20.00     0.010 C 
HETATM    8  S10 UNL     1     -35.125  16.296  -5.185  1.00 20.00    -0.089 SA
ENDROOT
BRANCH   3   9
HETATM    9  C5  UNL     1     -36.463  14.098  -4.298  1.00 20.00     0.259 C 
HETATM   10  O9  UNL     1     -36.044  12.946  -4.600  1.00 20.00    -0.273 OA
HETATM   11 CL11 UNL     1     -38.229  14.371  -4.298  1.00 20.00    -0.038 Cl
ENDBRANCH   3   9
TORSDOF 1
ENDMDL
MODEL 5
REMARK VINA RESULT:      -4.3      1.198      1.685
REMARK  1 active torsions:
REMARK  status: ('A' for Active; 'I' for Inactive)
REMARK    1  A    between atoms: C3_3  and  C5_5 
ROOT
HETATM    1  C1  UNL     1     -34.128  15.324  -3.480  1.00 20.00     0.032 A 
HETATM    2  C2  UNL     1     -34.223  16.407  -2.585  1.00 20.00    -0.044 A 
HETATM    3  C3  UNL     1     -35.371  15.029  -4.019  1.00 20.00     0.068 A 
HETATM    4  C4  UNL     1     -35.500  16.885  -2.480  1.00 20.00    -0.010 A 
HETATM    5  C6  UNL     1     -33.291  17.175  -1.724  1.00 20.00     0.040 C 
HETATM    6  C7  UNL     1     -35.643  18.028  -1.548  1.00 20.00     0.047 C 
HETATM    7  C8  UNL     1     -34.270  17.975  -0.808  1.00 20.00     0.010 C 
HETATM    8  S10 UNL     1     -36.616  16.076  -3.426  1.00 20.00    -0.089 SA
ENDROOT
BRANCH   3   9
HETATM    9  C5  UNL     1     -35.719  14.013  -4.959  1.00 20.00     0.259 C 
HETATM   10  O9  UNL     1     -35.962  12.840  -4.562  1.00 20.00    -0.273 OA
HETATM   11 CL11 UNL     1     -35.828  14.341  -6.712  1.00 20.00    -0.038 Cl
ENDBRANCH   3   9
TORSDOF 1
ENDMDL
MODEL 6
REMARK VINA RESULT:      -4.3      3.719      5.083
REMARK  1 active torsions:
REMARK  status: ('A' for Active; 'I' for Inactive)
REMARK    1  A    between atoms: C3_3  and  C5_5 
ROOT
HETATM    1  C1  UNL     1     -32.856  16.640  -2.900  1.00 20.00     0.032 A 
HETATM    2  C2  UNL     1     -33.729  15.737  -3.537  1.00 20.00    -0.044 A 
HETATM    3  C3  UNL     1     -33.485  17.245  -1.822  1.00 20.00     0.068 A 
HETATM    4  C4  UNL     1     -34.957  15.688  -2.937  1.00 20.00    -0.010 A 
HETATM    5  C6  UNL     1     -33.662  14.814  -4.696  1.00 20.00     0.040 C 
HETATM    6  C7  UNL     1     -35.905  14.747  -3.576  1.00 20.00     0.047 C 
HETATM    7  C8  UNL     1     -35.165  14.453  -4.918  1.00 20.00     0.010 C 
HETATM    8  S10 UNL     1     -35.114  16.698  -1.614  1.00 20.00    -0.089 SA
ENDROOT
BRANCH   3   9
HETATM    9  C5  UNL     1     -32.966  18.216  -0.914  1.00 20.00     0.259 C 
HETATM   10  O9  UNL     1     -33.739  19.058  -0.379  1.00 20.00    -0.273 OA
HETATM   11 CL11 UNL     1     -31.230  18.288  -0.493  1.00 20.00    -0.038 Cl
ENDBRANCH   3   9
TORSDOF 1
ENDMDL
MODEL 7
REMARK VINA RESULT:      -4.3      3.928      4.974
REMARK  1 active torsions:
REMARK  status: ('A' for Active; 'I' for Inactive)
REMARK    1  A    between atoms: C3_3  and  C5_5 
ROOT
HETATM    1  C1  UNL     1     -35.266  16.684  -1.318  1.00 20.00     0.032 A 
HETATM    2  C2  UNL     1     -34.844  15.915  -2.420  1.00 20.00    -0.044 A 
HETATM    3  C3  UNL     1     -34.289  17.602  -0.964  1.00 20.00     0.068 A 
HETATM    4  C4  UNL     1     -33.596  16.267  -2.853  1.00 20.00    -0.010 A 
HETATM    5  C6  UNL     1     -35.407  14.816  -3.243  1.00 20.00     0.040 C 
HETATM    6  C7  UNL     1     -33.115  15.482  -4.014  1.00 20.00     0.047 C 
HETATM    7  C8  UNL     1     -34.154  14.318  -4.030  1.00 20.00     0.010 C 
HETATM    8  S10 UNL     1     -32.891  17.506  -1.980  1.00 20.00    -0.089 SA
ENDROOT
BRANCH   3   9
HETATM    9  C5  UNL     1     -34.308  18.566   0.088  1.00 20.00     0.259 C 
HETATM   10  O9  UNL     1     -35.341  19.263   0.288  1.00 20.00    -0.273 OA
HETATM   11 CL11 UNL     1     -32.900  18.833   1.155  1.00 20.00    -0.038 Cl
ENDBRANCH   3   9
TORSDOF 1
ENDMDL
MODEL 8
REMARK VINA RESULT:      -4.2      2.467      3.029
REMARK  1 active torsions:
REMARK  status: ('A' for Active; 'I' for Inactive)
REMARK    1  A    between atoms: C3_3  and  C5_5 
ROOT
HETATM    1  C1  UNL     1     -36.472  15.953  -3.193  1.00 20.00     0.032 A 
HETATM    2  C2  UNL     1     -35.085  15.726  -3.279  1.00 20.00    -0.044 A 
HETATM    3  C3  UNL     1     -37.154  15.142  -4.087  1.00 20.00     0.068 A 
HETATM    4  C4  UNL     1     -34.771  14.774  -4.210  1.00 20.00    -0.010 A 
HETATM    5  C6  UNL     1     -33.866  16.250  -2.616  1.00 20.00     0.040 C 
HETATM    6  C7  UNL     1     -33.319  14.503  -4.331  1.00 20.00     0.047 C 
HETATM    7  C8  UNL     1     -32.729  15.714  -3.542  1.00 20.00     0.010 C 
HETATM    8  S10 UNL     1     -36.093  14.126  -5.002  1.00 20.00    -0.089 SA
ENDROOT
BRANCH   3   9
HETATM    9  C5  UNL     1     -38.559  15.054  -4.322  1.00 20.00     0.259 C 
HETATM   10  O9  UNL     1     -39.107  13.926  -4.466  1.00 20.00    -0.273 OA
HETATM   11 CL11 UNL     1     -39.596  16.506  -4.422  1.00 20.00    -0.038 Cl
ENDBRANCH   3   9
TORSDOF 1
ENDMDL
MODEL 9
REMARK VINA RESULT:      -4.1     11.252     11.640
REMARK  1 active torsions:
REMARK  status: ('A' for Active; 'I' for Inactive)
REMARK    1  A    between atoms: C3_3  and  C5_5 
ROOT
HETATM    1  C1  UNL     1     -33.165   7.635   3.755  1.00 20.00     0.032 A 
HETATM    2  C2  UNL     1     -33.789   6.650   4.546  1.00 20.00    -0.044 A 
HETATM    3  C3  UNL     1     -33.006   7.184   2.454  1.00 20.00     0.068 A 
HETATM    4  C4  UNL     1     -34.074   5.516   3.836  1.00 20.00    -0.010 A 
HETATM    5  C6  UNL     1     -34.224   6.521   5.958  1.00 20.00     0.040 C 
HETATM    6  C7  UNL     1     -34.733   4.455   4.632  1.00 20.00     0.047 C 
HETATM    7  C8  UNL     1     -34.504   4.990   6.080  1.00 20.00     0.010 C 
HETATM    8  S10 UNL     1     -33.620   5.581   2.228  1.00 20.00    -0.089 SA
ENDROOT
BRANCH   3   9
HETATM    9  C5  UNL     1     -32.426   7.860   1.339  1.00 20.00     0.259 C 
HETATM   10  O9  UNL     1     -31.495   7.314   0.684  1.00 20.00    -0.273 OA
HETATM   11 CL11 UNL     1     -32.975   9.479   0.820  1.00 20.00    -0.038 Cl
ENDBRANCH   3   9
TORSDOF 1
ENDMDL
