MODEL 1
REMARK VINA RESULT:      -5.3      0.000      0.000
REMARK  0 active torsions:
REMARK  status: ('A' for Active; 'I' for Inactive)
ROOT
HETATM    1  C1  UNL     1     -23.848  18.862   7.966  1.00 20.00     0.064 C 
HETATM    2  C2  UNL     1     -24.281  16.699  10.148  1.00 20.00     0.011 C 
HETATM    3  C3  UNL     1     -23.626  17.758  12.166  1.00 20.00     0.010 C 
HETATM    4  C4  UNL     1     -23.712  18.916   9.430  1.00 20.00     0.101 C 
HETATM    5  C5  UNL     1     -23.020  17.117  10.902  1.00 20.00    -0.009 C 
HETATM    6  C6  UNL     1     -24.851  18.122  10.122  1.00 20.00     0.007 C 
HETATM    7  C7  UNL     1     -24.864  18.503  11.624  1.00 20.00    -0.013 C 
HETATM    8  C8  UNL     1     -22.434  18.234   9.999  1.00 20.00     0.003 C 
HETATM    9  C9  UNL     1     -26.148  18.082  12.332  1.00 20.00     0.010 C 
HETATM   10  C10 UNL     1     -21.448  17.677   8.973  1.00 20.00     0.011 C 
HETATM   11  N11 UNL     1     -23.955  18.818   6.811  1.00 20.00    -0.197 NA
ENDROOT
TORSDOF 0
ENDMDL
MODEL 2
REMARK VINA RESULT:      -5.0     16.404     17.955
REMARK  0 active torsions:
REMARK  status: ('A' for Active; 'I' for Inactive)
ROOT
HETATM    1  C1  UNL     1     -35.859  13.901  -4.276  1.00 20.00     0.064 C 
HETATM    2  C2  UNL     1     -33.647  15.752  -3.134  1.00 20.00     0.011 C 
HETATM    3  C3  UNL     1     -34.654  17.897  -3.055  1.00 20.00     0.010 C 
HETATM    4  C4  UNL     1     -35.877  15.325  -3.904  1.00 20.00     0.101 C 
HETATM    5  C5  UNL     1     -34.041  16.901  -4.059  1.00 20.00    -0.009 C 
HETATM    6  C6  UNL     1     -35.072  15.567  -2.600  1.00 20.00     0.007 C 
HETATM    7  C7  UNL     1     -35.416  16.983  -2.073  1.00 20.00    -0.013 C 
HETATM    8  C8  UNL     1     -35.177  16.279  -4.913  1.00 20.00     0.003 C 
HETATM    9  C9  UNL     1     -34.984  17.199  -0.627  1.00 20.00     0.010 C 
HETATM   10  C10 UNL     1     -34.641  15.639  -6.193  1.00 20.00     0.011 C 
HETATM   11  N11 UNL     1     -35.844  12.779  -4.570  1.00 20.00    -0.197 NA
ENDROOT
TORSDOF 0
ENDMDL
MODEL 3
REMARK VINA RESULT:      -5.0     16.111     17.728
REMARK  0 active torsions:
REMARK  status: ('A' for Active; 'I' for Inactive)
ROOT
HETATM    1  C1  UNL     1     -33.741  14.891  -5.676  1.00 20.00     0.064 C 
HETATM    2  C2  UNL     1     -35.190  17.016  -3.942  1.00 20.00     0.011 C 
HETATM    3  C3  UNL     1     -34.806  16.317  -1.708  1.00 20.00     0.010 C 
HETATM    4  C4  UNL     1     -33.807  15.077  -4.218  1.00 20.00     0.101 C 
HETATM    5  C5  UNL     1     -35.665  15.967  -2.939  1.00 20.00    -0.009 C 
HETATM    6  C6  UNL     1     -33.723  16.580  -3.846  1.00 20.00     0.007 C 
HETATM    7  C7  UNL     1     -33.442  16.689  -2.327  1.00 20.00    -0.013 C 
HETATM    8  C8  UNL     1     -35.148  14.642  -3.558  1.00 20.00     0.003 C 
HETATM    9  C9  UNL     1     -32.976  18.080  -1.907  1.00 20.00     0.010 C 
HETATM   10  C10 UNL     1     -36.183  14.003  -4.482  1.00 20.00     0.011 C 
HETATM   11  N11 UNL     1     -33.690  14.745  -6.826  1.00 20.00    -0.197 NA
ENDROOT
TORSDOF 0
ENDMDL
MODEL 4
REMARK VINA RESULT:      -4.9     15.771     17.408
REMARK  0 active torsions:
REMARK  status: ('A' for Active; 'I' for Inactive)
ROOT
HETATM    1  C1  UNL     1     -35.489  17.304  -1.273  1.00 20.00     0.064 C 
HETATM    2  C2  UNL     1     -35.063  16.665  -4.278  1.00 20.00     0.011 C 
HETATM    3  C3  UNL     1     -33.803  14.656  -4.282  1.00 20.00     0.010 C 
HETATM    4  C4  UNL     1     -34.864  16.154  -1.944  1.00 20.00     0.101 C 
HETATM    5  C5  UNL     1     -33.639  16.169  -4.036  1.00 20.00    -0.009 C 
HETATM    6  C6  UNL     1     -35.666  15.747  -3.208  1.00 20.00     0.007 C 
HETATM    7  C7  UNL     1     -35.181  14.346  -3.660  1.00 20.00    -0.013 C 
HETATM    8  C8  UNL     1     -33.442  16.418  -2.518  1.00 20.00     0.003 C 
HETATM    9  C9  UNL     1     -36.128  13.683  -4.654  1.00 20.00     0.010 C 
HETATM   10  C10 UNL     1     -32.843  17.796  -2.241  1.00 20.00     0.011 C 
HETATM   11  N11 UNL     1     -35.981  18.212  -0.744  1.00 20.00    -0.197 NA
ENDROOT
TORSDOF 0
ENDMDL
MODEL 5
REMARK VINA RESULT:      -4.8     16.963     18.527
REMARK  0 active torsions:
REMARK  status: ('A' for Active; 'I' for Inactive)
ROOT
HETATM    1  C1  UNL     1     -37.373  14.783  -4.314  1.00 20.00     0.064 C 
HETATM    2  C2  UNL     1     -34.388  14.731  -3.473  1.00 20.00     0.011 C 
HETATM    3  C3  UNL     1     -33.613  16.930  -3.907  1.00 20.00     0.010 C 
HETATM    4  C4  UNL     1     -36.360  15.849  -4.254  1.00 20.00     0.101 C 
HETATM    5  C5  UNL     1     -33.977  15.625  -4.642  1.00 20.00    -0.009 C 
HETATM    6  C6  UNL     1     -35.473  15.700  -2.990  1.00 20.00     0.007 C 
HETATM    7  C7  UNL     1     -34.681  17.017  -2.796  1.00 20.00    -0.013 C 
HETATM    8  C8  UNL     1     -35.312  15.827  -5.404  1.00 20.00     0.003 C 
HETATM    9  C9  UNL     1     -34.063  17.139  -1.407  1.00 20.00     0.010 C 
HETATM   10  C10 UNL     1     -35.514  14.768  -6.487  1.00 20.00     0.011 C 
HETATM   11  N11 UNL     1     -38.171  13.943  -4.362  1.00 20.00    -0.197 NA
ENDROOT
TORSDOF 0
ENDMDL
MODEL 6
REMARK VINA RESULT:      -4.8     16.909     17.952
REMARK  0 active torsions:
REMARK  status: ('A' for Active; 'I' for Inactive)
ROOT
HETATM    1  C1  UNL     1     -35.718  13.997  -4.536  1.00 20.00     0.064 C 
HETATM    2  C2  UNL     1     -34.869  15.847  -2.195  1.00 20.00     0.011 C 
HETATM    3  C3  UNL     1     -34.315  17.903  -3.238  1.00 20.00     0.010 C 
HETATM    4  C4  UNL     1     -35.346  15.420  -4.506  1.00 20.00     0.101 C 
HETATM    5  C5  UNL     1     -33.752  16.485  -3.020  1.00 20.00    -0.009 C 
HETATM    6  C6  UNL     1     -35.940  16.122  -3.257  1.00 20.00     0.007 C 
HETATM    7  C7  UNL     1     -35.822  17.654  -3.459  1.00 20.00    -0.013 C 
HETATM    8  C8  UNL     1     -33.823  15.700  -4.356  1.00 20.00     0.003 C 
HETATM    9  C9  UNL     1     -36.688  18.449  -2.488  1.00 20.00     0.010 C 
HETATM   10  C10 UNL     1     -32.905  14.478  -4.347  1.00 20.00     0.011 C 
HETATM   11  N11 UNL     1     -36.011  12.874  -4.559  1.00 20.00    -0.197 NA
ENDROOT
TORSDOF 0
ENDMDL
MODEL 7
REMARK VINA RESULT:      -4.6     16.849     18.335
REMARK  0 active torsions:
REMARK  status: ('A' for Active; 'I' for Inactive)
ROOT
HETATM    1  C1  UNL     1     -36.685  16.026  -5.718  1.00 20.00     0.064 C 
HETATM    2  C2  UNL     1     -35.092  14.661  -3.433  1.00 20.00     0.011 C 
HETATM    3  C3  UNL     1     -33.423  16.242  -2.850  1.00 20.00     0.010 C 
HETATM    4  C4  UNL     1     -35.585  16.515  -4.872  1.00 20.00     0.101 C 
HETATM    5  C5  UNL     1     -33.762  15.211  -3.945  1.00 20.00    -0.009 C 
HETATM    6  C6  UNL     1     -35.761  16.040  -3.405  1.00 20.00     0.007 C 
HETATM    7  C7  UNL     1     -34.796  16.860  -2.511  1.00 20.00    -0.013 C 
HETATM    8  C8  UNL     1     -34.177  15.962  -5.237  1.00 20.00     0.003 C 
HETATM    9  C9  UNL     1     -35.128  16.753  -1.027  1.00 20.00     0.010 C 
HETATM   10  C10 UNL     1     -34.100  15.061  -6.468  1.00 20.00     0.011 C 
HETATM   11  N11 UNL     1     -37.552  15.640  -6.385  1.00 20.00    -0.197 NA
ENDROOT
TORSDOF 0
ENDMDL
MODEL 8
REMARK VINA RESULT:      -4.6     16.513     18.243
REMARK  0 active torsions:
REMARK  status: ('A' for Active; 'I' for Inactive)
ROOT
HETATM    1  C1  UNL     1     -36.938  17.016  -3.307  1.00 20.00     0.064 C 
HETATM    2  C2  UNL     1     -33.996  17.103  -4.288  1.00 20.00     0.011 C 
HETATM    3  C3  UNL     1     -33.278  14.845  -4.203  1.00 20.00     0.010 C 
HETATM    4  C4  UNL     1     -35.966  15.942  -3.566  1.00 20.00     0.101 C 
HETATM    5  C5  UNL     1     -33.561  16.044  -3.277  1.00 20.00    -0.009 C 
HETATM    6  C6  UNL     1     -35.137  16.241  -4.843  1.00 20.00     0.007 C 
HETATM    7  C7  UNL     1     -34.400  14.943  -5.257  1.00 20.00    -0.013 C 
HETATM    8  C8  UNL     1     -34.865  15.774  -2.481  1.00 20.00     0.003 C 
HETATM    9  C9  UNL     1     -33.853  14.999  -6.680  1.00 20.00     0.010 C 
HETATM   10  C10 UNL     1     -34.978  16.677  -1.253  1.00 20.00     0.011 C 
HETATM   11  N11 UNL     1     -37.704  17.863  -3.103  1.00 20.00    -0.197 NA
ENDROOT
TORSDOF 0
ENDMDL
MODEL 9
REMARK VINA RESULT:      -4.5     16.692     18.371
REMARK  0 active torsions:
REMARK  status: ('A' for Active; 'I' for Inactive)
ROOT
HETATM    1  C1  UNL     1     -35.821  13.865  -4.107  1.00 20.00     0.064 C 
HETATM    2  C2  UNL     1     -34.267  16.464  -4.780  1.00 20.00     0.011 C 
HETATM    3  C3  UNL     1     -35.018  18.035  -3.170  1.00 20.00     0.010 C 
HETATM    4  C4  UNL     1     -35.770  15.171  -3.432  1.00 20.00     0.101 C 
HETATM    5  C5  UNL     1     -35.477  17.344  -4.469  1.00 20.00    -0.009 C 
HETATM    6  C6  UNL     1     -34.327  15.740  -3.430  1.00 20.00     0.007 C 
HETATM    7  C7  UNL     1     -34.269  16.913  -2.420  1.00 20.00    -0.013 C 
HETATM    8  C8  UNL     1     -36.577  16.305  -4.129  1.00 20.00     0.003 C 
HETATM    9  C9  UNL     1     -32.843  17.313  -2.056  1.00 20.00     0.010 C 
HETATM   10  C10 UNL     1     -37.382  15.904  -5.365  1.00 20.00     0.011 C 
HETATM   11  N11 UNL     1     -35.860  12.835  -4.640  1.00 20.00    -0.197 NA
ENDROOT
TORSDOF 0
ENDMDL
