MODEL 1
REMARK VINA RESULT:      -5.0      0.000      0.000
REMARK  0 active torsions:
REMARK  status: ('A' for Active; 'I' for Inactive)
ROOT
HETATM    1  C1  UNL     1     -32.954   7.315   4.066  1.00 20.00     0.055 C 
HETATM    2  C2  UNL     1     -33.895   6.569   4.637  1.00 20.00    -0.046 C 
HETATM    3  C3  UNL     1     -32.780   6.699   2.737  1.00 20.00     0.150 C 
HETATM    4  C4  UNL     1     -34.323   6.390   6.037  1.00 20.00     0.202 C 
HETATM    5  C5  UNL     1     -33.590   5.430   2.589  1.00 20.00     0.094 C 
HETATM    6  C6  UNL     1     -34.410   4.378   4.840  1.00 20.00     0.177 C 
HETATM    7  C7  UNL     1     -34.482   5.486   3.813  1.00 20.00     0.048 C 
HETATM    8  O8  UNL     1     -32.025   7.148   1.888  1.00 20.00    -0.293 OA
HETATM    9  O9  UNL     1     -34.743   5.004   6.103  1.00 20.00    -0.386 OA
ENDROOT
TORSDOF 0
ENDMDL
MODEL 2
REMARK VINA RESULT:      -4.6      0.749      3.785
REMARK  0 active torsions:
REMARK  status: ('A' for Active; 'I' for Inactive)
ROOT
HETATM    1  C1  UNL     1     -34.576   4.582   4.397  1.00 20.00     0.055 C 
HETATM    2  C2  UNL     1     -34.064   5.449   3.529  1.00 20.00    -0.046 C 
HETATM    3  C3  UNL     1     -34.687   5.364   5.643  1.00 20.00     0.150 C 
HETATM    4  C4  UNL     1     -33.389   5.286   2.226  1.00 20.00     0.202 C 
HETATM    5  C5  UNL     1     -34.073   6.739   5.508  1.00 20.00     0.094 C 
HETATM    6  C6  UNL     1     -32.441   7.021   3.482  1.00 20.00     0.177 C 
HETATM    7  C7  UNL     1     -33.845   6.832   4.012  1.00 20.00     0.048 C 
HETATM    8  O8  UNL     1     -35.177   4.917   6.670  1.00 20.00    -0.293 OA
HETATM    9  O9  UNL     1     -32.430   6.371   2.188  1.00 20.00    -0.386 OA
ENDROOT
TORSDOF 0
ENDMDL
MODEL 3
REMARK VINA RESULT:      -4.5     16.407     16.593
REMARK  0 active torsions:
REMARK  status: ('A' for Active; 'I' for Inactive)
ROOT
HETATM    1  C1  UNL     1     -24.273  18.590   8.838  1.00 20.00     0.055 C 
HETATM    2  C2  UNL     1     -24.378  17.994  10.022  1.00 20.00    -0.046 C 
HETATM    3  C3  UNL     1     -23.080  17.962   8.239  1.00 20.00     0.150 C 
HETATM    4  C4  UNL     1     -25.105  18.339  11.259  1.00 20.00     0.202 C 
HETATM    5  C5  UNL     1     -22.380  17.033   9.206  1.00 20.00     0.094 C 
HETATM    6  C6  UNL     1     -23.020  17.376  11.719  1.00 20.00     0.177 C 
HETATM    7  C7  UNL     1     -23.396  16.926  10.325  1.00 20.00     0.048 C 
HETATM    8  O8  UNL     1     -22.690  18.215   7.108  1.00 20.00    -0.293 OA
HETATM    9  O9  UNL     1     -24.255  17.836  12.319  1.00 20.00    -0.386 OA
ENDROOT
TORSDOF 0
ENDMDL
MODEL 4
REMARK VINA RESULT:      -4.4     11.613     12.264
REMARK  0 active torsions:
REMARK  status: ('A' for Active; 'I' for Inactive)
ROOT
HETATM    1  C1  UNL     1     -36.462  15.452  -3.417  1.00 20.00     0.055 C 
HETATM    2  C2  UNL     1     -35.153  15.269  -3.274  1.00 20.00    -0.046 C 
HETATM    3  C3  UNL     1     -36.898  14.266  -4.178  1.00 20.00     0.150 C 
HETATM    4  C4  UNL     1     -34.044  16.178  -2.927  1.00 20.00     0.202 C 
HETATM    5  C5  UNL     1     -35.730  13.409  -4.612  1.00 20.00     0.094 C 
HETATM    6  C6  UNL     1     -33.402  14.600  -4.536  1.00 20.00     0.177 C 
HETATM    7  C7  UNL     1     -34.591  14.008  -3.812  1.00 20.00     0.048 C 
HETATM    8  O8  UNL     1     -38.067  14.046  -4.460  1.00 20.00    -0.293 OA
HETATM    9  O9  UNL     1     -32.916  15.657  -3.672  1.00 20.00    -0.386 OA
ENDROOT
TORSDOF 0
ENDMDL
MODEL 5
REMARK VINA RESULT:      -4.4     16.294     16.916
REMARK  0 active torsions:
REMARK  status: ('A' for Active; 'I' for Inactive)
ROOT
HETATM    1  C1  UNL     1     -21.747  17.636   9.448  1.00 20.00     0.055 C 
HETATM    2  C2  UNL     1     -22.561  17.930  10.457  1.00 20.00    -0.046 C 
HETATM    3  C3  UNL     1     -22.578  17.869   8.252  1.00 20.00     0.150 C 
HETATM    4  C4  UNL     1     -22.528  17.617  11.899  1.00 20.00     0.202 C 
HETATM    5  C5  UNL     1     -24.010  18.196   8.610  1.00 20.00     0.094 C 
HETATM    6  C6  UNL     1     -24.709  17.553  11.048  1.00 20.00     0.177 C 
HETATM    7  C7  UNL     1     -23.912  18.426  10.104  1.00 20.00     0.048 C 
HETATM    8  O8  UNL     1     -22.152  17.756   7.112  1.00 20.00    -0.293 OA
HETATM    9  O9  UNL     1     -23.924  17.485  12.263  1.00 20.00    -0.386 OA
ENDROOT
TORSDOF 0
ENDMDL
MODEL 6
REMARK VINA RESULT:      -4.4     16.430     17.128
REMARK  0 active torsions:
REMARK  status: ('A' for Active; 'I' for Inactive)
ROOT
HETATM    1  C1  UNL     1     -24.831  18.508  10.135  1.00 20.00     0.055 C 
HETATM    2  C2  UNL     1     -24.022  18.723   9.102  1.00 20.00    -0.046 C 
HETATM    3  C3  UNL     1     -23.926  18.000  11.184  1.00 20.00     0.150 C 
HETATM    4  C4  UNL     1     -24.264  18.902   7.657  1.00 20.00     0.202 C 
HETATM    5  C5  UNL     1     -22.521  17.789  10.668  1.00 20.00     0.094 C 
HETATM    6  C6  UNL     1     -22.308  17.678   8.063  1.00 20.00     0.177 C 
HETATM    7  C7  UNL     1     -22.577  18.477   9.319  1.00 20.00     0.048 C 
HETATM    8  O8  UNL     1     -24.301  17.739  12.317  1.00 20.00    -0.293 OA
HETATM    9  O9  UNL     1     -23.098  18.314   7.029  1.00 20.00    -0.386 OA
ENDROOT
TORSDOF 0
ENDMDL
MODEL 7
REMARK VINA RESULT:      -4.4     11.596     12.220
REMARK  0 active torsions:
REMARK  status: ('A' for Active; 'I' for Inactive)
ROOT
HETATM    1  C1  UNL     1     -34.119  14.201  -4.088  1.00 20.00     0.055 C 
HETATM    2  C2  UNL     1     -34.162  15.433  -3.590  1.00 20.00    -0.046 C 
HETATM    3  C3  UNL     1     -35.540  13.823  -4.203  1.00 20.00     0.150 C 
HETATM    4  C4  UNL     1     -33.158  16.282  -2.920  1.00 20.00     0.202 C 
HETATM    5  C5  UNL     1     -36.456  14.868  -3.605  1.00 20.00     0.094 C 
HETATM    6  C6  UNL     1     -35.288  16.559  -1.987  1.00 20.00     0.177 C 
HETATM    7  C7  UNL     1     -35.504  16.027  -3.386  1.00 20.00     0.048 C 
HETATM    8  O8  UNL     1     -35.911  12.762  -4.682  1.00 20.00    -0.293 OA
HETATM    9  O9  UNL     1     -33.930  17.062  -1.974  1.00 20.00    -0.386 OA
ENDROOT
TORSDOF 0
ENDMDL
MODEL 8
REMARK VINA RESULT:      -4.4     11.700     12.412
REMARK  0 active torsions:
REMARK  status: ('A' for Active; 'I' for Inactive)
ROOT
HETATM    1  C1  UNL     1     -35.083  15.967  -2.055  1.00 20.00     0.055 C 
HETATM    2  C2  UNL     1     -34.763  15.440  -3.233  1.00 20.00    -0.046 C 
HETATM    3  C3  UNL     1     -34.005  16.944  -1.809  1.00 20.00     0.150 C 
HETATM    4  C4  UNL     1     -35.180  14.206  -3.927  1.00 20.00     0.202 C 
HETATM    5  C5  UNL     1     -32.923  16.875  -2.862  1.00 20.00     0.094 C 
HETATM    6  C6  UNL     1     -32.914  14.681  -4.288  1.00 20.00     0.177 C 
HETATM    7  C7  UNL     1     -33.568  15.992  -3.912  1.00 20.00     0.048 C 
HETATM    8  O8  UNL     1     -33.982  17.679  -0.832  1.00 20.00    -0.293 OA
HETATM    9  O9  UNL     1     -34.003  13.807  -4.673  1.00 20.00    -0.386 OA
ENDROOT
TORSDOF 0
ENDMDL
MODEL 9
REMARK VINA RESULT:      -4.3     12.041     12.485
REMARK  0 active torsions:
REMARK  status: ('A' for Active; 'I' for Inactive)
ROOT
HETATM    1  C1  UNL     1     -36.012  14.846  -3.832  1.00 20.00     0.055 C 
HETATM    2  C2  UNL     1     -35.006  15.301  -3.093  1.00 20.00    -0.046 C 
HETATM    3  C3  UNL     1     -35.363  14.450  -5.096  1.00 20.00     0.150 C 
HETATM    4  C4  UNL     1     -34.949  16.146  -1.884  1.00 20.00     0.202 C 
HETATM    5  C5  UNL     1     -33.899  14.828  -5.126  1.00 20.00     0.094 C 
HETATM    6  C6  UNL     1     -33.189  16.619  -3.356  1.00 20.00     0.177 C 
HETATM    7  C7  UNL     1     -33.649  15.215  -3.682  1.00 20.00     0.048 C 
HETATM    8  O8  UNL     1     -35.967  13.926  -6.021  1.00 20.00    -0.293 OA
HETATM    9  O9  UNL     1     -33.721  16.899  -2.038  1.00 20.00    -0.386 OA
ENDROOT
TORSDOF 0
ENDMDL
