MODEL 1
REMARK VINA RESULT:      -5.3      0.000      0.000
REMARK  0 active torsions:
REMARK  status: ('A' for Active; 'I' for Inactive)
ROOT
HETATM    1  C1  UNL     1     -32.917  15.526  -3.824  1.00 20.00     0.015 A 
HETATM    2  C2  UNL     1     -33.582  14.504  -4.370  1.00 20.00     0.083 A 
HETATM    3  C3  UNL     1     -33.502  16.316  -2.774  1.00 20.00    -0.028 A 
HETATM    4  C4  UNL     1     -34.735  16.003  -2.348  1.00 20.00     0.063 A 
HETATM    5  C5  UNL     1     -34.941  14.162  -3.906  1.00 20.00     0.287 A 
HETATM    6  C6  UNL     1     -32.709  17.462  -2.210  1.00 20.00     0.041 C 
HETATM    7  C7  UNL     1     -35.440  16.737  -1.246  1.00 20.00     0.066 C 
HETATM    8  C8  UNL     1     -33.556  18.412  -1.357  1.00 20.00     0.005 C 
HETATM    9  C9  UNL     1     -34.503  17.642  -0.441  1.00 20.00     0.007 C 
HETATM   10  O10 UNL     1     -35.557  13.226  -4.406  1.00 20.00    -0.260 OA
HETATM   11  O11 UNL     1     -35.469  14.928  -2.904  1.00 20.00    -0.279 OA
ENDROOT
TORSDOF 0
ENDMDL
MODEL 2
REMARK VINA RESULT:      -5.2     15.049     16.362
REMARK  0 active torsions:
REMARK  status: ('A' for Active; 'I' for Inactive)
ROOT
HETATM    1  C1  UNL     1     -25.651  19.032   9.181  1.00 20.00     0.015 A 
HETATM    2  C2  UNL     1     -25.463  19.263   7.879  1.00 20.00     0.083 A 
HETATM    3  C3  UNL     1     -24.595  18.497  10.000  1.00 20.00    -0.028 A 
HETATM    4  C4  UNL     1     -23.410  18.238   9.428  1.00 20.00     0.063 A 
HETATM    5  C5  UNL     1     -24.162  18.973   7.247  1.00 20.00     0.287 A 
HETATM    6  C6  UNL     1     -24.872  18.246  11.456  1.00 20.00     0.041 C 
HETATM    7  C7  UNL     1     -22.228  17.702  10.180  1.00 20.00     0.066 C 
HETATM    8  C8  UNL     1     -23.801  17.379  12.126  1.00 20.00     0.005 C 
HETATM    9  C9  UNL     1     -22.397  17.799  11.699  1.00 20.00     0.007 C 
HETATM   10  O10 UNL     1     -23.986  19.181   6.051  1.00 20.00    -0.260 OA
HETATM   11  O11 UNL     1     -23.176  18.470   8.051  1.00 20.00    -0.279 OA
ENDROOT
TORSDOF 0
ENDMDL
MODEL 3
REMARK VINA RESULT:      -5.2      1.465      1.907
REMARK  0 active torsions:
REMARK  status: ('A' for Active; 'I' for Inactive)
ROOT
HETATM    1  C1  UNL     1     -34.680  14.133  -4.209  1.00 20.00     0.015 A 
HETATM    2  C2  UNL     1     -35.885  13.656  -4.533  1.00 20.00     0.083 A 
HETATM    3  C3  UNL     1     -34.543  15.354  -3.461  1.00 20.00    -0.028 A 
HETATM    4  C4  UNL     1     -35.654  16.007  -3.089  1.00 20.00     0.063 A 
HETATM    5  C5  UNL     1     -37.109  14.375  -4.130  1.00 20.00     0.287 A 
HETATM    6  C6  UNL     1     -33.160  15.847  -3.138  1.00 20.00     0.041 C 
HETATM    7  C7  UNL     1     -35.640  17.275  -2.287  1.00 20.00     0.066 C 
HETATM    8  C8  UNL     1     -33.143  17.298  -2.646  1.00 20.00     0.005 C 
HETATM    9  C9  UNL     1     -34.275  17.563  -1.657  1.00 20.00     0.007 C 
HETATM   10  O10 UNL     1     -38.218  13.942  -4.428  1.00 20.00    -0.260 OA
HETATM   11  O11 UNL     1     -36.946  15.531  -3.416  1.00 20.00    -0.279 OA
ENDROOT
TORSDOF 0
ENDMDL
MODEL 4
REMARK VINA RESULT:      -5.0      1.308      2.252
REMARK  0 active torsions:
REMARK  status: ('A' for Active; 'I' for Inactive)
ROOT
HETATM    1  C1  UNL     1     -35.447  15.306  -2.724  1.00 20.00     0.015 A 
HETATM    2  C2  UNL     1     -34.928  14.631  -3.753  1.00 20.00     0.083 A 
HETATM    3  C3  UNL     1     -34.693  16.331  -2.053  1.00 20.00    -0.028 A 
HETATM    4  C4  UNL     1     -33.451  16.600  -2.485  1.00 20.00     0.063 A 
HETATM    5  C5  UNL     1     -33.561  14.921  -4.226  1.00 20.00     0.287 A 
HETATM    6  C6  UNL     1     -35.327  17.046  -0.892  1.00 20.00     0.041 C 
HETATM    7  C7  UNL     1     -32.578  17.660  -1.882  1.00 20.00     0.066 C 
HETATM    8  C8  UNL     1     -34.321  17.857  -0.069  1.00 20.00     0.005 C 
HETATM    9  C9  UNL     1     -33.349  18.615  -0.968  1.00 20.00     0.007 C 
HETATM   10  O10 UNL     1     -33.078  14.301  -5.169  1.00 20.00    -0.260 OA
HETATM   11  O11 UNL     1     -32.870  15.904  -3.571  1.00 20.00    -0.279 OA
ENDROOT
TORSDOF 0
ENDMDL
MODEL 5
REMARK VINA RESULT:      -5.0     11.324     12.032
REMARK  0 active torsions:
REMARK  status: ('A' for Active; 'I' for Inactive)
ROOT
HETATM    1  C1  UNL     1     -33.759   5.078   2.351  1.00 20.00     0.015 A 
HETATM    2  C2  UNL     1     -33.069   5.862   1.518  1.00 20.00     0.083 A 
HETATM    3  C3  UNL     1     -33.953   5.448   3.728  1.00 20.00    -0.028 A 
HETATM    4  C4  UNL     1     -33.429   6.604   4.161  1.00 20.00     0.063 A 
HETATM    5  C5  UNL     1     -32.486   7.131   1.994  1.00 20.00     0.287 A 
HETATM    6  C6  UNL     1     -34.728   4.517   4.619  1.00 20.00     0.041 C 
HETATM    7  C7  UNL     1     -33.584   7.108   5.565  1.00 20.00     0.066 C 
HETATM    8  C8  UNL     1     -34.577   4.852   6.106  1.00 20.00     0.005 C 
HETATM    9  C9  UNL     1     -34.664   6.356   6.349  1.00 20.00     0.007 C 
HETATM   10  O10 UNL     1     -31.849   7.853   1.234  1.00 20.00    -0.260 OA
HETATM   11  O11 UNL     1     -32.692   7.458   3.307  1.00 20.00    -0.279 OA
ENDROOT
TORSDOF 0
ENDMDL
MODEL 6
REMARK VINA RESULT:      -4.7      2.674      4.718
REMARK  0 active torsions:
REMARK  status: ('A' for Active; 'I' for Inactive)
ROOT
HETATM    1  C1  UNL     1     -34.089  18.026  -0.145  1.00 20.00     0.015 A 
HETATM    2  C2  UNL     1     -32.924  18.598   0.169  1.00 20.00     0.083 A 
HETATM    3  C3  UNL     1     -34.221  17.206  -1.319  1.00 20.00    -0.028 A 
HETATM    4  C4  UNL     1     -33.142  17.021  -2.096  1.00 20.00     0.063 A 
HETATM    5  C5  UNL     1     -31.738  18.401  -0.687  1.00 20.00     0.287 A 
HETATM    6  C6  UNL     1     -35.562  16.601  -1.627  1.00 20.00     0.041 C 
HETATM    7  C7  UNL     1     -33.149  16.170  -3.331  1.00 20.00     0.066 C 
HETATM    8  C8  UNL     1     -35.653  16.043  -3.051  1.00 20.00     0.005 C 
HETATM    9  C9  UNL     1     -34.389  15.277  -3.430  1.00 20.00     0.007 C 
HETATM   10  O10 UNL     1     -30.666  18.926  -0.404  1.00 20.00    -0.260 OA
HETATM   11  O11 UNL     1     -31.892  17.612  -1.794  1.00 20.00    -0.279 OA
ENDROOT
TORSDOF 0
ENDMDL
MODEL 7
REMARK VINA RESULT:      -4.6      2.246      4.491
REMARK  0 active torsions:
REMARK  status: ('A' for Active; 'I' for Inactive)
ROOT
HETATM    1  C1  UNL     1     -34.658  17.369  -1.077  1.00 20.00     0.015 A 
HETATM    2  C2  UNL     1     -33.640  18.150  -0.706  1.00 20.00     0.083 A 
HETATM    3  C3  UNL     1     -34.522  16.442  -2.168  1.00 20.00    -0.028 A 
HETATM    4  C4  UNL     1     -33.345  16.373  -2.808  1.00 20.00     0.063 A 
HETATM    5  C5  UNL     1     -32.346  18.081  -1.412  1.00 20.00     0.287 A 
HETATM    6  C6  UNL     1     -35.708  15.599  -2.547  1.00 20.00     0.041 C 
HETATM    7  C7  UNL     1     -33.074  15.431  -3.944  1.00 20.00     0.066 C 
HETATM    8  C8  UNL     1     -35.544  14.915  -3.909  1.00 20.00     0.005 C 
HETATM    9  C9  UNL     1     -34.140  14.340  -4.077  1.00 20.00     0.007 C 
HETATM   10  O10 UNL     1     -31.409  18.799  -1.077  1.00 20.00    -0.260 OA
HETATM   11  O11 UNL     1     -32.246  17.187  -2.442  1.00 20.00    -0.279 OA
ENDROOT
TORSDOF 0
ENDMDL
MODEL 8
REMARK VINA RESULT:      -4.6      1.486      2.418
REMARK  0 active torsions:
REMARK  status: ('A' for Active; 'I' for Inactive)
ROOT
HETATM    1  C1  UNL     1     -36.831  15.869  -3.797  1.00 20.00     0.015 A 
HETATM    2  C2  UNL     1     -36.939  14.595  -4.183  1.00 20.00     0.083 A 
HETATM    3  C3  UNL     1     -35.560  16.419  -3.405  1.00 20.00    -0.028 A 
HETATM    4  C4  UNL     1     -34.480  15.625  -3.439  1.00 20.00     0.063 A 
HETATM    5  C5  UNL     1     -35.753  13.718  -4.215  1.00 20.00     0.287 A 
HETATM    6  C6  UNL     1     -35.504  17.856  -2.967  1.00 20.00     0.041 C 
HETATM    7  C7  UNL     1     -33.100  16.089  -3.076  1.00 20.00     0.066 C 
HETATM    8  C8  UNL     1     -34.190  18.217  -2.268  1.00 20.00     0.005 C 
HETATM    9  C9  UNL     1     -32.990  17.614  -2.994  1.00 20.00     0.007 C 
HETATM   10  O10 UNL     1     -35.849  12.546  -4.566  1.00 20.00    -0.260 OA
HETATM   11  O11 UNL     1     -34.559  14.270  -3.841  1.00 20.00    -0.279 OA
ENDROOT
TORSDOF 0
ENDMDL
MODEL 9
REMARK VINA RESULT:      -4.6      2.178      3.325
REMARK  0 active torsions:
REMARK  status: ('A' for Active; 'I' for Inactive)
ROOT
HETATM    1  C1  UNL     1     -37.106  16.868  -3.539  1.00 20.00     0.015 A 
HETATM    2  C2  UNL     1     -38.157  16.112  -3.868  1.00 20.00     0.083 A 
HETATM    3  C3  UNL     1     -35.776  16.320  -3.515  1.00 20.00    -0.028 A 
HETATM    4  C4  UNL     1     -35.610  15.028  -3.837  1.00 20.00     0.063 A 
HETATM    5  C5  UNL     1     -37.977  14.690  -4.216  1.00 20.00     0.287 A 
HETATM    6  C6  UNL     1     -34.636  17.217  -3.123  1.00 20.00     0.041 C 
HETATM    7  C7  UNL     1     -34.273  14.350  -3.871  1.00 20.00     0.066 C 
HETATM    8  C8  UNL     1     -33.348  16.446  -2.815  1.00 20.00     0.005 C 
HETATM    9  C9  UNL     1     -33.104  15.339  -3.836  1.00 20.00     0.007 C 
HETATM   10  O10 UNL     1     -38.940  13.991  -4.517  1.00 20.00    -0.260 OA
HETATM   11  O11 UNL     1     -36.701  14.198  -4.190  1.00 20.00    -0.279 OA
ENDROOT
TORSDOF 0
ENDMDL
