MODEL 1
REMARK VINA RESULT:      -4.7      0.000      0.000
REMARK  0 active torsions:
REMARK  status: ('A' for Active; 'I' for Inactive)
ROOT
HETATM    1  C1  UNL     1     -26.301  19.180   3.104  1.00 20.00     0.087 A 
HETATM    2  C2  UNL     1     -28.095  19.245   4.733  1.00 20.00     0.063 A 
HETATM    3  C3  UNL     1     -25.760  19.197   5.473  1.00 20.00     0.114 A 
HETATM    4  C4  UNL     1     -27.658  19.216   3.406  1.00 20.00     0.120 A 
HETATM    5  C5  UNL     1     -25.345  19.170   4.124  1.00 20.00     0.149 A 
HETATM    6  C6  UNL     1     -27.129  19.235   5.753  1.00 20.00     0.042 A 
HETATM    7  C7  UNL     1     -25.659  19.223   7.676  1.00 20.00     0.145 A 
HETATM    8  N8  UNL     1     -24.931  19.193   6.585  1.00 20.00    -0.230 NA
HETATM    9  F9  UNL     1     -28.559  19.226   2.414  1.00 20.00    -0.206 F 
HETATM   10  F10 UNL     1     -24.043  19.136   3.814  1.00 20.00    -0.203 F 
HETATM   11  S11 UNL     1     -27.356  19.262   7.462  1.00 20.00    -0.060 SA
HETATM   12 BR12 UNL     1     -24.862  19.226   9.411  1.00 20.00    -0.021 Br
ENDROOT
TORSDOF 0
ENDMDL
MODEL 2
REMARK VINA RESULT:      -4.7     13.703     14.969
REMARK  0 active torsions:
REMARK  status: ('A' for Active; 'I' for Inactive)
ROOT
HETATM    1  C1  UNL     1     -34.455  14.376  -3.700  1.00 20.00     0.087 A 
HETATM    2  C2  UNL     1     -35.502  16.536  -3.357  1.00 20.00     0.063 A 
HETATM    3  C3  UNL     1     -36.840  14.621  -4.095  1.00 20.00     0.114 A 
HETATM    4  C4  UNL     1     -34.369  15.718  -3.346  1.00 20.00     0.120 A 
HETATM    5  C5  UNL     1     -35.680  13.817  -4.075  1.00 20.00     0.149 A 
HETATM    6  C6  UNL     1     -36.729  15.967  -3.735  1.00 20.00     0.042 A 
HETATM    7  C7  UNL     1     -38.949  15.218  -4.349  1.00 20.00     0.145 A 
HETATM    8  N8  UNL     1     -38.118  14.207  -4.443  1.00 20.00    -0.230 NA
HETATM    9  F9  UNL     1     -33.186  16.235  -2.988  1.00 20.00    -0.206 F 
HETATM   10  F10 UNL     1     -35.745  12.522  -4.412  1.00 20.00    -0.203 F 
HETATM   11  S11 UNL     1     -38.282  16.710  -3.845  1.00 20.00    -0.060 SA
HETATM   12 BR12 UNL     1     -40.805  15.029  -4.752  1.00 20.00    -0.021 Br
ENDROOT
TORSDOF 0
ENDMDL
MODEL 3
REMARK VINA RESULT:      -4.4     11.502     12.723
REMARK  0 active torsions:
REMARK  status: ('A' for Active; 'I' for Inactive)
ROOT
HETATM    1  C1  UNL     1     -35.504  13.885  -4.336  1.00 20.00     0.087 A 
HETATM    2  C2  UNL     1     -36.677  15.777  -3.374  1.00 20.00     0.063 A 
HETATM    3  C3  UNL     1     -34.236  15.635  -3.224  1.00 20.00     0.114 A 
HETATM    4  C4  UNL     1     -36.688  14.561  -4.064  1.00 20.00     0.120 A 
HETATM    5  C5  UNL     1     -34.275  14.409  -3.923  1.00 20.00     0.149 A 
HETATM    6  C6  UNL     1     -35.440  16.297  -2.963  1.00 20.00     0.042 A 
HETATM    7  C7  UNL     1     -33.436  17.390  -2.153  1.00 20.00     0.145 A 
HETATM    8  N8  UNL     1     -33.098  16.274  -2.755  1.00 20.00    -0.230 NA
HETATM    9  F9  UNL     1     -37.856  14.043  -4.469  1.00 20.00    -0.206 F 
HETATM   10  F10 UNL     1     -33.145  13.745  -4.194  1.00 20.00    -0.203 F 
HETATM   11  S11 UNL     1     -35.107  17.755  -2.104  1.00 20.00    -0.060 SA
HETATM   12 BR12 UNL     1     -32.130  18.544  -1.375  1.00 20.00    -0.021 Br
ENDROOT
TORSDOF 0
ENDMDL
MODEL 4
REMARK VINA RESULT:      -4.3      2.021      2.475
REMARK  0 active torsions:
REMARK  status: ('A' for Active; 'I' for Inactive)
ROOT
HETATM    1  C1  UNL     1     -26.693  19.146   5.212  1.00 20.00     0.087 A 
HETATM    2  C2  UNL     1     -27.170  19.038   7.587  1.00 20.00     0.063 A 
HETATM    3  C3  UNL     1     -24.857  18.915   6.788  1.00 20.00     0.114 A 
HETATM    4  C4  UNL     1     -27.603  19.150   6.263  1.00 20.00     0.120 A 
HETATM    5  C5  UNL     1     -25.322  19.030   5.460  1.00 20.00     0.149 A 
HETATM    6  C6  UNL     1     -25.791  18.922   7.828  1.00 20.00     0.042 A 
HETATM    7  C7  UNL     1     -23.472  18.711   8.493  1.00 20.00     0.145 A 
HETATM    8  N8  UNL     1     -23.533  18.795   7.184  1.00 20.00    -0.230 NA
HETATM    9  F9  UNL     1     -28.913  19.263   6.005  1.00 20.00    -0.206 F 
HETATM   10  F10 UNL     1     -24.459  19.029   4.435  1.00 20.00    -0.203 F 
HETATM   11  S11 UNL     1     -24.961  18.771   9.332  1.00 20.00    -0.060 SA
HETATM   12 BR12 UNL     1     -21.806  18.532   9.407  1.00 20.00    -0.021 Br
ENDROOT
TORSDOF 0
ENDMDL
MODEL 5
REMARK VINA RESULT:      -4.3     10.671     11.939
REMARK  0 active torsions:
REMARK  status: ('A' for Active; 'I' for Inactive)
ROOT
HETATM    1  C1  UNL     1     -33.926  18.133  -0.247  1.00 20.00     0.087 A 
HETATM    2  C2  UNL     1     -32.484  17.523  -2.099  1.00 20.00     0.063 A 
HETATM    3  C3  UNL     1     -34.698  16.498  -1.870  1.00 20.00     0.114 A 
HETATM    4  C4  UNL     1     -32.726  18.262  -0.938  1.00 20.00     0.120 A 
HETATM    5  C5  UNL     1     -34.916  17.257  -0.700  1.00 20.00     0.149 A 
HETATM    6  C6  UNL     1     -33.484  16.645  -2.548  1.00 20.00     0.042 A 
HETATM    7  C7  UNL     1     -35.051  15.072  -3.516  1.00 20.00     0.145 A 
HETATM    8  N8  UNL     1     -35.585  15.594  -2.437  1.00 20.00    -0.230 NA
HETATM    9  F9  UNL     1     -31.789  19.108  -0.487  1.00 20.00    -0.206 F 
HETATM   10  F10 UNL     1     -36.066  17.146  -0.022  1.00 20.00    -0.203 F 
HETATM   11  S11 UNL     1     -33.481  15.612  -3.929  1.00 20.00    -0.060 SA
HETATM   12 BR12 UNL     1     -35.981  13.780  -4.569  1.00 20.00    -0.021 Br
ENDROOT
TORSDOF 0
ENDMDL
MODEL 6
REMARK VINA RESULT:      -4.1     12.099     13.287
REMARK  0 active torsions:
REMARK  status: ('A' for Active; 'I' for Inactive)
ROOT
HETATM    1  C1  UNL     1     -33.882  14.777  -5.950  1.00 20.00     0.087 A 
HETATM    2  C2  UNL     1     -35.984  15.942  -5.634  1.00 20.00     0.063 A 
HETATM    3  C3  UNL     1     -34.423  15.687  -3.763  1.00 20.00     0.114 A 
HETATM    4  C4  UNL     1     -35.090  15.247  -6.453  1.00 20.00     0.120 A 
HETATM    5  C5  UNL     1     -33.537  14.989  -4.612  1.00 20.00     0.149 A 
HETATM    6  C6  UNL     1     -35.631  16.152  -4.291  1.00 20.00     0.042 A 
HETATM    7  C7  UNL     1     -35.247  16.634  -1.949  1.00 20.00     0.145 A 
HETATM    8  N8  UNL     1     -34.217  15.972  -2.421  1.00 20.00    -0.230 NA
HETATM    9  F9  UNL     1     -35.401  15.035  -7.739  1.00 20.00    -0.206 F 
HETATM   10  F10 UNL     1     -32.369  14.529  -4.146  1.00 20.00    -0.203 F 
HETATM   11  S11 UNL     1     -36.514  16.962  -3.051  1.00 20.00    -0.060 SA
HETATM   12 BR12 UNL     1     -35.324  17.201  -0.128  1.00 20.00    -0.021 Br
ENDROOT
TORSDOF 0
ENDMDL
MODEL 7
REMARK VINA RESULT:      -4.1     10.581     11.519
REMARK  0 active torsions:
REMARK  status: ('A' for Active; 'I' for Inactive)
ROOT
HETATM    1  C1  UNL     1     -33.358  18.265  -0.215  1.00 20.00     0.087 A 
HETATM    2  C2  UNL     1     -35.341  16.938  -0.646  1.00 20.00     0.063 A 
HETATM    3  C3  UNL     1     -33.515  16.990  -2.279  1.00 20.00     0.114 A 
HETATM    4  C4  UNL     1     -34.613  17.807   0.171  1.00 20.00     0.120 A 
HETATM    5  C5  UNL     1     -32.800  17.866  -1.434  1.00 20.00     0.149 A 
HETATM    6  C6  UNL     1     -34.774  16.542  -1.868  1.00 20.00     0.042 A 
HETATM    7  C7  UNL     1     -34.008  15.721  -4.014  1.00 20.00     0.145 A 
HETATM    8  N8  UNL     1     -33.090  16.511  -3.509  1.00 20.00    -0.230 NA
HETATM    9  F9  UNL     1     -35.130  18.200   1.343  1.00 20.00    -0.206 F 
HETATM   10  F10 UNL     1     -31.590  18.317  -1.789  1.00 20.00    -0.203 F 
HETATM   11  S11 UNL     1     -35.420  15.494  -3.075  1.00 20.00    -0.060 SA
HETATM   12 BR12 UNL     1     -33.777  14.871  -5.708  1.00 20.00    -0.021 Br
ENDROOT
TORSDOF 0
ENDMDL
MODEL 8
REMARK VINA RESULT:      -4.0     12.031     13.328
REMARK  0 active torsions:
REMARK  status: ('A' for Active; 'I' for Inactive)
ROOT
HETATM    1  C1  UNL     1     -35.399  14.433  -5.706  1.00 20.00     0.087 A 
HETATM    2  C2  UNL     1     -35.023  16.781  -6.179  1.00 20.00     0.063 A 
HETATM    3  C3  UNL     1     -34.222  15.804  -4.081  1.00 20.00     0.114 A 
HETATM    4  C4  UNL     1     -35.535  15.533  -6.545  1.00 20.00     0.120 A 
HETATM    5  C5  UNL     1     -34.748  14.554  -4.475  1.00 20.00     0.149 A 
HETATM    6  C6  UNL     1     -34.370  16.895  -4.942  1.00 20.00     0.042 A 
HETATM    7  C7  UNL     1     -33.207  17.339  -2.864  1.00 20.00     0.145 A 
HETATM    8  N8  UNL     1     -33.554  16.073  -2.895  1.00 20.00    -0.230 NA
HETATM    9  F9  UNL     1     -36.162  15.397  -7.722  1.00 20.00    -0.206 F 
HETATM   10  F10 UNL     1     -34.626  13.484  -3.679  1.00 20.00    -0.203 F 
HETATM   11  S11 UNL     1     -33.643  18.284  -4.222  1.00 20.00    -0.060 SA
HETATM   12 BR12 UNL     1     -32.265  18.082  -1.379  1.00 20.00    -0.021 Br
ENDROOT
TORSDOF 0
ENDMDL
MODEL 9
REMARK VINA RESULT:      -4.0     13.305     14.400
REMARK  0 active torsions:
REMARK  status: ('A' for Active; 'I' for Inactive)
ROOT
HETATM    1  C1  UNL     1     -33.764  15.203  -3.567  1.00 20.00     0.087 A 
HETATM    2  C2  UNL     1     -34.939  17.295  -3.915  1.00 20.00     0.063 A 
HETATM    3  C3  UNL     1     -36.157  15.170  -3.989  1.00 20.00     0.114 A 
HETATM    4  C4  UNL     1     -33.759  16.590  -3.659  1.00 20.00     0.120 A 
HETATM    5  C5  UNL     1     -34.951  14.483  -3.730  1.00 20.00     0.149 A 
HETATM    6  C6  UNL     1     -36.128  16.565  -4.077  1.00 20.00     0.042 A 
HETATM    7  C7  UNL     1     -38.295  15.531  -4.392  1.00 20.00     0.145 A 
HETATM    8  N8  UNL     1     -37.405  14.593  -4.171  1.00 20.00    -0.230 NA
HETATM    9  F9  UNL     1     -32.611  17.262  -3.499  1.00 20.00    -0.206 F 
HETATM   10  F10 UNL     1     -34.936  13.147  -3.637  1.00 20.00    -0.203 F 
HETATM   11  S11 UNL     1     -37.721  17.143  -4.397  1.00 20.00    -0.060 SA
HETATM   12 BR12 UNL     1     -40.134  15.116  -4.691  1.00 20.00    -0.021 Br
ENDROOT
TORSDOF 0
ENDMDL
