MODEL 1
REMARK VINA RESULT:      -4.9      0.000      0.000
REMARK  0 active torsions:
REMARK  status: ('A' for Active; 'I' for Inactive)
ROOT
HETATM    1  C1  UNL     1     -24.572  18.871   6.876  1.00 20.00     0.105 C 
HETATM    2  C2  UNL     1     -22.441  17.563   9.634  1.00 20.00     0.068 A 
HETATM    3  C3  UNL     1     -24.528  18.348  10.561  1.00 20.00     0.068 A 
HETATM    4  C4  UNL     1     -24.131  18.499   8.184  1.00 20.00     0.121 A 
HETATM    5  C5  UNL     1     -22.872  17.925   8.357  1.00 20.00     0.141 A 
HETATM    6  C6  UNL     1     -24.959  18.711   9.286  1.00 20.00     0.141 A 
HETATM    7  C7  UNL     1     -23.269  17.775  10.736  1.00 20.00     0.040 A 
HETATM    8  N8  UNL     1     -24.931  19.172   5.814  1.00 20.00    -0.191 NA
HETATM    9  F9  UNL     1     -22.063  17.716   7.308  1.00 20.00    -0.204 F 
HETATM   10  F10 UNL     1     -26.172  19.262   9.134  1.00 20.00    -0.204 F 
HETATM   11 CL11 UNL     1     -22.737  17.328  12.311  1.00 20.00    -0.084 Cl
ENDROOT
TORSDOF 0
ENDMDL
MODEL 2
REMARK VINA RESULT:      -4.9      2.238      3.018
REMARK  0 active torsions:
REMARK  status: ('A' for Active; 'I' for Inactive)
ROOT
HETATM    1  C1  UNL     1     -22.472  17.760   7.854  1.00 20.00     0.105 C 
HETATM    2  C2  UNL     1     -25.558  19.198   9.361  1.00 20.00     0.068 A 
HETATM    3  C3  UNL     1     -24.277  18.103  11.092  1.00 20.00     0.068 A 
HETATM    4  C4  UNL     1     -23.465  18.122   8.817  1.00 20.00     0.121 A 
HETATM    5  C5  UNL     1     -24.589  18.846   8.421  1.00 20.00     0.141 A 
HETATM    6  C6  UNL     1     -23.308  17.750  10.152  1.00 20.00     0.141 A 
HETATM    7  C7  UNL     1     -25.402  18.827  10.696  1.00 20.00     0.040 A 
HETATM    8  N8  UNL     1     -21.666  17.467   7.071  1.00 20.00    -0.191 NA
HETATM    9  F9  UNL     1     -24.754  19.210   7.141  1.00 20.00    -0.204 F 
HETATM   10  F10 UNL     1     -22.233  17.054  10.548  1.00 20.00    -0.204 F 
HETATM   11 CL11 UNL     1     -26.597  19.262  11.856  1.00 20.00    -0.084 Cl
ENDROOT
TORSDOF 0
ENDMDL
MODEL 3
REMARK VINA RESULT:      -4.8     15.902     16.975
REMARK  0 active torsions:
REMARK  status: ('A' for Active; 'I' for Inactive)
ROOT
HETATM    1  C1  UNL     1     -36.618  14.533  -4.041  1.00 20.00     0.105 C 
HETATM    2  C2  UNL     1     -34.984  17.461  -2.422  1.00 20.00     0.068 A 
HETATM    3  C3  UNL     1     -33.281  15.884  -3.092  1.00 20.00     0.068 A 
HETATM    4  C4  UNL     1     -35.609  15.402  -3.520  1.00 20.00     0.121 A 
HETATM    5  C5  UNL     1     -35.969  16.614  -2.931  1.00 20.00     0.141 A 
HETATM    6  C6  UNL     1     -34.265  15.037  -3.600  1.00 20.00     0.141 A 
HETATM    7  C7  UNL     1     -33.640  17.096  -2.502  1.00 20.00     0.040 A 
HETATM    8  N8  UNL     1     -37.437  13.829  -4.464  1.00 20.00    -0.191 NA
HETATM    9  F9  UNL     1     -37.256  16.979  -2.845  1.00 20.00    -0.204 F 
HETATM   10  F10 UNL     1     -33.904  13.874  -4.164  1.00 20.00    -0.204 F 
HETATM   11 CL11 UNL     1     -32.425  18.141  -1.875  1.00 20.00    -0.084 Cl
ENDROOT
TORSDOF 0
ENDMDL
MODEL 4
REMARK VINA RESULT:      -4.8     15.933     16.837
REMARK  0 active torsions:
REMARK  status: ('A' for Active; 'I' for Inactive)
ROOT
HETATM    1  C1  UNL     1     -36.661  14.537  -4.049  1.00 20.00     0.105 C 
HETATM    2  C2  UNL     1     -33.312  15.862  -3.102  1.00 20.00     0.068 A 
HETATM    3  C3  UNL     1     -35.000  17.463  -2.453  1.00 20.00     0.068 A 
HETATM    4  C4  UNL     1     -35.644  15.400  -3.532  1.00 20.00     0.121 A 
HETATM    5  C5  UNL     1     -34.304  15.020  -3.605  1.00 20.00     0.141 A 
HETATM    6  C6  UNL     1     -35.992  16.622  -2.956  1.00 20.00     0.141 A 
HETATM    7  C7  UNL     1     -33.660  17.083  -2.526  1.00 20.00     0.040 A 
HETATM    8  N8  UNL     1     -37.486  13.837  -4.467  1.00 20.00    -0.191 NA
HETATM    9  F9  UNL     1     -33.953  13.849  -4.157  1.00 20.00    -0.204 F 
HETATM   10  F10 UNL     1     -37.276  17.001  -2.879  1.00 20.00    -0.204 F 
HETATM   11 CL11 UNL     1     -32.436  18.122  -1.905  1.00 20.00    -0.084 Cl
ENDROOT
TORSDOF 0
ENDMDL
MODEL 5
REMARK VINA RESULT:      -4.6      3.193      3.804
REMARK  0 active torsions:
REMARK  status: ('A' for Active; 'I' for Inactive)
ROOT
HETATM    1  C1  UNL     1     -22.989  17.946  11.315  1.00 20.00     0.105 C 
HETATM    2  C2  UNL     1     -23.516  18.377   7.654  1.00 20.00     0.068 A 
HETATM    3  C3  UNL     1     -25.512  19.077   8.822  1.00 20.00     0.068 A 
HETATM    4  C4  UNL     1     -23.608  18.264  10.066  1.00 20.00     0.121 A 
HETATM    5  C5  UNL     1     -22.912  18.068   8.873  1.00 20.00     0.141 A 
HETATM    6  C6  UNL     1     -24.908  18.768  10.040  1.00 20.00     0.141 A 
HETATM    7  C7  UNL     1     -24.816  18.881   7.628  1.00 20.00     0.040 A 
HETATM    8  N8  UNL     1     -22.486  17.689  12.328  1.00 20.00    -0.191 NA
HETATM    9  F9  UNL     1     -21.661  17.582   8.881  1.00 20.00    -0.204 F 
HETATM   10  F10 UNL     1     -25.590  18.961  11.179  1.00 20.00    -0.204 F 
HETATM   11 CL11 UNL     1     -25.562  19.263   6.125  1.00 20.00    -0.084 Cl
ENDROOT
TORSDOF 0
ENDMDL
MODEL 6
REMARK VINA RESULT:      -4.5     15.809     17.024
REMARK  0 active torsions:
REMARK  status: ('A' for Active; 'I' for Inactive)
ROOT
HETATM    1  C1  UNL     1     -35.631  14.484  -5.200  1.00 20.00     0.105 C 
HETATM    2  C2  UNL     1     -35.382  16.812  -2.305  1.00 20.00     0.068 A 
HETATM    3  C3  UNL     1     -33.157  16.144  -2.967  1.00 20.00     0.068 A 
HETATM    4  C4  UNL     1     -35.078  15.294  -4.159  1.00 20.00     0.121 A 
HETATM    5  C5  UNL     1     -35.922  16.023  -3.321  1.00 20.00     0.141 A 
HETATM    6  C6  UNL     1     -33.696  15.354  -3.982  1.00 20.00     0.141 A 
HETATM    7  C7  UNL     1     -34.000  16.873  -2.128  1.00 20.00     0.040 A 
HETATM    8  N8  UNL     1     -36.080  13.827  -6.045  1.00 20.00    -0.191 NA
HETATM    9  F9  UNL     1     -37.253  15.975  -3.477  1.00 20.00    -0.204 F 
HETATM   10  F10 UNL     1     -32.873  14.659  -4.780  1.00 20.00    -0.204 F 
HETATM   11 CL11 UNL     1     -33.334  17.847  -0.875  1.00 20.00    -0.084 Cl
ENDROOT
TORSDOF 0
ENDMDL
MODEL 7
REMARK VINA RESULT:      -4.4     22.750     23.674
REMARK  0 active torsions:
REMARK  status: ('A' for Active; 'I' for Inactive)
ROOT
HETATM    1  C1  UNL     1     -41.494   9.183   0.077  1.00 20.00     0.105 C 
HETATM    2  C2  UNL     1     -43.258   6.468  -1.762  1.00 20.00     0.068 A 
HETATM    3  C3  UNL     1     -41.728   5.476  -0.177  1.00 20.00     0.068 A 
HETATM    4  C4  UNL     1     -41.900   7.879  -0.347  1.00 20.00     0.121 A 
HETATM    5  C5  UNL     1     -42.863   7.740  -1.347  1.00 20.00     0.141 A 
HETATM    6  C6  UNL     1     -41.332   6.747   0.237  1.00 20.00     0.141 A 
HETATM    7  C7  UNL     1     -42.690   5.336  -1.177  1.00 20.00     0.040 A 
HETATM    8  N8  UNL     1     -41.165  10.241   0.421  1.00 20.00    -0.191 NA
HETATM    9  F9  UNL     1     -43.417   8.818  -1.920  1.00 20.00    -0.204 F 
HETATM   10  F10 UNL     1     -40.405   6.866   1.199  1.00 20.00    -0.204 F 
HETATM   11 CL11 UNL     1     -43.178   3.766  -1.688  1.00 20.00    -0.084 Cl
ENDROOT
TORSDOF 0
ENDMDL
MODEL 8
REMARK VINA RESULT:      -4.3     13.917     15.039
REMARK  0 active torsions:
REMARK  status: ('A' for Active; 'I' for Inactive)
ROOT
HETATM    1  C1  UNL     1     -33.760  18.515   0.073  1.00 20.00     0.105 C 
HETATM    2  C2  UNL     1     -32.978  16.586  -3.014  1.00 20.00     0.068 A 
HETATM    3  C3  UNL     1     -35.150  15.913  -2.198  1.00 20.00     0.068 A 
HETATM    4  C4  UNL     1     -33.884  17.595  -1.015  1.00 20.00     0.121 A 
HETATM    5  C5  UNL     1     -32.858  17.484  -1.953  1.00 20.00     0.141 A 
HETATM    6  C6  UNL     1     -35.030  16.810  -1.137  1.00 20.00     0.141 A 
HETATM    7  C7  UNL     1     -34.124  15.800  -3.136  1.00 20.00     0.040 A 
HETATM    8  N8  UNL     1     -33.660  19.262   0.955  1.00 20.00    -0.191 NA
HETATM    9  F9  UNL     1     -31.749  18.231  -1.849  1.00 20.00    -0.204 F 
HETATM   10  F10 UNL     1     -36.025  16.907  -0.243  1.00 20.00    -0.204 F 
HETATM   11 CL11 UNL     1     -34.273  14.692  -4.445  1.00 20.00    -0.084 Cl
ENDROOT
TORSDOF 0
ENDMDL
MODEL 9
REMARK VINA RESULT:      -4.3     13.982     15.243
REMARK  0 active torsions:
REMARK  status: ('A' for Active; 'I' for Inactive)
ROOT
HETATM    1  C1  UNL     1     -33.837  18.519   0.023  1.00 20.00     0.105 C 
HETATM    2  C2  UNL     1     -35.099  15.890  -2.293  1.00 20.00     0.068 A 
HETATM    3  C3  UNL     1     -32.928  16.629  -3.053  1.00 20.00     0.068 A 
HETATM    4  C4  UNL     1     -33.908  17.601  -1.072  1.00 20.00     0.121 A 
HETATM    5  C5  UNL     1     -35.029  16.785  -1.225  1.00 20.00     0.141 A 
HETATM    6  C6  UNL     1     -32.858  17.523  -1.986  1.00 20.00     0.141 A 
HETATM    7  C7  UNL     1     -34.048  15.812  -3.208  1.00 20.00     0.040 A 
HETATM    8  N8  UNL     1     -33.779  19.263   0.911  1.00 20.00    -0.191 NA
HETATM    9  F9  UNL     1     -36.047  16.849  -0.355  1.00 20.00    -0.204 F 
HETATM   10  F10 UNL     1     -31.774  18.302  -1.852  1.00 20.00    -0.204 F 
HETATM   11 CL11 UNL     1     -34.134  14.708  -4.525  1.00 20.00    -0.084 Cl
ENDROOT
TORSDOF 0
ENDMDL
