MODEL 1
REMARK VINA RESULT:      -4.8      0.000      0.000
REMARK  3 active torsions:
REMARK  status: ('A' for Active; 'I' for Inactive)
REMARK    1  A    between atoms: C1_1  and  C6_6 
REMARK    2  A    between atoms: C4_4  and  C7_7 
REMARK    3  A    between atoms: C6_6  and  C7_7 
ROOT
HETATM    1  C7  UNL     1     -34.413  14.920  -3.437  1.00 20.00     0.019 C 
ENDROOT
BRANCH   1   2
HETATM    2  C4  UNL     1     -34.289  16.246  -2.738  1.00 20.00    -0.043 A 
HETATM    3  C2  UNL     1     -34.006  17.467  -3.582  1.00 20.00     0.010 A 
HETATM    4  C3  UNL     1     -32.927  16.901  -2.701  1.00 20.00     0.010 A 
HETATM    5  C5  UNL     1     -35.182  16.408  -1.540  1.00 20.00     0.015 C 
ENDBRANCH   1   2
BRANCH   1   6
HETATM    6  C6  UNL     1     -35.546  14.904  -4.456  1.00 20.00     0.114 C 
BRANCH   6   7
HETATM    7  C1  UNL     1     -36.430  13.652  -4.485  1.00 20.00     0.172 C 
HETATM    8  O8  UNL     1     -37.677  13.843  -4.481  1.00 20.00    -0.648 OA
HETATM    9  O9  UNL     1     -35.786  12.564  -4.522  1.00 20.00    -0.648 OA
ENDBRANCH   6   7
ENDBRANCH   1   6
TORSDOF 3
ENDMDL
MODEL 2
REMARK VINA RESULT:      -4.7      0.861      1.685
REMARK  3 active torsions:
REMARK  status: ('A' for Active; 'I' for Inactive)
REMARK    1  A    between atoms: C1_1  and  C6_6 
REMARK    2  A    between atoms: C4_4  and  C7_7 
REMARK    3  A    between atoms: C6_6  and  C7_7 
ROOT
HETATM    1  C7  UNL     1     -35.300  15.900  -4.775  1.00 20.00     0.019 C 
ENDROOT
BRANCH   1   2
HETATM    2  C4  UNL     1     -34.138  15.764  -3.830  1.00 20.00    -0.043 A 
HETATM    3  C2  UNL     1     -34.410  15.900  -2.350  1.00 20.00     0.010 A 
HETATM    4  C3  UNL     1     -33.688  16.996  -3.080  1.00 20.00     0.010 A 
HETATM    5  C5  UNL     1     -33.089  14.780  -4.267  1.00 20.00     0.015 C 
ENDBRANCH   1   2
BRANCH   1   6
HETATM    6  C6  UNL     1     -35.623  14.594  -5.491  1.00 20.00     0.114 C 
BRANCH   6   7
HETATM    7  C1  UNL     1     -36.426  13.555  -4.701  1.00 20.00     0.172 C 
HETATM    8  O8  UNL     1     -37.630  13.840  -4.457  1.00 20.00    -0.648 OA
HETATM    9  O9  UNL     1     -35.771  12.516  -4.398  1.00 20.00    -0.648 OA
ENDBRANCH   6   7
ENDBRANCH   1   6
TORSDOF 3
ENDMDL
MODEL 3
REMARK VINA RESULT:      -4.7      1.175      1.765
REMARK  3 active torsions:
REMARK  status: ('A' for Active; 'I' for Inactive)
REMARK    1  A    between atoms: C1_1  and  C6_6 
REMARK    2  A    between atoms: C4_4  and  C7_7 
REMARK    3  A    between atoms: C6_6  and  C7_7 
ROOT
HETATM    1  C7  UNL     1     -34.986  15.136  -3.171  1.00 20.00     0.019 C 
ENDROOT
BRANCH   1   2
HETATM    2  C4  UNL     1     -33.663  15.762  -3.518  1.00 20.00    -0.043 A 
HETATM    3  C2  UNL     1     -33.079  16.766  -2.551  1.00 20.00     0.010 A 
HETATM    4  C3  UNL     1     -33.645  17.233  -3.862  1.00 20.00     0.010 A 
HETATM    5  C5  UNL     1     -32.714  14.854  -4.250  1.00 20.00     0.015 C 
ENDBRANCH   1   2
BRANCH   1   6
HETATM    6  C6  UNL     1     -35.213  13.817  -3.898  1.00 20.00     0.114 C 
BRANCH   6   7
HETATM    7  C1  UNL     1     -36.359  13.779  -4.916  1.00 20.00     0.172 C 
HETATM    8  O8  UNL     1     -37.526  13.695  -4.446  1.00 20.00    -0.648 OA
HETATM    9  O9  UNL     1     -35.983  13.850  -6.122  1.00 20.00    -0.648 OA
ENDBRANCH   6   7
ENDBRANCH   1   6
TORSDOF 3
ENDMDL
MODEL 4
REMARK VINA RESULT:      -4.6      0.566      1.259
REMARK  3 active torsions:
REMARK  status: ('A' for Active; 'I' for Inactive)
REMARK    1  A    between atoms: C1_1  and  C6_6 
REMARK    2  A    between atoms: C4_4  and  C7_7 
REMARK    3  A    between atoms: C6_6  and  C7_7 
ROOT
HETATM    1  C7  UNL     1     -34.488  15.038  -3.416  1.00 20.00     0.019 C 
ENDROOT
BRANCH   1   2
HETATM    2  C4  UNL     1     -34.564  16.469  -2.961  1.00 20.00    -0.043 A 
HETATM    3  C2  UNL     1     -33.407  17.020  -2.160  1.00 20.00     0.010 A 
HETATM    4  C3  UNL     1     -34.717  16.734  -1.481  1.00 20.00     0.010 A 
HETATM    5  C5  UNL     1     -35.261  17.394  -3.919  1.00 20.00     0.015 C 
ENDBRANCH   1   2
BRANCH   1   6
HETATM    6  C6  UNL     1     -35.381  14.763  -4.620  1.00 20.00     0.114 C 
BRANCH   6   7
HETATM    7  C1  UNL     1     -36.342  13.574  -4.508  1.00 20.00     0.172 C 
HETATM    8  O8  UNL     1     -37.574  13.843  -4.529  1.00 20.00    -0.648 OA
HETATM    9  O9  UNL     1     -35.768  12.450  -4.420  1.00 20.00    -0.648 OA
ENDBRANCH   6   7
ENDBRANCH   1   6
TORSDOF 3
ENDMDL
MODEL 5
REMARK VINA RESULT:      -4.5     11.400     12.211
REMARK  3 active torsions:
REMARK  status: ('A' for Active; 'I' for Inactive)
REMARK    1  A    between atoms: C1_1  and  C6_6 
REMARK    2  A    between atoms: C4_4  and  C7_7 
REMARK    3  A    between atoms: C6_6  and  C7_7 
ROOT
HETATM    1  C7  UNL     1     -33.418   5.056   3.791  1.00 20.00     0.019 C 
ENDROOT
BRANCH   1   2
HETATM    2  C4  UNL     1     -34.568   5.530   4.635  1.00 20.00    -0.043 A 
HETATM    3  C2  UNL     1     -34.271   6.494   5.760  1.00 20.00     0.010 A 
HETATM    4  C3  UNL     1     -34.627   5.068   6.073  1.00 20.00     0.010 A 
HETATM    5  C5  UNL     1     -35.865   5.691   3.892  1.00 20.00     0.015 C 
ENDBRANCH   1   2
BRANCH   1   6
HETATM    6  C6  UNL     1     -33.326   5.799   2.463  1.00 20.00     0.114 C 
BRANCH   6   7
HETATM    7  C1  UNL     1     -32.522   7.104   2.458  1.00 20.00     0.172 C 
HETATM    8  O8  UNL     1     -31.805   7.327   3.472  1.00 20.00    -0.648 OA
HETATM    9  O9  UNL     1     -32.671   7.800   1.412  1.00 20.00    -0.648 OA
ENDBRANCH   6   7
ENDBRANCH   1   6
TORSDOF 3
ENDMDL
MODEL 6
REMARK VINA RESULT:      -4.5     17.442     18.364
REMARK  3 active torsions:
REMARK  status: ('A' for Active; 'I' for Inactive)
REMARK    1  A    between atoms: C1_1  and  C6_6 
REMARK    2  A    between atoms: C4_4  and  C7_7 
REMARK    3  A    between atoms: C6_6  and  C7_7 
ROOT
HETATM    1  C7  UNL     1     -24.344  18.071  10.146  1.00 20.00     0.019 C 
ENDROOT
BRANCH   1   2
HETATM    2  C4  UNL     1     -24.126  17.358  11.452  1.00 20.00    -0.043 A 
HETATM    3  C2  UNL     1     -24.583  15.923  11.560  1.00 20.00     0.010 A 
HETATM    4  C3  UNL     1     -25.342  17.003  12.276  1.00 20.00     0.010 A 
HETATM    5  C5  UNL     1     -22.871  17.756  12.180  1.00 20.00     0.015 C 
ENDBRANCH   1   2
BRANCH   1   6
HETATM    6  C6  UNL     1     -23.035  18.469   9.474  1.00 20.00     0.114 C 
BRANCH   6   7
HETATM    7  C1  UNL     1     -22.564  17.592   8.308  1.00 20.00     0.172 C 
HETATM    8  O8  UNL     1     -22.593  18.118   7.162  1.00 20.00    -0.648 OA
HETATM    9  O9  UNL     1     -22.187  16.434   8.650  1.00 20.00    -0.648 OA
ENDBRANCH   6   7
ENDBRANCH   1   6
TORSDOF 3
ENDMDL
MODEL 7
REMARK VINA RESULT:      -4.3     10.500     11.369
REMARK  3 active torsions:
REMARK  status: ('A' for Active; 'I' for Inactive)
REMARK    1  A    between atoms: C1_1  and  C6_6 
REMARK    2  A    between atoms: C4_4  and  C7_7 
REMARK    3  A    between atoms: C6_6  and  C7_7 
ROOT
HETATM    1  C7  UNL     1     -33.335   6.027   2.756  1.00 20.00     0.019 C 
ENDROOT
BRANCH   1   2
HETATM    2  C4  UNL     1     -34.037   5.916   4.081  1.00 20.00    -0.043 A 
HETATM    3  C2  UNL     1     -34.443   4.539   4.554  1.00 20.00     0.010 A 
HETATM    4  C3  UNL     1     -35.492   5.505   4.078  1.00 20.00     0.010 A 
HETATM    5  C5  UNL     1     -33.587   6.912   5.113  1.00 20.00     0.015 C 
ENDBRANCH   1   2
BRANCH   1   6
HETATM    6  C6  UNL     1     -32.482   7.285   2.654  1.00 20.00     0.114 C 
BRANCH   6   7
HETATM    7  C1  UNL     1     -32.549   8.059   1.332  1.00 20.00     0.172 C 
HETATM    8  O8  UNL     1     -33.366   9.019   1.283  1.00 20.00    -0.648 OA
HETATM    9  O9  UNL     1     -31.753   7.638   0.444  1.00 20.00    -0.648 OA
ENDBRANCH   6   7
ENDBRANCH   1   6
TORSDOF 3
ENDMDL
MODEL 8
REMARK VINA RESULT:      -4.3     11.600     12.295
REMARK  3 active torsions:
REMARK  status: ('A' for Active; 'I' for Inactive)
REMARK    1  A    between atoms: C1_1  and  C6_6 
REMARK    2  A    between atoms: C4_4  and  C7_7 
REMARK    3  A    between atoms: C6_6  and  C7_7 
ROOT
HETATM    1  C7  UNL     1     -34.430   6.756   3.459  1.00 20.00     0.019 C 
ENDROOT
BRANCH   1   2
HETATM    2  C4  UNL     1     -33.135   6.403   2.781  1.00 20.00    -0.043 A 
HETATM    3  C2  UNL     1     -31.901   7.187   3.161  1.00 20.00     0.010 A 
HETATM    4  C3  UNL     1     -32.543   7.408   1.821  1.00 20.00     0.010 A 
HETATM    5  C5  UNL     1     -32.972   4.943   2.464  1.00 20.00     0.015 C 
ENDBRANCH   1   2
BRANCH   1   6
HETATM    6  C6  UNL     1     -34.921   5.650   4.386  1.00 20.00     0.114 C 
BRANCH   6   7
HETATM    7  C1  UNL     1     -34.496   5.743   5.856  1.00 20.00     0.172 C 
HETATM    8  O8  UNL     1     -34.219   6.895   6.290  1.00 20.00    -0.648 OA
HETATM    9  O9  UNL     1     -34.487   4.634   6.464  1.00 20.00    -0.648 OA
ENDBRANCH   6   7
ENDBRANCH   1   6
TORSDOF 3
ENDMDL
MODEL 9
REMARK VINA RESULT:      -4.2      1.062      1.878
REMARK  3 active torsions:
REMARK  status: ('A' for Active; 'I' for Inactive)
REMARK    1  A    between atoms: C1_1  and  C6_6 
REMARK    2  A    between atoms: C4_4  and  C7_7 
REMARK    3  A    between atoms: C6_6  and  C7_7 
ROOT
HETATM    1  C7  UNL     1     -35.430  15.644  -2.937  1.00 20.00     0.019 C 
ENDROOT
BRANCH   1   2
HETATM    2  C4  UNL     1     -34.254  16.282  -3.624  1.00 20.00    -0.043 A 
HETATM    3  C2  UNL     1     -32.975  15.485  -3.724  1.00 20.00     0.010 A 
HETATM    4  C3  UNL     1     -33.056  16.652  -2.781  1.00 20.00     0.010 A 
HETATM    5  C5  UNL     1     -34.614  17.184  -4.772  1.00 20.00     0.015 C 
ENDBRANCH   1   2
BRANCH   1   6
HETATM    6  C6  UNL     1     -36.630  15.486  -3.863  1.00 20.00     0.114 C 
BRANCH   6   7
HETATM    7  C1  UNL     1     -36.904  14.078  -4.402  1.00 20.00     0.172 C 
HETATM    8  O8  UNL     1     -35.895  13.391  -4.722  1.00 20.00    -0.648 OA
HETATM    9  O9  UNL     1     -38.130  13.770  -4.448  1.00 20.00    -0.648 OA
ENDBRANCH   6   7
ENDBRANCH   1   6
TORSDOF 3
ENDMDL
