MODEL 1
REMARK VINA RESULT:      -4.5      0.000      0.000
REMARK  0 active torsions:
REMARK  status: ('A' for Active; 'I' for Inactive)
ROOT
HETATM    1  C1  UNL     1     -33.405   6.712   4.218  1.00 20.00     0.050 A 
HETATM    2  C2  UNL     1     -33.865   5.550   3.630  1.00 20.00     0.010 A 
HETATM    3  C3  UNL     1     -32.648   7.026   2.189  1.00 20.00     0.168 A 
HETATM    4  C4  UNL     1     -33.618   7.030   5.657  1.00 20.00     0.060 C 
HETATM    5  C5  UNL     1     -34.664   4.495   4.315  1.00 20.00     0.048 C 
HETATM    6  C6  UNL     1     -34.719   6.142   6.266  1.00 20.00     0.006 C 
HETATM    7  C7  UNL     1     -34.573   4.670   5.842  1.00 20.00     0.006 C 
HETATM    8  N8  UNL     1     -32.700   7.561   3.390  1.00 20.00    -0.233 NA
HETATM    9  S9  UNL     1     -33.422   5.504   1.987  1.00 20.00    -0.061 SA
HETATM   10 CL10 UNL     1     -31.858   7.775   0.864  1.00 20.00    -0.054 Cl
ENDROOT
TORSDOF 0
ENDMDL
MODEL 2
REMARK VINA RESULT:      -4.4     12.034     12.809
REMARK  0 active torsions:
REMARK  status: ('A' for Active; 'I' for Inactive)
ROOT
HETATM    1  C1  UNL     1     -36.728  14.501  -4.115  1.00 20.00     0.050 A 
HETATM    2  C2  UNL     1     -36.662  15.831  -3.749  1.00 20.00     0.010 A 
HETATM    3  C3  UNL     1     -38.839  15.030  -4.350  1.00 20.00     0.168 A 
HETATM    4  C4  UNL     1     -35.540  13.603  -4.117  1.00 20.00     0.060 C 
HETATM    5  C5  UNL     1     -35.421  16.559  -3.360  1.00 20.00     0.048 C 
HETATM    6  C6  UNL     1     -34.231  14.411  -4.065  1.00 20.00     0.006 C 
HETATM    7  C7  UNL     1     -34.300  15.554  -3.036  1.00 20.00     0.006 C 
HETATM    8  N8  UNL     1     -37.981  14.038  -4.458  1.00 20.00    -0.233 NA
HETATM    9  S9  UNL     1     -38.205  16.545  -3.839  1.00 20.00    -0.061 SA
HETATM   10 CL10 UNL     1     -40.511  14.865  -4.692  1.00 20.00    -0.054 Cl
ENDROOT
TORSDOF 0
ENDMDL
MODEL 3
REMARK VINA RESULT:      -4.4     16.197     16.612
REMARK  0 active torsions:
REMARK  status: ('A' for Active; 'I' for Inactive)
ROOT
HETATM    1  C1  UNL     1     -23.374  18.145   9.427  1.00 20.00     0.050 A 
HETATM    2  C2  UNL     1     -24.563  18.544  10.003  1.00 20.00     0.010 A 
HETATM    3  C3  UNL     1     -24.401  18.871   7.635  1.00 20.00     0.168 A 
HETATM    4  C4  UNL     1     -22.265  17.527  10.204  1.00 20.00     0.060 C 
HETATM    5  C5  UNL     1     -24.887  18.465  11.456  1.00 20.00     0.048 C 
HETATM    6  C6  UNL     1     -22.445  17.764  11.715  1.00 20.00     0.006 C 
HETATM    7  C7  UNL     1     -23.896  17.525  12.167  1.00 20.00     0.006 C 
HETATM    8  N8  UNL     1     -23.280  18.329   8.063  1.00 20.00    -0.233 NA
HETATM    9  S9  UNL     1     -25.608  19.183   8.820  1.00 20.00    -0.061 SA
HETATM   10 CL10 UNL     1     -24.685  19.263   5.991  1.00 20.00    -0.054 Cl
ENDROOT
TORSDOF 0
ENDMDL
MODEL 4
REMARK VINA RESULT:      -4.2      1.223      2.028
REMARK  0 active torsions:
REMARK  status: ('A' for Active; 'I' for Inactive)
ROOT
HETATM    1  C1  UNL     1     -33.788   5.938   3.556  1.00 20.00     0.050 A 
HETATM    2  C2  UNL     1     -33.271   6.849   4.457  1.00 20.00     0.010 A 
HETATM    3  C3  UNL     1     -32.577   7.137   2.182  1.00 20.00     0.168 A 
HETATM    4  C4  UNL     1     -34.735   4.859   3.950  1.00 20.00     0.060 C 
HETATM    5  C5  UNL     1     -33.536   6.857   5.923  1.00 20.00     0.048 C 
HETATM    6  C6  UNL     1     -34.733   4.645   5.475  1.00 20.00     0.006 C 
HETATM    7  C7  UNL     1     -34.759   5.978   6.243  1.00 20.00     0.006 C 
HETATM    8  N8  UNL     1     -33.392   6.105   2.245  1.00 20.00    -0.233 NA
HETATM    9  S9  UNL     1     -32.247   7.951   3.660  1.00 20.00    -0.061 SA
HETATM   10 CL10 UNL     1     -31.859   7.675   0.721  1.00 20.00    -0.054 Cl
ENDROOT
TORSDOF 0
ENDMDL
MODEL 5
REMARK VINA RESULT:      -4.0     12.681     13.116
REMARK  0 active torsions:
REMARK  status: ('A' for Active; 'I' for Inactive)
ROOT
HETATM    1  C1  UNL     1     -31.920  18.288  -0.373  1.00 20.00     0.050 A 
HETATM    2  C2  UNL     1     -32.842  18.310   0.655  1.00 20.00     0.010 A 
HETATM    3  C3  UNL     1     -30.589  18.841   1.274  1.00 20.00     0.168 A 
HETATM    4  C4  UNL     1     -32.287  17.982  -1.783  1.00 20.00     0.060 C 
HETATM    5  C5  UNL     1     -34.291  17.992   0.521  1.00 20.00     0.048 C 
HETATM    6  C6  UNL     1     -33.675  17.320  -1.865  1.00 20.00     0.006 C 
HETATM    7  C7  UNL     1     -34.704  18.024  -0.962  1.00 20.00     0.006 C 
HETATM    8  N8  UNL     1     -30.623  18.597  -0.019  1.00 20.00    -0.233 NA
HETATM    9  S9  UNL     1     -32.080  18.719   2.122  1.00 20.00    -0.061 SA
HETATM   10 CL10 UNL     1     -29.153  19.263   2.111  1.00 20.00    -0.054 Cl
ENDROOT
TORSDOF 0
ENDMDL
MODEL 6
REMARK VINA RESULT:      -3.9     16.129     16.731
REMARK  0 active torsions:
REMARK  status: ('A' for Active; 'I' for Inactive)
ROOT
HETATM    1  C1  UNL     1     -24.269  18.348  10.012  1.00 20.00     0.050 A 
HETATM    2  C2  UNL     1     -22.951  18.098   9.682  1.00 20.00     0.010 A 
HETATM    3  C3  UNL     1     -24.382  18.686   7.853  1.00 20.00     0.168 A 
HETATM    4  C4  UNL     1     -24.778  18.287  11.410  1.00 20.00     0.060 C 
HETATM    5  C5  UNL     1     -21.884  17.692  10.640  1.00 20.00     0.048 C 
HETATM    6  C6  UNL     1     -23.794  17.541  12.329  1.00 20.00     0.006 C 
HETATM    7  C7  UNL     1     -22.337  17.971  12.084  1.00 20.00     0.006 C 
HETATM    8  N8  UNL     1     -25.093  18.690   8.960  1.00 20.00    -0.233 NA
HETATM    9  S9  UNL     1     -22.718  18.281   8.006  1.00 20.00    -0.061 SA
HETATM   10 CL10 UNL     1     -25.042  19.058   6.314  1.00 20.00    -0.054 Cl
ENDROOT
TORSDOF 0
ENDMDL
MODEL 7
REMARK VINA RESULT:      -3.9     11.736     12.379
REMARK  0 active torsions:
REMARK  status: ('A' for Active; 'I' for Inactive)
ROOT
HETATM    1  C1  UNL     1     -34.561  16.757  -1.561  1.00 20.00     0.050 A 
HETATM    2  C2  UNL     1     -33.357  17.018  -2.187  1.00 20.00     0.010 A 
HETATM    3  C3  UNL     1     -34.676  15.275  -3.168  1.00 20.00     0.168 A 
HETATM    4  C4  UNL     1     -35.036  17.515  -0.371  1.00 20.00     0.060 C 
HETATM    5  C5  UNL     1     -32.360  18.035  -1.747  1.00 20.00     0.048 C 
HETATM    6  C6  UNL     1     -33.885  18.300   0.285  1.00 20.00     0.006 C 
HETATM    7  C7  UNL     1     -33.010  19.019  -0.757  1.00 20.00     0.006 C 
HETATM    8  N8  UNL     1     -35.322  15.756  -2.128  1.00 20.00    -0.233 NA
HETATM    9  S9  UNL     1     -33.149  15.983  -3.522  1.00 20.00    -0.061 SA
HETATM   10 CL10 UNL     1     -35.287  14.008  -4.148  1.00 20.00    -0.054 Cl
ENDROOT
TORSDOF 0
ENDMDL
MODEL 8
REMARK VINA RESULT:      -3.9     11.944     12.290
REMARK  0 active torsions:
REMARK  status: ('A' for Active; 'I' for Inactive)
ROOT
HETATM    1  C1  UNL     1     -33.384  16.971  -2.255  1.00 20.00     0.050 A 
HETATM    2  C2  UNL     1     -34.642  16.556  -1.863  1.00 20.00     0.010 A 
HETATM    3  C3  UNL     1     -33.819  15.587  -3.894  1.00 20.00     0.168 A 
HETATM    4  C4  UNL     1     -32.568  17.936  -1.467  1.00 20.00     0.060 C 
HETATM    5  C5  UNL     1     -35.371  17.036  -0.655  1.00 20.00     0.048 C 
HETATM    6  C6  UNL     1     -33.434  18.687  -0.438  1.00 20.00     0.006 C 
HETATM    7  C7  UNL     1     -34.395  17.742   0.304  1.00 20.00     0.006 C 
HETATM    8  N8  UNL     1     -32.908  16.411  -3.422  1.00 20.00    -0.233 NA
HETATM    9  S9  UNL     1     -35.270  15.437  -2.982  1.00 20.00    -0.061 SA
HETATM   10 CL10 UNL     1     -33.612  14.689  -5.339  1.00 20.00    -0.054 Cl
ENDROOT
TORSDOF 0
ENDMDL
MODEL 9
REMARK VINA RESULT:      -3.8     15.064     15.716
REMARK  0 active torsions:
REMARK  status: ('A' for Active; 'I' for Inactive)
ROOT
HETATM    1  C1  UNL     1     -25.156  18.984   6.144  1.00 20.00     0.050 A 
HETATM    2  C2  UNL     1     -26.253  19.015   6.983  1.00 20.00     0.010 A 
HETATM    3  C3  UNL     1     -24.118  19.080   8.069  1.00 20.00     0.168 A 
HETATM    4  C4  UNL     1     -25.273  18.939   4.661  1.00 20.00     0.060 C 
HETATM    5  C5  UNL     1     -27.676  18.959   6.544  1.00 20.00     0.048 C 
HETATM    6  C6  UNL     1     -26.693  18.531   4.226  1.00 20.00     0.006 C 
HETATM    7  C7  UNL     1     -27.777  19.262   5.038  1.00 20.00     0.006 C 
HETATM    8  N8  UNL     1     -23.926  19.025   6.768  1.00 20.00    -0.233 NA
HETATM    9  S9  UNL     1     -25.751  19.088   8.608  1.00 20.00    -0.061 SA
HETATM   10 CL10 UNL     1     -22.834  19.142   9.203  1.00 20.00    -0.054 Cl
ENDROOT
TORSDOF 0
ENDMDL
