MODEL 1
REMARK VINA RESULT:      -5.3      0.000      0.000
REMARK  0 active torsions:
REMARK  status: ('A' for Active; 'I' for Inactive)
ROOT
HETATM    1  C1  UNL     1     -34.834  13.936  -4.083  1.00 20.00     0.135 C 
HETATM    2  C2  UNL     1     -36.317  15.843  -4.552  1.00 20.00     0.017 C 
HETATM    3  C3  UNL     1     -34.245  15.469  -5.915  1.00 20.00     0.017 C 
HETATM    4  C4  UNL     1     -34.945  15.766  -2.439  1.00 20.00     0.037 C 
HETATM    5  C5  UNL     1     -32.867  15.392  -3.806  1.00 20.00     0.037 C 
HETATM    6  C6  UNL     1     -34.344  17.377  -4.280  1.00 20.00     0.030 C 
HETATM    7  C7  UNL     1     -35.773  14.943  -3.435  1.00 20.00     0.058 C 
HETATM    8  C8  UNL     1     -33.663  14.563  -4.824  1.00 20.00     0.058 C 
HETATM    9  C9  UNL     1     -35.156  16.542  -5.286  1.00 20.00    -0.011 C 
HETATM   10  C10 UNL     1     -33.779  16.466  -3.173  1.00 20.00     0.039 C 
HETATM   11  O11 UNL     1     -35.006  12.723  -4.012  1.00 20.00    -0.297 OA
HETATM   12 CL12 UNL     1     -32.837  17.442  -2.009  1.00 20.00    -0.119 Cl
ENDROOT
TORSDOF 0
ENDMDL
MODEL 2
REMARK VINA RESULT:      -5.1      1.560      2.940
REMARK  0 active torsions:
REMARK  status: ('A' for Active; 'I' for Inactive)
ROOT
HETATM    1  C1  UNL     1     -35.388  14.046  -4.412  1.00 20.00     0.135 C 
HETATM    2  C2  UNL     1     -33.103  14.915  -4.121  1.00 20.00     0.017 C 
HETATM    3  C3  UNL     1     -34.938  15.587  -2.547  1.00 20.00     0.017 C 
HETATM    4  C4  UNL     1     -34.516  15.633  -6.081  1.00 20.00     0.037 C 
HETATM    5  C5  UNL     1     -36.355  16.308  -4.504  1.00 20.00     0.037 C 
HETATM    6  C6  UNL     1     -34.037  17.247  -4.207  1.00 20.00     0.030 C 
HETATM    7  C7  UNL     1     -34.133  14.463  -5.165  1.00 20.00     0.058 C 
HETATM    8  C8  UNL     1     -36.000  15.148  -3.563  1.00 20.00     0.058 C 
HETATM    9  C9  UNL     1     -33.672  16.075  -3.279  1.00 20.00    -0.011 C 
HETATM   10  C10 UNL     1     -35.088  16.796  -5.239  1.00 20.00     0.039 C 
HETATM   11  O11 UNL     1     -35.864  12.918  -4.486  1.00 20.00    -0.297 OA
HETATM   12 CL12 UNL     1     -35.507  18.163  -6.312  1.00 20.00    -0.119 Cl
ENDROOT
TORSDOF 0
ENDMDL
MODEL 3
REMARK VINA RESULT:      -5.0      2.135      3.292
REMARK  0 active torsions:
REMARK  status: ('A' for Active; 'I' for Inactive)
ROOT
HETATM    1  C1  UNL     1     -37.145  14.499  -4.376  1.00 20.00     0.135 C 
HETATM    2  C2  UNL     1     -34.856  13.714  -3.927  1.00 20.00     0.017 C 
HETATM    3  C3  UNL     1     -35.733  15.793  -2.830  1.00 20.00     0.017 C 
HETATM    4  C4  UNL     1     -35.483  14.638  -6.186  1.00 20.00     0.037 C 
HETATM    5  C5  UNL     1     -36.361  16.722  -5.088  1.00 20.00     0.037 C 
HETATM    6  C6  UNL     1     -34.000  15.967  -4.643  1.00 20.00     0.030 C 
HETATM    7  C7  UNL     1     -35.952  13.789  -4.997  1.00 20.00     0.058 C 
HETATM    8  C8  UNL     1     -36.845  15.906  -3.881  1.00 20.00     0.058 C 
HETATM    9  C9  UNL     1     -34.485  15.131  -3.445  1.00 20.00    -0.011 C 
HETATM   10  C10 UNL     1     -35.111  16.059  -5.706  1.00 20.00     0.039 C 
HETATM   11  O11 UNL     1     -38.254  13.982  -4.283  1.00 20.00    -0.297 OA
HETATM   12 CL12 UNL     1     -34.542  17.031  -7.094  1.00 20.00    -0.119 Cl
ENDROOT
TORSDOF 0
ENDMDL
MODEL 4
REMARK VINA RESULT:      -4.9      1.872      2.892
REMARK  0 active torsions:
REMARK  status: ('A' for Active; 'I' for Inactive)
ROOT
HETATM    1  C1  UNL     1     -35.675  13.716  -4.453  1.00 20.00     0.135 C 
HETATM    2  C2  UNL     1     -34.665  15.395  -2.964  1.00 20.00     0.017 C 
HETATM    3  C3  UNL     1     -36.997  15.699  -3.838  1.00 20.00     0.017 C 
HETATM    4  C4  UNL     1     -33.819  15.083  -5.317  1.00 20.00     0.037 C 
HETATM    5  C5  UNL     1     -36.156  15.389  -6.194  1.00 20.00     0.037 C 
HETATM    6  C6  UNL     1     -35.132  17.145  -4.707  1.00 20.00     0.030 C 
HETATM    7  C7  UNL     1     -34.359  14.375  -4.068  1.00 20.00     0.058 C 
HETATM    8  C8  UNL     1     -36.733  14.685  -4.958  1.00 20.00     0.058 C 
HETATM    9  C9  UNL     1     -35.692  16.430  -3.464  1.00 20.00    -0.011 C 
HETATM   10  C10 UNL     1     -34.847  16.120  -5.822  1.00 20.00     0.039 C 
HETATM   11  O11 UNL     1     -35.866  12.507  -4.365  1.00 20.00    -0.297 OA
HETATM   12 CL12 UNL     1     -34.198  16.958  -7.261  1.00 20.00    -0.119 Cl
ENDROOT
TORSDOF 0
ENDMDL
MODEL 5
REMARK VINA RESULT:      -4.9      1.411      1.948
REMARK  0 active torsions:
REMARK  status: ('A' for Active; 'I' for Inactive)
ROOT
HETATM    1  C1  UNL     1     -35.657  13.743  -4.446  1.00 20.00     0.135 C 
HETATM    2  C2  UNL     1     -35.667  15.395  -6.271  1.00 20.00     0.017 C 
HETATM    3  C3  UNL     1     -33.630  15.081  -4.841  1.00 20.00     0.017 C 
HETATM    4  C4  UNL     1     -37.067  15.748  -4.205  1.00 20.00     0.037 C 
HETATM    5  C5  UNL     1     -35.025  15.434  -2.771  1.00 20.00     0.037 C 
HETATM    6  C6  UNL     1     -35.021  17.162  -4.604  1.00 20.00     0.030 C 
HETATM    7  C7  UNL     1     -36.543  14.715  -5.212  1.00 20.00     0.058 C 
HETATM    8  C8  UNL     1     -34.469  14.396  -3.756  1.00 20.00     0.058 C 
HETATM    9  C9  UNL     1     -34.483  16.118  -5.599  1.00 20.00    -0.011 C 
HETATM   10  C10 UNL     1     -35.882  16.473  -3.529  1.00 20.00     0.039 C 
HETATM   11  O11 UNL     1     -35.882  12.539  -4.389  1.00 20.00    -0.297 OA
HETATM   12 CL12 UNL     1     -36.502  17.691  -2.378  1.00 20.00    -0.119 Cl
ENDROOT
TORSDOF 0
ENDMDL
MODEL 6
REMARK VINA RESULT:      -4.9      1.164      2.432
REMARK  0 active torsions:
REMARK  status: ('A' for Active; 'I' for Inactive)
ROOT
HETATM    1  C1  UNL     1     -34.220  15.390  -5.796  1.00 20.00     0.135 C 
HETATM    2  C2  UNL     1     -34.877  13.902  -3.948  1.00 20.00     0.017 C 
HETATM    3  C3  UNL     1     -36.262  15.911  -4.527  1.00 20.00     0.017 C 
HETATM    4  C4  UNL     1     -32.830  15.362  -3.764  1.00 20.00     0.037 C 
HETATM    5  C5  UNL     1     -34.219  17.377  -4.342  1.00 20.00     0.037 C 
HETATM    6  C6  UNL     1     -34.892  15.896  -2.418  1.00 20.00     0.030 C 
HETATM    7  C7  UNL     1     -33.674  14.486  -4.700  1.00 20.00     0.058 C 
HETATM    8  C8  UNL     1     -35.085  16.532  -5.288  1.00 20.00     0.058 C 
HETATM    9  C9  UNL     1     -35.744  15.036  -3.368  1.00 20.00    -0.011 C 
HETATM   10  C10 UNL     1     -33.698  16.500  -3.182  1.00 20.00     0.039 C 
HETATM   11  O11 UNL     1     -33.982  15.211  -6.986  1.00 20.00    -0.297 OA
HETATM   12 CL12 UNL     1     -32.713  17.498  -2.073  1.00 20.00    -0.119 Cl
ENDROOT
TORSDOF 0
ENDMDL
MODEL 7
REMARK VINA RESULT:      -4.8      1.271      2.525
REMARK  0 active torsions:
REMARK  status: ('A' for Active; 'I' for Inactive)
ROOT
HETATM    1  C1  UNL     1     -36.232  16.079  -4.383  1.00 20.00     0.135 C 
HETATM    2  C2  UNL     1     -34.278  15.627  -5.811  1.00 20.00     0.017 C 
HETATM    3  C3  UNL     1     -34.913  14.043  -3.971  1.00 20.00     0.017 C 
HETATM    4  C4  UNL     1     -34.259  17.536  -4.165  1.00 20.00     0.037 C 
HETATM    5  C5  UNL     1     -34.894  15.949  -2.321  1.00 20.00     0.037 C 
HETATM    6  C6  UNL     1     -32.864  15.482  -3.737  1.00 20.00     0.030 C 
HETATM    7  C7  UNL     1     -35.109  16.744  -5.167  1.00 20.00     0.058 C 
HETATM    8  C8  UNL     1     -35.755  15.131  -3.294  1.00 20.00     0.058 C 
HETATM    9  C9  UNL     1     -33.728  14.680  -4.726  1.00 20.00    -0.011 C 
HETATM   10  C10 UNL     1     -33.708  16.588  -3.076  1.00 20.00     0.039 C 
HETATM   11  O11 UNL     1     -37.419  16.291  -4.611  1.00 20.00    -0.297 OA
HETATM   12 CL12 UNL     1     -32.698  17.516  -1.929  1.00 20.00    -0.119 Cl
ENDROOT
TORSDOF 0
ENDMDL
MODEL 8
REMARK VINA RESULT:      -4.6      1.884      3.072
REMARK  0 active torsions:
REMARK  status: ('A' for Active; 'I' for Inactive)
ROOT
HETATM    1  C1  UNL     1     -35.829  14.680  -6.113  1.00 20.00     0.135 C 
HETATM    2  C2  UNL     1     -33.674  15.101  -5.000  1.00 20.00     0.017 C 
HETATM    3  C3  UNL     1     -35.260  13.375  -4.105  1.00 20.00     0.017 C 
HETATM    4  C4  UNL     1     -35.512  16.824  -4.945  1.00 20.00     0.037 C 
HETATM    5  C5  UNL     1     -37.102  15.095  -4.046  1.00 20.00     0.037 C 
HETATM    6  C6  UNL     1     -34.923  15.535  -2.862  1.00 20.00     0.030 C 
HETATM    7  C7  UNL     1     -34.806  15.762  -5.797  1.00 20.00     0.058 C 
HETATM    8  C8  UNL     1     -36.421  14.005  -4.885  1.00 20.00     0.058 C 
HETATM    9  C9  UNL     1     -34.232  14.457  -3.716  1.00 20.00    -0.011 C 
HETATM   10  C10 UNL     1     -36.074  16.180  -3.657  1.00 20.00     0.039 C 
HETATM   11  O11 UNL     1     -36.149  14.380  -7.258  1.00 20.00    -0.297 OA
HETATM   12 CL12 UNL     1     -36.871  17.431  -2.660  1.00 20.00    -0.119 Cl
ENDROOT
TORSDOF 0
ENDMDL
MODEL 9
REMARK VINA RESULT:      -4.5      2.053      3.012
REMARK  0 active torsions:
REMARK  status: ('A' for Active; 'I' for Inactive)
ROOT
HETATM    1  C1  UNL     1     -34.918  16.048  -2.524  1.00 20.00     0.135 C 
HETATM    2  C2  UNL     1     -34.881  14.006  -3.896  1.00 20.00     0.017 C 
HETATM    3  C3  UNL     1     -32.856  15.479  -3.741  1.00 20.00     0.017 C 
HETATM    4  C4  UNL     1     -36.278  15.991  -4.576  1.00 20.00     0.037 C 
HETATM    5  C5  UNL     1     -34.248  17.468  -4.421  1.00 20.00     0.037 C 
HETATM    6  C6  UNL     1     -34.195  15.406  -5.868  1.00 20.00     0.030 C 
HETATM    7  C7  UNL     1     -35.777  15.146  -3.397  1.00 20.00     0.058 C 
HETATM    8  C8  UNL     1     -33.716  16.645  -3.239  1.00 20.00     0.058 C 
HETATM    9  C9  UNL     1     -33.681  14.575  -4.679  1.00 20.00    -0.011 C 
HETATM   10  C10 UNL     1     -35.077  16.564  -5.361  1.00 20.00     0.039 C 
HETATM   11  O11 UNL     1     -35.173  16.275  -1.345  1.00 20.00    -0.297 OA
HETATM   12 CL12 UNL     1     -35.669  17.525  -6.746  1.00 20.00    -0.119 Cl
ENDROOT
TORSDOF 0
ENDMDL
