MODEL 1
REMARK VINA RESULT:      -4.4      0.000      0.000
REMARK  2 active torsions:
REMARK  status: ('A' for Active; 'I' for Inactive)
REMARK    1  A    between atoms: C2_2  and  C7_7 
REMARK    2  A    between atoms: C3_3  and  C6_6 
ROOT
HETATM    1  C1  UNL     1     -33.274   7.420   3.398  1.00 20.00     0.066 A 
HETATM    2  C2  UNL     1     -33.859   6.258   3.929  1.00 20.00     0.068 A 
HETATM    3  C3  UNL     1     -32.773   7.011   2.190  1.00 20.00     0.094 A 
HETATM    4  N8  UNL     1     -33.731   5.208   3.113  1.00 20.00    -0.133 NA
HETATM    5  O9  UNL     1     -33.039   5.692   2.009  1.00 20.00    -0.216 OA
ENDROOT
BRANCH   2   6
HETATM    6  C7  UNL     1     -34.575   6.101   5.258  1.00 20.00     0.032 C 
HETATM    7  C4  UNL     1     -33.913   6.936   6.357  1.00 20.00     0.016 C 
HETATM    8  C5  UNL     1     -34.672   4.631   5.674  1.00 20.00     0.016 C 
ENDBRANCH   2   6
BRANCH   3   9
HETATM    9  C6  UNL     1     -32.041   7.687   1.112  1.00 20.00     0.181 C 
HETATM   10 CL10 UNL     1     -32.863   9.191   0.609  1.00 20.00    -0.123 Cl
ENDBRANCH   3   9
TORSDOF 2
ENDMDL
MODEL 2
REMARK VINA RESULT:      -4.4     11.438     12.161
REMARK  2 active torsions:
REMARK  status: ('A' for Active; 'I' for Inactive)
REMARK    1  A    between atoms: C2_2  and  C7_7 
REMARK    2  A    between atoms: C3_3  and  C6_6 
ROOT
HETATM    1  C1  UNL     1     -36.958  15.595  -3.836  1.00 20.00     0.066 A 
HETATM    2  C2  UNL     1     -35.989  14.582  -3.939  1.00 20.00     0.068 A 
HETATM    3  C3  UNL     1     -38.119  14.975  -4.216  1.00 20.00     0.094 A 
HETATM    4  N8  UNL     1     -36.509  13.423  -4.351  1.00 20.00    -0.133 NA
HETATM    5  O9  UNL     1     -37.864  13.678  -4.526  1.00 20.00    -0.216 OA
ENDROOT
BRANCH   2   6
HETATM    6  C7  UNL     1     -34.504  14.683  -3.644  1.00 20.00     0.032 C 
HETATM    7  C4  UNL     1     -34.196  15.837  -2.687  1.00 20.00     0.016 C 
HETATM    8  C5  UNL     1     -33.682  14.806  -4.929  1.00 20.00     0.016 C 
ENDBRANCH   2   6
BRANCH   3   9
HETATM    9  C6  UNL     1     -39.512  15.419  -4.347  1.00 20.00     0.181 C 
HETATM   10 CL10 UNL     1     -39.770  16.316  -5.869  1.00 20.00    -0.123 Cl
ENDBRANCH   3   9
TORSDOF 2
ENDMDL
MODEL 3
REMARK VINA RESULT:      -4.3     11.289     12.374
REMARK  2 active torsions:
REMARK  status: ('A' for Active; 'I' for Inactive)
REMARK    1  A    between atoms: C2_2  and  C7_7 
REMARK    2  A    between atoms: C3_3  and  C6_6 
ROOT
HETATM    1  C1  UNL     1     -37.822  15.930  -3.923  1.00 20.00     0.066 A 
HETATM    2  C2  UNL     1     -36.801  14.971  -4.038  1.00 20.00     0.068 A 
HETATM    3  C3  UNL     1     -38.962  15.229  -4.216  1.00 20.00     0.094 A 
HETATM    4  N8  UNL     1     -37.272  13.767  -4.375  1.00 20.00    -0.133 NA
HETATM    5  O9  UNL     1     -38.647  13.937  -4.487  1.00 20.00    -0.216 OA
ENDROOT
BRANCH   2   6
HETATM    6  C7  UNL     1     -35.311  15.169  -3.826  1.00 20.00     0.032 C 
HETATM    7  C4  UNL     1     -34.538  13.859  -4.002  1.00 20.00     0.016 C 
HETATM    8  C5  UNL     1     -35.016  15.799  -2.463  1.00 20.00     0.016 C 
ENDBRANCH   2   6
BRANCH   3   9
HETATM    9  C6  UNL     1     -40.384  15.587  -4.290  1.00 20.00     0.181 C 
HETATM   10 CL10 UNL     1     -41.307  14.397  -5.250  1.00 20.00    -0.123 Cl
ENDBRANCH   3   9
TORSDOF 2
ENDMDL
MODEL 4
REMARK VINA RESULT:      -4.1     11.291     11.806
REMARK  2 active torsions:
REMARK  status: ('A' for Active; 'I' for Inactive)
REMARK    1  A    between atoms: C2_2  and  C7_7 
REMARK    2  A    between atoms: C3_3  and  C6_6 
ROOT
HETATM    1  C1  UNL     1     -35.152  15.533  -3.117  1.00 20.00     0.066 A 
HETATM    2  C2  UNL     1     -33.802  15.921  -3.097  1.00 20.00     0.068 A 
HETATM    3  C3  UNL     1     -35.182  14.503  -4.019  1.00 20.00     0.094 A 
HETATM    4  N8  UNL     1     -33.051  15.187  -3.923  1.00 20.00    -0.133 NA
HETATM    5  O9  UNL     1     -33.934  14.288  -4.508  1.00 20.00    -0.216 OA
ENDROOT
BRANCH   2   6
HETATM    6  C7  UNL     1     -33.163  17.026  -2.274  1.00 20.00     0.032 C 
HETATM    7  C4  UNL     1     -34.071  17.468  -1.123  1.00 20.00     0.016 C 
HETATM    8  C5  UNL     1     -32.767  18.219  -3.146  1.00 20.00     0.016 C 
ENDBRANCH   2   6
BRANCH   3   9
HETATM    9  C6  UNL     1     -36.248  13.634  -4.534  1.00 20.00     0.181 C 
HETATM   10 CL10 UNL     1     -37.857  14.380  -4.322  1.00 20.00    -0.123 Cl
ENDBRANCH   3   9
TORSDOF 2
ENDMDL
MODEL 5
REMARK VINA RESULT:      -4.1      9.913     10.266
REMARK  2 active torsions:
REMARK  status: ('A' for Active; 'I' for Inactive)
REMARK    1  A    between atoms: C2_2  and  C7_7 
REMARK    2  A    between atoms: C3_3  and  C6_6 
ROOT
HETATM    1  C1  UNL     1     -42.991   5.387  -1.097  1.00 20.00     0.066 A 
HETATM    2  C2  UNL     1     -41.889   6.097  -0.588  1.00 20.00     0.068 A 
HETATM    3  C3  UNL     1     -42.420   4.406  -1.863  1.00 20.00     0.094 A 
HETATM    4  N8  UNL     1     -40.725   5.594  -1.007  1.00 20.00    -0.133 NA
HETATM    5  O9  UNL     1     -41.069   4.519  -1.818  1.00 20.00    -0.216 OA
ENDROOT
BRANCH   2   6
HETATM    6  C7  UNL     1     -41.905   7.304   0.332  1.00 20.00     0.032 C 
HETATM    7  C4  UNL     1     -43.320   7.618   0.825  1.00 20.00     0.016 C 
HETATM    8  C5  UNL     1     -41.274   8.528  -0.334  1.00 20.00     0.016 C 
ENDBRANCH   2   6
BRANCH   3   9
HETATM    9  C6  UNL     1     -42.961   3.313  -2.682  1.00 20.00     0.181 C 
HETATM   10 CL10 UNL     1     -41.741   2.695  -3.831  1.00 20.00    -0.123 Cl
ENDBRANCH   3   9
TORSDOF 2
ENDMDL
MODEL 6
REMARK VINA RESULT:      -4.0     11.326     11.968
REMARK  2 active torsions:
REMARK  status: ('A' for Active; 'I' for Inactive)
REMARK    1  A    between atoms: C2_2  and  C7_7 
REMARK    2  A    between atoms: C3_3  and  C6_6 
ROOT
HETATM    1  C1  UNL     1     -33.031  16.702  -2.866  1.00 20.00     0.066 A 
HETATM    2  C2  UNL     1     -34.184  15.918  -2.682  1.00 20.00     0.068 A 
HETATM    3  C3  UNL     1     -33.096  17.618  -1.850  1.00 20.00     0.094 A 
HETATM    4  N8  UNL     1     -34.907  16.318  -1.633  1.00 20.00    -0.133 NA
HETATM    5  O9  UNL     1     -34.211  17.401  -1.108  1.00 20.00    -0.216 OA
ENDROOT
BRANCH   2   6
HETATM    6  C7  UNL     1     -34.647  14.737  -3.515  1.00 20.00     0.032 C 
HETATM    7  C4  UNL     1     -33.785  14.557  -4.767  1.00 20.00     0.016 C 
HETATM    8  C5  UNL     1     -36.128  14.856  -3.885  1.00 20.00     0.016 C 
ENDBRANCH   2   6
BRANCH   3   9
HETATM    9  C6  UNL     1     -32.237  18.734  -1.433  1.00 20.00     0.181 C 
HETATM   10 CL10 UNL     1     -30.962  18.190  -0.307  1.00 20.00    -0.123 Cl
ENDBRANCH   3   9
TORSDOF 2
ENDMDL
MODEL 7
REMARK VINA RESULT:      -4.0     11.225     11.699
REMARK  2 active torsions:
REMARK  status: ('A' for Active; 'I' for Inactive)
REMARK    1  A    between atoms: C2_2  and  C7_7 
REMARK    2  A    between atoms: C3_3  and  C6_6 
ROOT
HETATM    1  C1  UNL     1     -33.237  16.456  -2.849  1.00 20.00     0.066 A 
HETATM    2  C2  UNL     1     -33.825  17.113  -1.754  1.00 20.00     0.068 A 
HETATM    3  C3  UNL     1     -34.148  15.485  -3.173  1.00 20.00     0.094 A 
HETATM    4  N8  UNL     1     -35.009  16.590  -1.425  1.00 20.00    -0.133 NA
HETATM    5  O9  UNL     1     -35.209  15.554  -2.330  1.00 20.00    -0.216 OA
ENDROOT
BRANCH   2   6
HETATM    6  C7  UNL     1     -33.270  18.286  -0.966  1.00 20.00     0.032 C 
HETATM    7  C4  UNL     1     -31.739  18.294  -0.971  1.00 20.00     0.016 C 
HETATM    8  C5  UNL     1     -33.811  18.309   0.465  1.00 20.00     0.016 C 
ENDBRANCH   2   6
BRANCH   3   9
HETATM    9  C6  UNL     1     -34.193  14.437  -4.201  1.00 20.00     0.181 C 
HETATM   10 CL10 UNL     1     -35.814  13.694  -4.303  1.00 20.00    -0.123 Cl
ENDBRANCH   3   9
TORSDOF 2
ENDMDL
MODEL 8
REMARK VINA RESULT:      -4.0     11.136     11.524
REMARK  2 active torsions:
REMARK  status: ('A' for Active; 'I' for Inactive)
REMARK    1  A    between atoms: C2_2  and  C7_7 
REMARK    2  A    between atoms: C3_3  and  C6_6 
ROOT
HETATM    1  C1  UNL     1     -35.071  15.875  -2.256  1.00 20.00     0.066 A 
HETATM    2  C2  UNL     1     -34.134  16.845  -1.859  1.00 20.00     0.068 A 
HETATM    3  C3  UNL     1     -34.430  15.195  -3.258  1.00 20.00     0.094 A 
HETATM    4  N8  UNL     1     -33.000  16.772  -2.561  1.00 20.00    -0.133 NA
HETATM    5  O9  UNL     1     -33.194  15.721  -3.450  1.00 20.00    -0.216 OA
ENDROOT
BRANCH   2   6
HETATM    6  C7  UNL     1     -34.288  17.897  -0.776  1.00 20.00     0.032 C 
HETATM    7  C4  UNL     1     -32.929  18.380  -0.262  1.00 20.00     0.016 C 
HETATM    8  C5  UNL     1     -35.160  17.395   0.377  1.00 20.00     0.016 C 
ENDBRANCH   2   6
BRANCH   3   9
HETATM    9  C6  UNL     1     -34.804  14.067  -4.120  1.00 20.00     0.181 C 
HETATM   10 CL10 UNL     1     -36.575  13.968  -4.334  1.00 20.00    -0.123 Cl
ENDBRANCH   3   9
TORSDOF 2
ENDMDL
MODEL 9
REMARK VINA RESULT:      -4.0     11.356     11.847
REMARK  2 active torsions:
REMARK  status: ('A' for Active; 'I' for Inactive)
REMARK    1  A    between atoms: C2_2  and  C7_7 
REMARK    2  A    between atoms: C3_3  and  C6_6 
ROOT
HETATM    1  C1  UNL     1     -34.979  15.996  -2.150  1.00 20.00     0.066 A 
HETATM    2  C2  UNL     1     -34.112  15.546  -3.161  1.00 20.00     0.068 A 
HETATM    3  C3  UNL     1     -34.279  17.008  -1.548  1.00 20.00     0.094 A 
HETATM    4  N8  UNL     1     -32.964  16.228  -3.184  1.00 20.00    -0.133 NA
HETATM    5  O9  UNL     1     -33.075  17.156  -2.155  1.00 20.00    -0.216 OA
ENDROOT
BRANCH   2   6
HETATM    6  C7  UNL     1     -34.350  14.430  -4.161  1.00 20.00     0.032 C 
HETATM    7  C4  UNL     1     -33.868  14.816  -5.562  1.00 20.00     0.016 C 
HETATM    8  C5  UNL     1     -35.819  14.002  -4.187  1.00 20.00     0.016 C 
ENDBRANCH   2   6
BRANCH   3   9
HETATM    9  C6  UNL     1     -34.566  17.916  -0.429  1.00 20.00     0.181 C 
HETATM   10 CL10 UNL     1     -35.629  17.144   0.781  1.00 20.00    -0.123 Cl
ENDBRANCH   3   9
TORSDOF 2
ENDMDL
