MODEL 1
REMARK VINA RESULT:      -5.0      0.000      0.000
REMARK  1 active torsions:
REMARK  status: ('A' for Active; 'I' for Inactive)
REMARK    1  A    between atoms: C3_3  and  C8_8 
ROOT
HETATM    1  C1  UNL     1     -34.347  15.896  -2.371  1.00 20.00    -0.026 C 
HETATM    2  C2  UNL     1     -35.580  16.119  -2.846  1.00 20.00    -0.025 C 
HETATM    3  C4  UNL     1     -34.102  16.884  -4.446  1.00 20.00     0.018 C 
HETATM    4  C5  UNL     1     -33.711  14.537  -4.334  1.00 20.00     0.022 C 
HETATM    5  C6  UNL     1     -33.415  15.841  -3.558  1.00 20.00     0.009 C 
HETATM    6  C7  UNL     1     -35.473  16.202  -4.354  1.00 20.00     0.021 C 
HETATM    7  C8  UNL     1     -35.127  14.805  -4.922  1.00 20.00     0.080 C 
ENDROOT
BRANCH   7   8
HETATM    8  C3  UNL     1     -36.123  13.749  -4.555  1.00 20.00     0.223 C 
HETATM    9  O9  UNL     1     -35.791  12.579  -4.389  1.00 20.00    -0.279 OA
HETATM   10 CL10 UNL     1     -37.731  14.391  -4.406  1.00 20.00    -0.043 Cl
ENDBRANCH   7   8
TORSDOF 1
ENDMDL
MODEL 2
REMARK VINA RESULT:      -5.0      0.817      1.927
REMARK  1 active torsions:
REMARK  status: ('A' for Active; 'I' for Inactive)
REMARK    1  A    between atoms: C3_3  and  C8_8 
ROOT
HETATM    1  C1  UNL     1     -34.456  16.760  -5.146  1.00 20.00    -0.026 C 
HETATM    2  C2  UNL     1     -34.095  15.538  -5.563  1.00 20.00    -0.025 C 
HETATM    3  C4  UNL     1     -33.083  15.868  -3.515  1.00 20.00     0.018 C 
HETATM    4  C5  UNL     1     -35.418  15.885  -3.046  1.00 20.00     0.022 C 
HETATM    5  C6  UNL     1     -34.308  16.779  -3.643  1.00 20.00     0.009 C 
HETATM    6  C7  UNL     1     -33.716  14.737  -4.335  1.00 20.00     0.021 C 
HETATM    7  C8  UNL     1     -34.984  14.459  -3.493  1.00 20.00     0.080 C 
ENDROOT
BRANCH   7   8
HETATM    8  C3  UNL     1     -36.053  13.730  -4.247  1.00 20.00     0.223 C 
HETATM    9  O9  UNL     1     -35.889  12.582  -4.650  1.00 20.00    -0.279 OA
HETATM   10 CL10 UNL     1     -37.481  14.697  -4.455  1.00 20.00    -0.043 Cl
ENDBRANCH   7   8
TORSDOF 1
ENDMDL
MODEL 3
REMARK VINA RESULT:      -4.9     10.435     11.380
REMARK  1 active torsions:
REMARK  status: ('A' for Active; 'I' for Inactive)
REMARK    1  A    between atoms: C3_3  and  C8_8 
ROOT
HETATM    1  C1  UNL     1     -43.417   8.484  -0.981  1.00 20.00    -0.026 C 
HETATM    2  C2  UNL     1     -42.311   8.186  -1.677  1.00 20.00    -0.025 C 
HETATM    3  C4  UNL     1     -41.612   9.103   0.323  1.00 20.00     0.018 C 
HETATM    4  C5  UNL     1     -42.727   7.090   0.937  1.00 20.00     0.022 C 
HETATM    5  C6  UNL     1     -43.027   8.534   0.476  1.00 20.00     0.009 C 
HETATM    6  C7  UNL     1     -41.183   8.026  -0.680  1.00 20.00     0.021 C 
HETATM    7  C8  UNL     1     -41.420   6.750   0.163  1.00 20.00     0.080 C 
ENDROOT
BRANCH   7   8
HETATM    8  C3  UNL     1     -41.533   5.504  -0.659  1.00 20.00     0.223 C 
HETATM    9  O9  UNL     1     -40.576   5.053  -1.281  1.00 20.00    -0.279 OA
HETATM   10 CL10 UNL     1     -43.132   4.828  -0.606  1.00 20.00    -0.043 Cl
ENDBRANCH   7   8
TORSDOF 1
ENDMDL
MODEL 4
REMARK VINA RESULT:      -4.8     17.967     18.856
REMARK  1 active torsions:
REMARK  status: ('A' for Active; 'I' for Inactive)
REMARK    1  A    between atoms: C3_3  and  C8_8 
ROOT
HETATM    1  C1  UNL     1     -23.775  18.410  12.332  1.00 20.00    -0.026 C 
HETATM    2  C2  UNL     1     -23.030  17.345  12.003  1.00 20.00    -0.025 C 
HETATM    3  C4  UNL     1     -25.237  16.692  11.831  1.00 20.00     0.018 C 
HETATM    4  C5  UNL     1     -24.976  18.382  10.173  1.00 20.00     0.022 C 
HETATM    5  C6  UNL     1     -25.133  18.215  11.702  1.00 20.00     0.009 C 
HETATM    6  C7  UNL     1     -23.890  16.443  11.142  1.00 20.00     0.021 C 
HETATM    7  C8  UNL     1     -24.145  17.127   9.777  1.00 20.00     0.080 C 
ENDROOT
BRANCH   7   8
HETATM    8  C3  UNL     1     -22.889  17.466   9.037  1.00 20.00     0.223 C 
HETATM    9  O9  UNL     1     -22.167  16.595   8.558  1.00 20.00    -0.279 OA
HETATM   10 CL10 UNL     1     -22.618  19.180   8.957  1.00 20.00    -0.043 Cl
ENDBRANCH   7   8
TORSDOF 1
ENDMDL
MODEL 5
REMARK VINA RESULT:      -4.8      1.204      2.091
REMARK  1 active torsions:
REMARK  status: ('A' for Active; 'I' for Inactive)
REMARK    1  A    between atoms: C3_3  and  C8_8 
ROOT
HETATM    1  C1  UNL     1     -33.850  16.660  -4.130  1.00 20.00    -0.026 C 
HETATM    2  C2  UNL     1     -33.707  15.433  -3.611  1.00 20.00    -0.025 C 
HETATM    3  C4  UNL     1     -35.241  16.541  -2.288  1.00 20.00     0.018 C 
HETATM    4  C5  UNL     1     -36.287  16.378  -4.422  1.00 20.00     0.022 C 
HETATM    5  C6  UNL     1     -35.194  17.180  -3.680  1.00 20.00     0.009 C 
HETATM    6  C7  UNL     1     -34.963  15.130  -2.821  1.00 20.00     0.021 C 
HETATM    7  C8  UNL     1     -36.153  14.960  -3.794  1.00 20.00     0.080 C 
ENDROOT
BRANCH   7   8
HETATM    8  C3  UNL     1     -35.940  13.886  -4.815  1.00 20.00     0.223 C 
HETATM    9  O9  UNL     1     -35.892  12.700  -4.502  1.00 20.00    -0.279 OA
HETATM   10 CL10 UNL     1     -35.783  14.530  -6.420  1.00 20.00    -0.043 Cl
ENDBRANCH   7   8
TORSDOF 1
ENDMDL
MODEL 6
REMARK VINA RESULT:      -4.5     18.113     18.933
REMARK  1 active torsions:
REMARK  status: ('A' for Active; 'I' for Inactive)
REMARK    1  A    between atoms: C3_3  and  C8_8 
ROOT
HETATM    1  C1  UNL     1     -23.836  16.144  11.586  1.00 20.00    -0.026 C 
HETATM    2  C2  UNL     1     -24.594  16.478  10.533  1.00 20.00    -0.025 C 
HETATM    3  C4  UNL     1     -24.576  18.304  11.945  1.00 20.00     0.018 C 
HETATM    4  C5  UNL     1     -22.313  18.059  11.243  1.00 20.00     0.022 C 
HETATM    5  C6  UNL     1     -23.345  17.430  12.207  1.00 20.00     0.009 C 
HETATM    6  C7  UNL     1     -24.601  17.990  10.444  1.00 20.00     0.021 C 
HETATM    7  C8  UNL     1     -23.194  18.486  10.033  1.00 20.00     0.080 C 
ENDROOT
BRANCH   7   8
HETATM    8  C3  UNL     1     -22.718  17.917   8.732  1.00 20.00     0.223 C 
HETATM    9  O9  UNL     1     -23.302  18.143   7.677  1.00 20.00    -0.279 OA
HETATM   10 CL10 UNL     1     -21.293  16.942   8.927  1.00 20.00    -0.043 Cl
ENDBRANCH   7   8
TORSDOF 1
ENDMDL
MODEL 7
REMARK VINA RESULT:      -4.5      1.923      2.294
REMARK  1 active torsions:
REMARK  status: ('A' for Active; 'I' for Inactive)
REMARK    1  A    between atoms: C3_3  and  C8_8 
ROOT
HETATM    1  C1  UNL     1     -35.889  16.372  -3.295  1.00 20.00    -0.026 C 
HETATM    2  C2  UNL     1     -35.349  16.977  -4.363  1.00 20.00    -0.025 C 
HETATM    3  C4  UNL     1     -33.594  16.196  -3.083  1.00 20.00     0.018 C 
HETATM    4  C5  UNL     1     -34.750  14.235  -3.786  1.00 20.00     0.022 C 
HETATM    5  C6  UNL     1     -34.863  15.395  -2.771  1.00 20.00     0.009 C 
HETATM    6  C7  UNL     1     -33.965  16.395  -4.558  1.00 20.00     0.021 C 
HETATM    7  C8  UNL     1     -34.087  14.922  -5.016  1.00 20.00     0.080 C 
ENDROOT
BRANCH   7   8
HETATM    8  C3  UNL     1     -34.876  14.753  -6.277  1.00 20.00     0.223 C 
HETATM    9  O9  UNL     1     -35.876  14.043  -6.322  1.00 20.00    -0.279 OA
HETATM   10 CL10 UNL     1     -34.204  15.664  -7.595  1.00 20.00    -0.043 Cl
ENDBRANCH   7   8
TORSDOF 1
ENDMDL
MODEL 8
REMARK VINA RESULT:      -4.4      1.829      2.450
REMARK  1 active torsions:
REMARK  status: ('A' for Active; 'I' for Inactive)
REMARK    1  A    between atoms: C3_3  and  C8_8 
ROOT
HETATM    1  C1  UNL     1     -33.243  14.865  -4.136  1.00 20.00    -0.026 C 
HETATM    2  C2  UNL     1     -34.409  14.230  -3.951  1.00 20.00    -0.025 C 
HETATM    3  C4  UNL     1     -34.352  15.970  -2.435  1.00 20.00     0.018 C 
HETATM    4  C5  UNL     1     -34.357  17.027  -4.570  1.00 20.00     0.022 C 
HETATM    5  C6  UNL     1     -33.413  16.270  -3.609  1.00 20.00     0.009 C 
HETATM    6  C7  UNL     1     -35.362  15.217  -3.310  1.00 20.00     0.021 C 
HETATM    7  C8  UNL     1     -35.723  16.321  -4.332  1.00 20.00     0.080 C 
ENDROOT
BRANCH   7   8
HETATM    8  C3  UNL     1     -36.336  15.790  -5.591  1.00 20.00     0.223 C 
HETATM    9  O9  UNL     1     -37.422  15.219  -5.589  1.00 20.00    -0.279 OA
HETATM   10 CL10 UNL     1     -35.336  16.087  -6.980  1.00 20.00    -0.043 Cl
ENDBRANCH   7   8
TORSDOF 1
ENDMDL
MODEL 9
REMARK VINA RESULT:      -4.4      1.428      2.351
REMARK  1 active torsions:
REMARK  status: ('A' for Active; 'I' for Inactive)
REMARK    1  A    between atoms: C3_3  and  C8_8 
ROOT
HETATM    1  C1  UNL     1     -34.917  18.088  -3.391  1.00 20.00    -0.026 C 
HETATM    2  C2  UNL     1     -34.072  17.546  -4.280  1.00 20.00    -0.025 C 
HETATM    3  C4  UNL     1     -33.100  17.297  -2.201  1.00 20.00     0.018 C 
HETATM    4  C5  UNL     1     -35.087  15.989  -2.100  1.00 20.00     0.022 C 
HETATM    5  C6  UNL     1     -34.616  17.459  -2.051  1.00 20.00     0.009 C 
HETATM    6  C7  UNL     1     -33.214  16.546  -3.533  1.00 20.00     0.021 C 
HETATM    7  C8  UNL     1     -34.086  15.343  -3.101  1.00 20.00     0.080 C 
ENDROOT
BRANCH   7   8
HETATM    8  C3  UNL     1     -34.762  14.656  -4.246  1.00 20.00     0.223 C 
HETATM    9  O9  UNL     1     -34.128  14.220  -5.203  1.00 20.00    -0.279 OA
HETATM   10 CL10 UNL     1     -36.484  14.568  -4.031  1.00 20.00    -0.043 Cl
ENDBRANCH   7   8
TORSDOF 1
ENDMDL
