MODEL 1
REMARK VINA RESULT:      -5.1      0.000      0.000
REMARK  3 active torsions:
REMARK  status: ('A' for Active; 'I' for Inactive)
REMARK    1  A    between atoms: C2_2  and  O6_6 
REMARK    2  A    between atoms: C3_3  and  C4_4 
REMARK    3  A    between atoms: C3_3  and  O6_6 
ROOT
HETATM    1  C1  UNL     1     -32.563   7.829   1.614  1.00 20.00     0.085 C 
HETATM    2  C2  UNL     1     -32.267   7.044   2.813  1.00 20.00     0.291 C 
HETATM    3  N5  UNL     1     -32.796   8.452   0.664  1.00 20.00    -0.195 NA
ENDROOT
BRANCH   2   4
HETATM    4  O6  UNL     1     -33.320   6.126   3.077  1.00 20.00    -0.369 OA
BRANCH   4   5
HETATM    5  C3  UNL     1     -33.985   6.432   4.295  1.00 20.00     0.286 C 
BRANCH   5   6
HETATM    6  C4  UNL     1     -34.919   5.302   4.644  1.00 20.00     0.408 C 
HETATM    7  F7  UNL     1     -36.125   5.485   4.062  1.00 20.00    -0.169 F 
HETATM    8  F8  UNL     1     -35.114   5.222   5.976  1.00 20.00    -0.169 F 
HETATM    9  F9  UNL     1     -34.433   4.118   4.218  1.00 20.00    -0.169 F 
ENDBRANCH   5   6
ENDBRANCH   4   5
ENDBRANCH   2   4
TORSDOF 3
ENDMDL
MODEL 2
REMARK VINA RESULT:      -4.7      1.861      2.291
REMARK  3 active torsions:
REMARK  status: ('A' for Active; 'I' for Inactive)
REMARK    1  A    between atoms: C2_2  and  O6_6 
REMARK    2  A    between atoms: C3_3  and  C4_4 
REMARK    3  A    between atoms: C3_3  and  O6_6 
ROOT
HETATM    1  C1  UNL     1     -32.866   6.206   2.772  1.00 20.00     0.085 C 
HETATM    2  C2  UNL     1     -33.614   4.964   2.574  1.00 20.00     0.291 C 
HETATM    3  N5  UNL     1     -32.274   7.191   2.928  1.00 20.00    -0.195 NA
ENDROOT
BRANCH   2   4
HETATM    4  O6  UNL     1     -34.104   4.476   3.816  1.00 20.00    -0.369 OA
BRANCH   4   5
HETATM    5  C3  UNL     1     -34.989   5.404   4.429  1.00 20.00     0.286 C 
BRANCH   5   6
HETATM    6  C4  UNL     1     -34.573   5.609   5.862  1.00 20.00     0.408 C 
HETATM    7  F7  UNL     1     -33.871   4.545   6.311  1.00 20.00    -0.169 F 
HETATM    8  F8  UNL     1     -35.645   5.764   6.666  1.00 20.00    -0.169 F 
HETATM    9  F9  UNL     1     -33.790   6.701   5.992  1.00 20.00    -0.169 F 
ENDBRANCH   5   6
ENDBRANCH   4   5
ENDBRANCH   2   4
TORSDOF 3
ENDMDL
MODEL 3
REMARK VINA RESULT:      -4.1      3.290      4.131
REMARK  3 active torsions:
REMARK  status: ('A' for Active; 'I' for Inactive)
REMARK    1  A    between atoms: C2_2  and  O6_6 
REMARK    2  A    between atoms: C3_3  and  C4_4 
REMARK    3  A    between atoms: C3_3  and  O6_6 
ROOT
HETATM    1  C1  UNL     1     -34.713   5.205   5.132  1.00 20.00     0.085 C 
HETATM    2  C2  UNL     1     -34.202   6.328   5.919  1.00 20.00     0.291 C 
HETATM    3  N5  UNL     1     -35.120   4.315   4.510  1.00 20.00    -0.195 NA
ENDROOT
BRANCH   2   4
HETATM    4  O6  UNL     1     -33.256   7.073   5.163  1.00 20.00    -0.369 OA
BRANCH   4   5
HETATM    5  C3  UNL     1     -33.689   7.260   3.822  1.00 20.00     0.286 C 
BRANCH   5   6
HETATM    6  C4  UNL     1     -32.545   6.963   2.888  1.00 20.00     0.408 C 
HETATM    7  F7  UNL     1     -32.701   7.624   1.720  1.00 20.00    -0.169 F 
HETATM    8  F8  UNL     1     -32.471   5.646   2.609  1.00 20.00    -0.169 F 
HETATM    9  F9  UNL     1     -31.367   7.346   3.423  1.00 20.00    -0.169 F 
ENDBRANCH   5   6
ENDBRANCH   4   5
ENDBRANCH   2   4
TORSDOF 3
ENDMDL
MODEL 4
REMARK VINA RESULT:      -4.1      1.752      1.848
REMARK  3 active torsions:
REMARK  status: ('A' for Active; 'I' for Inactive)
REMARK    1  A    between atoms: C2_2  and  O6_6 
REMARK    2  A    between atoms: C3_3  and  C4_4 
REMARK    3  A    between atoms: C3_3  and  O6_6 
ROOT
HETATM    1  C1  UNL     1     -32.971   5.507   2.579  1.00 20.00     0.085 C 
HETATM    2  C2  UNL     1     -32.852   6.851   3.144  1.00 20.00     0.291 C 
HETATM    3  N5  UNL     1     -33.064   4.441   2.132  1.00 20.00    -0.195 NA
ENDROOT
BRANCH   2   4
HETATM    4  O6  UNL     1     -33.945   7.124   4.012  1.00 20.00    -0.369 OA
BRANCH   4   5
HETATM    5  C3  UNL     1     -33.800   6.459   5.259  1.00 20.00     0.286 C 
BRANCH   5   6
HETATM    6  C4  UNL     1     -34.845   5.379   5.366  1.00 20.00     0.408 C 
HETATM    7  F7  UNL     1     -35.805   5.552   4.431  1.00 20.00    -0.169 F 
HETATM    8  F8  UNL     1     -35.441   5.393   6.576  1.00 20.00    -0.169 F 
HETATM    9  F9  UNL     1     -34.304   4.156   5.179  1.00 20.00    -0.169 F 
ENDBRANCH   5   6
ENDBRANCH   4   5
ENDBRANCH   2   4
TORSDOF 3
ENDMDL
MODEL 5
REMARK VINA RESULT:      -4.1      3.347      4.216
REMARK  3 active torsions:
REMARK  status: ('A' for Active; 'I' for Inactive)
REMARK    1  A    between atoms: C2_2  and  O6_6 
REMARK    2  A    between atoms: C3_3  and  C4_4 
REMARK    3  A    between atoms: C3_3  and  O6_6 
ROOT
HETATM    1  C1  UNL     1     -34.645   5.101   5.270  1.00 20.00     0.085 C 
HETATM    2  C2  UNL     1     -34.378   4.295   4.078  1.00 20.00     0.291 C 
HETATM    3  N5  UNL     1     -34.855   5.739   6.216  1.00 20.00    -0.195 NA
ENDROOT
BRANCH   2   4
HETATM    4  O6  UNL     1     -34.255   5.128   2.933  1.00 20.00    -0.369 OA
BRANCH   4   5
HETATM    5  C3  UNL     1     -32.895   5.423   2.645  1.00 20.00     0.286 C 
BRANCH   5   6
HETATM    6  C4  UNL     1     -32.690   6.914   2.704  1.00 20.00     0.408 C 
HETATM    7  F7  UNL     1     -33.705   7.507   3.371  1.00 20.00    -0.169 F 
HETATM    8  F8  UNL     1     -32.643   7.450   1.467  1.00 20.00    -0.169 F 
HETATM    9  F9  UNL     1     -31.542   7.226   3.341  1.00 20.00    -0.169 F 
ENDBRANCH   5   6
ENDBRANCH   4   5
ENDBRANCH   2   4
TORSDOF 3
ENDMDL
MODEL 6
REMARK VINA RESULT:      -4.1     11.465     12.075
REMARK  3 active torsions:
REMARK  status: ('A' for Active; 'I' for Inactive)
REMARK    1  A    between atoms: C2_2  and  O6_6 
REMARK    2  A    between atoms: C3_3  and  C4_4 
REMARK    3  A    between atoms: C3_3  and  O6_6 
ROOT
HETATM    1  C1  UNL     1     -36.959  14.097  -4.675  1.00 20.00     0.085 C 
HETATM    2  C2  UNL     1     -35.615  14.183  -5.246  1.00 20.00     0.291 C 
HETATM    3  N5  UNL     1     -38.025  14.028  -4.223  1.00 20.00    -0.195 NA
ENDROOT
BRANCH   2   4
HETATM    4  O6  UNL     1     -34.637  13.860  -4.265  1.00 20.00    -0.369 OA
BRANCH   4   5
HETATM    5  C3  UNL     1     -33.584  14.814  -4.245  1.00 20.00     0.286 C 
BRANCH   5   6
HETATM    6  C4  UNL     1     -33.888  15.863  -3.208  1.00 20.00     0.408 C 
HETATM    7  F7  UNL     1     -32.748  16.323  -2.648  1.00 20.00    -0.169 F 
HETATM    8  F8  UNL     1     -34.660  15.365  -2.220  1.00 20.00    -0.169 F 
HETATM    9  F9  UNL     1     -34.532  16.917  -3.753  1.00 20.00    -0.169 F 
ENDBRANCH   5   6
ENDBRANCH   4   5
ENDBRANCH   2   4
TORSDOF 3
ENDMDL
MODEL 7
REMARK VINA RESULT:      -4.0     11.707     12.316
REMARK  3 active torsions:
REMARK  status: ('A' for Active; 'I' for Inactive)
REMARK    1  A    between atoms: C2_2  and  O6_6 
REMARK    2  A    between atoms: C3_3  and  C4_4 
REMARK    3  A    between atoms: C3_3  and  O6_6 
ROOT
HETATM    1  C1  UNL     1     -35.948  13.969  -4.879  1.00 20.00     0.085 C 
HETATM    2  C2  UNL     1     -35.927  15.379  -5.269  1.00 20.00     0.291 C 
HETATM    3  N5  UNL     1     -35.966  12.851  -4.570  1.00 20.00    -0.195 NA
ENDROOT
BRANCH   2   4
HETATM    4  O6  UNL     1     -34.590  15.854  -5.341  1.00 20.00    -0.369 OA
BRANCH   4   5
HETATM    5  C3  UNL     1     -34.295  16.747  -4.275  1.00 20.00     0.286 C 
BRANCH   5   6
HETATM    6  C4  UNL     1     -33.502  16.015  -3.224  1.00 20.00     0.408 C 
HETATM    7  F7  UNL     1     -34.327  15.448  -2.316  1.00 20.00    -0.169 F 
HETATM    8  F8  UNL     1     -32.677  16.852  -2.563  1.00 20.00    -0.169 F 
HETATM    9  F9  UNL     1     -32.755  15.034  -3.770  1.00 20.00    -0.169 F 
ENDBRANCH   5   6
ENDBRANCH   4   5
ENDBRANCH   2   4
TORSDOF 3
ENDMDL
MODEL 8
REMARK VINA RESULT:      -4.0     16.307     16.808
REMARK  3 active torsions:
REMARK  status: ('A' for Active; 'I' for Inactive)
REMARK    1  A    between atoms: C2_2  and  O6_6 
REMARK    2  A    between atoms: C3_3  and  C4_4 
REMARK    3  A    between atoms: C3_3  and  O6_6 
ROOT
HETATM    1  C1  UNL     1     -21.569  17.379   8.243  1.00 20.00     0.085 C 
HETATM    2  C2  UNL     1     -21.439  18.004   9.559  1.00 20.00     0.291 C 
HETATM    3  N5  UNL     1     -21.672  16.883   7.200  1.00 20.00    -0.195 NA
ENDROOT
BRANCH   2   4
HETATM    4  O6  UNL     1     -22.721  18.240  10.126  1.00 20.00    -0.369 OA
BRANCH   4   5
HETATM    5  C3  UNL     1     -22.873  17.568  11.370  1.00 20.00     0.286 C 
BRANCH   5   6
HETATM    6  C4  UNL     1     -24.002  16.577  11.260  1.00 20.00     0.408 C 
HETATM    7  F7  UNL     1     -24.072  16.073  10.008  1.00 20.00    -0.169 F 
HETATM    8  F8  UNL     1     -25.189  17.155  11.538  1.00 20.00    -0.169 F 
HETATM    9  F9  UNL     1     -23.829  15.543  12.110  1.00 20.00    -0.169 F 
ENDBRANCH   5   6
ENDBRANCH   4   5
ENDBRANCH   2   4
TORSDOF 3
ENDMDL
MODEL 9
REMARK VINA RESULT:      -4.0     11.707     12.367
REMARK  3 active torsions:
REMARK  status: ('A' for Active; 'I' for Inactive)
REMARK    1  A    between atoms: C2_2  and  O6_6 
REMARK    2  A    between atoms: C3_3  and  C4_4 
REMARK    3  A    between atoms: C3_3  and  O6_6 
ROOT
HETATM    1  C1  UNL     1     -35.948  13.967  -4.863  1.00 20.00     0.085 C 
HETATM    2  C2  UNL     1     -35.932  15.383  -5.233  1.00 20.00     0.291 C 
HETATM    3  N5  UNL     1     -35.961  12.845  -4.571  1.00 20.00    -0.195 NA
ENDROOT
BRANCH   2   4
HETATM    4  O6  UNL     1     -34.595  15.856  -5.332  1.00 20.00    -0.369 OA
BRANCH   4   5
HETATM    5  C3  UNL     1     -34.281  16.759  -4.280  1.00 20.00     0.286 C 
BRANCH   5   6
HETATM    6  C4  UNL     1     -33.490  16.031  -3.225  1.00 20.00     0.408 C 
HETATM    7  F7  UNL     1     -32.671  16.885  -2.572  1.00 20.00    -0.169 F 
HETATM    8  F8  UNL     1     -32.726  15.062  -3.768  1.00 20.00    -0.169 F 
HETATM    9  F9  UNL     1     -34.303  15.462  -2.310  1.00 20.00    -0.169 F 
ENDBRANCH   5   6
ENDBRANCH   4   5
ENDBRANCH   2   4
TORSDOF 3
ENDMDL
