MODEL 1
REMARK VINA RESULT:      -4.6      0.000      0.000
REMARK  0 active torsions:
REMARK  status: ('A' for Active; 'I' for Inactive)
ROOT
HETATM    1  C1  UNL     1     -33.736  15.178  -4.424  1.00 20.00     0.042 C 
HETATM    2  C2  UNL     1     -35.863  14.244  -5.453  1.00 20.00     0.042 C 
HETATM    3  C3  UNL     1     -35.994  16.909  -4.459  1.00 20.00     0.174 C 
HETATM    4  C4  UNL     1     -35.977  15.752  -3.449  1.00 20.00     0.017 C 
HETATM    5  C5  UNL     1     -34.506  15.407  -3.107  1.00 20.00    -0.009 C 
HETATM    6  C6  UNL     1     -36.590  14.495  -4.117  1.00 20.00    -0.009 C 
HETATM    7  C7  UNL     1     -34.709  15.250  -5.617  1.00 20.00     0.058 C 
HETATM    8  C8  UNL     1     -33.830  16.462  -2.233  1.00 20.00     0.010 C 
HETATM    9  C9  UNL     1     -38.103  14.595  -4.305  1.00 20.00     0.010 C 
HETATM   10  C10 UNL     1     -33.973  15.026  -6.935  1.00 20.00     0.046 C 
HETATM   11  O11 UNL     1     -35.273  16.576  -5.654  1.00 20.00    -0.380 OA
ENDROOT
TORSDOF 0
ENDMDL
MODEL 2
REMARK VINA RESULT:      -4.3      1.617      2.942
REMARK  0 active torsions:
REMARK  status: ('A' for Active; 'I' for Inactive)
ROOT
HETATM    1  C1  UNL     1     -34.943  15.362  -4.925  1.00 20.00     0.042 C 
HETATM    2  C2  UNL     1     -36.134  16.721  -3.139  1.00 20.00     0.042 C 
HETATM    3  C3  UNL     1     -33.354  17.229  -3.481  1.00 20.00     0.174 C 
HETATM    4  C4  UNL     1     -33.779  15.933  -2.775  1.00 20.00     0.017 C 
HETATM    5  C5  UNL     1     -33.986  14.827  -3.840  1.00 20.00    -0.009 C 
HETATM    6  C6  UNL     1     -35.152  16.161  -2.092  1.00 20.00    -0.009 C 
HETATM    7  C7  UNL     1     -35.460  16.757  -4.524  1.00 20.00     0.058 C 
HETATM    8  C8  UNL     1     -32.676  14.321  -4.442  1.00 20.00     0.010 C 
HETATM    9  C9  UNL     1     -35.065  17.060  -0.860  1.00 20.00     0.010 C 
HETATM   10  C10 UNL     1     -36.412  17.311  -5.580  1.00 20.00     0.046 C 
HETATM   11  O11 UNL     1     -34.330  17.647  -4.447  1.00 20.00    -0.380 OA
ENDROOT
TORSDOF 0
ENDMDL
MODEL 3
REMARK VINA RESULT:      -4.3      1.472      2.101
REMARK  0 active torsions:
REMARK  status: ('A' for Active; 'I' for Inactive)
ROOT
HETATM    1  C1  UNL     1     -33.417  17.517  -3.704  1.00 20.00     0.042 C 
HETATM    2  C2  UNL     1     -34.214  15.581  -5.143  1.00 20.00     0.042 C 
HETATM    3  C3  UNL     1     -36.021  16.512  -3.150  1.00 20.00     0.174 C 
HETATM    4  C4  UNL     1     -34.808  15.681  -2.706  1.00 20.00     0.017 C 
HETATM    5  C5  UNL     1     -33.612  16.633  -2.455  1.00 20.00    -0.009 C 
HETATM    6  C6  UNL     1     -34.396  14.738  -3.866  1.00 20.00    -0.009 C 
HETATM    7  C7  UNL     1     -34.390  17.075  -4.814  1.00 20.00     0.058 C 
HETATM    8  C8  UNL     1     -33.770  17.472  -1.187  1.00 20.00     0.010 C 
HETATM    9  C9  UNL     1     -35.378  13.588  -4.081  1.00 20.00     0.010 C 
HETATM   10  C10 UNL     1     -34.218  17.934  -6.064  1.00 20.00     0.046 C 
HETATM   11  O11 UNL     1     -35.734  17.271  -4.334  1.00 20.00    -0.380 OA
ENDROOT
TORSDOF 0
ENDMDL
MODEL 4
REMARK VINA RESULT:      -4.3      2.107      3.577
REMARK  0 active torsions:
REMARK  status: ('A' for Active; 'I' for Inactive)
ROOT
HETATM    1  C1  UNL     1     -33.871  18.066  -1.199  1.00 20.00     0.042 C 
HETATM    2  C2  UNL     1     -33.131  16.607  -3.143  1.00 20.00     0.042 C 
HETATM    3  C3  UNL     1     -35.853  17.441  -3.142  1.00 20.00     0.174 C 
HETATM    4  C4  UNL     1     -35.425  16.343  -2.157  1.00 20.00     0.017 C 
HETATM    5  C5  UNL     1     -34.937  17.008  -0.846  1.00 20.00    -0.009 C 
HETATM    6  C6  UNL     1     -34.214  15.581  -2.753  1.00 20.00    -0.009 C 
HETATM    7  C7  UNL     1     -33.568  18.019  -2.709  1.00 20.00     0.058 C 
HETATM    8  C8  UNL     1     -36.073  17.605  -0.017  1.00 20.00     0.010 C 
HETATM    9  C9  UNL     1     -34.591  14.681  -3.928  1.00 20.00     0.010 C 
HETATM   10  C10 UNL     1     -32.514  19.056  -3.086  1.00 20.00     0.046 C 
HETATM   11  O11 UNL     1     -34.777  18.350  -3.418  1.00 20.00    -0.380 OA
ENDROOT
TORSDOF 0
ENDMDL
MODEL 5
REMARK VINA RESULT:      -4.3      0.808      3.266
REMARK  0 active torsions:
REMARK  status: ('A' for Active; 'I' for Inactive)
ROOT
HETATM    1  C1  UNL     1     -35.694  14.422  -5.697  1.00 20.00     0.042 C 
HETATM    2  C2  UNL     1     -35.511  15.027  -3.236  1.00 20.00     0.042 C 
HETATM    3  C3  UNL     1     -35.169  17.153  -5.098  1.00 20.00     0.174 C 
HETATM    4  C4  UNL     1     -34.029  16.137  -4.930  1.00 20.00     0.017 C 
HETATM    5  C5  UNL     1     -34.263  14.957  -5.906  1.00 20.00    -0.009 C 
HETATM    6  C6  UNL     1     -34.086  15.552  -3.496  1.00 20.00    -0.009 C 
HETATM    7  C7  UNL     1     -36.359  15.156  -4.516  1.00 20.00     0.058 C 
HETATM    8  C8  UNL     1     -34.005  15.326  -7.366  1.00 20.00     0.010 C 
HETATM    9  C9  UNL     1     -33.646  16.549  -2.425  1.00 20.00     0.010 C 
HETATM   10  C10 UNL     1     -37.778  14.645  -4.285  1.00 20.00     0.046 C 
HETATM   11  O11 UNL     1     -36.449  16.554  -4.853  1.00 20.00    -0.380 OA
ENDROOT
TORSDOF 0
ENDMDL
MODEL 6
REMARK VINA RESULT:      -4.2      1.257      3.045
REMARK  0 active torsions:
REMARK  status: ('A' for Active; 'I' for Inactive)
ROOT
HETATM    1  C1  UNL     1     -36.198  15.476  -5.913  1.00 20.00     0.042 C 
HETATM    2  C2  UNL     1     -34.033  16.457  -5.016  1.00 20.00     0.042 C 
HETATM    3  C3  UNL     1     -34.867  13.976  -3.895  1.00 20.00     0.174 C 
HETATM    4  C4  UNL     1     -35.614  15.253  -3.482  1.00 20.00     0.017 C 
HETATM    5  C5  UNL     1     -36.771  15.502  -4.481  1.00 20.00    -0.009 C 
HETATM    6  C6  UNL     1     -34.648  16.460  -3.603  1.00 20.00    -0.009 C 
HETATM    7  C7  UNL     1     -34.665  15.334  -5.860  1.00 20.00     0.058 C 
HETATM    8  C8  UNL     1     -37.928  14.517  -4.317  1.00 20.00     0.010 C 
HETATM    9  C9  UNL     1     -33.574  16.478  -2.518  1.00 20.00     0.010 C 
HETATM   10  C10 UNL     1     -34.071  15.306  -7.265  1.00 20.00     0.046 C 
HETATM   11  O11 UNL     1     -34.355  14.075  -5.232  1.00 20.00    -0.380 OA
ENDROOT
TORSDOF 0
ENDMDL
MODEL 7
REMARK VINA RESULT:      -4.1      1.329      1.578
REMARK  0 active torsions:
REMARK  status: ('A' for Active; 'I' for Inactive)
ROOT
HETATM    1  C1  UNL     1     -33.674  15.995  -2.893  1.00 20.00     0.042 C 
HETATM    2  C2  UNL     1     -34.995  14.104  -3.957  1.00 20.00     0.042 C 
HETATM    3  C3  UNL     1     -35.400  16.705  -5.040  1.00 20.00     0.174 C 
HETATM    4  C4  UNL     1     -36.028  16.375  -3.678  1.00 20.00     0.017 C 
HETATM    5  C5  UNL     1     -35.005  16.701  -2.562  1.00 20.00    -0.009 C 
HETATM    6  C6  UNL     1     -36.298  14.850  -3.608  1.00 20.00    -0.009 C 
HETATM    7  C7  UNL     1     -33.848  15.114  -4.145  1.00 20.00     0.058 C 
HETATM    8  C8  UNL     1     -34.810  18.202  -2.347  1.00 20.00     0.010 C 
HETATM    9  C9  UNL     1     -37.460  14.406  -4.495  1.00 20.00     0.010 C 
HETATM   10  C10 UNL     1     -32.545  14.401  -4.495  1.00 20.00     0.046 C 
HETATM   11  O11 UNL     1     -34.185  15.972  -5.252  1.00 20.00    -0.380 OA
ENDROOT
TORSDOF 0
ENDMDL
MODEL 8
REMARK VINA RESULT:      -4.0      1.213      2.999
REMARK  0 active torsions:
REMARK  status: ('A' for Active; 'I' for Inactive)
ROOT
HETATM    1  C1  UNL     1     -36.178  16.142  -3.404  1.00 20.00     0.042 C 
HETATM    2  C2  UNL     1     -36.122  15.418  -5.839  1.00 20.00     0.042 C 
HETATM    3  C3  UNL     1     -34.318  14.097  -4.077  1.00 20.00     0.174 C 
HETATM    4  C4  UNL     1     -34.002  15.539  -4.500  1.00 20.00     0.017 C 
HETATM    5  C5  UNL     1     -34.685  16.514  -3.509  1.00 20.00    -0.009 C 
HETATM    6  C6  UNL     1     -34.630  15.801  -5.893  1.00 20.00    -0.009 C 
HETATM    7  C7  UNL     1     -36.508  15.015  -4.403  1.00 20.00     0.058 C 
HETATM    8  C8  UNL     1     -34.012  16.543  -2.137  1.00 20.00     0.010 C 
HETATM    9  C9  UNL     1     -33.901  15.079  -7.024  1.00 20.00     0.010 C 
HETATM   10  C10 UNL     1     -37.981  14.628  -4.322  1.00 20.00     0.046 C 
HETATM   11  O11 UNL     1     -35.732  13.856  -4.041  1.00 20.00    -0.380 OA
ENDROOT
TORSDOF 0
ENDMDL
MODEL 9
REMARK VINA RESULT:      -4.0      0.801      3.176
REMARK  0 active torsions:
REMARK  status: ('A' for Active; 'I' for Inactive)
ROOT
HETATM    1  C1  UNL     1     -35.636  14.911  -3.343  1.00 20.00     0.042 C 
HETATM    2  C2  UNL     1     -33.638  15.205  -4.885  1.00 20.00     0.042 C 
HETATM    3  C3  UNL     1     -35.953  16.747  -5.493  1.00 20.00     0.174 C 
HETATM    4  C4  UNL     1     -35.972  15.244  -5.808  1.00 20.00     0.017 C 
HETATM    5  C5  UNL     1     -36.477  14.477  -4.560  1.00 20.00    -0.009 C 
HETATM    6  C6  UNL     1     -34.521  14.768  -6.071  1.00 20.00    -0.009 C 
HETATM    7  C7  UNL     1     -34.510  15.860  -3.797  1.00 20.00     0.058 C 
HETATM    8  C8  UNL     1     -37.973  14.660  -4.308  1.00 20.00     0.010 C 
HETATM    9  C9  UNL     1     -33.962  15.261  -7.404  1.00 20.00     0.010 C 
HETATM   10  C10 UNL     1     -33.660  16.305  -2.611  1.00 20.00     0.046 C 
HETATM   11  O11 UNL     1     -35.119  17.037  -4.362  1.00 20.00    -0.380 OA
ENDROOT
TORSDOF 0
ENDMDL
