MODEL 1
REMARK VINA RESULT:      -5.3      0.000      0.000
REMARK  2 active torsions:
REMARK  status: ('A' for Active; 'I' for Inactive)
REMARK    1  A    between atoms: C1_1  and  C2_2 
REMARK    2  A    between atoms: C2_2  and  C3_3 
ROOT
HETATM    1  C2  UNL     1     -33.824   6.372   4.315  1.00 20.00     0.213 C 
ENDROOT
BRANCH   1   2
HETATM    2  C1  UNL     1     -33.258   6.012   2.954  1.00 20.00     0.227 C 
HETATM    3  O4  UNL     1     -33.342   4.887   2.469  1.00 20.00    -0.280 OA
HETATM    4 CL8  UNL     1     -32.495   7.383   2.198  1.00 20.00    -0.043 Cl
ENDBRANCH   1   2
BRANCH   1   5
HETATM    5  C3  UNL     1     -34.845   5.372   4.809  1.00 20.00     0.395 C 
HETATM    6  F5  UNL     1     -34.389   4.106   4.707  1.00 20.00    -0.171 F 
HETATM    7  F6  UNL     1     -36.000   5.462   4.116  1.00 20.00    -0.171 F 
HETATM    8  F7  UNL     1     -35.132   5.598   6.111  1.00 20.00    -0.171 F 
ENDBRANCH   1   5
TORSDOF 2
ENDMDL
MODEL 2
REMARK VINA RESULT:      -5.0      1.977      2.184
REMARK  2 active torsions:
REMARK  status: ('A' for Active; 'I' for Inactive)
REMARK    1  A    between atoms: C1_1  and  C2_2 
REMARK    2  A    between atoms: C2_2  and  C3_3 
ROOT
HETATM    1  C2  UNL     1     -34.844   6.022   4.643  1.00 20.00     0.213 C 
ENDROOT
BRANCH   1   2
HETATM    2  C1  UNL     1     -34.200   4.956   3.777  1.00 20.00     0.227 C 
HETATM    3  O4  UNL     1     -34.391   3.755   3.940  1.00 20.00    -0.280 OA
HETATM    4 CL8  UNL     1     -33.179   5.659   2.552  1.00 20.00    -0.043 Cl
ENDBRANCH   1   2
BRANCH   1   5
HETATM    5  C3  UNL     1     -34.039   6.335   5.885  1.00 20.00     0.395 C 
HETATM    6  F5  UNL     1     -33.609   5.209   6.492  1.00 20.00    -0.171 F 
HETATM    7  F6  UNL     1     -34.761   7.046   6.775  1.00 20.00    -0.171 F 
HETATM    8  F7  UNL     1     -32.949   7.068   5.564  1.00 20.00    -0.171 F 
ENDBRANCH   1   5
TORSDOF 2
ENDMDL
MODEL 3
REMARK VINA RESULT:      -4.9      1.336      1.336
REMARK  2 active torsions:
REMARK  status: ('A' for Active; 'I' for Inactive)
REMARK    1  A    between atoms: C1_1  and  C2_2 
REMARK    2  A    between atoms: C2_2  and  C3_3 
ROOT
HETATM    1  C2  UNL     1     -33.723   6.383   4.553  1.00 20.00     0.213 C 
ENDROOT
BRANCH   1   2
HETATM    2  C1  UNL     1     -33.244   6.318   3.115  1.00 20.00     0.227 C 
HETATM    3  O4  UNL     1     -32.881   7.306   2.484  1.00 20.00    -0.280 OA
HETATM    4 CL8  UNL     1     -33.280   4.686   2.504  1.00 20.00    -0.043 Cl
ENDBRANCH   1   2
BRANCH   1   5
HETATM    5  C3  UNL     1     -34.818   5.383   4.852  1.00 20.00     0.395 C 
HETATM    6  F5  UNL     1     -34.380   4.114   4.717  1.00 20.00    -0.171 F 
HETATM    7  F6  UNL     1     -35.879   5.554   4.037  1.00 20.00    -0.171 F 
HETATM    8  F7  UNL     1     -35.253   5.531   6.124  1.00 20.00    -0.171 F 
ENDBRANCH   1   5
TORSDOF 2
ENDMDL
MODEL 4
REMARK VINA RESULT:      -4.9      2.975      3.441
REMARK  2 active torsions:
REMARK  status: ('A' for Active; 'I' for Inactive)
REMARK    1  A    between atoms: C1_1  and  C2_2 
REMARK    2  A    between atoms: C2_2  and  C3_3 
ROOT
HETATM    1  C2  UNL     1     -34.337   6.511   3.440  1.00 20.00     0.213 C 
ENDROOT
BRANCH   1   2
HETATM    2  C1  UNL     1     -34.527   5.465   4.524  1.00 20.00     0.227 C 
HETATM    3  O4  UNL     1     -34.772   4.287   4.282  1.00 20.00    -0.280 OA
HETATM    4 CL8  UNL     1     -34.352   6.156   6.114  1.00 20.00    -0.043 Cl
ENDBRANCH   1   2
BRANCH   1   5
HETATM    5  C3  UNL     1     -32.931   6.528   2.882  1.00 20.00     0.395 C 
HETATM    6  F5  UNL     1     -32.485   5.280   2.624  1.00 20.00    -0.171 F 
HETATM    7  F6  UNL     1     -32.068   7.118   3.735  1.00 20.00    -0.171 F 
HETATM    8  F7  UNL     1     -32.896   7.221   1.722  1.00 20.00    -0.171 F 
ENDBRANCH   1   5
TORSDOF 2
ENDMDL
MODEL 5
REMARK VINA RESULT:      -4.9      2.978      3.410
REMARK  2 active torsions:
REMARK  status: ('A' for Active; 'I' for Inactive)
REMARK    1  A    between atoms: C1_1  and  C2_2 
REMARK    2  A    between atoms: C2_2  and  C3_3 
ROOT
HETATM    1  C2  UNL     1     -34.327   6.552   3.435  1.00 20.00     0.213 C 
ENDROOT
BRANCH   1   2
HETATM    2  C1  UNL     1     -34.521   5.510   4.522  1.00 20.00     0.227 C 
HETATM    3  O4  UNL     1     -34.791   4.337   4.286  1.00 20.00    -0.280 OA
HETATM    4 CL8  UNL     1     -34.311   6.198   6.109  1.00 20.00    -0.043 Cl
ENDBRANCH   1   2
BRANCH   1   5
HETATM    5  C3  UNL     1     -32.927   6.548   2.863  1.00 20.00     0.395 C 
HETATM    6  F5  UNL     1     -32.862   7.246   1.710  1.00 20.00    -0.171 F 
HETATM    7  F6  UNL     1     -32.495   5.293   2.622  1.00 20.00    -0.171 F 
HETATM    8  F7  UNL     1     -32.063   7.117   3.734  1.00 20.00    -0.171 F 
ENDBRANCH   1   5
TORSDOF 2
ENDMDL
MODEL 6
REMARK VINA RESULT:      -4.9      2.967      3.406
REMARK  2 active torsions:
REMARK  status: ('A' for Active; 'I' for Inactive)
REMARK    1  A    between atoms: C1_1  and  C2_2 
REMARK    2  A    between atoms: C2_2  and  C3_3 
ROOT
HETATM    1  C2  UNL     1     -34.367   6.474   3.394  1.00 20.00     0.213 C 
ENDROOT
BRANCH   1   2
HETATM    2  C1  UNL     1     -34.536   5.479   4.527  1.00 20.00     0.227 C 
HETATM    3  O4  UNL     1     -34.811   4.297   4.346  1.00 20.00    -0.280 OA
HETATM    4 CL8  UNL     1     -34.292   6.233   6.079  1.00 20.00    -0.043 Cl
ENDBRANCH   1   2
BRANCH   1   5
HETATM    5  C3  UNL     1     -32.948   6.537   2.876  1.00 20.00     0.395 C 
HETATM    6  F5  UNL     1     -32.121   7.121   3.768  1.00 20.00    -0.171 F 
HETATM    7  F6  UNL     1     -32.875   7.226   1.718  1.00 20.00    -0.171 F 
HETATM    8  F7  UNL     1     -32.480   5.291   2.639  1.00 20.00    -0.171 F 
ENDBRANCH   1   5
TORSDOF 2
ENDMDL
MODEL 7
REMARK VINA RESULT:      -4.7      3.273      3.730
REMARK  2 active torsions:
REMARK  status: ('A' for Active; 'I' for Inactive)
REMARK    1  A    between atoms: C1_1  and  C2_2 
REMARK    2  A    between atoms: C2_2  and  C3_3 
ROOT
HETATM    1  C2  UNL     1     -34.081   6.924   3.531  1.00 20.00     0.213 C 
ENDROOT
BRANCH   1   2
HETATM    2  C1  UNL     1     -34.107   6.281   4.906  1.00 20.00     0.227 C 
HETATM    3  O4  UNL     1     -33.696   6.843   5.916  1.00 20.00    -0.280 OA
HETATM    4 CL8  UNL     1     -34.783   4.676   4.846  1.00 20.00    -0.043 Cl
ENDBRANCH   1   2
BRANCH   1   5
HETATM    5  C3  UNL     1     -32.765   6.724   2.814  1.00 20.00     0.395 C 
HETATM    6  F5  UNL     1     -32.514   5.416   2.594  1.00 20.00    -0.171 F 
HETATM    7  F6  UNL     1     -31.736   7.239   3.518  1.00 20.00    -0.171 F 
HETATM    8  F7  UNL     1     -32.787   7.342   1.612  1.00 20.00    -0.171 F 
ENDBRANCH   1   5
TORSDOF 2
ENDMDL
MODEL 8
REMARK VINA RESULT:      -4.7      3.265      3.687
REMARK  2 active torsions:
REMARK  status: ('A' for Active; 'I' for Inactive)
REMARK    1  A    between atoms: C1_1  and  C2_2 
REMARK    2  A    between atoms: C2_2  and  C3_3 
ROOT
HETATM    1  C2  UNL     1     -34.077   6.942   3.531  1.00 20.00     0.213 C 
ENDROOT
BRANCH   1   2
HETATM    2  C1  UNL     1     -34.103   6.289   4.901  1.00 20.00     0.227 C 
HETATM    3  O4  UNL     1     -33.677   6.838   5.913  1.00 20.00    -0.280 OA
HETATM    4 CL8  UNL     1     -34.804   4.695   4.834  1.00 20.00    -0.043 Cl
ENDBRANCH   1   2
BRANCH   1   5
HETATM    5  C3  UNL     1     -32.776   6.711   2.795  1.00 20.00     0.395 C 
HETATM    6  F5  UNL     1     -32.775   7.317   1.589  1.00 20.00    -0.171 F 
HETATM    7  F6  UNL     1     -32.541   5.396   2.609  1.00 20.00    -0.171 F 
HETATM    8  F7  UNL     1     -31.741   7.214   3.505  1.00 20.00    -0.171 F 
ENDBRANCH   1   5
TORSDOF 2
ENDMDL
MODEL 9
REMARK VINA RESULT:      -4.3      1.398      1.926
REMARK  2 active torsions:
REMARK  status: ('A' for Active; 'I' for Inactive)
REMARK    1  A    between atoms: C1_1  and  C2_2 
REMARK    2  A    between atoms: C2_2  and  C3_3 
ROOT
HETATM    1  C2  UNL     1     -33.459   5.600   2.935  1.00 20.00     0.213 C 
ENDROOT
BRANCH   1   2
HETATM    2  C1  UNL     1     -32.687   6.907   2.923  1.00 20.00     0.227 C 
HETATM    3  O4  UNL     1     -32.041   7.312   3.883  1.00 20.00    -0.280 OA
HETATM    4 CL8  UNL     1     -32.845   7.726   1.393  1.00 20.00    -0.043 Cl
ENDBRANCH   1   2
BRANCH   1   5
HETATM    5  C3  UNL     1     -34.411   5.492   4.105  1.00 20.00     0.395 C 
HETATM    6  F5  UNL     1     -35.694   5.647   3.716  1.00 20.00    -0.171 F 
HETATM    7  F6  UNL     1     -34.141   6.418   5.049  1.00 20.00    -0.171 F 
HETATM    8  F7  UNL     1     -34.305   4.276   4.686  1.00 20.00    -0.171 F 
ENDBRANCH   1   5
TORSDOF 2
ENDMDL
