MODEL 1
REMARK VINA RESULT:      -3.4      0.000      0.000
REMARK  1 active torsions:
REMARK  status: ('A' for Active; 'I' for Inactive)
REMARK    1  A    between atoms: C1_1  and  C2_2 
ROOT
HETATM    1  C1  UNL     1     -34.334   5.280   4.157  1.00 20.00     0.208 C 
HETATM    2  O3  UNL     1     -35.155   4.418   4.428  1.00 20.00    -0.284 OA
HETATM    3 BR5  UNL     1     -34.018   6.591   5.511  1.00 20.00    -0.008 Br
ENDROOT
BRANCH   1   4
HETATM    4  C2  UNL     1     -33.556   5.413   2.879  1.00 20.00     0.205 C 
HETATM    5 CL4  UNL     1     -32.589   6.895   2.903  1.00 20.00    -0.122 Cl
ENDBRANCH   1   4
TORSDOF 1
ENDMDL
MODEL 2
REMARK VINA RESULT:      -3.3      2.122      2.381
REMARK  1 active torsions:
REMARK  status: ('A' for Active; 'I' for Inactive)
REMARK    1  A    between atoms: C1_1  and  C2_2 
ROOT
HETATM    1  C1  UNL     1     -34.296   4.889   4.197  1.00 20.00     0.208 C 
HETATM    2  O3  UNL     1     -34.334   3.721   3.841  1.00 20.00    -0.284 OA
HETATM    3 BR5  UNL     1     -33.361   6.087   3.038  1.00 20.00    -0.008 Br
ENDROOT
BRANCH   1   4
HETATM    4  C2  UNL     1     -34.900   5.472   5.441  1.00 20.00     0.205 C 
HETATM    5 CL4  UNL     1     -33.918   6.825   6.023  1.00 20.00    -0.122 Cl
ENDBRANCH   1   4
TORSDOF 1
ENDMDL
MODEL 3
REMARK VINA RESULT:      -3.3      2.129      2.129
REMARK  1 active torsions:
REMARK  status: ('A' for Active; 'I' for Inactive)
REMARK    1  A    between atoms: C1_1  and  C2_2 
ROOT
HETATM    1  C1  UNL     1     -33.820   6.481   4.641  1.00 20.00     0.208 C 
HETATM    2  O3  UNL     1     -33.660   7.130   5.663  1.00 20.00    -0.284 OA
HETATM    3 BR5  UNL     1     -35.109   5.073   4.736  1.00 20.00    -0.008 Br
ENDROOT
BRANCH   1   4
HETATM    4  C2  UNL     1     -33.112   6.674   3.331  1.00 20.00     0.205 C 
HETATM    5 CL4  UNL     1     -33.115   5.166   2.406  1.00 20.00    -0.122 Cl
ENDBRANCH   1   4
TORSDOF 1
ENDMDL
MODEL 4
REMARK VINA RESULT:      -3.2      2.636      2.779
REMARK  1 active torsions:
REMARK  status: ('A' for Active; 'I' for Inactive)
REMARK    1  A    between atoms: C1_1  and  C2_2 
ROOT
HETATM    1  C1  UNL     1     -33.660   6.038   3.665  1.00 20.00     0.208 C 
HETATM    2  O3  UNL     1     -34.015   4.975   3.181  1.00 20.00    -0.284 OA
HETATM    3 BR5  UNL     1     -32.509   7.109   2.579  1.00 20.00    -0.008 Br
ENDROOT
BRANCH   1   4
HETATM    4  C2  UNL     1     -34.031   6.582   5.014  1.00 20.00     0.205 C 
HETATM    5 CL4  UNL     1     -34.791   5.320   5.994  1.00 20.00    -0.122 Cl
ENDBRANCH   1   4
TORSDOF 1
ENDMDL
MODEL 5
REMARK VINA RESULT:      -3.2      1.820      1.900
REMARK  1 active torsions:
REMARK  status: ('A' for Active; 'I' for Inactive)
REMARK    1  A    between atoms: C1_1  and  C2_2 
ROOT
HETATM    1  C1  UNL     1     -33.535   5.532   3.204  1.00 20.00     0.208 C 
HETATM    2  O3  UNL     1     -33.260   4.652   2.403  1.00 20.00    -0.284 OA
HETATM    3 BR5  UNL     1     -34.916   5.118   4.459  1.00 20.00    -0.008 Br
ENDROOT
BRANCH   1   4
HETATM    4  C2  UNL     1     -32.906   6.891   3.300  1.00 20.00     0.205 C 
HETATM    5 CL4  UNL     1     -32.465   7.476   1.690  1.00 20.00    -0.122 Cl
ENDBRANCH   1   4
TORSDOF 1
ENDMDL
MODEL 6
REMARK VINA RESULT:      -3.1      3.007      3.077
REMARK  1 active torsions:
REMARK  status: ('A' for Active; 'I' for Inactive)
REMARK    1  A    between atoms: C1_1  and  C2_2 
ROOT
HETATM    1  C1  UNL     1     -33.544   6.593   4.287  1.00 20.00     0.208 C 
HETATM    2  O3  UNL     1     -33.120   7.257   5.220  1.00 20.00    -0.284 OA
HETATM    3 BR5  UNL     1     -32.685   6.873   2.602  1.00 20.00    -0.008 Br
ENDROOT
BRANCH   1   4
HETATM    4  C2  UNL     1     -34.661   5.591   4.328  1.00 20.00     0.205 C 
HETATM    5 CL4  UNL     1     -34.958   5.075   5.995  1.00 20.00    -0.122 Cl
ENDBRANCH   1   4
TORSDOF 1
ENDMDL
MODEL 7
REMARK VINA RESULT:      -3.0     11.861     11.902
REMARK  1 active torsions:
REMARK  status: ('A' for Active; 'I' for Inactive)
REMARK    1  A    between atoms: C1_1  and  C2_2 
ROOT
HETATM    1  C1  UNL     1     -35.737  13.780  -4.270  1.00 20.00     0.208 C 
HETATM    2  O3  UNL     1     -35.813  12.585  -4.511  1.00 20.00    -0.284 OA
HETATM    3 BR5  UNL     1     -37.379  14.755  -4.348  1.00 20.00    -0.008 Br
ENDROOT
BRANCH   1   4
HETATM    4  C2  UNL     1     -34.498  14.552  -3.923  1.00 20.00     0.205 C 
HETATM    5 CL4  UNL     1     -34.799  15.597  -2.526  1.00 20.00    -0.122 Cl
ENDBRANCH   1   4
TORSDOF 1
ENDMDL
MODEL 8
REMARK VINA RESULT:      -2.9      2.550      2.599
REMARK  1 active torsions:
REMARK  status: ('A' for Active; 'I' for Inactive)
REMARK    1  A    between atoms: C1_1  and  C2_2 
ROOT
HETATM    1  C1  UNL     1     -33.103   6.493   3.537  1.00 20.00     0.208 C 
HETATM    2  O3  UNL     1     -32.288   7.276   3.073  1.00 20.00    -0.284 OA
HETATM    3 BR5  UNL     1     -33.749   6.898   5.289  1.00 20.00    -0.008 Br
ENDROOT
BRANCH   1   4
HETATM    4  C2  UNL     1     -33.641   5.257   2.877  1.00 20.00     0.205 C 
HETATM    5 CL4  UNL     1     -34.438   4.223   4.072  1.00 20.00    -0.122 Cl
ENDBRANCH   1   4
TORSDOF 1
ENDMDL
MODEL 9
REMARK VINA RESULT:      -2.9      3.323      3.462
REMARK  1 active torsions:
REMARK  status: ('A' for Active; 'I' for Inactive)
REMARK    1  A    between atoms: C1_1  and  C2_2 
ROOT
HETATM    1  C1  UNL     1     -32.489   7.018   2.621  1.00 20.00     0.208 C 
HETATM    2  O3  UNL     1     -31.845   7.472   3.555  1.00 20.00    -0.284 OA
HETATM    3 BR5  UNL     1     -32.641   8.143   1.084  1.00 20.00    -0.008 Br
ENDROOT
BRANCH   1   4
HETATM    4  C2  UNL     1     -33.166   5.680   2.561  1.00 20.00     0.205 C 
HETATM    5 CL4  UNL     1     -34.328   5.522   3.886  1.00 20.00    -0.122 Cl
ENDBRANCH   1   4
TORSDOF 1
ENDMDL
