MODEL 1
REMARK VINA RESULT:      -3.8      0.000      0.000
REMARK  4 active torsions:
REMARK  status: ('A' for Active; 'I' for Inactive)
REMARK    1  A    between atoms: C1_1  and  N8_8 
REMARK    2  A    between atoms: C1_1  and  N9_9 
REMARK    3  A    between atoms: C6_6  and  N8_8 
REMARK    4  A    between atoms: C7_7  and  N9_9 
ROOT
HETATM    1  N9  UNL     1     -35.038  13.501  -4.204  1.00 20.00    -0.220 NA
ENDROOT
BRANCH   1   2
HETATM    2  C1  UNL     1     -36.188  13.631  -4.395  1.00 20.00     0.091 C 
BRANCH   2   3
HETATM    3  N8  UNL     1     -37.339  13.748  -4.601  1.00 20.00    -0.231 NA
BRANCH   3   4
HETATM    4  C6  UNL     1     -37.912  15.017  -4.148  1.00 20.00     0.156 C 
HETATM    5  C2  UNL     1     -39.421  14.941  -4.248  1.00 20.00     0.029 C 
ENDBRANCH   3   4
ENDBRANCH   2   3
ENDBRANCH   1   2
BRANCH   1   6
HETATM    6  C7  UNL     1     -34.276  14.757  -4.232  1.00 20.00     0.053 C 
HETATM    7  C3  UNL     1     -34.564  15.525  -2.943  1.00 20.00     0.041 C 
HETATM    8  C4  UNL     1     -32.792  14.402  -4.325  1.00 20.00     0.041 C 
HETATM    9  C5  UNL     1     -34.714  15.561  -5.456  1.00 20.00     0.041 C 
ENDBRANCH   1   6
TORSDOF 4
ENDMDL
MODEL 2
REMARK VINA RESULT:      -3.7     11.033     12.028
REMARK  4 active torsions:
REMARK  status: ('A' for Active; 'I' for Inactive)
REMARK    1  A    between atoms: C1_1  and  N8_8 
REMARK    2  A    between atoms: C1_1  and  N9_9 
REMARK    3  A    between atoms: C6_6  and  N8_8 
REMARK    4  A    between atoms: C7_7  and  N9_9 
ROOT
HETATM    1  N9  UNL     1     -33.626   6.503   4.318  1.00 20.00    -0.220 NA
ENDROOT
BRANCH   1   2
HETATM    2  C1  UNL     1     -33.230   6.573   3.216  1.00 20.00     0.091 C 
BRANCH   2   3
HETATM    3  N8  UNL     1     -32.824   6.663   2.117  1.00 20.00    -0.231 NA
BRANCH   3   4
HETATM    4  C6  UNL     1     -32.240   7.965   1.790  1.00 20.00     0.156 C 
HETATM    5  C2  UNL     1     -32.865   8.479   0.510  1.00 20.00     0.029 C 
ENDBRANCH   3   4
ENDBRANCH   2   3
ENDBRANCH   1   2
BRANCH   1   6
HETATM    6  C7  UNL     1     -34.581   5.410   4.547  1.00 20.00     0.053 C 
HETATM    7  C3  UNL     1     -34.004   4.129   3.948  1.00 20.00     0.041 C 
HETATM    8  C4  UNL     1     -34.769   5.260   6.057  1.00 20.00     0.041 C 
HETATM    9  C5  UNL     1     -35.905   5.778   3.876  1.00 20.00     0.041 C 
ENDBRANCH   1   6
TORSDOF 4
ENDMDL
MODEL 3
REMARK VINA RESULT:      -3.7     11.028     12.024
REMARK  4 active torsions:
REMARK  status: ('A' for Active; 'I' for Inactive)
REMARK    1  A    between atoms: C1_1  and  N8_8 
REMARK    2  A    between atoms: C1_1  and  N9_9 
REMARK    3  A    between atoms: C6_6  and  N8_8 
REMARK    4  A    between atoms: C7_7  and  N9_9 
ROOT
HETATM    1  N9  UNL     1     -33.619   6.514   4.314  1.00 20.00    -0.220 NA
ENDROOT
BRANCH   1   2
HETATM    2  C1  UNL     1     -33.227   6.578   3.210  1.00 20.00     0.091 C 
BRANCH   2   3
HETATM    3  N8  UNL     1     -32.834   6.663   2.107  1.00 20.00    -0.231 NA
BRANCH   3   4
HETATM    4  C6  UNL     1     -32.230   7.956   1.776  1.00 20.00     0.156 C 
HETATM    5  C2  UNL     1     -32.857   8.483   0.503  1.00 20.00     0.029 C 
ENDBRANCH   3   4
ENDBRANCH   2   3
ENDBRANCH   1   2
BRANCH   1   6
HETATM    6  C7  UNL     1     -34.574   5.422   4.552  1.00 20.00     0.053 C 
HETATM    7  C3  UNL     1     -35.899   5.784   3.884  1.00 20.00     0.041 C 
HETATM    8  C4  UNL     1     -33.992   4.149   3.937  1.00 20.00     0.041 C 
HETATM    9  C5  UNL     1     -34.752   5.256   6.061  1.00 20.00     0.041 C 
ENDBRANCH   1   6
TORSDOF 4
ENDMDL
MODEL 4
REMARK VINA RESULT:      -3.7     11.026     12.022
REMARK  4 active torsions:
REMARK  status: ('A' for Active; 'I' for Inactive)
REMARK    1  A    between atoms: C1_1  and  N8_8 
REMARK    2  A    between atoms: C1_1  and  N9_9 
REMARK    3  A    between atoms: C6_6  and  N8_8 
REMARK    4  A    between atoms: C7_7  and  N9_9 
ROOT
HETATM    1  N9  UNL     1     -33.640   6.529   4.286  1.00 20.00    -0.220 NA
ENDROOT
BRANCH   1   2
HETATM    2  C1  UNL     1     -33.236   6.570   3.186  1.00 20.00     0.091 C 
BRANCH   2   3
HETATM    3  N8  UNL     1     -32.823   6.630   2.088  1.00 20.00    -0.231 NA
BRANCH   3   4
HETATM    4  C6  UNL     1     -32.171   7.898   1.753  1.00 20.00     0.156 C 
HETATM    5  C2  UNL     1     -32.901   8.536   0.589  1.00 20.00     0.029 C 
ENDBRANCH   3   4
ENDBRANCH   2   3
ENDBRANCH   1   2
BRANCH   1   6
HETATM    6  C7  UNL     1     -34.572   5.424   4.546  1.00 20.00     0.053 C 
HETATM    7  C3  UNL     1     -34.743   5.280   6.057  1.00 20.00     0.041 C 
HETATM    8  C4  UNL     1     -35.906   5.772   3.886  1.00 20.00     0.041 C 
HETATM    9  C5  UNL     1     -33.990   4.147   3.939  1.00 20.00     0.041 C 
ENDBRANCH   1   6
TORSDOF 4
ENDMDL
MODEL 5
REMARK VINA RESULT:      -3.5      1.494      2.611
REMARK  4 active torsions:
REMARK  status: ('A' for Active; 'I' for Inactive)
REMARK    1  A    between atoms: C1_1  and  N8_8 
REMARK    2  A    between atoms: C1_1  and  N9_9 
REMARK    3  A    between atoms: C6_6  and  N8_8 
REMARK    4  A    between atoms: C7_7  and  N9_9 
ROOT
HETATM    1  N9  UNL     1     -33.494  15.221  -3.718  1.00 20.00    -0.220 NA
ENDROOT
BRANCH   1   2
HETATM    2  C1  UNL     1     -34.300  14.401  -3.949  1.00 20.00     0.091 C 
BRANCH   2   3
HETATM    3  N8  UNL     1     -35.098  13.567  -4.166  1.00 20.00    -0.231 NA
BRANCH   3   4
HETATM    4  C6  UNL     1     -36.135  13.953  -5.126  1.00 20.00     0.156 C 
HETATM    5  C2  UNL     1     -37.365  14.407  -4.368  1.00 20.00     0.029 C 
ENDBRANCH   3   4
ENDBRANCH   2   3
ENDBRANCH   1   2
BRANCH   1   6
HETATM    6  C7  UNL     1     -34.035  16.445  -3.111  1.00 20.00     0.053 C 
HETATM    7  C3  UNL     1     -34.771  17.235  -4.191  1.00 20.00     0.041 C 
HETATM    8  C4  UNL     1     -34.997  16.030  -1.999  1.00 20.00     0.041 C 
HETATM    9  C5  UNL     1     -32.871  17.256  -2.540  1.00 20.00     0.041 C 
ENDBRANCH   1   6
TORSDOF 4
ENDMDL
MODEL 6
REMARK VINA RESULT:      -3.5     18.845     19.731
REMARK  4 active torsions:
REMARK  status: ('A' for Active; 'I' for Inactive)
REMARK    1  A    between atoms: C1_1  and  N8_8 
REMARK    2  A    between atoms: C1_1  and  N9_9 
REMARK    3  A    between atoms: C6_6  and  N8_8 
REMARK    4  A    between atoms: C7_7  and  N9_9 
ROOT
HETATM    1  N9  UNL     1     -24.479  17.284  10.279  1.00 20.00    -0.220 NA
ENDROOT
BRANCH   1   2
HETATM    2  C1  UNL     1     -23.807  18.074   9.731  1.00 20.00     0.091 C 
BRANCH   2   3
HETATM    3  N8  UNL     1     -23.125  18.871   9.201  1.00 20.00    -0.231 NA
BRANCH   3   4
HETATM    4  C6  UNL     1     -21.727  18.465   9.045  1.00 20.00     0.156 C 
HETATM    5  C2  UNL     1     -21.643  17.370   8.002  1.00 20.00     0.029 C 
ENDBRANCH   3   4
ENDBRANCH   2   3
ENDBRANCH   1   2
BRANCH   1   6
HETATM    6  C7  UNL     1     -24.642  17.526  11.719  1.00 20.00     0.053 C 
HETATM    7  C3  UNL     1     -25.522  18.761  11.905  1.00 20.00     0.041 C 
HETATM    8  C4  UNL     1     -25.310  16.293  12.328  1.00 20.00     0.041 C 
HETATM    9  C5  UNL     1     -23.258  17.745  12.332  1.00 20.00     0.041 C 
ENDBRANCH   1   6
TORSDOF 4
ENDMDL
MODEL 7
REMARK VINA RESULT:      -3.4      2.547      3.465
REMARK  4 active torsions:
REMARK  status: ('A' for Active; 'I' for Inactive)
REMARK    1  A    between atoms: C1_1  and  N8_8 
REMARK    2  A    between atoms: C1_1  and  N9_9 
REMARK    3  A    between atoms: C6_6  and  N8_8 
REMARK    4  A    between atoms: C7_7  and  N9_9 
ROOT
HETATM    1  N9  UNL     1     -32.956  15.681  -3.648  1.00 20.00    -0.220 NA
ENDROOT
BRANCH   1   2
HETATM    2  C1  UNL     1     -33.566  14.951  -4.335  1.00 20.00     0.091 C 
BRANCH   2   3
HETATM    3  N8  UNL     1     -34.171  14.204  -5.010  1.00 20.00    -0.231 NA
BRANCH   3   4
HETATM    4  C6  UNL     1     -34.906  14.837  -6.107  1.00 20.00     0.156 C 
HETATM    5  C2  UNL     1     -33.932  15.208  -7.206  1.00 20.00     0.029 C 
ENDBRANCH   3   4
ENDBRANCH   2   3
ENDBRANCH   1   2
BRANCH   1   6
HETATM    6  C7  UNL     1     -33.775  16.690  -2.963  1.00 20.00     0.053 C 
HETATM    7  C3  UNL     1     -34.905  15.976  -2.225  1.00 20.00     0.041 C 
HETATM    8  C4  UNL     1     -32.874  17.433  -1.977  1.00 20.00     0.041 C 
HETATM    9  C5  UNL     1     -34.331  17.654  -4.012  1.00 20.00     0.041 C 
ENDBRANCH   1   6
TORSDOF 4
ENDMDL
MODEL 8
REMARK VINA RESULT:      -3.4      1.874      3.077
REMARK  4 active torsions:
REMARK  status: ('A' for Active; 'I' for Inactive)
REMARK    1  A    between atoms: C1_1  and  N8_8 
REMARK    2  A    between atoms: C1_1  and  N9_9 
REMARK    3  A    between atoms: C6_6  and  N8_8 
REMARK    4  A    between atoms: C7_7  and  N9_9 
ROOT
HETATM    1  N9  UNL     1     -35.993  14.930  -4.122  1.00 20.00    -0.220 NA
ENDROOT
BRANCH   1   2
HETATM    2  C1  UNL     1     -35.907  14.501  -5.210  1.00 20.00     0.091 C 
BRANCH   2   3
HETATM    3  N8  UNL     1     -35.814  14.053  -6.292  1.00 20.00    -0.231 NA
BRANCH   3   4
HETATM    4  C6  UNL     1     -35.705  15.054  -7.356  1.00 20.00     0.156 C 
HETATM    5  C2  UNL     1     -34.241  15.279  -7.675  1.00 20.00     0.029 C 
ENDBRANCH   3   4
ENDBRANCH   2   3
ENDBRANCH   1   2
BRANCH   1   6
HETATM    6  C7  UNL     1     -34.832  15.721  -3.692  1.00 20.00     0.053 C 
HETATM    7  C3  UNL     1     -34.850  17.053  -4.440  1.00 20.00     0.041 C 
HETATM    8  C4  UNL     1     -34.953  15.950  -2.185  1.00 20.00     0.041 C 
HETATM    9  C5  UNL     1     -33.563  14.931  -4.014  1.00 20.00     0.041 C 
ENDBRANCH   1   6
TORSDOF 4
ENDMDL
MODEL 9
REMARK VINA RESULT:      -3.2      2.070      2.812
REMARK  4 active torsions:
REMARK  status: ('A' for Active; 'I' for Inactive)
REMARK    1  A    between atoms: C1_1  and  N8_8 
REMARK    2  A    between atoms: C1_1  and  N9_9 
REMARK    3  A    between atoms: C6_6  and  N8_8 
REMARK    4  A    between atoms: C7_7  and  N9_9 
ROOT
HETATM    1  N9  UNL     1     -34.473  17.193  -4.294  1.00 20.00    -0.220 NA
ENDROOT
BRANCH   1   2
HETATM    2  C1  UNL     1     -35.350  16.603  -4.803  1.00 20.00     0.091 C 
BRANCH   2   3
HETATM    3  N8  UNL     1     -36.235  16.031  -5.322  1.00 20.00    -0.231 NA
BRANCH   3   4
HETATM    4  C6  UNL     1     -35.893  14.689  -5.799  1.00 20.00     0.156 C 
HETATM    5  C2  UNL     1     -36.279  13.676  -4.741  1.00 20.00     0.029 C 
ENDBRANCH   3   4
ENDBRANCH   2   3
ENDBRANCH   1   2
BRANCH   1   6
HETATM    6  C7  UNL     1     -33.818  16.470  -3.195  1.00 20.00     0.053 C 
HETATM    7  C3  UNL     1     -34.898  15.957  -2.243  1.00 20.00     0.041 C 
HETATM    8  C4  UNL     1     -33.038  15.303  -3.801  1.00 20.00     0.041 C 
HETATM    9  C5  UNL     1     -32.872  17.434  -2.478  1.00 20.00     0.041 C 
ENDBRANCH   1   6
TORSDOF 4
ENDMDL
