MODEL 1
REMARK VINA RESULT:      -3.0      0.000      0.000
REMARK  0 active torsions:
REMARK  status: ('A' for Active; 'I' for Inactive)
ROOT
HETATM    1  C1  UNL     1     -21.511  18.045  10.136  1.00 20.00     0.345 C 
HETATM    2  C2  UNL     1     -22.611  17.668  12.271  1.00 20.00     0.345 C 
HETATM    3  C3  UNL     1     -24.120  17.177  10.023  1.00 20.00     0.151 C 
HETATM    4  N4  UNL     1     -21.380  17.535  11.498  1.00 20.00     0.101 N 
HETATM    5  S5  UNL     1     -22.583  17.032   9.074  1.00 20.00    -0.129 SA
HETATM    6  S6  UNL     1     -23.947  16.566  11.719  1.00 20.00    -0.129 SA
HETATM    7  H13 UNL     1     -21.104  16.554  11.468  1.00 20.00     0.317 HD
ENDROOT
TORSDOF 0
ENDMDL
MODEL 2
REMARK VINA RESULT:      -3.0      1.987      3.016
REMARK  0 active torsions:
REMARK  status: ('A' for Active; 'I' for Inactive)
ROOT
HETATM    1  C1  UNL     1     -24.438  16.495  11.012  1.00 20.00     0.345 C 
HETATM    2  C2  UNL     1     -22.849  17.012   9.247  1.00 20.00     0.345 C 
HETATM    3  C3  UNL     1     -24.893  18.818   9.609  1.00 20.00     0.151 C 
HETATM    4  N4  UNL     1     -23.038  16.497  10.600  1.00 20.00     0.101 N 
HETATM    5  S5  UNL     1     -25.126  18.156  11.279  1.00 20.00    -0.129 SA
HETATM    6  S6  UNL     1     -23.157  18.796   9.091  1.00 20.00    -0.129 SA
HETATM    7  H13 UNL     1     -22.492  17.058  11.254  1.00 20.00     0.317 HD
ENDROOT
TORSDOF 0
ENDMDL
MODEL 3
REMARK VINA RESULT:      -2.9      1.880      1.880
REMARK  0 active torsions:
REMARK  status: ('A' for Active; 'I' for Inactive)
ROOT
HETATM    1  C1  UNL     1     -22.953  18.123   9.935  1.00 20.00     0.345 C 
HETATM    2  C2  UNL     1     -23.418  16.668  11.827  1.00 20.00     0.345 C 
HETATM    3  C3  UNL     1     -25.374  18.496  11.189  1.00 20.00     0.151 C 
HETATM    4  N4  UNL     1     -22.854  16.774  10.484  1.00 20.00     0.101 N 
HETATM    5  S5  UNL     1     -24.652  18.628   9.532  1.00 20.00    -0.129 SA
HETATM    6  S6  UNL     1     -25.228  16.826  11.876  1.00 20.00    -0.129 SA
HETATM    7  H13 UNL     1     -23.332  16.120   9.864  1.00 20.00     0.317 HD
ENDROOT
TORSDOF 0
ENDMDL
MODEL 4
REMARK VINA RESULT:      -2.9      2.166      2.634
REMARK  0 active torsions:
REMARK  status: ('A' for Active; 'I' for Inactive)
ROOT
HETATM    1  C1  UNL     1     -22.431  17.855  10.382  1.00 20.00     0.345 C 
HETATM    2  C2  UNL     1     -24.689  18.482   9.735  1.00 20.00     0.345 C 
HETATM    3  C3  UNL     1     -24.427  17.228  12.170  1.00 20.00     0.151 C 
HETATM    4  N4  UNL     1     -23.281  18.865   9.759  1.00 20.00     0.101 N 
HETATM    5  S5  UNL     1     -22.677  17.696  12.176  1.00 20.00    -0.129 SA
HETATM    6  S6  UNL     1     -25.474  18.473  11.375  1.00 20.00    -0.129 SA
HETATM    7  H13 UNL     1     -23.179  19.749  10.258  1.00 20.00     0.317 HD
ENDROOT
TORSDOF 0
ENDMDL
MODEL 5
REMARK VINA RESULT:      -2.9      2.878      3.263
REMARK  0 active torsions:
REMARK  status: ('A' for Active; 'I' for Inactive)
ROOT
HETATM    1  C1  UNL     1     -24.500  15.939  11.629  1.00 20.00     0.345 C 
HETATM    2  C2  UNL     1     -26.077  17.651  12.332  1.00 20.00     0.345 C 
HETATM    3  C3  UNL     1     -24.130  18.445  10.556  1.00 20.00     0.151 C 
HETATM    4  N4  UNL     1     -25.890  16.257  11.942  1.00 20.00     0.101 N 
HETATM    5  S5  UNL     1     -23.899  16.708  10.096  1.00 20.00    -0.129 SA
HETATM    6  S6  UNL     1     -25.852  18.830  10.967  1.00 20.00    -0.129 SA
HETATM    7  H13 UNL     1     -26.476  16.051  11.133  1.00 20.00     0.317 HD
ENDROOT
TORSDOF 0
ENDMDL
MODEL 6
REMARK VINA RESULT:      -2.9      2.345      2.686
REMARK  0 active torsions:
REMARK  status: ('A' for Active; 'I' for Inactive)
ROOT
HETATM    1  C1  UNL     1     -24.833  18.785   9.476  1.00 20.00     0.345 C 
HETATM    2  C2  UNL     1     -24.935  18.084  11.802  1.00 20.00     0.345 C 
HETATM    3  C3  UNL     1     -22.657  17.390  10.422  1.00 20.00     0.151 C 
HETATM    4  N4  UNL     1     -25.220  19.142  10.838  1.00 20.00     0.101 N 
HETATM    5  S5  UNL     1     -23.035  18.697   9.224  1.00 20.00    -0.129 SA
HETATM    6  S6  UNL     1     -23.161  17.828  12.106  1.00 20.00    -0.129 SA
HETATM    7  H13 UNL     1     -24.733  19.994  11.116  1.00 20.00     0.317 HD
ENDROOT
TORSDOF 0
ENDMDL
MODEL 7
REMARK VINA RESULT:      -2.8      2.531      3.605
REMARK  0 active torsions:
REMARK  status: ('A' for Active; 'I' for Inactive)
ROOT
HETATM    1  C1  UNL     1     -25.834  18.536  11.631  1.00 20.00     0.345 C 
HETATM    2  C2  UNL     1     -24.287  18.520   9.755  1.00 20.00     0.345 C 
HETATM    3  C3  UNL     1     -23.757  16.736  11.782  1.00 20.00     0.151 C 
HETATM    4  N4  UNL     1     -25.679  18.621  10.182  1.00 20.00     0.101 N 
HETATM    5  S5  UNL     1     -25.484  16.886  12.309  1.00 20.00    -0.129 SA
HETATM    6  S6  UNL     1     -23.568  16.867   9.986  1.00 20.00    -0.129 SA
HETATM    7  H13 UNL     1     -26.223  17.881   9.739  1.00 20.00     0.317 HD
ENDROOT
TORSDOF 0
ENDMDL
MODEL 8
REMARK VINA RESULT:      -2.8      2.175      3.427
REMARK  0 active torsions:
REMARK  status: ('A' for Active; 'I' for Inactive)
ROOT
HETATM    1  C1  UNL     1     -25.428  18.530  11.088  1.00 20.00     0.345 C 
HETATM    2  C2  UNL     1     -23.755  18.696   9.333  1.00 20.00     0.345 C 
HETATM    3  C3  UNL     1     -22.859  17.840  11.789  1.00 20.00     0.151 C 
HETATM    4  N4  UNL     1     -25.122  18.316   9.677  1.00 20.00     0.101 N 
HETATM    5  S5  UNL     1     -24.563  17.389  12.208  1.00 20.00    -0.129 SA
HETATM    6  S6  UNL     1     -22.489  17.595  10.033  1.00 20.00    -0.129 SA
HETATM    7  H13 UNL     1     -25.269  17.335   9.443  1.00 20.00     0.317 HD
ENDROOT
TORSDOF 0
ENDMDL
MODEL 9
REMARK VINA RESULT:      -2.8     16.655     17.079
REMARK  0 active torsions:
REMARK  status: ('A' for Active; 'I' for Inactive)
ROOT
HETATM    1  C1  UNL     1     -33.196   6.935   3.585  1.00 20.00     0.345 C 
HETATM    2  C2  UNL     1     -34.041   6.912   5.864  1.00 20.00     0.345 C 
HETATM    3  C3  UNL     1     -35.057   4.995   4.171  1.00 20.00     0.151 C 
HETATM    4  N4  UNL     1     -32.876   7.084   5.001  1.00 20.00     0.101 N 
HETATM    5  S5  UNL     1     -33.613   5.233   3.102  1.00 20.00    -0.129 SA
HETATM    6  S6  UNL     1     -34.661   5.204   5.926  1.00 20.00    -0.129 SA
HETATM    7  H13 UNL     1     -32.160   6.406   5.260  1.00 20.00     0.317 HD
ENDROOT
TORSDOF 0
ENDMDL
