MODEL 1
REMARK VINA RESULT:      -4.6      0.000      0.000
REMARK  2 active torsions:
REMARK  status: ('A' for Active; 'I' for Inactive)
REMARK    1  A    between atoms: C1_1  and  C3_3 
REMARK    2  A    between atoms: C2_2  and  C5_5 
ROOT
HETATM    1  C1  UNL     1     -33.747   6.792   5.512  1.00 20.00     0.003 C 
HETATM    2  C2  UNL     1     -34.459   5.720   5.875  1.00 20.00     0.041 C 
ENDROOT
BRANCH   1   3
HETATM    3  C3  UNL     1     -33.641   7.231   4.138  1.00 20.00    -0.004 C 
HETATM    4  C4  UNL     1     -32.587   6.947   3.357  1.00 20.00    -0.031 C 
HETATM    5  C6  UNL     1     -32.466   7.395   1.938  1.00 20.00     0.036 C 
ENDBRANCH   1   3
BRANCH   2   6
HETATM    6  C5  UNL     1     -35.170   4.947   4.837  1.00 20.00     0.258 C 
HETATM    7  O7  UNL     1     -34.636   4.020   4.242  1.00 20.00    -0.302 OA
ENDBRANCH   2   6
TORSDOF 2
ENDMDL
MODEL 2
REMARK VINA RESULT:      -4.3      1.597      1.963
REMARK  2 active torsions:
REMARK  status: ('A' for Active; 'I' for Inactive)
REMARK    1  A    between atoms: C1_1  and  C3_3 
REMARK    2  A    between atoms: C2_2  and  C5_5 
ROOT
HETATM    1  C1  UNL     1     -34.370   4.704   3.922  1.00 20.00     0.003 C 
HETATM    2  C2  UNL     1     -34.670   4.742   5.225  1.00 20.00     0.041 C 
ENDROOT
BRANCH   1   3
HETATM    3  C3  UNL     1     -34.057   5.891   3.157  1.00 20.00    -0.004 C 
HETATM    4  C4  UNL     1     -32.822   6.175   2.717  1.00 20.00    -0.031 C 
HETATM    5  C6  UNL     1     -32.487   7.397   1.928  1.00 20.00     0.036 C 
ENDBRANCH   1   3
BRANCH   2   6
HETATM    6  C5  UNL     1     -34.683   6.045   5.920  1.00 20.00     0.258 C 
HETATM    7  O7  UNL     1     -33.650   6.637   6.203  1.00 20.00    -0.302 OA
ENDBRANCH   2   6
TORSDOF 2
ENDMDL
MODEL 3
REMARK VINA RESULT:      -4.1     11.693     12.142
REMARK  2 active torsions:
REMARK  status: ('A' for Active; 'I' for Inactive)
REMARK    1  A    between atoms: C1_1  and  C3_3 
REMARK    2  A    between atoms: C2_2  and  C5_5 
ROOT
HETATM    1  C1  UNL     1     -34.859  14.069  -3.885  1.00 20.00     0.003 C 
HETATM    2  C2  UNL     1     -35.958  13.673  -4.536  1.00 20.00     0.041 C 
ENDROOT
BRANCH   1   3
HETATM    3  C3  UNL     1     -34.836  15.232  -3.026  1.00 20.00    -0.004 C 
HETATM    4  C4  UNL     1     -33.746  15.995  -2.852  1.00 20.00    -0.031 C 
HETATM    5  C6  UNL     1     -33.710  17.197  -1.967  1.00 20.00     0.036 C 
ENDBRANCH   1   3
BRANCH   2   6
HETATM    6  C5  UNL     1     -37.205  14.449  -4.376  1.00 20.00     0.258 C 
HETATM    7  O7  UNL     1     -38.303  13.909  -4.341  1.00 20.00    -0.302 OA
ENDBRANCH   2   6
TORSDOF 2
ENDMDL
MODEL 4
REMARK VINA RESULT:      -4.0     11.668     11.975
REMARK  2 active torsions:
REMARK  status: ('A' for Active; 'I' for Inactive)
REMARK    1  A    between atoms: C1_1  and  C3_3 
REMARK    2  A    between atoms: C2_2  and  C5_5 
ROOT
HETATM    1  C1  UNL     1     -34.026  15.397  -3.359  1.00 20.00     0.003 C 
HETATM    2  C2  UNL     1     -34.339  14.469  -4.270  1.00 20.00     0.041 C 
ENDROOT
BRANCH   1   3
HETATM    3  C3  UNL     1     -34.953  15.834  -2.338  1.00 20.00    -0.004 C 
HETATM    4  C4  UNL     1     -34.682  16.825  -1.476  1.00 20.00    -0.031 C 
HETATM    5  C6  UNL     1     -35.630  17.284  -0.417  1.00 20.00     0.036 C 
ENDBRANCH   1   3
BRANCH   2   6
HETATM    6  C5  UNL     1     -35.683  13.859  -4.239  1.00 20.00     0.258 C 
HETATM    7  O7  UNL     1     -35.864  12.679  -4.511  1.00 20.00    -0.302 OA
ENDBRANCH   2   6
TORSDOF 2
ENDMDL
MODEL 5
REMARK VINA RESULT:      -4.0      1.490      2.034
REMARK  2 active torsions:
REMARK  status: ('A' for Active; 'I' for Inactive)
REMARK    1  A    between atoms: C1_1  and  C3_3 
REMARK    2  A    between atoms: C2_2  and  C5_5 
ROOT
HETATM    1  C1  UNL     1     -33.326   4.909   2.863  1.00 20.00     0.003 C 
HETATM    2  C2  UNL     1     -34.206   4.392   3.728  1.00 20.00     0.041 C 
ENDROOT
BRANCH   1   3
HETATM    3  C3  UNL     1     -33.105   6.332   2.729  1.00 20.00    -0.004 C 
HETATM    4  C4  UNL     1     -32.747   6.913   1.575  1.00 20.00    -0.031 C 
HETATM    5  C6  UNL     1     -32.515   8.381   1.425  1.00 20.00     0.036 C 
ENDBRANCH   1   3
BRANCH   2   6
HETATM    6  C5  UNL     1     -34.987   5.304   4.586  1.00 20.00     0.258 C 
HETATM    7  O7  UNL     1     -34.949   5.234   5.808  1.00 20.00    -0.302 OA
ENDBRANCH   2   6
TORSDOF 2
ENDMDL
MODEL 6
REMARK VINA RESULT:      -4.0      2.349      4.057
REMARK  2 active torsions:
REMARK  status: ('A' for Active; 'I' for Inactive)
REMARK    1  A    between atoms: C1_1  and  C3_3 
REMARK    2  A    between atoms: C2_2  and  C5_5 
ROOT
HETATM    1  C1  UNL     1     -33.762   4.898   2.803  1.00 20.00     0.003 C 
HETATM    2  C2  UNL     1     -32.867   5.597   2.096  1.00 20.00     0.041 C 
ENDROOT
BRANCH   1   3
HETATM    3  C3  UNL     1     -34.456   5.449   3.947  1.00 20.00    -0.004 C 
HETATM    4  C4  UNL     1     -34.424   4.888   5.165  1.00 20.00    -0.031 C 
HETATM    5  C6  UNL     1     -35.137   5.446   6.352  1.00 20.00     0.036 C 
ENDBRANCH   1   3
BRANCH   2   6
HETATM    6  C5  UNL     1     -32.570   6.988   2.491  1.00 20.00     0.258 C 
HETATM    7  O7  UNL     1     -32.587   7.908   1.683  1.00 20.00    -0.302 OA
ENDBRANCH   2   6
TORSDOF 2
ENDMDL
MODEL 7
REMARK VINA RESULT:      -3.7      2.713      4.364
REMARK  2 active torsions:
REMARK  status: ('A' for Active; 'I' for Inactive)
REMARK    1  A    between atoms: C1_1  and  C3_3 
REMARK    2  A    between atoms: C2_2  and  C5_5 
ROOT
HETATM    1  C1  UNL     1     -32.166   7.113   2.852  1.00 20.00     0.003 C 
HETATM    2  C2  UNL     1     -32.089   7.995   1.849  1.00 20.00     0.041 C 
ENDROOT
BRANCH   1   3
HETATM    3  C3  UNL     1     -33.313   6.255   3.051  1.00 20.00    -0.004 C 
HETATM    4  C4  UNL     1     -34.022   6.231   4.189  1.00 20.00    -0.031 C 
HETATM    5  C6  UNL     1     -35.207   5.349   4.407  1.00 20.00     0.036 C 
ENDBRANCH   1   3
BRANCH   2   6
HETATM    6  C5  UNL     1     -33.217   8.104   0.903  1.00 20.00     0.258 C 
HETATM    7  O7  UNL     1     -33.196   8.884  -0.041  1.00 20.00    -0.302 OA
ENDBRANCH   2   6
TORSDOF 2
ENDMDL
MODEL 8
REMARK VINA RESULT:      -3.6     11.843     12.414
REMARK  2 active torsions:
REMARK  status: ('A' for Active; 'I' for Inactive)
REMARK    1  A    between atoms: C1_1  and  C3_3 
REMARK    2  A    between atoms: C2_2  and  C5_5 
ROOT
HETATM    1  C1  UNL     1     -34.666  15.842  -2.473  1.00 20.00     0.003 C 
HETATM    2  C2  UNL     1     -34.870  14.920  -3.421  1.00 20.00     0.041 C 
ENDROOT
BRANCH   1   3
HETATM    3  C3  UNL     1     -33.474  16.658  -2.420  1.00 20.00    -0.004 C 
HETATM    4  C4  UNL     1     -33.287  17.626  -1.510  1.00 20.00    -0.031 C 
HETATM    5  C6  UNL     1     -32.061  18.476  -1.446  1.00 20.00     0.036 C 
ENDBRANCH   1   3
BRANCH   2   6
HETATM    6  C5  UNL     1     -33.841  14.723  -4.461  1.00 20.00     0.258 C 
HETATM    7  O7  UNL     1     -33.156  13.709  -4.509  1.00 20.00    -0.302 OA
ENDBRANCH   2   6
TORSDOF 2
ENDMDL
MODEL 9
REMARK VINA RESULT:      -3.5     12.394     13.006
REMARK  2 active torsions:
REMARK  status: ('A' for Active; 'I' for Inactive)
REMARK    1  A    between atoms: C1_1  and  C3_3 
REMARK    2  A    between atoms: C2_2  and  C5_5 
ROOT
HETATM    1  C1  UNL     1     -33.886  17.444  -1.303  1.00 20.00     0.003 C 
HETATM    2  C2  UNL     1     -33.054  18.298  -0.696  1.00 20.00     0.041 C 
ENDROOT
BRANCH   1   3
HETATM    3  C3  UNL     1     -33.507  16.683  -2.474  1.00 20.00    -0.004 C 
HETATM    4  C4  UNL     1     -34.197  15.620  -2.913  1.00 20.00    -0.031 C 
HETATM    5  C6  UNL     1     -33.815  14.827  -4.119  1.00 20.00     0.036 C 
ENDBRANCH   1   3
BRANCH   2   6
HETATM    6  C5  UNL     1     -31.692  18.477  -1.236  1.00 20.00     0.258 C 
HETATM    7  O7  UNL     1     -30.698  18.390  -0.526  1.00 20.00    -0.302 OA
ENDBRANCH   2   6
TORSDOF 2
ENDMDL
