MODEL 1
REMARK VINA RESULT:      -4.3      0.000      0.000
REMARK  0 active torsions:
REMARK  status: ('A' for Active; 'I' for Inactive)
ROOT
HETATM    1  C1  UNL     1     -35.765  13.991  -4.566  1.00 20.00     0.129 C 
HETATM    2  C2  UNL     1     -34.671  14.653  -5.390  1.00 20.00     0.093 C 
HETATM    3  C3  UNL     1     -36.758  14.877  -3.831  1.00 20.00     0.093 C 
HETATM    4  C4  UNL     1     -33.676  15.729  -3.312  1.00 20.00     0.017 C 
HETATM    5  C5  UNL     1     -34.906  15.859  -2.394  1.00 20.00     0.017 C 
HETATM    6  C6  UNL     1     -34.108  15.933  -4.768  1.00 20.00     0.054 C 
HETATM    7  C7  UNL     1     -36.146  16.150  -3.244  1.00 20.00     0.054 C 
HETATM    8  O8  UNL     1     -35.908  12.767  -4.582  1.00 20.00    -0.298 OA
HETATM    9  S9  UNL     1     -35.447  17.129  -4.591  1.00 20.00    -0.159 SA
ENDROOT
TORSDOF 0
ENDMDL
MODEL 2
REMARK VINA RESULT:      -4.1      0.911      1.241
REMARK  0 active torsions:
REMARK  status: ('A' for Active; 'I' for Inactive)
ROOT
HETATM    1  C1  UNL     1     -35.528  13.932  -4.508  1.00 20.00     0.129 C 
HETATM    2  C2  UNL     1     -34.097  14.208  -4.068  1.00 20.00     0.093 C 
HETATM    3  C3  UNL     1     -36.332  15.068  -5.120  1.00 20.00     0.093 C 
HETATM    4  C4  UNL     1     -34.894  15.891  -2.337  1.00 20.00     0.017 C 
HETATM    5  C5  UNL     1     -36.210  16.396  -2.956  1.00 20.00     0.017 C 
HETATM    6  C6  UNL     1     -33.889  15.594  -3.455  1.00 20.00     0.054 C 
HETATM    7  C7  UNL     1     -36.072  16.433  -4.482  1.00 20.00     0.054 C 
HETATM    8  O8  UNL     1     -35.986  12.788  -4.469  1.00 20.00    -0.298 OA
HETATM    9  S9  UNL     1     -34.326  16.842  -4.683  1.00 20.00    -0.159 SA
ENDROOT
TORSDOF 0
ENDMDL
MODEL 3
REMARK VINA RESULT:      -4.1     18.141     18.815
REMARK  0 active torsions:
REMARK  status: ('A' for Active; 'I' for Inactive)
ROOT
HETATM    1  C1  UNL     1     -25.043  18.856  10.053  1.00 20.00     0.129 C 
HETATM    2  C2  UNL     1     -23.613  18.492   9.682  1.00 20.00     0.093 C 
HETATM    3  C3  UNL     1     -25.441  18.835  11.520  1.00 20.00     0.093 C 
HETATM    4  C4  UNL     1     -23.919  16.134  10.583  1.00 20.00     0.017 C 
HETATM    5  C5  UNL     1     -24.997  16.336  11.664  1.00 20.00     0.017 C 
HETATM    6  C6  UNL     1     -23.014  17.369  10.531  1.00 20.00     0.054 C 
HETATM    7  C7  UNL     1     -24.801  17.704  12.326  1.00 20.00     0.054 C 
HETATM    8  O8  UNL     1     -25.829  19.263   9.195  1.00 20.00    -0.298 OA
HETATM    9  S9  UNL     1     -23.006  17.891  12.259  1.00 20.00    -0.159 SA
ENDROOT
TORSDOF 0
ENDMDL
MODEL 4
REMARK VINA RESULT:      -4.0     10.500     11.655
REMARK  0 active torsions:
REMARK  status: ('A' for Active; 'I' for Inactive)
ROOT
HETATM    1  C1  UNL     1     -41.941   8.705  -0.054  1.00 20.00     0.129 C 
HETATM    2  C2  UNL     1     -43.310   8.168   0.334  1.00 20.00     0.093 C 
HETATM    3  C3  UNL     1     -41.173   8.004  -1.165  1.00 20.00     0.093 C 
HETATM    4  C4  UNL     1     -42.296   5.960   1.084  1.00 20.00     0.017 C 
HETATM    5  C5  UNL     1     -41.037   5.865   0.203  1.00 20.00     0.017 C 
HETATM    6  C6  UNL     1     -43.417   6.642   0.294  1.00 20.00     0.054 C 
HETATM    7  C7  UNL     1     -41.329   6.483  -1.168  1.00 20.00     0.054 C 
HETATM    8  O8  UNL     1     -41.512   9.747   0.444  1.00 20.00    -0.298 OA
HETATM    9  S9  UNL     1     -43.075   6.081  -1.387  1.00 20.00    -0.159 SA
ENDROOT
TORSDOF 0
ENDMDL
MODEL 5
REMARK VINA RESULT:      -3.9      1.357      2.574
REMARK  0 active torsions:
REMARK  status: ('A' for Active; 'I' for Inactive)
ROOT
HETATM    1  C1  UNL     1     -35.789  13.704  -4.416  1.00 20.00     0.129 C 
HETATM    2  C2  UNL     1     -36.946  14.616  -4.796  1.00 20.00     0.093 C 
HETATM    3  C3  UNL     1     -34.446  14.335  -4.080  1.00 20.00     0.093 C 
HETATM    4  C4  UNL     1     -35.702  15.431  -6.857  1.00 20.00     0.017 C 
HETATM    5  C5  UNL     1     -34.230  15.265  -6.436  1.00 20.00     0.017 C 
HETATM    6  C6  UNL     1     -36.538  15.827  -5.636  1.00 20.00     0.054 C 
HETATM    7  C7  UNL     1     -34.096  15.552  -4.937  1.00 20.00     0.054 C 
HETATM    8  O8  UNL     1     -35.964  12.492  -4.277  1.00 20.00    -0.298 OA
HETATM    9  S9  UNL     1     -35.361  16.817  -4.691  1.00 20.00    -0.159 SA
ENDROOT
TORSDOF 0
ENDMDL
MODEL 6
REMARK VINA RESULT:      -3.9      1.483      2.407
REMARK  0 active torsions:
REMARK  status: ('A' for Active; 'I' for Inactive)
ROOT
HETATM    1  C1  UNL     1     -36.498  14.329  -4.174  1.00 20.00     0.129 C 
HETATM    2  C2  UNL     1     -36.578  15.808  -3.825  1.00 20.00     0.093 C 
HETATM    3  C3  UNL     1     -35.174  13.607  -3.980  1.00 20.00     0.093 C 
HETATM    4  C4  UNL     1     -34.874  16.383  -5.622  1.00 20.00     0.017 C 
HETATM    5  C5  UNL     1     -34.049  15.086  -5.714  1.00 20.00     0.017 C 
HETATM    6  C6  UNL     1     -35.316  16.600  -4.171  1.00 20.00     0.054 C 
HETATM    7  C7  UNL     1     -33.946  14.450  -4.324  1.00 20.00     0.054 C 
HETATM    8  O8  UNL     1     -37.511  13.707  -4.502  1.00 20.00    -0.298 OA
HETATM    9  S9  UNL     1     -33.926  15.905  -3.255  1.00 20.00    -0.159 SA
ENDROOT
TORSDOF 0
ENDMDL
MODEL 7
REMARK VINA RESULT:      -3.8     10.607     11.628
REMARK  0 active torsions:
REMARK  status: ('A' for Active; 'I' for Inactive)
ROOT
HETATM    1  C1  UNL     1     -41.521   5.460  -0.926  1.00 20.00     0.129 C 
HETATM    2  C2  UNL     1     -42.929   5.763  -1.418  1.00 20.00     0.093 C 
HETATM    3  C3  UNL     1     -41.082   6.025   0.417  1.00 20.00     0.093 C 
HETATM    4  C4  UNL     1     -42.418   8.252  -1.521  1.00 20.00     0.017 C 
HETATM    5  C5  UNL     1     -41.330   8.405  -0.442  1.00 20.00     0.017 C 
HETATM    6  C6  UNL     1     -43.416   7.175  -1.084  1.00 20.00     0.054 C 
HETATM    7  C7  UNL     1     -41.612   7.430   0.706  1.00 20.00     0.054 C 
HETATM    8  O8  UNL     1     -40.793   4.685  -1.548  1.00 20.00    -0.298 OA
HETATM    9  S9  UNL     1     -43.416   7.379   0.709  1.00 20.00    -0.159 SA
ENDROOT
TORSDOF 0
ENDMDL
MODEL 8
REMARK VINA RESULT:      -3.7     10.713     11.519
REMARK  0 active torsions:
REMARK  status: ('A' for Active; 'I' for Inactive)
ROOT
HETATM    1  C1  UNL     1     -41.834   8.786   0.394  1.00 20.00     0.129 C 
HETATM    2  C2  UNL     1     -40.793   7.789   0.882  1.00 20.00     0.093 C 
HETATM    3  C3  UNL     1     -43.274   8.320   0.247  1.00 20.00     0.093 C 
HETATM    4  C4  UNL     1     -41.147   6.328  -1.168  1.00 20.00     0.017 C 
HETATM    5  C5  UNL     1     -42.607   6.642  -1.543  1.00 20.00     0.017 C 
HETATM    6  C6  UNL     1     -40.995   6.367   0.356  1.00 20.00     0.054 C 
HETATM    7  C7  UNL     1     -43.417   6.887  -0.266  1.00 20.00     0.054 C 
HETATM    8  O8  UNL     1     -41.537   9.971   0.226  1.00 20.00    -0.298 OA
HETATM    9  S9  UNL     1     -42.609   5.772   0.902  1.00 20.00    -0.159 SA
ENDROOT
TORSDOF 0
ENDMDL
MODEL 9
REMARK VINA RESULT:      -3.7      1.676      2.068
REMARK  0 active torsions:
REMARK  status: ('A' for Active; 'I' for Inactive)
ROOT
HETATM    1  C1  UNL     1     -34.311  15.192  -5.116  1.00 20.00     0.129 C 
HETATM    2  C2  UNL     1     -34.846  16.566  -5.496  1.00 20.00     0.093 C 
HETATM    3  C3  UNL     1     -34.581  14.670  -3.713  1.00 20.00     0.093 C 
HETATM    4  C4  UNL     1     -33.391  17.682  -3.735  1.00 20.00     0.017 C 
HETATM    5  C5  UNL     1     -33.233  16.565  -2.687  1.00 20.00     0.017 C 
HETATM    6  C6  UNL     1     -34.784  17.594  -4.365  1.00 20.00     0.054 C 
HETATM    7  C7  UNL     1     -34.524  15.742  -2.625  1.00 20.00     0.054 C 
HETATM    8  O8  UNL     1     -33.767  14.476  -5.959  1.00 20.00    -0.298 OA
HETATM    9  S9  UNL     1     -35.775  16.994  -2.981  1.00 20.00    -0.159 SA
ENDROOT
TORSDOF 0
ENDMDL
