MODEL 1
REMARK VINA RESULT:      -4.3      0.000      0.000
REMARK  3 active torsions:
REMARK  status: ('A' for Active; 'I' for Inactive)
REMARK    1  A    between atoms: C1_1  and  C2_2 
REMARK    2  A    between atoms: C4_4  and  C6_6 
REMARK    3  A    between atoms: C6_6  and  O7_7 
ROOT
HETATM    1  C2  UNL     1     -33.710   6.287   3.417  1.00 20.00    -0.002 C 
HETATM    2  C4  UNL     1     -32.881   6.358   2.365  1.00 20.00    -0.001 C 
ENDROOT
BRANCH   1   3
HETATM    3  C1  UNL     1     -34.424   5.084   3.782  1.00 20.00    -0.005 C 
HETATM    4  C3  UNL     1     -34.859   4.840   5.027  1.00 20.00    -0.031 C 
HETATM    5  C5  UNL     1     -34.658   5.775   6.174  1.00 20.00     0.036 C 
ENDBRANCH   1   3
BRANCH   2   6
HETATM    6  C6  UNL     1     -32.136   7.596   1.982  1.00 20.00     0.191 C 
BRANCH   6   7
HETATM    7  O7  UNL     1     -32.829   8.272   0.942  1.00 20.00    -0.397 OA
HETATM    8  H17 UNL     1     -33.438   8.894   1.369  1.00 20.00     0.209 HD
ENDBRANCH   6   7
ENDBRANCH   2   6
TORSDOF 3
ENDMDL
MODEL 2
REMARK VINA RESULT:      -4.0      0.904      1.102
REMARK  3 active torsions:
REMARK  status: ('A' for Active; 'I' for Inactive)
REMARK    1  A    between atoms: C1_1  and  C2_2 
REMARK    2  A    between atoms: C4_4  and  C6_6 
REMARK    3  A    between atoms: C6_6  and  O7_7 
ROOT
HETATM    1  C2  UNL     1     -34.458   5.617   3.441  1.00 20.00    -0.002 C 
HETATM    2  C4  UNL     1     -33.189   5.626   3.006  1.00 20.00    -0.001 C 
ENDROOT
BRANCH   1   3
HETATM    3  C1  UNL     1     -34.891   4.868   4.599  1.00 20.00    -0.005 C 
HETATM    4  C3  UNL     1     -34.755   5.316   5.856  1.00 20.00    -0.031 C 
HETATM    5  C5  UNL     1     -34.144   6.634   6.203  1.00 20.00     0.036 C 
ENDBRANCH   1   3
BRANCH   2   6
HETATM    6  C6  UNL     1     -32.730   6.401   1.812  1.00 20.00     0.191 C 
BRANCH   6   7
HETATM    7  O7  UNL     1     -32.586   7.772   2.157  1.00 20.00    -0.397 OA
HETATM    8  H17 UNL     1     -32.847   8.286   1.377  1.00 20.00     0.209 HD
ENDBRANCH   6   7
ENDBRANCH   2   6
TORSDOF 3
ENDMDL
MODEL 3
REMARK VINA RESULT:      -4.0      2.448      4.438
REMARK  3 active torsions:
REMARK  status: ('A' for Active; 'I' for Inactive)
REMARK    1  A    between atoms: C1_1  and  C2_2 
REMARK    2  A    between atoms: C4_4  and  C6_6 
REMARK    3  A    between atoms: C6_6  and  O7_7 
ROOT
HETATM    1  C2  UNL     1     -33.135   6.972   3.109  1.00 20.00    -0.002 C 
HETATM    2  C4  UNL     1     -33.748   5.848   3.511  1.00 20.00    -0.001 C 
ENDROOT
BRANCH   1   3
HETATM    3  C1  UNL     1     -32.210   7.014   1.999  1.00 20.00    -0.005 C 
HETATM    4  C3  UNL     1     -32.250   7.960   1.049  1.00 20.00    -0.031 C 
HETATM    5  C5  UNL     1     -33.247   9.072   1.026  1.00 20.00     0.036 C 
ENDBRANCH   1   3
BRANCH   2   6
HETATM    6  C6  UNL     1     -34.709   5.795   4.655  1.00 20.00     0.191 C 
BRANCH   6   7
HETATM    7  O7  UNL     1     -35.410   4.559   4.636  1.00 20.00    -0.397 OA
HETATM    8  H17 UNL     1     -35.819   4.483   3.759  1.00 20.00     0.209 HD
ENDBRANCH   6   7
ENDBRANCH   2   6
TORSDOF 3
ENDMDL
MODEL 4
REMARK VINA RESULT:      -3.9     11.092     11.573
REMARK  3 active torsions:
REMARK  status: ('A' for Active; 'I' for Inactive)
REMARK    1  A    between atoms: C1_1  and  C2_2 
REMARK    2  A    between atoms: C4_4  and  C6_6 
REMARK    3  A    between atoms: C6_6  and  O7_7 
ROOT
HETATM    1  C2  UNL     1     -34.564  14.794  -3.453  1.00 20.00    -0.002 C 
HETATM    2  C4  UNL     1     -35.403  14.806  -4.499  1.00 20.00    -0.001 C 
ENDROOT
BRANCH   1   3
HETATM    3  C1  UNL     1     -33.633  15.864  -3.173  1.00 20.00    -0.005 C 
HETATM    4  C3  UNL     1     -33.823  16.763  -2.196  1.00 20.00    -0.031 C 
HETATM    5  C5  UNL     1     -35.010  16.762  -1.289  1.00 20.00     0.036 C 
ENDBRANCH   1   3
BRANCH   2   6
HETATM    6  C6  UNL     1     -36.372  13.706  -4.795  1.00 20.00     0.191 C 
BRANCH   6   7
HETATM    7  O7  UNL     1     -35.894  12.485  -4.247  1.00 20.00    -0.397 OA
HETATM    8  H17 UNL     1     -34.983  12.373  -4.563  1.00 20.00     0.209 HD
ENDBRANCH   6   7
ENDBRANCH   2   6
TORSDOF 3
ENDMDL
MODEL 5
REMARK VINA RESULT:      -3.7     11.175     11.485
REMARK  3 active torsions:
REMARK  status: ('A' for Active; 'I' for Inactive)
REMARK    1  A    between atoms: C1_1  and  C2_2 
REMARK    2  A    between atoms: C4_4  and  C6_6 
REMARK    3  A    between atoms: C6_6  and  O7_7 
ROOT
HETATM    1  C2  UNL     1     -34.093  15.992  -2.706  1.00 20.00    -0.002 C 
HETATM    2  C4  UNL     1     -34.095  14.931  -3.527  1.00 20.00    -0.001 C 
ENDROOT
BRANCH   1   3
HETATM    3  C1  UNL     1     -35.156  16.265  -1.765  1.00 20.00    -0.005 C 
HETATM    4  C3  UNL     1     -35.041  17.153  -0.767  1.00 20.00    -0.031 C 
HETATM    5  C5  UNL     1     -33.808  17.958  -0.512  1.00 20.00     0.036 C 
ENDBRANCH   1   3
BRANCH   2   6
HETATM    6  C6  UNL     1     -32.998  14.638  -4.500  1.00 20.00     0.191 C 
BRANCH   6   7
HETATM    7  O7  UNL     1     -32.677  13.254  -4.459  1.00 20.00    -0.397 OA
HETATM    8  H17 UNL     1     -32.155  13.064  -5.254  1.00 20.00     0.209 HD
ENDBRANCH   6   7
ENDBRANCH   2   6
TORSDOF 3
ENDMDL
MODEL 6
REMARK VINA RESULT:      -3.6     11.563     12.378
REMARK  3 active torsions:
REMARK  status: ('A' for Active; 'I' for Inactive)
REMARK    1  A    between atoms: C1_1  and  C2_2 
REMARK    2  A    between atoms: C4_4  and  C6_6 
REMARK    3  A    between atoms: C6_6  and  O7_7 
ROOT
HETATM    1  C2  UNL     1     -33.184  17.191  -2.262  1.00 20.00    -0.002 C 
HETATM    2  C4  UNL     1     -32.862  17.922  -1.184  1.00 20.00    -0.001 C 
ENDROOT
BRANCH   1   3
HETATM    3  C1  UNL     1     -34.295  16.267  -2.288  1.00 20.00    -0.005 C 
HETATM    4  C3  UNL     1     -34.378  15.245  -3.152  1.00 20.00    -0.031 C 
HETATM    5  C5  UNL     1     -33.338  14.944  -4.182  1.00 20.00     0.036 C 
ENDBRANCH   1   3
BRANCH   2   6
HETATM    6  C6  UNL     1     -31.718  18.883  -1.149  1.00 20.00     0.191 C 
BRANCH   6   7
HETATM    7  O7  UNL     1     -30.593  18.269  -0.533  1.00 20.00    -0.397 OA
HETATM    8  H17 UNL     1     -29.844  18.874  -0.651  1.00 20.00     0.209 HD
ENDBRANCH   6   7
ENDBRANCH   2   6
TORSDOF 3
ENDMDL
MODEL 7
REMARK VINA RESULT:      -3.6     11.499     12.040
REMARK  3 active torsions:
REMARK  status: ('A' for Active; 'I' for Inactive)
REMARK    1  A    between atoms: C1_1  and  C2_2 
REMARK    2  A    between atoms: C4_4  and  C6_6 
REMARK    3  A    between atoms: C6_6  and  O7_7 
ROOT
HETATM    1  C2  UNL     1     -33.463  16.218  -2.851  1.00 20.00    -0.002 C 
HETATM    2  C4  UNL     1     -34.086  15.231  -3.513  1.00 20.00    -0.001 C 
ENDROOT
BRANCH   1   3
HETATM    3  C1  UNL     1     -34.087  16.974  -1.788  1.00 20.00    -0.005 C 
HETATM    4  C3  UNL     1     -33.435  17.897  -1.065  1.00 20.00    -0.031 C 
HETATM    5  C5  UNL     1     -31.998  18.248  -1.272  1.00 20.00     0.036 C 
ENDBRANCH   1   3
BRANCH   2   6
HETATM    6  C6  UNL     1     -33.448  14.440  -4.610  1.00 20.00     0.191 C 
BRANCH   6   7
HETATM    7  O7  UNL     1     -32.034  14.544  -4.516  1.00 20.00    -0.397 OA
HETATM    8  H17 UNL     1     -31.693  13.642  -4.409  1.00 20.00     0.209 HD
ENDBRANCH   6   7
ENDBRANCH   2   6
TORSDOF 3
ENDMDL
MODEL 8
REMARK VINA RESULT:      -3.6     11.505     12.127
REMARK  3 active torsions:
REMARK  status: ('A' for Active; 'I' for Inactive)
REMARK    1  A    between atoms: C1_1  and  C2_2 
REMARK    2  A    between atoms: C4_4  and  C6_6 
REMARK    3  A    between atoms: C6_6  and  O7_7 
ROOT
HETATM    1  C2  UNL     1     -34.292  15.295  -3.567  1.00 20.00    -0.002 C 
HETATM    2  C4  UNL     1     -34.784  15.564  -4.785  1.00 20.00    -0.001 C 
ENDROOT
BRANCH   1   3
HETATM    3  C1  UNL     1     -34.824  15.874  -2.354  1.00 20.00    -0.005 C 
HETATM    4  C3  UNL     1     -34.212  16.862  -1.685  1.00 20.00    -0.031 C 
HETATM    5  C5  UNL     1     -32.918  17.475  -2.111  1.00 20.00     0.036 C 
ENDBRANCH   1   3
BRANCH   2   6
HETATM    6  C6  UNL     1     -34.243  14.966  -6.045  1.00 20.00     0.191 C 
BRANCH   6   7
HETATM    7  O7  UNL     1     -32.939  14.451  -5.811  1.00 20.00    -0.397 OA
HETATM    8  H17 UNL     1     -32.538  15.006  -5.123  1.00 20.00     0.209 HD
ENDBRANCH   6   7
ENDBRANCH   2   6
TORSDOF 3
ENDMDL
MODEL 9
REMARK VINA RESULT:      -3.6      8.849      9.357
REMARK  3 active torsions:
REMARK  status: ('A' for Active; 'I' for Inactive)
REMARK    1  A    between atoms: C1_1  and  C2_2 
REMARK    2  A    between atoms: C4_4  and  C6_6 
REMARK    3  A    between atoms: C6_6  and  O7_7 
ROOT
HETATM    1  C2  UNL     1     -41.490   6.922  -0.093  1.00 20.00    -0.002 C 
HETATM    2  C4  UNL     1     -41.335   8.208  -0.440  1.00 20.00    -0.001 C 
ENDROOT
BRANCH   1   3
HETATM    3  C1  UNL     1     -40.854   5.830  -0.795  1.00 20.00    -0.005 C 
HETATM    4  C3  UNL     1     -41.537   4.911  -1.494  1.00 20.00    -0.031 C 
HETATM    5  C5  UNL     1     -43.025   4.909  -1.626  1.00 20.00     0.036 C 
ENDBRANCH   1   3
BRANCH   2   6
HETATM    6  C6  UNL     1     -41.985   9.344   0.283  1.00 20.00     0.191 C 
BRANCH   6   7
HETATM    7  O7  UNL     1     -41.050  10.400   0.456  1.00 20.00    -0.397 OA
HETATM    8  H17 UNL     1     -40.578  10.497  -0.386  1.00 20.00     0.209 HD
ENDBRANCH   6   7
ENDBRANCH   2   6
TORSDOF 3
ENDMDL
