MODEL 1
REMARK VINA RESULT:      -4.6      0.000      0.000
REMARK  1 active torsions:
REMARK  status: ('A' for Active; 'I' for Inactive)
REMARK    1  A    between atoms: C6_6  and  C10_10 
ROOT
HETATM    1  C1  UNL     1     -35.507  15.842  -2.498  1.00 20.00     0.053 C 
HETATM    2  C2  UNL     1     -34.873  15.116  -3.431  1.00 20.00    -0.080 C 
HETATM    3  C3  UNL     1     -34.789  16.891  -1.729  1.00 20.00     0.154 C 
HETATM    4  C4  UNL     1     -33.432  15.346  -3.808  1.00 20.00     0.034 C 
HETATM    5  C5  UNL     1     -32.920  16.718  -3.375  1.00 20.00     0.017 C 
HETATM    6  C6  UNL     1     -33.281  17.011  -1.919  1.00 20.00     0.063 C 
HETATM    7  C7  UNL     1     -35.571  14.009  -4.166  1.00 20.00     0.043 C 
HETATM    8  O11 UNL     1     -35.416  17.577  -0.925  1.00 20.00    -0.293 OA
ENDROOT
BRANCH   6   9
HETATM    9  C10 UNL     1     -32.784  18.395  -1.512  1.00 20.00    -0.011 C 
HETATM   10  C8  UNL     1     -31.511  18.285  -0.676  1.00 20.00     0.010 C 
HETATM   11  C9  UNL     1     -32.542  19.263  -2.745  1.00 20.00     0.010 C 
ENDBRANCH   6   9
TORSDOF 1
ENDMDL
MODEL 2
REMARK VINA RESULT:      -4.4      2.006      4.850
REMARK  1 active torsions:
REMARK  status: ('A' for Active; 'I' for Inactive)
REMARK    1  A    between atoms: C6_6  and  C10_10 
ROOT
HETATM    1  C1  UNL     1     -32.976  15.884  -3.362  1.00 20.00     0.053 C 
HETATM    2  C2  UNL     1     -33.475  16.736  -2.454  1.00 20.00    -0.080 C 
HETATM    3  C3  UNL     1     -33.854  14.902  -4.049  1.00 20.00     0.154 C 
HETATM    4  C4  UNL     1     -34.942  16.806  -2.116  1.00 20.00     0.034 C 
HETATM    5  C5  UNL     1     -35.826  16.164  -3.183  1.00 20.00     0.017 C 
HETATM    6  C6  UNL     1     -35.300  14.786  -3.582  1.00 20.00     0.063 C 
HETATM    7  C7  UNL     1     -32.586  17.687  -1.706  1.00 20.00     0.043 C 
HETATM    8  O11 UNL     1     -33.374  14.176  -4.918  1.00 20.00    -0.293 OA
ENDROOT
BRANCH   6   9
HETATM    9  C10 UNL     1     -36.180  14.170  -4.667  1.00 20.00    -0.011 C 
HETATM   10  C8  UNL     1     -37.656  14.274  -4.284  1.00 20.00     0.010 C 
HETATM   11  C9  UNL     1     -35.927  14.848  -6.012  1.00 20.00     0.010 C 
ENDBRANCH   6   9
TORSDOF 1
ENDMDL
MODEL 3
REMARK VINA RESULT:      -4.3      1.903      4.583
REMARK  1 active torsions:
REMARK  status: ('A' for Active; 'I' for Inactive)
REMARK    1  A    between atoms: C6_6  and  C10_10 
ROOT
HETATM    1  C1  UNL     1     -33.068  16.777  -2.344  1.00 20.00     0.053 C 
HETATM    2  C2  UNL     1     -33.996  17.294  -1.524  1.00 20.00    -0.080 C 
HETATM    3  C3  UNL     1     -33.431  15.753  -3.357  1.00 20.00     0.154 C 
HETATM    4  C4  UNL     1     -35.456  16.931  -1.608  1.00 20.00     0.034 C 
HETATM    5  C5  UNL     1     -35.832  16.299  -2.947  1.00 20.00     0.017 C 
HETATM    6  C6  UNL     1     -34.849  15.195  -3.334  1.00 20.00     0.063 C 
HETATM    7  C7  UNL     1     -33.628  18.280  -0.453  1.00 20.00     0.043 C 
HETATM    8  O11 UNL     1     -32.567  15.345  -4.131  1.00 20.00    -0.293 OA
ENDROOT
BRANCH   6   9
HETATM    9  C10 UNL     1     -35.225  14.593  -4.685  1.00 20.00    -0.011 C 
HETATM   10  C8  UNL     1     -36.303  13.523  -4.515  1.00 20.00     0.010 C 
HETATM   11  C9  UNL     1     -35.698  15.682  -5.645  1.00 20.00     0.010 C 
ENDBRANCH   6   9
TORSDOF 1
ENDMDL
MODEL 4
REMARK VINA RESULT:      -4.3      2.839      4.368
REMARK  1 active torsions:
REMARK  status: ('A' for Active; 'I' for Inactive)
REMARK    1  A    between atoms: C6_6  and  C10_10 
ROOT
HETATM    1  C1  UNL     1     -37.978  14.258  -4.470  1.00 20.00     0.053 C 
HETATM    2  C2  UNL     1     -38.519  15.476  -4.310  1.00 20.00    -0.080 C 
HETATM    3  C3  UNL     1     -36.511  14.054  -4.350  1.00 20.00     0.154 C 
HETATM    4  C4  UNL     1     -37.707  16.691  -3.944  1.00 20.00     0.034 C 
HETATM    5  C5  UNL     1     -36.346  16.335  -3.349  1.00 20.00     0.017 C 
HETATM    6  C6  UNL     1     -35.628  15.286  -4.198  1.00 20.00     0.063 C 
HETATM    7  C7  UNL     1     -39.991  15.705  -4.495  1.00 20.00     0.043 C 
HETATM    8  O11 UNL     1     -36.057  12.915  -4.442  1.00 20.00    -0.293 OA
ENDROOT
BRANCH   6   9
HETATM    9  C10 UNL     1     -34.282  14.924  -3.575  1.00 20.00    -0.011 C 
HETATM   10  C8  UNL     1     -33.239  14.667  -4.662  1.00 20.00     0.010 C 
HETATM   11  C9  UNL     1     -33.811  16.030  -2.632  1.00 20.00     0.010 C 
ENDBRANCH   6   9
TORSDOF 1
ENDMDL
MODEL 5
REMARK VINA RESULT:      -4.2      1.819      2.802
REMARK  1 active torsions:
REMARK  status: ('A' for Active; 'I' for Inactive)
REMARK    1  A    between atoms: C6_6  and  C10_10 
ROOT
HETATM    1  C1  UNL     1     -32.917  16.524  -3.227  1.00 20.00     0.053 C 
HETATM    2  C2  UNL     1     -33.817  15.544  -3.400  1.00 20.00    -0.080 C 
HETATM    3  C3  UNL     1     -33.210  17.683  -2.345  1.00 20.00     0.154 C 
HETATM    4  C4  UNL     1     -35.140  15.512  -2.680  1.00 20.00     0.034 C 
HETATM    5  C5  UNL     1     -35.165  16.416  -1.448  1.00 20.00     0.017 C 
HETATM    6  C6  UNL     1     -34.616  17.805  -1.769  1.00 20.00     0.063 C 
HETATM    7  C7  UNL     1     -33.557  14.403  -4.340  1.00 20.00     0.043 C 
HETATM    8  O11 UNL     1     -32.339  18.531  -2.163  1.00 20.00    -0.293 OA
ENDROOT
BRANCH   6   9
HETATM    9  C10 UNL     1     -34.625  18.685  -0.522  1.00 20.00    -0.011 C 
HETATM   10  C8  UNL     1     -36.020  19.260  -0.279  1.00 20.00     0.010 C 
HETATM   11  C9  UNL     1     -34.152  17.895   0.696  1.00 20.00     0.010 C 
ENDBRANCH   6   9
TORSDOF 1
ENDMDL
MODEL 6
REMARK VINA RESULT:      -4.2     13.438     15.801
REMARK  1 active torsions:
REMARK  status: ('A' for Active; 'I' for Inactive)
REMARK    1  A    between atoms: C6_6  and  C10_10 
ROOT
HETATM    1  C1  UNL     1     -25.310  19.179   8.579  1.00 20.00     0.053 C 
HETATM    2  C2  UNL     1     -24.399  18.783   7.677  1.00 20.00    -0.080 C 
HETATM    3  C3  UNL     1     -25.288  18.648   9.967  1.00 20.00     0.154 C 
HETATM    4  C4  UNL     1     -23.272  17.840   8.010  1.00 20.00     0.034 C 
HETATM    5  C5  UNL     1     -23.008  17.742   9.512  1.00 20.00     0.017 C 
HETATM    6  C6  UNL     1     -24.305  17.529  10.290  1.00 20.00     0.063 C 
HETATM    7  C7  UNL     1     -24.451  19.262   6.256  1.00 20.00     0.043 C 
HETATM    8  O11 UNL     1     -26.101  19.077  10.784  1.00 20.00    -0.293 OA
ENDROOT
BRANCH   6   9
HETATM    9  C10 UNL     1     -24.025  17.459  11.789  1.00 20.00    -0.011 C 
HETATM   10  C8  UNL     1     -24.339  16.066  12.330  1.00 20.00     0.010 C 
HETATM   11  C9  UNL     1     -22.573  17.832  12.082  1.00 20.00     0.010 C 
ENDBRANCH   6   9
TORSDOF 1
ENDMDL
MODEL 7
REMARK VINA RESULT:      -4.2      1.159      4.249
REMARK  1 active torsions:
REMARK  status: ('A' for Active; 'I' for Inactive)
REMARK    1  A    between atoms: C6_6  and  C10_10 
ROOT
HETATM    1  C1  UNL     1     -33.685  18.110   0.327  1.00 20.00     0.053 C 
HETATM    2  C2  UNL     1     -32.526  18.483  -0.238  1.00 20.00    -0.080 C 
HETATM    3  C3  UNL     1     -34.721  17.395  -0.462  1.00 20.00     0.154 C 
HETATM    4  C4  UNL     1     -32.168  18.158  -1.664  1.00 20.00     0.034 C 
HETATM    5  C5  UNL     1     -33.011  17.022  -2.241  1.00 20.00     0.017 C 
HETATM    6  C6  UNL     1     -34.497  17.238  -1.962  1.00 20.00     0.063 C 
HETATM    7  C7  UNL     1     -31.500  19.263   0.532  1.00 20.00     0.043 C 
HETATM    8  O11 UNL     1     -35.746  17.016   0.102  1.00 20.00    -0.293 OA
ENDROOT
BRANCH   6   9
HETATM    9  C10 UNL     1     -35.321  16.082  -2.522  1.00 20.00    -0.011 C 
HETATM   10  C8  UNL     1     -36.465  16.607  -3.387  1.00 20.00     0.010 C 
HETATM   11  C9  UNL     1     -34.436  15.131  -3.325  1.00 20.00     0.010 C 
ENDBRANCH   6   9
TORSDOF 1
ENDMDL
MODEL 8
REMARK VINA RESULT:      -4.2      2.019      4.068
REMARK  1 active torsions:
REMARK  status: ('A' for Active; 'I' for Inactive)
REMARK    1  A    between atoms: C6_6  and  C10_10 
ROOT
HETATM    1  C1  UNL     1     -33.340  18.515  -0.054  1.00 20.00     0.053 C 
HETATM    2  C2  UNL     1     -34.474  18.028   0.472  1.00 20.00    -0.080 C 
HETATM    3  C3  UNL     1     -32.818  18.003  -1.347  1.00 20.00     0.154 C 
HETATM    4  C4  UNL     1     -35.321  16.993  -0.222  1.00 20.00     0.034 C 
HETATM    5  C5  UNL     1     -35.023  16.891  -1.716  1.00 20.00     0.017 C 
HETATM    6  C6  UNL     1     -33.519  16.805  -1.977  1.00 20.00     0.063 C 
HETATM    7  C7  UNL     1     -34.975  18.492   1.810  1.00 20.00     0.043 C 
HETATM    8  O11 UNL     1     -31.809  18.513  -1.829  1.00 20.00    -0.293 OA
ENDROOT
BRANCH   6   9
HETATM    9  C10 UNL     1     -33.240  16.730  -3.475  1.00 20.00    -0.011 C 
HETATM   10  C8  UNL     1     -33.273  15.280  -3.956  1.00 20.00     0.010 C 
HETATM   11  C9  UNL     1     -34.247  17.575  -4.253  1.00 20.00     0.010 C 
ENDBRANCH   6   9
TORSDOF 1
ENDMDL
MODEL 9
REMARK VINA RESULT:      -4.2      2.676      3.561
REMARK  1 active torsions:
REMARK  status: ('A' for Active; 'I' for Inactive)
REMARK    1  A    between atoms: C6_6  and  C10_10 
ROOT
HETATM    1  C1  UNL     1     -35.452  14.629  -5.942  1.00 20.00     0.053 C 
HETATM    2  C2  UNL     1     -35.762  15.759  -6.595  1.00 20.00    -0.080 C 
HETATM    3  C3  UNL     1     -34.691  14.670  -4.666  1.00 20.00     0.154 C 
HETATM    4  C4  UNL     1     -35.425  17.130  -6.066  1.00 20.00     0.034 C 
HETATM    5  C5  UNL     1     -35.122  17.127  -4.569  1.00 20.00     0.017 C 
HETATM    6  C6  UNL     1     -34.140  16.014  -4.205  1.00 20.00     0.063 C 
HETATM    7  C7  UNL     1     -36.471  15.726  -7.918  1.00 20.00     0.043 C 
HETATM    8  O11 UNL     1     -34.477  13.620  -4.064  1.00 20.00    -0.293 OA
ENDROOT
BRANCH   6   9
HETATM    9  C10 UNL     1     -33.869  16.011  -2.703  1.00 20.00    -0.011 C 
HETATM   10  C8  UNL     1     -32.891  17.124  -2.330  1.00 20.00     0.010 C 
HETATM   11  C9  UNL     1     -35.173  16.160  -1.921  1.00 20.00     0.010 C 
ENDBRANCH   6   9
TORSDOF 1
ENDMDL
