MODEL 1
REMARK VINA RESULT:      -4.5      0.000      0.000
REMARK  2 active torsions:
REMARK  status: ('A' for Active; 'I' for Inactive)
REMARK    1  A    between atoms: C4_4  and  C10_10 
REMARK    2  A    between atoms: C10_10  and  O11_11 
ROOT
HETATM    1  C1  UNL     1     -34.321  16.362  -2.916  1.00 20.00    -0.069 C 
HETATM    2  C2  UNL     1     -33.672  17.368  -2.324  1.00 20.00    -0.085 C 
HETATM    3  C3  UNL     1     -35.388  15.405  -2.427  1.00 20.00     0.043 C 
HETATM    4  C4  UNL     1     -35.663  15.164  -3.933  1.00 20.00     0.025 C 
HETATM    5  C5  UNL     1     -34.247  15.739  -4.313  1.00 20.00    -0.018 C 
HETATM    6  C6  UNL     1     -32.633  18.181  -3.045  1.00 20.00     0.043 C 
HETATM    7  C7  UNL     1     -33.934  17.759  -0.897  1.00 20.00     0.043 C 
HETATM    8  C8  UNL     1     -33.103  14.740  -4.483  1.00 20.00     0.020 C 
HETATM    9  C9  UNL     1     -34.301  16.731  -5.475  1.00 20.00     0.020 C 
ENDROOT
BRANCH   4  10
HETATM   10  C10 UNL     1     -36.007  13.735  -4.321  1.00 20.00     0.170 C 
BRANCH  10  11
HETATM   11  O11 UNL     1     -37.410  13.638  -4.504  1.00 20.00    -0.400 OA
HETATM   12  H29 UNL     1     -37.669  12.739  -4.237  1.00 20.00     0.209 HD
ENDBRANCH  10  11
ENDBRANCH   4  10
TORSDOF 2
ENDMDL
MODEL 2
REMARK VINA RESULT:      -4.4      1.055      1.154
REMARK  2 active torsions:
REMARK  status: ('A' for Active; 'I' for Inactive)
REMARK    1  A    between atoms: C4_4  and  C10_10 
REMARK    2  A    between atoms: C10_10  and  O11_11 
ROOT
HETATM    1  C1  UNL     1     -34.287  16.429  -3.678  1.00 20.00    -0.069 C 
HETATM    2  C2  UNL     1     -33.459  17.417  -3.327  1.00 20.00    -0.085 C 
HETATM    3  C3  UNL     1     -34.802  15.214  -2.935  1.00 20.00     0.043 C 
HETATM    4  C4  UNL     1     -35.915  15.201  -4.013  1.00 20.00     0.025 C 
HETATM    5  C5  UNL     1     -35.040  16.096  -4.968  1.00 20.00    -0.018 C 
HETATM    6  C6  UNL     1     -33.100  18.531  -4.271  1.00 20.00     0.043 C 
HETATM    7  C7  UNL     1     -32.829  17.486  -1.965  1.00 20.00     0.043 C 
HETATM    8  C8  UNL     1     -34.184  15.381  -6.015  1.00 20.00     0.020 C 
HETATM    9  C9  UNL     1     -35.825  17.252  -5.586  1.00 20.00     0.020 C 
ENDROOT
BRANCH   4  10
HETATM   10  C10 UNL     1     -36.358  13.827  -4.489  1.00 20.00     0.170 C 
BRANCH  10  11
HETATM   11  O11 UNL     1     -37.772  13.752  -4.411  1.00 20.00    -0.400 OA
HETATM   12  H29 UNL     1     -37.987  13.297  -3.579  1.00 20.00     0.209 HD
ENDBRANCH  10  11
ENDBRANCH   4  10
TORSDOF 2
ENDMDL
MODEL 3
REMARK VINA RESULT:      -4.3      2.196      2.853
REMARK  2 active torsions:
REMARK  status: ('A' for Active; 'I' for Inactive)
REMARK    1  A    between atoms: C4_4  and  C10_10 
REMARK    2  A    between atoms: C10_10  and  O11_11 
ROOT
HETATM    1  C1  UNL     1     -35.487  16.432  -3.732  1.00 20.00    -0.069 C 
HETATM    2  C2  UNL     1     -35.887  16.991  -2.586  1.00 20.00    -0.085 C 
HETATM    3  C3  UNL     1     -35.975  16.562  -5.159  1.00 20.00     0.043 C 
HETATM    4  C4  UNL     1     -34.587  15.985  -5.538  1.00 20.00     0.025 C 
HETATM    5  C5  UNL     1     -34.393  15.420  -4.081  1.00 20.00    -0.018 C 
HETATM    6  C6  UNL     1     -35.219  16.689  -1.274  1.00 20.00     0.043 C 
HETATM    7  C7  UNL     1     -37.033  17.962  -2.529  1.00 20.00     0.043 C 
HETATM    8  C8  UNL     1     -34.796  13.966  -3.831  1.00 20.00     0.020 C 
HETATM    9  C9  UNL     1     -33.011  15.723  -3.505  1.00 20.00     0.020 C 
ENDROOT
BRANCH   4  10
HETATM   10  C10 UNL     1     -34.571  15.021  -6.713  1.00 20.00     0.170 C 
BRANCH  10  11
HETATM   11  O11 UNL     1     -33.232  14.618  -6.953  1.00 20.00    -0.400 OA
HETATM   12  H29 UNL     1     -33.090  13.795  -6.456  1.00 20.00     0.209 HD
ENDBRANCH  10  11
ENDBRANCH   4  10
TORSDOF 2
ENDMDL
MODEL 4
REMARK VINA RESULT:      -4.3      1.362      2.465
REMARK  2 active torsions:
REMARK  status: ('A' for Active; 'I' for Inactive)
REMARK    1  A    between atoms: C4_4  and  C10_10 
REMARK    2  A    between atoms: C10_10  and  O11_11 
ROOT
HETATM    1  C1  UNL     1     -34.771  17.003  -4.606  1.00 20.00    -0.069 C 
HETATM    2  C2  UNL     1     -34.186  18.197  -4.723  1.00 20.00    -0.085 C 
HETATM    3  C3  UNL     1     -35.994  16.395  -5.261  1.00 20.00     0.043 C 
HETATM    4  C4  UNL     1     -35.384  15.040  -4.820  1.00 20.00     0.025 C 
HETATM    5  C5  UNL     1     -34.474  15.764  -3.757  1.00 20.00    -0.018 C 
HETATM    6  C6  UNL     1     -32.952  18.561  -3.944  1.00 20.00     0.043 C 
HETATM    7  C7  UNL     1     -34.717  19.262  -5.640  1.00 20.00     0.043 C 
HETATM    8  C8  UNL     1     -35.001  15.857  -2.325  1.00 20.00     0.020 C 
HETATM    9  C9  UNL     1     -33.024  15.281  -3.788  1.00 20.00     0.020 C 
ENDROOT
BRANCH   4  10
HETATM   10  C10 UNL     1     -36.377  13.990  -4.348  1.00 20.00     0.170 C 
BRANCH  10  11
HETATM   11  O11 UNL     1     -35.837  12.704  -4.606  1.00 20.00    -0.400 OA
HETATM   12  H29 UNL     1     -35.754  12.254  -3.748  1.00 20.00     0.209 HD
ENDBRANCH  10  11
ENDBRANCH   4  10
TORSDOF 2
ENDMDL
MODEL 5
REMARK VINA RESULT:      -4.2      1.814      3.585
REMARK  2 active torsions:
REMARK  status: ('A' for Active; 'I' for Inactive)
REMARK    1  A    between atoms: C4_4  and  C10_10 
REMARK    2  A    between atoms: C10_10  and  O11_11 
ROOT
HETATM    1  C1  UNL     1     -33.393  17.734  -1.104  1.00 20.00    -0.069 C 
HETATM    2  C2  UNL     1     -32.569  18.339  -0.244  1.00 20.00    -0.085 C 
HETATM    3  C3  UNL     1     -33.148  16.961  -2.383  1.00 20.00     0.043 C 
HETATM    4  C4  UNL     1     -34.572  16.395  -2.147  1.00 20.00     0.025 C 
HETATM    5  C5  UNL     1     -34.915  17.585  -1.175  1.00 20.00    -0.018 C 
HETATM    6  C6  UNL     1     -33.075  19.054   0.977  1.00 20.00     0.043 C 
HETATM    7  C7  UNL     1     -31.079  18.347  -0.436  1.00 20.00     0.043 C 
HETATM    8  C8  UNL     1     -35.626  18.800  -1.772  1.00 20.00     0.020 C 
HETATM    9  C9  UNL     1     -35.589  17.123   0.116  1.00 20.00     0.020 C 
ENDROOT
BRANCH   4  10
HETATM   10  C10 UNL     1     -35.417  16.193  -3.394  1.00 20.00     0.170 C 
BRANCH  10  11
HETATM   11  O11 UNL     1     -36.412  15.221  -3.117  1.00 20.00    -0.400 OA
HETATM   12  H29 UNL     1     -37.172  15.422  -3.691  1.00 20.00     0.209 HD
ENDBRANCH  10  11
ENDBRANCH   4  10
TORSDOF 2
ENDMDL
MODEL 6
REMARK VINA RESULT:      -4.2      1.940      2.823
REMARK  2 active torsions:
REMARK  status: ('A' for Active; 'I' for Inactive)
REMARK    1  A    between atoms: C4_4  and  C10_10 
REMARK    2  A    between atoms: C10_10  and  O11_11 
ROOT
HETATM    1  C1  UNL     1     -34.996  16.651  -2.610  1.00 20.00    -0.069 C 
HETATM    2  C2  UNL     1     -35.688  17.451  -1.795  1.00 20.00    -0.085 C 
HETATM    3  C3  UNL     1     -33.556  16.180  -2.603  1.00 20.00     0.043 C 
HETATM    4  C4  UNL     1     -34.066  15.058  -3.543  1.00 20.00     0.025 C 
HETATM    5  C5  UNL     1     -35.351  15.897  -3.895  1.00 20.00    -0.018 C 
HETATM    6  C6  UNL     1     -37.139  17.766  -2.028  1.00 20.00     0.043 C 
HETATM    7  C7  UNL     1     -35.066  18.091  -0.586  1.00 20.00     0.043 C 
HETATM    8  C8  UNL     1     -35.304  16.765  -5.152  1.00 20.00     0.020 C 
HETATM    9  C9  UNL     1     -36.635  15.071  -3.835  1.00 20.00     0.020 C 
ENDROOT
BRANCH   4  10
HETATM   10  C10 UNL     1     -33.120  14.654  -4.662  1.00 20.00     0.170 C 
BRANCH  10  11
HETATM   11  O11 UNL     1     -32.736  13.302  -4.468  1.00 20.00    -0.400 OA
HETATM   12  H29 UNL     1     -32.925  12.832  -5.298  1.00 20.00     0.209 HD
ENDBRANCH  10  11
ENDBRANCH   4  10
TORSDOF 2
ENDMDL
MODEL 7
REMARK VINA RESULT:      -4.1      2.155      3.446
REMARK  2 active torsions:
REMARK  status: ('A' for Active; 'I' for Inactive)
REMARK    1  A    between atoms: C4_4  and  C10_10 
REMARK    2  A    between atoms: C10_10  and  O11_11 
ROOT
HETATM    1  C1  UNL     1     -35.903  16.043  -3.776  1.00 20.00    -0.069 C 
HETATM    2  C2  UNL     1     -37.074  16.640  -3.537  1.00 20.00    -0.085 C 
HETATM    3  C3  UNL     1     -34.513  16.258  -3.216  1.00 20.00     0.043 C 
HETATM    4  C4  UNL     1     -34.228  14.832  -3.755  1.00 20.00     0.025 C 
HETATM    5  C5  UNL     1     -35.468  14.920  -4.721  1.00 20.00    -0.018 C 
HETATM    6  C6  UNL     1     -38.337  16.230  -4.243  1.00 20.00     0.043 C 
HETATM    7  C7  UNL     1     -37.213  17.761  -2.547  1.00 20.00     0.043 C 
HETATM    8  C8  UNL     1     -35.213  15.384  -6.155  1.00 20.00     0.020 C 
HETATM    9  C9  UNL     1     -36.337  13.663  -4.688  1.00 20.00     0.020 C 
ENDROOT
BRANCH   4  10
HETATM   10  C10 UNL     1     -32.845  14.614  -4.347  1.00 20.00     0.170 C 
BRANCH  10  11
HETATM   11  O11 UNL     1     -32.614  13.220  -4.464  1.00 20.00    -0.400 OA
HETATM   12  H29 UNL     1     -32.484  12.878  -3.563  1.00 20.00     0.209 HD
ENDBRANCH  10  11
ENDBRANCH   4  10
TORSDOF 2
ENDMDL
MODEL 8
REMARK VINA RESULT:      -4.0      2.825      4.615
REMARK  2 active torsions:
REMARK  status: ('A' for Active; 'I' for Inactive)
REMARK    1  A    between atoms: C4_4  and  C10_10 
REMARK    2  A    between atoms: C10_10  and  O11_11 
ROOT
HETATM    1  C1  UNL     1     -34.609  15.950  -3.055  1.00 20.00    -0.069 C 
HETATM    2  C2  UNL     1     -35.440  15.084  -3.641  1.00 20.00    -0.085 C 
HETATM    3  C3  UNL     1     -33.100  15.999  -2.937  1.00 20.00     0.043 C 
HETATM    4  C4  UNL     1     -33.316  17.499  -2.606  1.00 20.00     0.025 C 
HETATM    5  C5  UNL     1     -34.825  17.231  -2.245  1.00 20.00    -0.018 C 
HETATM    6  C6  UNL     1     -36.932  15.267  -3.615  1.00 20.00     0.043 C 
HETATM    7  C7  UNL     1     -34.943  13.867  -4.370  1.00 20.00     0.043 C 
HETATM    8  C8  UNL     1     -35.164  16.981  -0.775  1.00 20.00     0.020 C 
HETATM    9  C9  UNL     1     -35.776  18.250  -2.871  1.00 20.00     0.020 C 
ENDROOT
BRANCH   4  10
HETATM   10  C10 UNL     1     -32.395  18.081  -1.546  1.00 20.00     0.170 C 
BRANCH  10  11
HETATM   11  O11 UNL     1     -31.739  19.216  -2.086  1.00 20.00    -0.400 OA
HETATM   12  H29 UNL     1     -31.896  19.953  -1.471  1.00 20.00     0.209 HD
ENDBRANCH  10  11
ENDBRANCH   4  10
TORSDOF 2
ENDMDL
MODEL 9
REMARK VINA RESULT:      -3.9      1.251      1.314
REMARK  2 active torsions:
REMARK  status: ('A' for Active; 'I' for Inactive)
REMARK    1  A    between atoms: C4_4  and  C10_10 
REMARK    2  A    between atoms: C10_10  and  O11_11 
ROOT
HETATM    1  C1  UNL     1     -34.835  16.226  -2.777  1.00 20.00    -0.069 C 
HETATM    2  C2  UNL     1     -34.480  16.903  -1.681  1.00 20.00    -0.085 C 
HETATM    3  C3  UNL     1     -36.028  15.350  -3.095  1.00 20.00     0.043 C 
HETATM    4  C4  UNL     1     -35.639  15.602  -4.575  1.00 20.00     0.025 C 
HETATM    5  C5  UNL     1     -34.186  16.032  -4.149  1.00 20.00    -0.018 C 
HETATM    6  C6  UNL     1     -33.217  17.716  -1.619  1.00 20.00     0.043 C 
HETATM    7  C7  UNL     1     -35.317  16.900  -0.433  1.00 20.00     0.043 C 
HETATM    8  C8  UNL     1     -33.098  14.958  -4.171  1.00 20.00     0.020 C 
HETATM    9  C9  UNL     1     -33.719  17.313  -4.840  1.00 20.00     0.020 C 
ENDROOT
BRANCH   4  10
HETATM   10  C10 UNL     1     -35.814  14.419  -5.514  1.00 20.00     0.170 C 
BRANCH  10  11
HETATM   11  O11 UNL     1     -36.460  14.867  -6.695  1.00 20.00    -0.400 OA
HETATM   12  H29 UNL     1     -37.386  14.576  -6.639  1.00 20.00     0.209 HD
ENDBRANCH  10  11
ENDBRANCH   4  10
TORSDOF 2
ENDMDL
