MODEL 1
REMARK VINA RESULT:      -4.8      0.000      0.000
REMARK  2 active torsions:
REMARK  status: ('A' for Active; 'I' for Inactive)
REMARK    1  A    between atoms: C4_4  and  C10_10 
REMARK    2  A    between atoms: C10_10  and  O11_11 
ROOT
HETATM    1  C1  UNL     1     -34.372  16.328  -2.633  1.00 20.00    -0.069 C 
HETATM    2  C2  UNL     1     -33.770  17.233  -1.857  1.00 20.00    -0.085 C 
HETATM    3  C3  UNL     1     -35.685  15.585  -2.510  1.00 20.00     0.043 C 
HETATM    4  C4  UNL     1     -35.061  14.599  -3.532  1.00 20.00     0.025 C 
HETATM    5  C5  UNL     1     -34.004  15.681  -3.971  1.00 20.00    -0.018 C 
HETATM    6  C6  UNL     1     -32.437  17.831  -2.212  1.00 20.00     0.043 C 
HETATM    7  C7  UNL     1     -34.384  17.719  -0.574  1.00 20.00     0.043 C 
HETATM    8  C8  UNL     1     -32.584  15.120  -4.060  1.00 20.00     0.020 C 
HETATM    9  C9  UNL     1     -34.340  16.542  -5.188  1.00 20.00     0.020 C 
ENDROOT
BRANCH   4  10
HETATM   10  C10 UNL     1     -36.015  14.035  -4.574  1.00 20.00     0.170 C 
BRANCH  10  11
HETATM   11  O11 UNL     1     -35.903  12.621  -4.575  1.00 20.00    -0.400 OA
HETATM   12  H29 UNL     1     -35.936  12.333  -3.648  1.00 20.00     0.209 HD
ENDBRANCH  10  11
ENDBRANCH   4  10
TORSDOF 2
ENDMDL
MODEL 2
REMARK VINA RESULT:      -4.3      1.446      2.622
REMARK  2 active torsions:
REMARK  status: ('A' for Active; 'I' for Inactive)
REMARK    1  A    between atoms: C4_4  and  C10_10 
REMARK    2  A    between atoms: C10_10  and  O11_11 
ROOT
HETATM    1  C1  UNL     1     -34.641  16.891  -4.691  1.00 20.00    -0.069 C 
HETATM    2  C2  UNL     1     -33.968  18.043  -4.691  1.00 20.00    -0.085 C 
HETATM    3  C3  UNL     1     -35.708  16.328  -5.606  1.00 20.00     0.043 C 
HETATM    4  C4  UNL     1     -36.020  15.374  -4.423  1.00 20.00     0.025 C 
HETATM    5  C5  UNL     1     -34.605  15.653  -3.790  1.00 20.00    -0.018 C 
HETATM    6  C6  UNL     1     -32.935  18.366  -3.646  1.00 20.00     0.043 C 
HETATM    7  C7  UNL     1     -34.193  19.100  -5.736  1.00 20.00     0.043 C 
HETATM    8  C8  UNL     1     -34.672  15.933  -2.288  1.00 20.00     0.020 C 
HETATM    9  C9  UNL     1     -33.478  14.676  -4.124  1.00 20.00     0.020 C 
ENDROOT
BRANCH   4  10
HETATM   10  C10 UNL     1     -36.390  13.949  -4.804  1.00 20.00     0.170 C 
BRANCH  10  11
HETATM   11  O11 UNL     1     -37.735  13.710  -4.422  1.00 20.00    -0.400 OA
HETATM   12  H29 UNL     1     -38.284  13.859  -5.210  1.00 20.00     0.209 HD
ENDBRANCH  10  11
ENDBRANCH   4  10
TORSDOF 2
ENDMDL
MODEL 3
REMARK VINA RESULT:      -4.2      1.641      2.183
REMARK  2 active torsions:
REMARK  status: ('A' for Active; 'I' for Inactive)
REMARK    1  A    between atoms: C4_4  and  C10_10 
REMARK    2  A    between atoms: C10_10  and  O11_11 
ROOT
HETATM    1  C1  UNL     1     -34.585  17.034  -2.126  1.00 20.00    -0.069 C 
HETATM    2  C2  UNL     1     -34.845  17.728  -1.016  1.00 20.00    -0.085 C 
HETATM    3  C3  UNL     1     -34.782  15.579  -2.494  1.00 20.00     0.043 C 
HETATM    4  C4  UNL     1     -33.744  15.867  -3.610  1.00 20.00     0.025 C 
HETATM    5  C5  UNL     1     -34.005  17.415  -3.491  1.00 20.00    -0.018 C 
HETATM    6  C6  UNL     1     -34.549  19.198  -0.903  1.00 20.00     0.043 C 
HETATM    7  C7  UNL     1     -35.453  17.089   0.201  1.00 20.00     0.043 C 
HETATM    8  C8  UNL     1     -32.714  18.233  -3.450  1.00 20.00     0.020 C 
HETATM    9  C9  UNL     1     -35.026  18.033  -4.446  1.00 20.00     0.020 C 
ENDROOT
BRANCH   4  10
HETATM   10  C10 UNL     1     -33.996  15.175  -4.941  1.00 20.00     0.170 C 
BRANCH  10  11
HETATM   11  O11 UNL     1     -32.846  14.421  -5.287  1.00 20.00    -0.400 OA
HETATM   12  H29 UNL     1     -32.157  14.642  -4.640  1.00 20.00     0.209 HD
ENDBRANCH  10  11
ENDBRANCH   4  10
TORSDOF 2
ENDMDL
MODEL 4
REMARK VINA RESULT:      -4.1      1.674      2.627
REMARK  2 active torsions:
REMARK  status: ('A' for Active; 'I' for Inactive)
REMARK    1  A    between atoms: C4_4  and  C10_10 
REMARK    2  A    between atoms: C10_10  and  O11_11 
ROOT
HETATM    1  C1  UNL     1     -34.911  15.511  -3.833  1.00 20.00    -0.069 C 
HETATM    2  C2  UNL     1     -33.602  15.653  -3.612  1.00 20.00    -0.085 C 
HETATM    3  C3  UNL     1     -36.115  16.315  -3.394  1.00 20.00     0.043 C 
HETATM    4  C4  UNL     1     -36.920  15.035  -3.741  1.00 20.00     0.025 C 
HETATM    5  C5  UNL     1     -35.737  14.502  -4.634  1.00 20.00    -0.018 C 
HETATM    6  C6  UNL     1     -32.587  14.696  -4.176  1.00 20.00     0.043 C 
HETATM    7  C7  UNL     1     -33.048  16.779  -2.784  1.00 20.00     0.043 C 
HETATM    8  C8  UNL     1     -35.411  13.031  -4.372  1.00 20.00     0.020 C 
HETATM    9  C9  UNL     1     -35.796  14.800  -6.133  1.00 20.00     0.020 C 
ENDROOT
BRANCH   4  10
HETATM   10  C10 UNL     1     -38.282  15.262  -4.378  1.00 20.00     0.170 C 
BRANCH  10  11
HETATM   11  O11 UNL     1     -38.977  14.027  -4.418  1.00 20.00    -0.400 OA
HETATM   12  H29 UNL     1     -38.340  13.352  -4.704  1.00 20.00     0.209 HD
ENDBRANCH  10  11
ENDBRANCH   4  10
TORSDOF 2
ENDMDL
MODEL 5
REMARK VINA RESULT:      -4.1      1.390      2.447
REMARK  2 active torsions:
REMARK  status: ('A' for Active; 'I' for Inactive)
REMARK    1  A    between atoms: C4_4  and  C10_10 
REMARK    2  A    between atoms: C10_10  and  O11_11 
ROOT
HETATM    1  C1  UNL     1     -33.793  16.992  -4.212  1.00 20.00    -0.069 C 
HETATM    2  C2  UNL     1     -33.324  17.819  -3.275  1.00 20.00    -0.085 C 
HETATM    3  C3  UNL     1     -34.127  17.188  -5.676  1.00 20.00     0.043 C 
HETATM    4  C4  UNL     1     -34.968  15.894  -5.512  1.00 20.00     0.025 C 
HETATM    5  C5  UNL     1     -34.167  15.508  -4.212  1.00 20.00    -0.018 C 
HETATM    6  C6  UNL     1     -33.072  17.366  -1.863  1.00 20.00     0.043 C 
HETATM    7  C7  UNL     1     -33.013  19.261  -3.564  1.00 20.00     0.043 C 
HETATM    8  C8  UNL     1     -35.077  15.061  -3.066  1.00 20.00     0.020 C 
HETATM    9  C9  UNL     1     -32.973  14.568  -4.373  1.00 20.00     0.020 C 
ENDROOT
BRANCH   4  10
HETATM   10  C10 UNL     1     -34.954  14.943  -6.698  1.00 20.00     0.170 C 
BRANCH  10  11
HETATM   11  O11 UNL     1     -35.900  13.912  -6.466  1.00 20.00    -0.400 OA
HETATM   12  H29 UNL     1     -36.774  14.334  -6.427  1.00 20.00     0.209 HD
ENDBRANCH  10  11
ENDBRANCH   4  10
TORSDOF 2
ENDMDL
MODEL 6
REMARK VINA RESULT:      -4.0      1.685      2.006
REMARK  2 active torsions:
REMARK  status: ('A' for Active; 'I' for Inactive)
REMARK    1  A    between atoms: C4_4  and  C10_10 
REMARK    2  A    between atoms: C10_10  and  O11_11 
ROOT
HETATM    1  C1  UNL     1     -34.031  17.491  -1.276  1.00 20.00    -0.069 C 
HETATM    2  C2  UNL     1     -33.120  18.032  -0.464  1.00 20.00    -0.085 C 
HETATM    3  C3  UNL     1     -35.468  17.066  -1.063  1.00 20.00     0.043 C 
HETATM    4  C4  UNL     1     -35.260  16.220  -2.347  1.00 20.00     0.025 C 
HETATM    5  C5  UNL     1     -34.018  17.097  -2.755  1.00 20.00    -0.018 C 
HETATM    6  C6  UNL     1     -31.731  18.369  -0.932  1.00 20.00     0.043 C 
HETATM    7  C7  UNL     1     -33.418  18.344   0.976  1.00 20.00     0.043 C 
HETATM    8  C8  UNL     1     -32.819  16.258  -3.199  1.00 20.00     0.020 C 
HETATM    9  C9  UNL     1     -34.263  18.266  -3.710  1.00 20.00     0.020 C 
ENDROOT
BRANCH   4  10
HETATM   10  C10 UNL     1     -36.452  16.144  -3.289  1.00 20.00     0.170 C 
BRANCH  10  11
HETATM   11  O11 UNL     1     -36.732  14.780  -3.559  1.00 20.00    -0.400 OA
HETATM   12  H29 UNL     1     -36.439  14.605  -4.468  1.00 20.00     0.209 HD
ENDBRANCH  10  11
ENDBRANCH   4  10
TORSDOF 2
ENDMDL
MODEL 7
REMARK VINA RESULT:      -4.0      1.793      2.899
REMARK  2 active torsions:
REMARK  status: ('A' for Active; 'I' for Inactive)
REMARK    1  A    between atoms: C4_4  and  C10_10 
REMARK    2  A    between atoms: C10_10  and  O11_11 
ROOT
HETATM    1  C1  UNL     1     -35.456  16.484  -2.845  1.00 20.00    -0.069 C 
HETATM    2  C2  UNL     1     -36.301  17.281  -2.188  1.00 20.00    -0.085 C 
HETATM    3  C3  UNL     1     -34.068  15.974  -2.520  1.00 20.00     0.043 C 
HETATM    4  C4  UNL     1     -33.970  15.688  -4.042  1.00 20.00     0.025 C 
HETATM    5  C5  UNL     1     -35.538  15.736  -4.179  1.00 20.00    -0.018 C 
HETATM    6  C6  UNL     1     -37.653  17.642  -2.741  1.00 20.00     0.043 C 
HETATM    7  C7  UNL     1     -35.963  17.875  -0.850  1.00 20.00     0.043 C 
HETATM    8  C8  UNL     1     -36.004  16.573  -5.371  1.00 20.00     0.020 C 
HETATM    9  C9  UNL     1     -36.294  14.410  -4.100  1.00 20.00     0.020 C 
ENDROOT
BRANCH   4  10
HETATM   10  C10 UNL     1     -33.234  14.415  -4.429  1.00 20.00     0.170 C 
BRANCH  10  11
HETATM   11  O11 UNL     1     -32.928  14.468  -5.812  1.00 20.00    -0.400 OA
HETATM   12  H29 UNL     1     -33.761  14.642  -6.280  1.00 20.00     0.209 HD
ENDBRANCH  10  11
ENDBRANCH   4  10
TORSDOF 2
ENDMDL
MODEL 8
REMARK VINA RESULT:      -4.0      2.847      4.724
REMARK  2 active torsions:
REMARK  status: ('A' for Active; 'I' for Inactive)
REMARK    1  A    between atoms: C4_4  and  C10_10 
REMARK    2  A    between atoms: C10_10  and  O11_11 
ROOT
HETATM    1  C1  UNL     1     -34.003  16.312  -2.963  1.00 20.00    -0.069 C 
HETATM    2  C2  UNL     1     -34.682  15.340  -3.575  1.00 20.00    -0.085 C 
HETATM    3  C3  UNL     1     -32.547  16.723  -3.000  1.00 20.00     0.043 C 
HETATM    4  C4  UNL     1     -32.866  17.458  -1.671  1.00 20.00     0.025 C 
HETATM    5  C5  UNL     1     -34.407  17.427  -1.994  1.00 20.00    -0.018 C 
HETATM    6  C6  UNL     1     -36.158  15.141  -3.365  1.00 20.00     0.043 C 
HETATM    7  C7  UNL     1     -34.021  14.375  -4.519  1.00 20.00     0.043 C 
HETATM    8  C8  UNL     1     -35.255  16.983  -0.801  1.00 20.00     0.020 C 
HETATM    9  C9  UNL     1     -35.009  18.654  -2.678  1.00 20.00     0.020 C 
ENDROOT
BRANCH   4  10
HETATM   10  C10 UNL     1     -32.179  18.801  -1.477  1.00 20.00     0.170 C 
BRANCH  10  11
HETATM   11  O11 UNL     1     -30.926  18.584  -0.851  1.00 20.00    -0.400 OA
HETATM   12  H29 UNL     1     -30.514  17.824  -1.295  1.00 20.00     0.209 HD
ENDBRANCH  10  11
ENDBRANCH   4  10
TORSDOF 2
ENDMDL
MODEL 9
REMARK VINA RESULT:      -3.9      2.040      3.523
REMARK  2 active torsions:
REMARK  status: ('A' for Active; 'I' for Inactive)
REMARK    1  A    between atoms: C4_4  and  C10_10 
REMARK    2  A    between atoms: C10_10  and  O11_11 
ROOT
HETATM    1  C1  UNL     1     -36.107  15.956  -4.193  1.00 20.00    -0.069 C 
HETATM    2  C2  UNL     1     -37.337  16.472  -4.128  1.00 20.00    -0.085 C 
HETATM    3  C3  UNL     1     -35.469  14.945  -5.122  1.00 20.00     0.043 C 
HETATM    4  C4  UNL     1     -34.406  14.797  -4.002  1.00 20.00     0.025 C 
HETATM    5  C5  UNL     1     -34.829  16.181  -3.381  1.00 20.00    -0.018 C 
HETATM    6  C6  UNL     1     -37.725  17.484  -3.086  1.00 20.00     0.043 C 
HETATM    7  C7  UNL     1     -38.421  16.078  -5.092  1.00 20.00     0.043 C 
HETATM    8  C8  UNL     1     -34.998  16.123  -1.862  1.00 20.00     0.020 C 
HETATM    9  C9  UNL     1     -34.035  17.416  -3.806  1.00 20.00     0.020 C 
ENDROOT
BRANCH   4  10
HETATM   10  C10 UNL     1     -32.973  14.605  -4.472  1.00 20.00     0.170 C 
BRANCH  10  11
HETATM   11  O11 UNL     1     -32.653  13.225  -4.407  1.00 20.00    -0.400 OA
HETATM   12  H29 UNL     1     -32.243  13.070  -3.541  1.00 20.00     0.209 HD
ENDBRANCH  10  11
ENDBRANCH   4  10
TORSDOF 2
ENDMDL
