MODEL 1
REMARK VINA RESULT:      -4.1      0.000      0.000
REMARK  1 active torsions:
REMARK  status: ('A' for Active; 'I' for Inactive)
REMARK    1  A    between atoms: C2_2  and  C3_3 
ROOT
HETATM    1  C1  UNL     1     -33.704  16.391  -2.615  1.00 20.00     0.010 C 
HETATM    2  C2  UNL     1     -33.001  15.937  -3.660  1.00 20.00     0.074 C 
HETATM    3  C4  UNL     1     -35.071  15.857  -2.262  1.00 20.00     0.058 C 
HETATM    4  C5  UNL     1     -35.640  16.962  -1.367  1.00 20.00     0.026 C 
HETATM    5  C6  UNL     1     -34.414  17.600  -0.711  1.00 20.00     0.122 C 
HETATM    6  C8  UNL     1     -32.104  18.057  -1.583  1.00 20.00     0.149 C 
HETATM    7  N9  UNL     1     -33.376  17.380  -1.706  1.00 20.00    -0.388 N 
ENDROOT
BRANCH   2   8
HETATM    8  C3  UNL     1     -33.547  14.866  -4.534  1.00 20.00     0.147 C 
HETATM    9  C7  UNL     1     -34.285  15.315  -5.768  1.00 20.00     0.096 C 
HETATM   10  O10 UNL     1     -33.390  13.673  -4.285  1.00 20.00    -0.294 OA
ENDBRANCH   2   8
TORSDOF 1
ENDMDL
MODEL 2
REMARK VINA RESULT:      -4.0      2.904      4.127
REMARK  1 active torsions:
REMARK  status: ('A' for Active; 'I' for Inactive)
REMARK    1  A    between atoms: C2_2  and  C3_3 
ROOT
HETATM    1  C1  UNL     1     -35.450  15.142  -4.620  1.00 20.00     0.010 C 
HETATM    2  C2  UNL     1     -36.609  15.056  -5.286  1.00 20.00     0.074 C 
HETATM    3  C4  UNL     1     -35.382  15.216  -3.114  1.00 20.00     0.058 C 
HETATM    4  C5  UNL     1     -33.978  15.776  -2.871  1.00 20.00     0.026 C 
HETATM    5  C6  UNL     1     -33.156  15.299  -4.069  1.00 20.00     0.122 C 
HETATM    6  C8  UNL     1     -33.752  15.009  -6.492  1.00 20.00     0.149 C 
HETATM    7  N9  UNL     1     -34.160  15.194  -5.117  1.00 20.00    -0.388 N 
ENDROOT
BRANCH   2   8
HETATM    8  C3  UNL     1     -37.903  15.029  -4.556  1.00 20.00     0.147 C 
HETATM    9  C7  UNL     1     -38.506  16.364  -4.204  1.00 20.00     0.096 C 
HETATM   10  O10 UNL     1     -38.471  13.979  -4.269  1.00 20.00    -0.294 OA
ENDBRANCH   2   8
TORSDOF 1
ENDMDL
MODEL 3
REMARK VINA RESULT:      -3.9      2.349      3.106
REMARK  1 active torsions:
REMARK  status: ('A' for Active; 'I' for Inactive)
REMARK    1  A    between atoms: C2_2  and  C3_3 
ROOT
HETATM    1  C1  UNL     1     -34.989  15.879  -4.336  1.00 20.00     0.010 C 
HETATM    2  C2  UNL     1     -35.898  15.294  -5.125  1.00 20.00     0.074 C 
HETATM    3  C4  UNL     1     -34.661  15.366  -2.955  1.00 20.00     0.058 C 
HETATM    4  C5  UNL     1     -33.988  16.576  -2.300  1.00 20.00     0.026 C 
HETATM    5  C6  UNL     1     -33.348  17.340  -3.460  1.00 20.00     0.122 C 
HETATM    6  C8  UNL     1     -34.106  17.726  -5.823  1.00 20.00     0.149 C 
HETATM    7  N9  UNL     1     -34.219  17.003  -4.576  1.00 20.00    -0.388 N 
ENDROOT
BRANCH   2   8
HETATM    8  C3  UNL     1     -36.637  14.089  -4.666  1.00 20.00     0.147 C 
HETATM    9  C7  UNL     1     -38.052  14.305  -4.198  1.00 20.00     0.096 C 
HETATM   10  O10 UNL     1     -36.137  12.967  -4.686  1.00 20.00    -0.294 OA
ENDBRANCH   2   8
TORSDOF 1
ENDMDL
MODEL 4
REMARK VINA RESULT:      -3.9      1.858      2.758
REMARK  1 active torsions:
REMARK  status: ('A' for Active; 'I' for Inactive)
REMARK    1  A    between atoms: C2_2  and  C3_3 
ROOT
HETATM    1  C1  UNL     1     -35.454  15.857  -3.422  1.00 20.00     0.010 C 
HETATM    2  C2  UNL     1     -36.410  15.067  -3.926  1.00 20.00     0.074 C 
HETATM    3  C4  UNL     1     -33.992  15.674  -3.748  1.00 20.00     0.058 C 
HETATM    4  C5  UNL     1     -33.299  16.438  -2.616  1.00 20.00     0.026 C 
HETATM    5  C6  UNL     1     -34.294  17.530  -2.218  1.00 20.00     0.122 C 
HETATM    6  C8  UNL     1     -36.802  17.535  -2.090  1.00 20.00     0.149 C 
HETATM    7  N9  UNL     1     -35.574  16.923  -2.547  1.00 20.00    -0.388 N 
ENDROOT
BRANCH   2   8
HETATM    8  C3  UNL     1     -36.064  13.953  -4.847  1.00 20.00     0.147 C 
HETATM    9  C7  UNL     1     -35.853  14.317  -6.294  1.00 20.00     0.096 C 
HETATM   10  O10 UNL     1     -35.933  12.796  -4.456  1.00 20.00    -0.294 OA
ENDBRANCH   2   8
TORSDOF 1
ENDMDL
MODEL 5
REMARK VINA RESULT:      -3.8      1.056      2.120
REMARK  1 active torsions:
REMARK  status: ('A' for Active; 'I' for Inactive)
REMARK    1  A    between atoms: C2_2  and  C3_3 
ROOT
HETATM    1  C1  UNL     1     -34.366  16.407  -2.302  1.00 20.00     0.010 C 
HETATM    2  C2  UNL     1     -35.122  15.389  -2.731  1.00 20.00     0.074 C 
HETATM    3  C4  UNL     1     -33.172  16.914  -3.074  1.00 20.00     0.058 C 
HETATM    4  C5  UNL     1     -32.391  17.689  -2.009  1.00 20.00     0.026 C 
HETATM    5  C6  UNL     1     -33.456  18.176  -1.024  1.00 20.00     0.122 C 
HETATM    6  C8  UNL     1     -35.569  17.107  -0.189  1.00 20.00     0.149 C 
HETATM    7  N9  UNL     1     -34.485  17.155  -1.145  1.00 20.00    -0.388 N 
ENDROOT
BRANCH   2   8
HETATM    8  C3  UNL     1     -34.812  14.701  -4.011  1.00 20.00     0.147 C 
HETATM    9  C7  UNL     1     -35.483  15.241  -5.247  1.00 20.00     0.096 C 
HETATM   10  O10 UNL     1     -34.032  13.753  -4.073  1.00 20.00    -0.294 OA
ENDBRANCH   2   8
TORSDOF 1
ENDMDL
MODEL 6
REMARK VINA RESULT:      -3.8      1.862      2.717
REMARK  1 active torsions:
REMARK  status: ('A' for Active; 'I' for Inactive)
REMARK    1  A    between atoms: C2_2  and  C3_3 
ROOT
HETATM    1  C1  UNL     1     -35.661  15.977  -3.150  1.00 20.00     0.010 C 
HETATM    2  C2  UNL     1     -35.613  15.053  -4.117  1.00 20.00     0.074 C 
HETATM    3  C4  UNL     1     -34.624  16.064  -2.057  1.00 20.00     0.058 C 
HETATM    4  C5  UNL     1     -35.338  16.892  -0.984  1.00 20.00     0.026 C 
HETATM    5  C6  UNL     1     -36.313  17.777  -1.761  1.00 20.00     0.122 C 
HETATM    6  C8  UNL     1     -37.685  17.341  -3.820  1.00 20.00     0.149 C 
HETATM    7  N9  UNL     1     -36.601  16.970  -2.938  1.00 20.00    -0.388 N 
ENDROOT
BRANCH   2   8
HETATM    8  C3  UNL     1     -34.514  14.054  -4.157  1.00 20.00     0.147 C 
HETATM    9  C7  UNL     1     -33.142  14.574  -4.495  1.00 20.00     0.096 C 
HETATM   10  O10 UNL     1     -34.700  12.865  -3.906  1.00 20.00    -0.294 OA
ENDBRANCH   2   8
TORSDOF 1
ENDMDL
MODEL 7
REMARK VINA RESULT:      -3.7      2.473      3.508
REMARK  1 active torsions:
REMARK  status: ('A' for Active; 'I' for Inactive)
REMARK    1  A    between atoms: C2_2  and  C3_3 
ROOT
HETATM    1  C1  UNL     1     -35.340  15.536  -3.647  1.00 20.00     0.010 C 
HETATM    2  C2  UNL     1     -36.659  15.591  -3.423  1.00 20.00     0.074 C 
HETATM    3  C4  UNL     1     -34.750  14.876  -4.869  1.00 20.00     0.058 C 
HETATM    4  C5  UNL     1     -33.296  14.637  -4.451  1.00 20.00     0.026 C 
HETATM    5  C6  UNL     1     -32.993  15.750  -3.446  1.00 20.00     0.122 C 
HETATM    6  C8  UNL     1     -34.414  16.840  -1.685  1.00 20.00     0.149 C 
HETATM    7  N9  UNL     1     -34.302  16.015  -2.868  1.00 20.00    -0.388 N 
ENDROOT
BRANCH   2   8
HETATM    8  C3  UNL     1     -37.617  14.993  -4.389  1.00 20.00     0.147 C 
HETATM    9  C7  UNL     1     -38.244  15.933  -5.386  1.00 20.00     0.096 C 
HETATM   10  O10 UNL     1     -37.875  13.792  -4.397  1.00 20.00    -0.294 OA
ENDBRANCH   2   8
TORSDOF 1
ENDMDL
MODEL 8
REMARK VINA RESULT:      -3.7      1.282      1.356
REMARK  1 active torsions:
REMARK  status: ('A' for Active; 'I' for Inactive)
REMARK    1  A    between atoms: C2_2  and  C3_3 
ROOT
HETATM    1  C1  UNL     1     -33.712  17.005  -2.118  1.00 20.00     0.010 C 
HETATM    2  C2  UNL     1     -33.148  16.779  -3.311  1.00 20.00     0.074 C 
HETATM    3  C4  UNL     1     -35.006  16.353  -1.695  1.00 20.00     0.058 C 
HETATM    4  C5  UNL     1     -35.471  17.252  -0.545  1.00 20.00     0.026 C 
HETATM    5  C6  UNL     1     -34.182  17.818   0.053  1.00 20.00     0.122 C 
HETATM    6  C8  UNL     1     -32.022  18.530  -1.013  1.00 20.00     0.149 C 
HETATM    7  N9  UNL     1     -33.284  17.829  -1.092  1.00 20.00    -0.388 N 
ENDROOT
BRANCH   2   8
HETATM    8  C3  UNL     1     -33.785  15.859  -4.289  1.00 20.00     0.147 C 
HETATM    9  C7  UNL     1     -33.262  14.447  -4.324  1.00 20.00     0.096 C 
HETATM   10  O10 UNL     1     -34.706  16.215  -5.019  1.00 20.00    -0.294 OA
ENDBRANCH   2   8
TORSDOF 1
ENDMDL
MODEL 9
REMARK VINA RESULT:      -3.7      2.736      4.350
REMARK  1 active torsions:
REMARK  status: ('A' for Active; 'I' for Inactive)
REMARK    1  A    between atoms: C2_2  and  C3_3 
ROOT
HETATM    1  C1  UNL     1     -32.991  18.007  -2.969  1.00 20.00     0.010 C 
HETATM    2  C2  UNL     1     -32.290  18.921  -2.285  1.00 20.00     0.074 C 
HETATM    3  C4  UNL     1     -33.311  16.643  -2.407  1.00 20.00     0.058 C 
HETATM    4  C5  UNL     1     -33.660  15.839  -3.663  1.00 20.00     0.026 C 
HETATM    5  C6  UNL     1     -34.213  16.873  -4.646  1.00 20.00     0.122 C 
HETATM    6  C8  UNL     1     -33.576  19.262  -5.086  1.00 20.00     0.149 C 
HETATM    7  N9  UNL     1     -33.522  18.089  -4.243  1.00 20.00    -0.388 N 
ENDROOT
BRANCH   2   8
HETATM    8  C3  UNL     1     -31.789  18.625  -0.918  1.00 20.00     0.147 C 
HETATM    9  C7  UNL     1     -32.779  18.767   0.208  1.00 20.00     0.096 C 
HETATM   10  O10 UNL     1     -30.634  18.261  -0.708  1.00 20.00    -0.294 OA
ENDBRANCH   2   8
TORSDOF 1
ENDMDL
