MODEL 1
REMARK VINA RESULT:      -4.5      0.000      0.000
REMARK  3 active torsions:
REMARK  status: ('A' for Active; 'I' for Inactive)
REMARK    1  A    between atoms: C1_1  and  C4_4 
REMARK    2  A    between atoms: C4_4  and  C5_5 
REMARK    3  A    between atoms: N6_6  and  O7_7 
ROOT
HETATM    1  C1  UNL     1     -34.034   5.633   4.015  1.00 20.00     0.035 C 
HETATM    2  C2  UNL     1     -33.923   6.729   5.048  1.00 20.00     0.068 C 
HETATM    3  N6  UNL     1     -34.787   4.583   4.148  1.00 20.00    -0.146 NA
ENDROOT
BRANCH   1   4
HETATM    4  C4  UNL     1     -33.248   5.786   2.726  1.00 20.00     0.056 C 
BRANCH   4   5
HETATM    5  C5  UNL     1     -32.405   7.059   2.717  1.00 20.00     0.001 C 
HETATM    6  C3  UNL     1     -32.575   7.868   1.439  1.00 20.00     0.005 C 
ENDBRANCH   4   5
ENDBRANCH   1   4
BRANCH   3   7
HETATM    7  O7  UNL     1     -35.466   4.602   5.368  1.00 20.00    -0.266 OA
HETATM    8  H18 UNL     1     -34.804   5.006   5.954  1.00 20.00     0.247 HD
ENDBRANCH   3   7
TORSDOF 3
ENDMDL
MODEL 2
REMARK VINA RESULT:      -4.2      1.511      1.652
REMARK  3 active torsions:
REMARK  status: ('A' for Active; 'I' for Inactive)
REMARK    1  A    between atoms: C1_1  and  C4_4 
REMARK    2  A    between atoms: C4_4  and  C5_5 
REMARK    3  A    between atoms: N6_6  and  O7_7 
ROOT
HETATM    1  C1  UNL     1     -33.994   6.006   4.159  1.00 20.00     0.035 C 
HETATM    2  C2  UNL     1     -35.087   4.991   4.400  1.00 20.00     0.068 C 
HETATM    3  N6  UNL     1     -33.587   6.861   5.047  1.00 20.00    -0.146 NA
ENDROOT
BRANCH   1   4
HETATM    4  C4  UNL     1     -33.303   6.000   2.808  1.00 20.00     0.056 C 
BRANCH   4   5
HETATM    5  C5  UNL     1     -32.347   7.179   2.648  1.00 20.00     0.001 C 
HETATM    6  C3  UNL     1     -32.569   7.944   1.352  1.00 20.00     0.005 C 
ENDBRANCH   4   5
ENDBRANCH   1   4
BRANCH   3   7
HETATM    7  O7  UNL     1     -34.297   6.721   6.242  1.00 20.00    -0.266 OA
HETATM    8  H18 UNL     1     -33.582   6.543   6.875  1.00 20.00     0.247 HD
ENDBRANCH   3   7
TORSDOF 3
ENDMDL
MODEL 3
REMARK VINA RESULT:      -4.1      2.654      3.691
REMARK  3 active torsions:
REMARK  status: ('A' for Active; 'I' for Inactive)
REMARK    1  A    between atoms: C1_1  and  C4_4 
REMARK    2  A    between atoms: C4_4  and  C5_5 
REMARK    3  A    between atoms: N6_6  and  O7_7 
ROOT
HETATM    1  C1  UNL     1     -33.808   5.636   3.320  1.00 20.00     0.035 C 
HETATM    2  C2  UNL     1     -33.205   4.534   2.479  1.00 20.00     0.068 C 
HETATM    3  N6  UNL     1     -33.353   6.851   3.359  1.00 20.00    -0.146 NA
ENDROOT
BRANCH   1   4
HETATM    4  C4  UNL     1     -35.043   5.311   4.138  1.00 20.00     0.056 C 
BRANCH   4   5
HETATM    5  C5  UNL     1     -34.725   5.166   5.624  1.00 20.00     0.001 C 
HETATM    6  C3  UNL     1     -34.264   6.471   6.258  1.00 20.00     0.005 C 
ENDBRANCH   4   5
ENDBRANCH   1   4
BRANCH   3   7
HETATM    7  O7  UNL     1     -32.237   6.998   2.532  1.00 20.00    -0.266 OA
HETATM    8  H18 UNL     1     -32.281   7.942   2.309  1.00 20.00     0.247 HD
ENDBRANCH   3   7
TORSDOF 3
ENDMDL
MODEL 4
REMARK VINA RESULT:      -4.0     11.196     11.585
REMARK  3 active torsions:
REMARK  status: ('A' for Active; 'I' for Inactive)
REMARK    1  A    between atoms: C1_1  and  C4_4 
REMARK    2  A    between atoms: C4_4  and  C5_5 
REMARK    3  A    between atoms: N6_6  and  O7_7 
ROOT
HETATM    1  C1  UNL     1     -34.924  14.444  -3.802  1.00 20.00     0.035 C 
HETATM    2  C2  UNL     1     -36.329  14.993  -3.878  1.00 20.00     0.068 C 
HETATM    3  N6  UNL     1     -34.611  13.210  -4.057  1.00 20.00    -0.146 NA
ENDROOT
BRANCH   1   4
HETATM    4  C4  UNL     1     -33.804  15.403  -3.445  1.00 20.00     0.056 C 
BRANCH   4   5
HETATM    5  C5  UNL     1     -34.178  16.312  -2.277  1.00 20.00     0.001 C 
HETATM    6  C3  UNL     1     -33.129  17.380  -2.002  1.00 20.00     0.005 C 
ENDBRANCH   4   5
ENDBRANCH   1   4
BRANCH   3   7
HETATM    7  O7  UNL     1     -35.742  12.465  -4.399  1.00 20.00    -0.266 OA
HETATM    8  H18 UNL     1     -35.430  11.557  -4.251  1.00 20.00     0.247 HD
ENDBRANCH   3   7
TORSDOF 3
ENDMDL
MODEL 5
REMARK VINA RESULT:      -3.9     11.649     12.019
REMARK  3 active torsions:
REMARK  status: ('A' for Active; 'I' for Inactive)
REMARK    1  A    between atoms: C1_1  and  C4_4 
REMARK    2  A    between atoms: C4_4  and  C5_5 
REMARK    3  A    between atoms: N6_6  and  O7_7 
ROOT
HETATM    1  C1  UNL     1     -36.549  14.735  -4.049  1.00 20.00     0.035 C 
HETATM    2  C2  UNL     1     -37.155  16.111  -3.902  1.00 20.00     0.068 C 
HETATM    3  N6  UNL     1     -37.229  13.672  -4.356  1.00 20.00    -0.146 NA
ENDROOT
BRANCH   1   4
HETATM    4  C4  UNL     1     -35.050  14.594  -3.865  1.00 20.00     0.056 C 
BRANCH   4   5
HETATM    5  C5  UNL     1     -34.510  15.547  -2.801  1.00 20.00     0.001 C 
HETATM    6  C3  UNL     1     -33.191  16.190  -3.202  1.00 20.00     0.005 C 
ENDBRANCH   4   5
ENDBRANCH   1   4
BRANCH   3   7
HETATM    7  O7  UNL     1     -38.583  13.970  -4.521  1.00 20.00    -0.266 OA
HETATM    8  H18 UNL     1     -39.005  13.201  -4.104  1.00 20.00     0.247 HD
ENDBRANCH   3   7
TORSDOF 3
ENDMDL
MODEL 6
REMARK VINA RESULT:      -3.7      1.922      3.412
REMARK  3 active torsions:
REMARK  status: ('A' for Active; 'I' for Inactive)
REMARK    1  A    between atoms: C1_1  and  C4_4 
REMARK    2  A    between atoms: C4_4  and  C5_5 
REMARK    3  A    between atoms: N6_6  and  O7_7 
ROOT
HETATM    1  C1  UNL     1     -33.466   6.271   3.420  1.00 20.00     0.035 C 
HETATM    2  C2  UNL     1     -32.307   7.023   2.807  1.00 20.00     0.068 C 
HETATM    3  N6  UNL     1     -33.789   5.053   3.105  1.00 20.00    -0.146 NA
ENDROOT
BRANCH   1   4
HETATM    4  C4  UNL     1     -34.276   6.967   4.496  1.00 20.00     0.056 C 
BRANCH   4   5
HETATM    5  C5  UNL     1     -33.985   6.407   5.886  1.00 20.00     0.001 C 
HETATM    6  C3  UNL     1     -34.794   5.156   6.198  1.00 20.00     0.005 C 
ENDBRANCH   4   5
ENDBRANCH   1   4
BRANCH   3   7
HETATM    7  O7  UNL     1     -32.934   4.542   2.127  1.00 20.00    -0.266 OA
HETATM    8  H18 UNL     1     -33.060   5.180   1.404  1.00 20.00     0.247 HD
ENDBRANCH   3   7
TORSDOF 3
ENDMDL
MODEL 7
REMARK VINA RESULT:      -3.7     11.907     12.553
REMARK  3 active torsions:
REMARK  status: ('A' for Active; 'I' for Inactive)
REMARK    1  A    between atoms: C1_1  and  C4_4 
REMARK    2  A    between atoms: C4_4  and  C5_5 
REMARK    3  A    between atoms: N6_6  and  O7_7 
ROOT
HETATM    1  C1  UNL     1     -35.081  14.502  -5.186  1.00 20.00     0.035 C 
HETATM    2  C2  UNL     1     -34.198  15.491  -5.911  1.00 20.00     0.068 C 
HETATM    3  N6  UNL     1     -35.945  13.732  -5.775  1.00 20.00    -0.146 NA
ENDROOT
BRANCH   1   4
HETATM    4  C4  UNL     1     -34.921  14.373  -3.683  1.00 20.00     0.056 C 
BRANCH   4   5
HETATM    5  C5  UNL     1     -34.216  15.584  -3.076  1.00 20.00     0.001 C 
HETATM    6  C3  UNL     1     -34.996  16.202  -1.925  1.00 20.00     0.005 C 
ENDBRANCH   4   5
ENDBRANCH   1   4
BRANCH   3   7
HETATM    7  O7  UNL     1     -35.953  13.947  -7.155  1.00 20.00    -0.266 OA
HETATM    8  H18 UNL     1     -35.010  13.861  -7.372  1.00 20.00     0.247 HD
ENDBRANCH   3   7
TORSDOF 3
ENDMDL
MODEL 8
REMARK VINA RESULT:      -3.6     16.896     17.345
REMARK  3 active torsions:
REMARK  status: ('A' for Active; 'I' for Inactive)
REMARK    1  A    between atoms: C1_1  and  C4_4 
REMARK    2  A    between atoms: C4_4  and  C5_5 
REMARK    3  A    between atoms: N6_6  and  O7_7 
ROOT
HETATM    1  C1  UNL     1     -23.317  18.176   8.558  1.00 20.00     0.035 C 
HETATM    2  C2  UNL     1     -24.517  19.042   8.861  1.00 20.00     0.068 C 
HETATM    3  N6  UNL     1     -22.794  18.047   7.377  1.00 20.00    -0.146 NA
ENDROOT
BRANCH   1   4
HETATM    4  C4  UNL     1     -22.659  17.443   9.712  1.00 20.00     0.056 C 
BRANCH   4   5
HETATM    5  C5  UNL     1     -23.381  17.690  11.035  1.00 20.00     0.001 C 
HETATM    6  C3  UNL     1     -22.434  17.719  12.225  1.00 20.00     0.005 C 
ENDBRANCH   4   5
ENDBRANCH   1   4
BRANCH   3   7
HETATM    7  O7  UNL     1     -23.491  18.804   6.432  1.00 20.00    -0.266 OA
HETATM    8  H18 UNL     1     -23.797  18.116   5.818  1.00 20.00     0.247 HD
ENDBRANCH   3   7
TORSDOF 3
ENDMDL
MODEL 9
REMARK VINA RESULT:      -3.6     12.094     12.650
REMARK  3 active torsions:
REMARK  status: ('A' for Active; 'I' for Inactive)
REMARK    1  A    between atoms: C1_1  and  C4_4 
REMARK    2  A    between atoms: C4_4  and  C5_5 
REMARK    3  A    between atoms: N6_6  and  O7_7 
ROOT
HETATM    1  C1  UNL     1     -34.634  14.724  -5.021  1.00 20.00     0.035 C 
HETATM    2  C2  UNL     1     -35.730  15.065  -6.002  1.00 20.00     0.068 C 
HETATM    3  N6  UNL     1     -33.408  14.466  -5.361  1.00 20.00    -0.146 NA
ENDROOT
BRANCH   1   4
HETATM    4  C4  UNL     1     -34.978  14.720  -3.543  1.00 20.00     0.056 C 
BRANCH   4   5
HETATM    5  C5  UNL     1     -34.208  15.790  -2.772  1.00 20.00     0.001 C 
HETATM    6  C3  UNL     1     -35.029  16.412  -1.652  1.00 20.00     0.005 C 
ENDBRANCH   4   5
ENDBRANCH   1   4
BRANCH   3   7
HETATM    7  O7  UNL     1     -33.244  14.538  -6.746  1.00 20.00    -0.266 OA
HETATM    8  H18 UNL     1     -32.853  15.421  -6.852  1.00 20.00     0.247 HD
ENDBRANCH   3   7
TORSDOF 3
ENDMDL
