MODEL 1
REMARK VINA RESULT:      -5.2      0.000      0.000
REMARK  0 active torsions:
REMARK  status: ('A' for Active; 'I' for Inactive)
ROOT
HETATM    1  C1  UNL     1     -34.857   4.623   4.938  1.00 20.00     0.027 A 
HETATM    2  C2  UNL     1     -34.926   5.318   6.137  1.00 20.00     0.116 A 
HETATM    3  C3  UNL     1     -33.695   7.103   5.327  1.00 20.00     0.124 A 
HETATM    4  C4  UNL     1     -34.153   5.233   3.920  1.00 20.00    -0.049 A 
HETATM    5  C5  UNL     1     -33.562   6.485   4.104  1.00 20.00    -0.030 A 
HETATM    6  C6  UNL     1     -33.940   4.743   2.522  1.00 20.00     0.040 C 
HETATM    7  C7  UNL     1     -32.764   5.625   2.078  1.00 20.00     0.014 C 
HETATM    8  C8  UNL     1     -32.905   6.959   2.844  1.00 20.00     0.017 C 
HETATM    9  C9  UNL     1     -31.569   7.659   3.037  1.00 20.00     0.015 C 
HETATM   10  N10 UNL     1     -34.364   6.538   6.358  1.00 20.00    -0.273 NA
ENDROOT
TORSDOF 0
ENDMDL
MODEL 2
REMARK VINA RESULT:      -4.8     16.088     16.675
REMARK  0 active torsions:
REMARK  status: ('A' for Active; 'I' for Inactive)
ROOT
HETATM    1  C1  UNL     1     -22.846  16.821   9.298  1.00 20.00     0.027 A 
HETATM    2  C2  UNL     1     -22.746  17.767   8.289  1.00 20.00     0.116 A 
HETATM    3  C3  UNL     1     -24.280  19.186   9.284  1.00 20.00     0.124 A 
HETATM    4  C4  UNL     1     -23.727  17.111  10.320  1.00 20.00    -0.049 A 
HETATM    5  C5  UNL     1     -24.456  18.302  10.325  1.00 20.00    -0.030 A 
HETATM    6  C6  UNL     1     -24.017  16.304  11.547  1.00 20.00     0.040 C 
HETATM    7  C7  UNL     1     -25.340  16.935  12.007  1.00 20.00     0.014 C 
HETATM    8  C8  UNL     1     -25.298  18.413  11.559  1.00 20.00     0.017 C 
HETATM    9  C9  UNL     1     -26.687  18.991  11.343  1.00 20.00     0.015 C 
HETATM   10  N10 UNL     1     -23.438  18.938   8.254  1.00 20.00    -0.273 NA
ENDROOT
TORSDOF 0
ENDMDL
MODEL 3
REMARK VINA RESULT:      -4.6     11.751     12.442
REMARK  0 active torsions:
REMARK  status: ('A' for Active; 'I' for Inactive)
ROOT
HETATM    1  C1  UNL     1     -32.769  17.130  -2.376  1.00 20.00     0.027 A 
HETATM    2  C2  UNL     1     -33.512  17.768  -1.394  1.00 20.00     0.116 A 
HETATM    3  C3  UNL     1     -35.351  16.399  -1.707  1.00 20.00     0.124 A 
HETATM    4  C4  UNL     1     -33.395  16.092  -3.035  1.00 20.00    -0.049 A 
HETATM    5  C5  UNL     1     -34.698  15.713  -2.706  1.00 20.00    -0.030 A 
HETATM    6  C6  UNL     1     -32.837  15.208  -4.106  1.00 20.00     0.040 C 
HETATM    7  C7  UNL     1     -34.124  14.598  -4.683  1.00 20.00     0.014 C 
HETATM    8  C8  UNL     1     -35.136  14.532  -3.518  1.00 20.00     0.017 C 
HETATM    9  C9  UNL     1     -36.577  14.581  -4.001  1.00 20.00     0.015 C 
HETATM   10  N10 UNL     1     -34.783  17.432  -1.043  1.00 20.00    -0.273 NA
ENDROOT
TORSDOF 0
ENDMDL
MODEL 4
REMARK VINA RESULT:      -4.6     11.859     12.694
REMARK  0 active torsions:
REMARK  status: ('A' for Active; 'I' for Inactive)
ROOT
HETATM    1  C1  UNL     1     -35.395  14.955  -3.044  1.00 20.00     0.027 A 
HETATM    2  C2  UNL     1     -34.651  14.430  -4.091  1.00 20.00     0.116 A 
HETATM    3  C3  UNL     1     -32.865  15.852  -3.709  1.00 20.00     0.124 A 
HETATM    4  C4  UNL     1     -34.808  15.982  -2.334  1.00 20.00    -0.049 A 
HETATM    5  C5  UNL     1     -33.531  16.443  -2.660  1.00 20.00    -0.030 A 
HETATM    6  C6  UNL     1     -35.352  16.712  -1.146  1.00 20.00     0.040 C 
HETATM    7  C7  UNL     1     -34.452  17.957  -1.131  1.00 20.00     0.014 C 
HETATM    8  C8  UNL     1     -33.091  17.520  -1.716  1.00 20.00     0.017 C 
HETATM    9  C9  UNL     1     -32.342  18.676  -2.360  1.00 20.00     0.015 C 
HETATM   10  N10 UNL     1     -33.406  14.851  -4.442  1.00 20.00    -0.273 NA
ENDROOT
TORSDOF 0
ENDMDL
MODEL 5
REMARK VINA RESULT:      -4.5     11.903     12.714
REMARK  0 active torsions:
REMARK  status: ('A' for Active; 'I' for Inactive)
ROOT
HETATM    1  C1  UNL     1     -37.604  16.096  -3.774  1.00 20.00     0.027 A 
HETATM    2  C2  UNL     1     -38.171  14.943  -4.295  1.00 20.00     0.116 A 
HETATM    3  C3  UNL     1     -36.157  13.803  -4.320  1.00 20.00     0.124 A 
HETATM    4  C4  UNL     1     -36.244  16.056  -3.544  1.00 20.00    -0.049 A 
HETATM    5  C5  UNL     1     -35.503  14.904  -3.815  1.00 20.00    -0.030 A 
HETATM    6  C6  UNL     1     -35.373  17.125  -2.963  1.00 20.00     0.040 C 
HETATM    7  C7  UNL     1     -33.981  16.628  -3.379  1.00 20.00     0.014 C 
HETATM    8  C8  UNL     1     -34.065  15.087  -3.433  1.00 20.00     0.017 C 
HETATM    9  C9  UNL     1     -33.059  14.486  -4.403  1.00 20.00     0.015 C 
HETATM   10  N10 UNL     1     -37.486  13.801  -4.574  1.00 20.00    -0.273 NA
ENDROOT
TORSDOF 0
ENDMDL
MODEL 6
REMARK VINA RESULT:      -4.5     11.871     12.666
REMARK  0 active torsions:
REMARK  status: ('A' for Active; 'I' for Inactive)
ROOT
HETATM    1  C1  UNL     1     -32.926  15.550  -3.827  1.00 20.00     0.027 A 
HETATM    2  C2  UNL     1     -33.872  14.606  -4.199  1.00 20.00     0.116 A 
HETATM    3  C3  UNL     1     -35.462  15.426  -2.731  1.00 20.00     0.124 A 
HETATM    4  C4  UNL     1     -33.310  16.444  -2.848  1.00 20.00    -0.049 A 
HETATM    5  C5  UNL     1     -34.587  16.392  -2.287  1.00 20.00    -0.030 A 
HETATM    6  C6  UNL     1     -32.522  17.580  -2.275  1.00 20.00     0.040 C 
HETATM    7  C7  UNL     1     -33.315  17.869  -0.991  1.00 20.00     0.014 C 
HETATM    8  C8  UNL     1     -34.783  17.494  -1.291  1.00 20.00     0.017 C 
HETATM    9  C9  UNL     1     -35.547  17.101  -0.037  1.00 20.00     0.015 C 
HETATM   10  N10 UNL     1     -35.126  14.520  -3.678  1.00 20.00    -0.273 NA
ENDROOT
TORSDOF 0
ENDMDL
MODEL 7
REMARK VINA RESULT:      -4.4     12.169     13.036
REMARK  0 active torsions:
REMARK  status: ('A' for Active; 'I' for Inactive)
ROOT
HETATM    1  C1  UNL     1     -33.487  18.455   0.542  1.00 20.00     0.027 A 
HETATM    2  C2  UNL     1     -32.236  19.026   0.359  1.00 20.00     0.116 A 
HETATM    3  C3  UNL     1     -32.034  18.215  -1.799  1.00 20.00     0.124 A 
HETATM    4  C4  UNL     1     -33.987  17.729  -0.520  1.00 20.00    -0.049 A 
HETATM    5  C5  UNL     1     -33.263  17.601  -1.707  1.00 20.00    -0.030 A 
HETATM    6  C6  UNL     1     -35.308  17.035  -0.623  1.00 20.00     0.040 C 
HETATM    7  C7  UNL     1     -35.056  16.100  -1.815  1.00 20.00     0.014 C 
HETATM    8  C8  UNL     1     -34.034  16.817  -2.725  1.00 20.00     0.017 C 
HETATM    9  C9  UNL     1     -33.208  15.842  -3.549  1.00 20.00     0.015 C 
HETATM   10  N10 UNL     1     -31.498  18.925  -0.780  1.00 20.00    -0.273 NA
ENDROOT
TORSDOF 0
ENDMDL
MODEL 8
REMARK VINA RESULT:      -4.4     11.581     12.665
REMARK  0 active torsions:
REMARK  status: ('A' for Active; 'I' for Inactive)
ROOT
HETATM    1  C1  UNL     1     -34.889  13.827  -3.967  1.00 20.00     0.027 A 
HETATM    2  C2  UNL     1     -36.070  13.326  -4.492  1.00 20.00     0.116 A 
HETATM    3  C3  UNL     1     -37.254  15.260  -4.027  1.00 20.00     0.124 A 
HETATM    4  C4  UNL     1     -34.946  15.105  -3.449  1.00 20.00    -0.049 A 
HETATM    5  C5  UNL     1     -36.134  15.838  -3.473  1.00 20.00    -0.030 A 
HETATM    6  C6  UNL     1     -33.835  15.911  -2.852  1.00 20.00     0.040 C 
HETATM    7  C7  UNL     1     -34.626  16.996  -2.107  1.00 20.00     0.014 C 
HETATM    8  C8  UNL     1     -35.932  17.210  -2.905  1.00 20.00     0.017 C 
HETATM    9  C9  UNL     1     -37.067  17.720  -2.030  1.00 20.00     0.015 C 
HETATM   10  N10 UNL     1     -37.249  14.005  -4.534  1.00 20.00    -0.273 NA
ENDROOT
TORSDOF 0
ENDMDL
MODEL 9
REMARK VINA RESULT:      -4.4     12.330     13.113
REMARK  0 active torsions:
REMARK  status: ('A' for Active; 'I' for Inactive)
ROOT
HETATM    1  C1  UNL     1     -31.902  18.651   1.622  1.00 20.00     0.027 A 
HETATM    2  C2  UNL     1     -30.760  18.730   0.839  1.00 20.00     0.116 A 
HETATM    3  C3  UNL     1     -31.889  18.159  -1.100  1.00 20.00     0.124 A 
HETATM    4  C4  UNL     1     -33.065  18.295   0.970  1.00 20.00    -0.049 A 
HETATM    5  C5  UNL     1     -33.071  18.044  -0.404  1.00 20.00    -0.030 A 
HETATM    6  C6  UNL     1     -34.442  18.164   1.542  1.00 20.00     0.040 C 
HETATM    7  C7  UNL     1     -35.139  17.347   0.443  1.00 20.00     0.014 C 
HETATM    8  C8  UNL     1     -34.454  17.730  -0.887  1.00 20.00     0.017 C 
HETATM    9  C9  UNL     1     -34.539  16.619  -1.922  1.00 20.00     0.015 C 
HETATM   10  N10 UNL     1     -30.722  18.493  -0.501  1.00 20.00    -0.273 NA
ENDROOT
TORSDOF 0
ENDMDL
