MODEL 1
REMARK VINA RESULT:      -4.7      0.000      0.000
REMARK  1 active torsions:
REMARK  status: ('A' for Active; 'I' for Inactive)
REMARK    1  A    between atoms: C1_1  and  C2_2 
ROOT
HETATM    1  C1  UNL     1     -33.318   6.427   3.614  1.00 20.00     0.028 C 
HETATM    2  C4  UNL     1     -33.605   7.333   4.793  1.00 20.00     0.059 C 
HETATM    3  C5  UNL     1     -33.991   6.506   6.014  1.00 20.00     0.008 C 
HETATM    4  C6  UNL     1     -34.789   5.253   5.656  1.00 20.00     0.022 C 
HETATM    5  C7  UNL     1     -35.242   5.259   4.202  1.00 20.00     0.149 C 
HETATM    6  N9  UNL     1     -34.091   5.435   3.308  1.00 20.00    -0.294 NA
ENDROOT
BRANCH   1   7
HETATM    7  C2  UNL     1     -32.132   6.729   2.792  1.00 20.00     0.022 C 
HETATM    8  C3  UNL     1     -32.177   7.590   1.797  1.00 20.00    -0.029 C 
HETATM    9  C8  UNL     1     -33.429   8.317   1.434  1.00 20.00     0.036 C 
ENDBRANCH   1   7
TORSDOF 1
ENDMDL
MODEL 2
REMARK VINA RESULT:      -4.2     15.626     16.610
REMARK  1 active torsions:
REMARK  status: ('A' for Active; 'I' for Inactive)
REMARK    1  A    between atoms: C1_1  and  C2_2 
ROOT
HETATM    1  C1  UNL     1     -24.270  16.711  11.320  1.00 20.00     0.028 C 
HETATM    2  C4  UNL     1     -23.016  16.877  12.152  1.00 20.00     0.059 C 
HETATM    3  C5  UNL     1     -22.139  17.982  11.575  1.00 20.00     0.008 C 
HETATM    4  C6  UNL     1     -22.194  18.048  10.049  1.00 20.00     0.022 C 
HETATM    5  C7  UNL     1     -22.894  16.837   9.448  1.00 20.00     0.149 C 
HETATM    6  N9  UNL     1     -24.234  16.681  10.026  1.00 20.00    -0.294 NA
ENDROOT
BRANCH   1   7
HETATM    7  C2  UNL     1     -25.549  16.552  12.035  1.00 20.00     0.022 C 
HETATM    8  C3  UNL     1     -26.312  17.583  12.332  1.00 20.00    -0.029 C 
HETATM    9  C8  UNL     1     -25.935  18.980  11.965  1.00 20.00     0.036 C 
ENDBRANCH   1   7
TORSDOF 1
ENDMDL
MODEL 3
REMARK VINA RESULT:      -4.0     15.950     16.989
REMARK  1 active torsions:
REMARK  status: ('A' for Active; 'I' for Inactive)
REMARK    1  A    between atoms: C1_1  and  C2_2 
ROOT
HETATM    1  C1  UNL     1     -23.347  18.181  10.761  1.00 20.00     0.028 C 
HETATM    2  C4  UNL     1     -23.880  18.776   9.474  1.00 20.00     0.059 C 
HETATM    3  C5  UNL     1     -23.407  17.961   8.277  1.00 20.00     0.008 C 
HETATM    4  C6  UNL     1     -22.001  17.392   8.463  1.00 20.00     0.022 C 
HETATM    5  C7  UNL     1     -21.298  17.987   9.675  1.00 20.00     0.149 C 
HETATM    6  N9  UNL     1     -22.114  17.804  10.881  1.00 20.00    -0.294 NA
ENDROOT
BRANCH   1   7
HETATM    7  C2  UNL     1     -24.277  18.067  11.899  1.00 20.00     0.022 C 
HETATM    8  C3  UNL     1     -24.859  16.928  12.209  1.00 20.00    -0.029 C 
HETATM    9  C8  UNL     1     -24.617  15.676  11.432  1.00 20.00     0.036 C 
ENDBRANCH   1   7
TORSDOF 1
ENDMDL
MODEL 4
REMARK VINA RESULT:      -4.0     11.252     11.999
REMARK  1 active torsions:
REMARK  status: ('A' for Active; 'I' for Inactive)
REMARK    1  A    between atoms: C1_1  and  C2_2 
ROOT
HETATM    1  C1  UNL     1     -34.514  15.065  -4.339  1.00 20.00     0.028 C 
HETATM    2  C4  UNL     1     -35.360  15.908  -5.271  1.00 20.00     0.059 C 
HETATM    3  C5  UNL     1     -36.835  15.777  -4.910  1.00 20.00     0.008 C 
HETATM    4  C6  UNL     1     -37.204  14.380  -4.412  1.00 20.00     0.022 C 
HETATM    5  C7  UNL     1     -36.083  13.375  -4.643  1.00 20.00     0.149 C 
HETATM    6  N9  UNL     1     -34.836  13.850  -4.032  1.00 20.00    -0.294 NA
ENDROOT
BRANCH   1   7
HETATM    7  C2  UNL     1     -33.277  15.667  -3.808  1.00 20.00     0.022 C 
HETATM    8  C3  UNL     1     -33.271  16.378  -2.700  1.00 20.00    -0.029 C 
HETATM    9  C8  UNL     1     -34.513  16.623  -1.908  1.00 20.00     0.036 C 
ENDBRANCH   1   7
TORSDOF 1
ENDMDL
MODEL 5
REMARK VINA RESULT:      -3.8     11.172     12.538
REMARK  1 active torsions:
REMARK  status: ('A' for Active; 'I' for Inactive)
REMARK    1  A    between atoms: C1_1  and  C2_2 
ROOT
HETATM    1  C1  UNL     1     -36.972  14.636  -4.717  1.00 20.00     0.028 C 
HETATM    2  C4  UNL     1     -37.066  15.944  -5.474  1.00 20.00     0.059 C 
HETATM    3  C5  UNL     1     -37.905  16.949  -4.694  1.00 20.00     0.008 C 
HETATM    4  C6  UNL     1     -39.054  16.295  -3.927  1.00 20.00     0.022 C 
HETATM    5  C7  UNL     1     -39.257  14.840  -4.329  1.00 20.00     0.149 C 
HETATM    6  N9  UNL     1     -38.007  14.087  -4.169  1.00 20.00    -0.294 NA
ENDROOT
BRANCH   1   7
HETATM    7  C2  UNL     1     -35.653  13.980  -4.647  1.00 20.00     0.022 C 
HETATM    8  C3  UNL     1     -34.736  14.356  -3.780  1.00 20.00    -0.029 C 
HETATM    9  C8  UNL     1     -34.968  15.469  -2.812  1.00 20.00     0.036 C 
ENDBRANCH   1   7
TORSDOF 1
ENDMDL
MODEL 6
REMARK VINA RESULT:      -3.8     11.510     12.628
REMARK  1 active torsions:
REMARK  status: ('A' for Active; 'I' for Inactive)
REMARK    1  A    between atoms: C1_1  and  C2_2 
ROOT
HETATM    1  C1  UNL     1     -34.945  14.683  -5.223  1.00 20.00     0.028 C 
HETATM    2  C4  UNL     1     -35.441  14.696  -3.792  1.00 20.00     0.059 C 
HETATM    3  C5  UNL     1     -34.634  15.686  -2.960  1.00 20.00     0.008 C 
HETATM    4  C6  UNL     1     -33.166  15.757  -3.380  1.00 20.00     0.022 C 
HETATM    5  C7  UNL     1     -32.791  14.640  -4.344  1.00 20.00     0.149 C 
HETATM    6  N9  UNL     1     -33.683  14.648  -5.509  1.00 20.00    -0.294 NA
ENDROOT
BRANCH   1   7
HETATM    7  C2  UNL     1     -35.954  14.681  -6.297  1.00 20.00     0.022 C 
HETATM    8  C3  UNL     1     -36.402  15.798  -6.832  1.00 20.00    -0.029 C 
HETATM    9  C8  UNL     1     -35.918  17.139  -6.389  1.00 20.00     0.036 C 
ENDBRANCH   1   7
TORSDOF 1
ENDMDL
MODEL 7
REMARK VINA RESULT:      -3.7     11.361     12.502
REMARK  1 active torsions:
REMARK  status: ('A' for Active; 'I' for Inactive)
REMARK    1  A    between atoms: C1_1  and  C2_2 
ROOT
HETATM    1  C1  UNL     1     -35.140  15.721  -3.420  1.00 20.00     0.028 C 
HETATM    2  C4  UNL     1     -34.378  14.456  -3.755  1.00 20.00     0.059 C 
HETATM    3  C5  UNL     1     -33.611  14.630  -5.061  1.00 20.00     0.008 C 
HETATM    4  C6  UNL     1     -34.352  15.501  -6.074  1.00 20.00     0.022 C 
HETATM    5  C7  UNL     1     -35.791  15.772  -5.653  1.00 20.00     0.149 C 
HETATM    6  N9  UNL     1     -35.828  16.361  -4.310  1.00 20.00    -0.294 NA
ENDROOT
BRANCH   1   7
HETATM    7  C2  UNL     1     -35.101  16.193  -2.024  1.00 20.00     0.022 C 
HETATM    8  C3  UNL     1     -34.135  16.970  -1.580  1.00 20.00    -0.029 C 
HETATM    9  C8  UNL     1     -33.017  17.425  -2.459  1.00 20.00     0.036 C 
ENDBRANCH   1   7
TORSDOF 1
ENDMDL
MODEL 8
REMARK VINA RESULT:      -3.7     11.034     11.987
REMARK  1 active torsions:
REMARK  status: ('A' for Active; 'I' for Inactive)
REMARK    1  A    between atoms: C1_1  and  C2_2 
ROOT
HETATM    1  C1  UNL     1     -34.605  15.459  -3.253  1.00 20.00     0.028 C 
HETATM    2  C4  UNL     1     -33.914  16.534  -4.065  1.00 20.00     0.059 C 
HETATM    3  C5  UNL     1     -32.931  17.306  -3.194  1.00 20.00     0.008 C 
HETATM    4  C6  UNL     1     -33.415  17.471  -1.754  1.00 20.00     0.022 C 
HETATM    5  C7  UNL     1     -34.873  17.062  -1.589  1.00 20.00     0.149 C 
HETATM    6  N9  UNL     1     -35.078  15.692  -2.071  1.00 20.00    -0.294 NA
ENDROOT
BRANCH   1   7
HETATM    7  C2  UNL     1     -34.754  14.127  -3.868  1.00 20.00     0.022 C 
HETATM    8  C3  UNL     1     -35.892  13.729  -4.396  1.00 20.00    -0.029 C 
HETATM    9  C8  UNL     1     -37.107  14.597  -4.409  1.00 20.00     0.036 C 
ENDBRANCH   1   7
TORSDOF 1
ENDMDL
MODEL 9
REMARK VINA RESULT:      -3.7     11.494     13.180
REMARK  1 active torsions:
REMARK  status: ('A' for Active; 'I' for Inactive)
REMARK    1  A    between atoms: C1_1  and  C2_2 
ROOT
HETATM    1  C1  UNL     1     -34.857  15.404  -4.835  1.00 20.00     0.028 C 
HETATM    2  C4  UNL     1     -35.694  16.512  -5.441  1.00 20.00     0.059 C 
HETATM    3  C5  UNL     1     -36.333  16.042  -6.742  1.00 20.00     0.008 C 
HETATM    4  C6  UNL     1     -35.440  15.086  -7.532  1.00 20.00     0.022 C 
HETATM    5  C7  UNL     1     -34.023  15.033  -6.976  1.00 20.00     0.149 C 
HETATM    6  N9  UNL     1     -34.047  14.691  -5.549  1.00 20.00    -0.294 NA
ENDROOT
BRANCH   1   7
HETATM    7  C2  UNL     1     -34.971  15.178  -3.383  1.00 20.00     0.022 C 
HETATM    8  C3  UNL     1     -34.212  15.818  -2.519  1.00 20.00    -0.029 C 
HETATM    9  C8  UNL     1     -33.187  16.815  -2.949  1.00 20.00     0.036 C 
ENDBRANCH   1   7
TORSDOF 1
ENDMDL
