MODEL 1
REMARK VINA RESULT:      -4.9      0.000      0.000
REMARK  4 active torsions:
REMARK  status: ('A' for Active; 'I' for Inactive)
REMARK    1  A    between atoms: C6_6  and  C8_8 
REMARK    2  A    between atoms: C7_7  and  C9_9 
REMARK    3  A    between atoms: C10_10  and  C11_11 
REMARK    4  A    between atoms: C11_11  and  O12_12 
ROOT
HETATM    1  C4  UNL     1     -33.112  15.653  -3.630  1.00 20.00     0.012 C 
HETATM    2  C5  UNL     1     -34.877  14.034  -3.837  1.00 20.00     0.012 C 
HETATM    3  C8  UNL     1     -34.363  16.307  -3.051  1.00 20.00    -0.006 C 
HETATM    4  C9  UNL     1     -35.498  15.265  -3.184  1.00 20.00    -0.006 C 
HETATM    5  C10 UNL     1     -33.648  14.574  -4.580  1.00 20.00     0.010 C 
ENDROOT
BRANCH   5   6
HETATM    6  C11 UNL     1     -34.005  15.139  -5.954  1.00 20.00     0.168 C 
BRANCH   6   7
HETATM    7  O12 UNL     1     -33.170  14.534  -6.926  1.00 20.00    -0.400 OA
HETATM    8  H30 UNL     1     -32.325  14.332  -6.489  1.00 20.00     0.209 HD
ENDBRANCH   6   7
ENDBRANCH   5   6
BRANCH   3   9
HETATM    9  C6  UNL     1     -34.421  16.693  -1.559  1.00 20.00    -0.010 C 
HETATM   10  C1  UNL     1     -35.738  17.383  -1.167  1.00 20.00     0.005 C 
HETATM   11  C2  UNL     1     -35.645  18.743  -1.873  1.00 20.00     0.005 C 
HETATM   12  C7  UNL     1     -34.285  18.678  -2.588  1.00 20.00    -0.010 C 
HETATM   13  C3  UNL     1     -33.464  17.896  -1.548  1.00 20.00     0.010 C 
ENDBRANCH   3   9
TORSDOF 4
ENDMDL
MODEL 2
REMARK VINA RESULT:      -4.5      2.775      4.819
REMARK  4 active torsions:
REMARK  status: ('A' for Active; 'I' for Inactive)
REMARK    1  A    between atoms: C6_6  and  C8_8 
REMARK    2  A    between atoms: C7_7  and  C9_9 
REMARK    3  A    between atoms: C10_10  and  C11_11 
REMARK    4  A    between atoms: C11_11  and  O12_12 
ROOT
HETATM    1  C4  UNL     1     -32.640  18.874  -1.693  1.00 20.00     0.012 C 
HETATM    2  C5  UNL     1     -33.872  18.909   0.371  1.00 20.00     0.012 C 
HETATM    3  C8  UNL     1     -33.551  17.649  -1.716  1.00 20.00    -0.006 C 
HETATM    4  C9  UNL     1     -34.343  17.672  -0.388  1.00 20.00    -0.006 C 
HETATM    5  C10 UNL     1     -32.480  19.203  -0.203  1.00 20.00     0.010 C 
ENDROOT
BRANCH   5   6
HETATM    6  C11 UNL     1     -31.391  18.364   0.462  1.00 20.00     0.168 C 
BRANCH   6   7
HETATM    7  O12 UNL     1     -30.289  18.264  -0.424  1.00 20.00    -0.400 OA
HETATM    8  H30 UNL     1     -30.210  17.328  -0.676  1.00 20.00     0.209 HD
ENDBRANCH   6   7
ENDBRANCH   5   6
BRANCH   3   9
HETATM    9  C6  UNL     1     -34.661  17.524  -2.780  1.00 20.00    -0.010 C 
HETATM   10  C1  UNL     1     -35.446  16.206  -2.676  1.00 20.00     0.005 C 
HETATM   11  C2  UNL     1     -34.423  15.152  -3.119  1.00 20.00     0.005 C 
HETATM   12  C7  UNL     1     -33.167  15.986  -3.427  1.00 20.00    -0.010 C 
HETATM   13  C3  UNL     1     -33.813  17.245  -4.032  1.00 20.00     0.010 C 
ENDBRANCH   3   9
TORSDOF 4
ENDMDL
MODEL 3
REMARK VINA RESULT:      -4.4      2.329      4.630
REMARK  4 active torsions:
REMARK  status: ('A' for Active; 'I' for Inactive)
REMARK    1  A    between atoms: C6_6  and  C8_8 
REMARK    2  A    between atoms: C7_7  and  C9_9 
REMARK    3  A    between atoms: C10_10  and  C11_11 
REMARK    4  A    between atoms: C11_11  and  O12_12 
ROOT
HETATM    1  C4  UNL     1     -35.018  16.086  -1.877  1.00 20.00     0.012 C 
HETATM    2  C5  UNL     1     -32.974  17.347  -1.994  1.00 20.00     0.012 C 
HETATM    3  C8  UNL     1     -34.522  15.967  -3.315  1.00 20.00    -0.006 C 
HETATM    4  C9  UNL     1     -33.208  16.777  -3.391  1.00 20.00    -0.006 C 
HETATM    5  C10 UNL     1     -34.368  17.374  -1.354  1.00 20.00     0.010 C 
ENDROOT
BRANCH   5   6
HETATM    6  C11 UNL     1     -35.160  18.621  -1.745  1.00 20.00     0.168 C 
BRANCH   6   7
HETATM    7  O12 UNL     1     -36.539  18.364  -1.549  1.00 20.00    -0.400 OA
HETATM    8  H30 UNL     1     -37.026  19.116  -1.928  1.00 20.00     0.209 HD
ENDBRANCH   6   7
ENDBRANCH   5   6
BRANCH   3   9
HETATM    9  C6  UNL     1     -34.115  14.593  -3.888  1.00 20.00    -0.010 C 
HETATM   10  C1  UNL     1     -33.587  14.675  -5.329  1.00 20.00     0.005 C 
HETATM   11  C2  UNL     1     -34.839  15.031  -6.142  1.00 20.00     0.005 C 
HETATM   12  C7  UNL     1     -35.943  15.112  -5.074  1.00 20.00    -0.010 C 
HETATM   13  C3  UNL     1     -35.501  13.975  -4.135  1.00 20.00     0.010 C 
ENDBRANCH   3   9
TORSDOF 4
ENDMDL
MODEL 4
REMARK VINA RESULT:      -4.4      1.572      2.355
REMARK  4 active torsions:
REMARK  status: ('A' for Active; 'I' for Inactive)
REMARK    1  A    between atoms: C6_6  and  C8_8 
REMARK    2  A    between atoms: C7_7  and  C9_9 
REMARK    3  A    between atoms: C10_10  and  C11_11 
REMARK    4  A    between atoms: C11_11  and  O12_12 
ROOT
HETATM    1  C4  UNL     1     -35.313  16.315  -4.875  1.00 20.00     0.012 C 
HETATM    2  C5  UNL     1     -33.746  14.494  -4.807  1.00 20.00     0.012 C 
HETATM    3  C8  UNL     1     -34.533  16.469  -3.573  1.00 20.00    -0.006 C 
HETATM    4  C9  UNL     1     -33.525  15.298  -3.529  1.00 20.00    -0.006 C 
HETATM    5  C10 UNL     1     -35.183  14.827  -5.225  1.00 20.00     0.010 C 
ENDROOT
BRANCH   5   6
HETATM    6  C11 UNL     1     -36.213  13.969  -4.491  1.00 20.00     0.168 C 
BRANCH   6   7
HETATM    7  O12 UNL     1     -35.779  12.620  -4.512  1.00 20.00    -0.400 OA
HETATM    8  H30 UNL     1     -36.284  12.169  -5.210  1.00 20.00     0.209 HD
ENDBRANCH   6   7
ENDBRANCH   5   6
BRANCH   3   9
HETATM    9  C6  UNL     1     -33.639  17.705  -3.342  1.00 20.00    -0.010 C 
HETATM   10  C1  UNL     1     -32.816  17.618  -2.046  1.00 20.00     0.005 C 
HETATM   11  C2  UNL     1     -33.878  17.750  -0.946  1.00 20.00     0.005 C 
HETATM   12  C7  UNL     1     -35.189  17.899  -1.737  1.00 20.00    -0.010 C 
HETATM   13  C3  UNL     1     -34.699  18.740  -2.929  1.00 20.00     0.010 C 
ENDBRANCH   3   9
TORSDOF 4
ENDMDL
MODEL 5
REMARK VINA RESULT:      -4.3      1.932      2.404
REMARK  4 active torsions:
REMARK  status: ('A' for Active; 'I' for Inactive)
REMARK    1  A    between atoms: C6_6  and  C8_8 
REMARK    2  A    between atoms: C7_7  and  C9_9 
REMARK    3  A    between atoms: C10_10  and  C11_11 
REMARK    4  A    between atoms: C11_11  and  O12_12 
ROOT
HETATM    1  C4  UNL     1     -34.714  16.029  -5.261  1.00 20.00     0.012 C 
HETATM    2  C5  UNL     1     -34.854  14.063  -3.885  1.00 20.00     0.012 C 
HETATM    3  C8  UNL     1     -34.485  16.493  -3.825  1.00 20.00    -0.006 C 
HETATM    4  C9  UNL     1     -34.575  15.229  -2.940  1.00 20.00    -0.006 C 
HETATM    5  C10 UNL     1     -35.492  14.714  -5.118  1.00 20.00     0.010 C 
ENDROOT
BRANCH   5   6
HETATM    6  C11 UNL     1     -36.992  14.946  -4.940  1.00 20.00     0.168 C 
BRANCH   6   7
HETATM    7  O12 UNL     1     -37.585  13.746  -4.475  1.00 20.00    -0.400 OA
HETATM    8  H30 UNL     1     -36.976  13.361  -3.823  1.00 20.00     0.209 HD
ENDBRANCH   6   7
ENDBRANCH   5   6
BRANCH   3   9
HETATM    9  C6  UNL     1     -33.133  17.110  -3.412  1.00 20.00    -0.010 C 
HETATM   10  C1  UNL     1     -33.060  17.451  -1.914  1.00 20.00     0.005 C 
HETATM   11  C2  UNL     1     -34.034  18.629  -1.775  1.00 20.00     0.005 C 
HETATM   12  C7  UNL     1     -34.553  18.829  -3.209  1.00 20.00    -0.010 C 
HETATM   13  C3  UNL     1     -33.277  18.519  -4.010  1.00 20.00     0.010 C 
ENDBRANCH   3   9
TORSDOF 4
ENDMDL
MODEL 6
REMARK VINA RESULT:      -4.3      1.434      2.445
REMARK  4 active torsions:
REMARK  status: ('A' for Active; 'I' for Inactive)
REMARK    1  A    between atoms: C6_6  and  C8_8 
REMARK    2  A    between atoms: C7_7  and  C9_9 
REMARK    3  A    between atoms: C10_10  and  C11_11 
REMARK    4  A    between atoms: C11_11  and  O12_12 
ROOT
HETATM    1  C4  UNL     1     -35.671  15.984  -3.743  1.00 20.00     0.012 C 
HETATM    2  C5  UNL     1     -33.483  15.379  -4.531  1.00 20.00     0.012 C 
HETATM    3  C8  UNL     1     -34.688  16.435  -2.666  1.00 20.00    -0.006 C 
HETATM    4  C9  UNL     1     -33.280  16.046  -3.173  1.00 20.00    -0.006 C 
HETATM    5  C10 UNL     1     -34.930  14.872  -4.497  1.00 20.00     0.010 C 
ENDROOT
BRANCH   5   6
HETATM    6  C11 UNL     1     -35.053  13.519  -3.798  1.00 20.00     0.168 C 
BRANCH   6   7
HETATM    7  O12 UNL     1     -35.846  12.662  -4.602  1.00 20.00    -0.400 OA
HETATM    8  H30 UNL     1     -36.628  12.423  -4.077  1.00 20.00     0.209 HD
ENDBRANCH   6   7
ENDBRANCH   5   6
BRANCH   3   9
HETATM    9  C6  UNL     1     -34.533  17.932  -2.330  1.00 20.00    -0.010 C 
HETATM   10  C1  UNL     1     -33.505  18.196  -1.218  1.00 20.00     0.005 C 
HETATM   11  C2  UNL     1     -34.190  17.630   0.034  1.00 20.00     0.005 C 
HETATM   12  C7  UNL     1     -35.533  17.108  -0.504  1.00 20.00    -0.010 C 
HETATM   13  C3  UNL     1     -35.842  18.180  -1.563  1.00 20.00     0.010 C 
ENDBRANCH   3   9
TORSDOF 4
ENDMDL
MODEL 7
REMARK VINA RESULT:      -4.1      1.821      2.481
REMARK  4 active torsions:
REMARK  status: ('A' for Active; 'I' for Inactive)
REMARK    1  A    between atoms: C6_6  and  C8_8 
REMARK    2  A    between atoms: C7_7  and  C9_9 
REMARK    3  A    between atoms: C10_10  and  C11_11 
REMARK    4  A    between atoms: C11_11  and  O12_12 
ROOT
HETATM    1  C4  UNL     1     -35.783  16.169  -4.763  1.00 20.00     0.012 C 
HETATM    2  C5  UNL     1     -34.158  14.719  -3.746  1.00 20.00     0.012 C 
HETATM    3  C8  UNL     1     -35.760  16.525  -3.280  1.00 20.00    -0.006 C 
HETATM    4  C9  UNL     1     -34.715  15.593  -2.625  1.00 20.00    -0.006 C 
HETATM    5  C10 UNL     1     -35.253  14.730  -4.819  1.00 20.00     0.010 C 
ENDROOT
BRANCH   5   6
HETATM    6  C11 UNL     1     -36.347  13.700  -4.540  1.00 20.00     0.168 C 
BRANCH   6   7
HETATM    7  O12 UNL     1     -35.739  12.438  -4.322  1.00 20.00    -0.400 OA
HETATM    8  H30 UNL     1     -36.275  11.778  -4.794  1.00 20.00     0.209 HD
ENDBRANCH   6   7
ENDBRANCH   5   6
BRANCH   3   9
HETATM    9  C6  UNL     1     -35.308  17.928  -2.822  1.00 20.00    -0.010 C 
HETATM   10  C1  UNL     1     -35.301  18.088  -1.293  1.00 20.00     0.005 C 
HETATM   11  C2  UNL     1     -36.793  18.071  -0.932  1.00 20.00     0.005 C 
HETATM   12  C7  UNL     1     -37.485  17.903  -2.295  1.00 20.00    -0.010 C 
HETATM   13  C3  UNL     1     -36.556  18.751  -3.182  1.00 20.00     0.010 C 
ENDBRANCH   3   9
TORSDOF 4
ENDMDL
MODEL 8
REMARK VINA RESULT:      -4.1      1.460      2.047
REMARK  4 active torsions:
REMARK  status: ('A' for Active; 'I' for Inactive)
REMARK    1  A    between atoms: C6_6  and  C8_8 
REMARK    2  A    between atoms: C7_7  and  C9_9 
REMARK    3  A    between atoms: C10_10  and  C11_11 
REMARK    4  A    between atoms: C11_11  and  O12_12 
ROOT
HETATM    1  C4  UNL     1     -35.137  14.732  -4.555  1.00 20.00     0.012 C 
HETATM    2  C5  UNL     1     -36.493  15.787  -6.236  1.00 20.00     0.012 C 
HETATM    3  C8  UNL     1     -35.243  16.202  -4.160  1.00 20.00    -0.006 C 
HETATM    4  C9  UNL     1     -36.115  16.881  -5.241  1.00 20.00    -0.006 C 
HETATM    5  C10 UNL     1     -35.403  14.722  -6.066  1.00 20.00     0.010 C 
ENDROOT
BRANCH   5   6
HETATM    6  C11 UNL     1     -34.148  15.045  -6.877  1.00 20.00     0.168 C 
BRANCH   6   7
HETATM    7  O12 UNL     1     -33.020  14.529  -6.192  1.00 20.00    -0.400 OA
HETATM    8  H30 UNL     1     -32.457  14.096  -6.857  1.00 20.00     0.209 HD
ENDBRANCH   6   7
ENDBRANCH   5   6
BRANCH   3   9
HETATM    9  C6  UNL     1     -35.942  16.607  -2.846  1.00 20.00    -0.010 C 
HETATM   10  C1  UNL     1     -35.882  18.120  -2.574  1.00 20.00     0.005 C 
HETATM   11  C2  UNL     1     -34.399  18.362  -2.265  1.00 20.00     0.005 C 
HETATM   12  C7  UNL     1     -33.777  16.961  -2.394  1.00 20.00    -0.010 C 
HETATM   13  C3  UNL     1     -34.916  16.100  -1.819  1.00 20.00     0.010 C 
ENDBRANCH   3   9
TORSDOF 4
ENDMDL
MODEL 9
REMARK VINA RESULT:      -4.0      3.366      5.227
REMARK  4 active torsions:
REMARK  status: ('A' for Active; 'I' for Inactive)
REMARK    1  A    between atoms: C6_6  and  C8_8 
REMARK    2  A    between atoms: C7_7  and  C9_9 
REMARK    3  A    between atoms: C10_10  and  C11_11 
REMARK    4  A    between atoms: C11_11  and  O12_12 
ROOT
HETATM    1  C4  UNL     1     -33.880  18.933  -0.691  1.00 20.00     0.012 C 
HETATM    2  C5  UNL     1     -35.434  18.079   0.932  1.00 20.00     0.012 C 
HETATM    3  C8  UNL     1     -34.318  17.561  -1.197  1.00 20.00    -0.006 C 
HETATM    4  C9  UNL     1     -35.318  17.012  -0.153  1.00 20.00    -0.006 C 
HETATM    5  C10 UNL     1     -34.130  18.880   0.822  1.00 20.00     0.010 C 
ENDROOT
BRANCH   5   6
HETATM    6  C11 UNL     1     -32.978  18.218   1.576  1.00 20.00     0.168 C 
BRANCH   6   7
HETATM    7  O12 UNL     1     -33.495  17.594   2.739  1.00 20.00    -0.400 OA
HETATM    8  H30 UNL     1     -33.827  18.300   3.318  1.00 20.00     0.209 HD
ENDBRANCH   6   7
ENDBRANCH   5   6
BRANCH   3   9
HETATM    9  C6  UNL     1     -35.096  17.432  -2.523  1.00 20.00    -0.010 C 
HETATM   10  C1  UNL     1     -35.505  15.985  -2.842  1.00 20.00     0.005 C 
HETATM   11  C2  UNL     1     -34.167  15.304  -3.159  1.00 20.00     0.005 C 
HETATM   12  C7  UNL     1     -33.143  16.440  -2.987  1.00 20.00    -0.010 C 
HETATM   13  C3  UNL     1     -33.954  17.627  -3.534  1.00 20.00     0.010 C 
ENDBRANCH   3   9
TORSDOF 4
ENDMDL
