MODEL 1
REMARK VINA RESULT:      -4.6      0.000      0.000
REMARK  0 active torsions:
REMARK  status: ('A' for Active; 'I' for Inactive)
ROOT
HETATM    1  C1  UNL     1     -32.714   7.178   2.240  1.00 20.00     0.064 C 
HETATM    2  C2  UNL     1     -34.091   6.764   4.250  1.00 20.00     0.045 C 
HETATM    3  C3  UNL     1     -33.576   4.898   2.653  1.00 20.00     0.045 C 
HETATM    4  C4  UNL     1     -34.547   5.697   5.239  1.00 20.00     0.169 C 
HETATM    5  C5  UNL     1     -34.061   3.937   3.731  1.00 20.00     0.169 C 
HETATM    6  C6  UNL     1     -33.051   6.194   3.281  1.00 20.00     0.097 C 
HETATM    7  N7  UNL     1     -32.447   7.955   1.419  1.00 20.00    -0.197 NA
HETATM    8  O8  UNL     1     -35.052   4.554   4.551  1.00 20.00    -0.391 OA
ENDROOT
TORSDOF 0
ENDMDL
MODEL 2
REMARK VINA RESULT:      -4.4      1.120      2.014
REMARK  0 active torsions:
REMARK  status: ('A' for Active; 'I' for Inactive)
ROOT
HETATM    1  C1  UNL     1     -32.863   7.026   2.710  1.00 20.00     0.064 C 
HETATM    2  C2  UNL     1     -34.201   5.169   3.644  1.00 20.00     0.045 C 
HETATM    3  C3  UNL     1     -33.334   6.990   5.137  1.00 20.00     0.045 C 
HETATM    4  C4  UNL     1     -35.114   4.759   4.794  1.00 20.00     0.169 C 
HETATM    5  C5  UNL     1     -34.295   6.477   6.202  1.00 20.00     0.169 C 
HETATM    6  C6  UNL     1     -33.854   6.658   3.734  1.00 20.00     0.097 C 
HETATM    7  N7  UNL     1     -32.081   7.316   1.902  1.00 20.00    -0.197 NA
HETATM    8  O8  UNL     1     -34.519   5.076   6.050  1.00 20.00    -0.391 OA
ENDROOT
TORSDOF 0
ENDMDL
MODEL 3
REMARK VINA RESULT:      -4.4      8.875      9.045
REMARK  0 active torsions:
REMARK  status: ('A' for Active; 'I' for Inactive)
ROOT
HETATM    1  C1  UNL     1     -41.449   9.050   0.368  1.00 20.00     0.064 C 
HETATM    2  C2  UNL     1     -42.665   6.986   0.975  1.00 20.00     0.045 C 
HETATM    3  C3  UNL     1     -41.164   7.036  -1.035  1.00 20.00     0.045 C 
HETATM    4  C4  UNL     1     -42.661   5.467   0.852  1.00 20.00     0.169 C 
HETATM    5  C5  UNL     1     -41.244   5.514  -1.044  1.00 20.00     0.169 C 
HETATM    6  C6  UNL     1     -41.386   7.581   0.380  1.00 20.00     0.097 C 
HETATM    7  N7  UNL     1     -41.500  10.211   0.360  1.00 20.00    -0.197 NA
HETATM    8  O8  UNL     1     -42.489   5.069  -0.506  1.00 20.00    -0.391 OA
ENDROOT
TORSDOF 0
ENDMDL
MODEL 4
REMARK VINA RESULT:      -4.1     16.664     17.284
REMARK  0 active torsions:
REMARK  status: ('A' for Active; 'I' for Inactive)
ROOT
HETATM    1  C1  UNL     1     -22.414  17.456   8.293  1.00 20.00     0.064 C 
HETATM    2  C2  UNL     1     -21.959  17.849  10.690  1.00 20.00     0.045 C 
HETATM    3  C3  UNL     1     -24.315  17.594   9.866  1.00 20.00     0.045 C 
HETATM    4  C4  UNL     1     -22.507  17.661  12.100  1.00 20.00     0.169 C 
HETATM    5  C5  UNL     1     -24.730  17.420  11.322  1.00 20.00     0.169 C 
HETATM    6  C6  UNL     1     -22.860  17.158   9.663  1.00 20.00     0.097 C 
HETATM    7  N7  UNL     1     -22.061  17.691   7.212  1.00 20.00    -0.197 NA
HETATM    8  O8  UNL     1     -23.850  18.134  12.189  1.00 20.00    -0.391 OA
ENDROOT
TORSDOF 0
ENDMDL
MODEL 5
REMARK VINA RESULT:      -4.1     16.462     17.161
REMARK  0 active torsions:
REMARK  status: ('A' for Active; 'I' for Inactive)
ROOT
HETATM    1  C1  UNL     1     -22.510  17.750   8.235  1.00 20.00     0.064 C 
HETATM    2  C2  UNL     1     -23.929  16.567   9.877  1.00 20.00     0.045 C 
HETATM    3  C3  UNL     1     -21.918  17.863  10.633  1.00 20.00     0.045 C 
HETATM    4  C4  UNL     1     -24.369  16.536  11.337  1.00 20.00     0.169 C 
HETATM    5  C5  UNL     1     -22.471  17.759  12.049  1.00 20.00     0.169 C 
HETATM    6  C6  UNL     1     -23.051  17.791   9.603  1.00 20.00     0.097 C 
HETATM    7  N7  UNL     1     -22.084  17.717   7.156  1.00 20.00    -0.197 NA
HETATM    8  O8  UNL     1     -23.240  16.567  12.206  1.00 20.00    -0.391 OA
ENDROOT
TORSDOF 0
ENDMDL
MODEL 6
REMARK VINA RESULT:      -4.0     11.752     12.232
REMARK  0 active torsions:
REMARK  status: ('A' for Active; 'I' for Inactive)
ROOT
HETATM    1  C1  UNL     1     -36.640  14.210  -4.123  1.00 20.00     0.064 C 
HETATM    2  C2  UNL     1     -34.275  14.607  -4.720  1.00 20.00     0.045 C 
HETATM    3  C3  UNL     1     -35.332  15.846  -2.811  1.00 20.00     0.045 C 
HETATM    4  C4  UNL     1     -32.927  15.077  -4.186  1.00 20.00     0.169 C 
HETATM    5  C5  UNL     1     -33.924  16.246  -2.384  1.00 20.00     0.169 C 
HETATM    6  C6  UNL     1     -35.306  14.526  -3.590  1.00 20.00     0.097 C 
HETATM    7  N7  UNL     1     -37.693  13.960  -4.544  1.00 20.00    -0.197 NA
HETATM    8  O8  UNL     1     -33.057  16.328  -3.514  1.00 20.00    -0.391 OA
ENDROOT
TORSDOF 0
ENDMDL
MODEL 7
REMARK VINA RESULT:      -4.0     11.752     12.686
REMARK  0 active torsions:
REMARK  status: ('A' for Active; 'I' for Inactive)
ROOT
HETATM    1  C1  UNL     1     -37.308  14.443  -4.515  1.00 20.00     0.064 C 
HETATM    2  C2  UNL     1     -34.917  14.296  -3.908  1.00 20.00     0.045 C 
HETATM    3  C3  UNL     1     -35.604  14.690  -6.289  1.00 20.00     0.045 C 
HETATM    4  C4  UNL     1     -33.508  14.707  -4.321  1.00 20.00     0.169 C 
HETATM    5  C5  UNL     1     -34.157  15.079  -6.568  1.00 20.00     0.169 C 
HETATM    6  C6  UNL     1     -35.960  14.947  -4.820  1.00 20.00     0.097 C 
HETATM    7  N7  UNL     1     -38.372  14.046  -4.273  1.00 20.00    -0.197 NA
HETATM    8  O8  UNL     1     -33.269  14.388  -5.691  1.00 20.00    -0.391 OA
ENDROOT
TORSDOF 0
ENDMDL
MODEL 8
REMARK VINA RESULT:      -4.0     11.499     12.056
REMARK  0 active torsions:
REMARK  status: ('A' for Active; 'I' for Inactive)
ROOT
HETATM    1  C1  UNL     1     -35.407  13.895  -4.194  1.00 20.00     0.064 C 
HETATM    2  C2  UNL     1     -35.404  15.598  -2.403  1.00 20.00     0.045 C 
HETATM    3  C3  UNL     1     -33.401  15.306  -3.887  1.00 20.00     0.045 C 
HETATM    4  C4  UNL     1     -34.789  16.919  -1.953  1.00 20.00     0.169 C 
HETATM    5  C5  UNL     1     -32.900  16.642  -3.354  1.00 20.00     0.169 C 
HETATM    6  C6  UNL     1     -34.930  15.233  -3.813  1.00 20.00     0.097 C 
HETATM    7  N7  UNL     1     -35.785  12.838  -4.495  1.00 20.00    -0.197 NA
HETATM    8  O8  UNL     1     -33.366  16.864  -2.024  1.00 20.00    -0.391 OA
ENDROOT
TORSDOF 0
ENDMDL
MODEL 9
REMARK VINA RESULT:      -3.9     16.422     16.919
REMARK  0 active torsions:
REMARK  status: ('A' for Active; 'I' for Inactive)
ROOT
HETATM    1  C1  UNL     1     -24.182  16.539  11.068  1.00 20.00     0.064 C 
HETATM    2  C2  UNL     1     -22.675  16.745   9.120  1.00 20.00     0.045 C 
HETATM    3  C3  UNL     1     -24.632  18.293   9.384  1.00 20.00     0.045 C 
HETATM    4  C4  UNL     1     -22.150  17.705   8.057  1.00 20.00     0.169 C 
HETATM    5  C5  UNL     1     -23.998  19.165   8.307  1.00 20.00     0.169 C 
HETATM    6  C6  UNL     1     -23.562  17.484  10.126  1.00 20.00     0.097 C 
HETATM    7  N7  UNL     1     -24.671  15.794  11.811  1.00 20.00    -0.197 NA
HETATM    8  O8  UNL     1     -23.227  18.373   7.404  1.00 20.00    -0.391 OA
ENDROOT
TORSDOF 0
ENDMDL
