MODEL 1
REMARK VINA RESULT:      -4.9      0.000      0.000
REMARK  5 active torsions:
REMARK  status: ('A' for Active; 'I' for Inactive)
REMARK    1  A    between atoms: C3_3  and  C6_6 
REMARK    2  A    between atoms: C5_5  and  C7_7 
REMARK    3  A    between atoms: C6_6  and  C8_8 
REMARK    4  A    between atoms: C7_7  and  C9_9 
REMARK    5  A    between atoms: C8_8  and  C9_9 
ROOT
HETATM    1  C1  UNL     1     -32.964   8.421   0.397  1.00 20.00     0.059 C 
HETATM    2  C5  UNL     1     -32.112   7.759   1.394  1.00 20.00     0.124 C 
HETATM    3  N10 UNL     1     -33.635   8.946  -0.391  1.00 20.00    -0.197 NA
ENDROOT
BRANCH   2   4
HETATM    4  C7  UNL     1     -32.929   7.061   2.482  1.00 20.00     0.014 C 
BRANCH   4   5
HETATM    5  C9  UNL     1     -32.873   5.532   2.379  1.00 20.00     0.001 C 
BRANCH   5   6
HETATM    6  C8  UNL     1     -33.985   4.881   3.207  1.00 20.00     0.004 C 
BRANCH   6   7
HETATM    7  C6  UNL     1     -34.795   5.890   4.031  1.00 20.00     0.033 C 
BRANCH   7   8
HETATM    8  C3  UNL     1     -34.510   5.868   5.515  1.00 20.00    -0.093 C 
HETATM    9  C2  UNL     1     -34.874   4.828   6.282  1.00 20.00     0.014 C 
HETATM   10  C4  UNL     1     -33.769   7.041   6.089  1.00 20.00     0.042 C 
ENDBRANCH   7   8
ENDBRANCH   6   7
ENDBRANCH   5   6
ENDBRANCH   4   5
ENDBRANCH   2   4
TORSDOF 5
ENDMDL
MODEL 2
REMARK VINA RESULT:      -4.9      2.310      4.566
REMARK  5 active torsions:
REMARK  status: ('A' for Active; 'I' for Inactive)
REMARK    1  A    between atoms: C3_3  and  C6_6 
REMARK    2  A    between atoms: C5_5  and  C7_7 
REMARK    3  A    between atoms: C6_6  and  C8_8 
REMARK    4  A    between atoms: C7_7  and  C9_9 
REMARK    5  A    between atoms: C8_8  and  C9_9 
ROOT
HETATM    1  C1  UNL     1     -34.147   6.473   6.023  1.00 20.00     0.059 C 
HETATM    2  C5  UNL     1     -34.846   5.206   5.769  1.00 20.00     0.124 C 
HETATM    3  N10 UNL     1     -33.597   7.474   6.227  1.00 20.00    -0.197 NA
ENDROOT
BRANCH   2   4
HETATM    4  C7  UNL     1     -35.081   4.964   4.277  1.00 20.00     0.014 C 
BRANCH   4   5
HETATM    5  C9  UNL     1     -34.035   4.030   3.655  1.00 20.00     0.001 C 
BRANCH   5   6
HETATM    6  C8  UNL     1     -33.157   4.777   2.646  1.00 20.00     0.004 C 
BRANCH   6   7
HETATM    7  C6  UNL     1     -33.676   6.182   2.318  1.00 20.00     0.033 C 
BRANCH   7   8
HETATM    8  C3  UNL     1     -32.612   7.254   2.270  1.00 20.00    -0.093 C 
HETATM    9  C2  UNL     1     -31.728   7.408   3.268  1.00 20.00     0.014 C 
HETATM   10  C4  UNL     1     -32.560   8.115   1.041  1.00 20.00     0.042 C 
ENDBRANCH   7   8
ENDBRANCH   6   7
ENDBRANCH   5   6
ENDBRANCH   4   5
ENDBRANCH   2   4
TORSDOF 5
ENDMDL
MODEL 3
REMARK VINA RESULT:      -4.3      2.360      4.988
REMARK  5 active torsions:
REMARK  status: ('A' for Active; 'I' for Inactive)
REMARK    1  A    between atoms: C3_3  and  C6_6 
REMARK    2  A    between atoms: C5_5  and  C7_7 
REMARK    3  A    between atoms: C6_6  and  C8_8 
REMARK    4  A    between atoms: C7_7  and  C9_9 
REMARK    5  A    between atoms: C8_8  and  C9_9 
ROOT
HETATM    1  C1  UNL     1     -34.460   6.023   5.570  1.00 20.00     0.059 C 
HETATM    2  C5  UNL     1     -35.077   4.950   4.778  1.00 20.00     0.124 C 
HETATM    3  N10 UNL     1     -33.974   6.871   6.195  1.00 20.00    -0.197 NA
ENDROOT
BRANCH   2   4
HETATM    4  C7  UNL     1     -34.129   4.398   3.712  1.00 20.00     0.014 C 
BRANCH   4   5
HETATM    5  C9  UNL     1     -33.941   5.358   2.530  1.00 20.00     0.001 C 
BRANCH   5   6
HETATM    6  C8  UNL     1     -32.538   5.973   2.536  1.00 20.00     0.004 C 
BRANCH   6   7
HETATM    7  C6  UNL     1     -32.551   7.507   2.560  1.00 20.00     0.033 C 
BRANCH   7   8
HETATM    8  C3  UNL     1     -32.521   8.161   1.199  1.00 20.00    -0.093 C 
HETATM    9  C2  UNL     1     -31.905   7.580   0.157  1.00 20.00     0.014 C 
HETATM   10  C4  UNL     1     -33.242   9.469   1.050  1.00 20.00     0.042 C 
ENDBRANCH   7   8
ENDBRANCH   6   7
ENDBRANCH   5   6
ENDBRANCH   4   5
ENDBRANCH   2   4
TORSDOF 5
ENDMDL
MODEL 4
REMARK VINA RESULT:      -4.3      2.371      5.105
REMARK  5 active torsions:
REMARK  status: ('A' for Active; 'I' for Inactive)
REMARK    1  A    between atoms: C3_3  and  C6_6 
REMARK    2  A    between atoms: C5_5  and  C7_7 
REMARK    3  A    between atoms: C6_6  and  C8_8 
REMARK    4  A    between atoms: C7_7  and  C9_9 
REMARK    5  A    between atoms: C8_8  and  C9_9 
ROOT
HETATM    1  C1  UNL     1     -34.477   6.109   5.418  1.00 20.00     0.059 C 
HETATM    2  C5  UNL     1     -35.047   5.347   4.300  1.00 20.00     0.124 C 
HETATM    3  N10 UNL     1     -34.029   6.714   6.302  1.00 20.00    -0.197 NA
ENDROOT
BRANCH   2   4
HETATM    4  C7  UNL     1     -34.002   4.474   3.602  1.00 20.00     0.014 C 
BRANCH   4   5
HETATM    5  C9  UNL     1     -33.293   5.201   2.452  1.00 20.00     0.001 C 
BRANCH   5   6
HETATM    6  C8  UNL     1     -33.206   6.706   2.720  1.00 20.00     0.004 C 
BRANCH   6   7
HETATM    7  C6  UNL     1     -32.223   7.430   1.792  1.00 20.00     0.033 C 
BRANCH   7   8
HETATM    8  C3  UNL     1     -32.848   8.479   0.903  1.00 20.00    -0.093 C 
HETATM    9  C2  UNL     1     -33.092   9.721   1.350  1.00 20.00     0.014 C 
HETATM   10  C4  UNL     1     -33.151   8.085  -0.514  1.00 20.00     0.042 C 
ENDBRANCH   7   8
ENDBRANCH   6   7
ENDBRANCH   5   6
ENDBRANCH   4   5
ENDBRANCH   2   4
TORSDOF 5
ENDMDL
MODEL 5
REMARK VINA RESULT:      -4.3      0.945      1.698
REMARK  5 active torsions:
REMARK  status: ('A' for Active; 'I' for Inactive)
REMARK    1  A    between atoms: C3_3  and  C6_6 
REMARK    2  A    between atoms: C5_5  and  C7_7 
REMARK    3  A    between atoms: C6_6  and  C8_8 
REMARK    4  A    between atoms: C7_7  and  C9_9 
REMARK    5  A    between atoms: C8_8  and  C9_9 
ROOT
HETATM    1  C1  UNL     1     -32.998   8.550   0.198  1.00 20.00     0.059 C 
HETATM    2  C5  UNL     1     -31.971   8.033   1.112  1.00 20.00     0.124 C 
HETATM    3  N10 UNL     1     -33.809   8.961  -0.524  1.00 20.00    -0.197 NA
ENDROOT
BRANCH   2   4
HETATM    4  C7  UNL     1     -32.567   7.163   2.220  1.00 20.00     0.014 C 
BRANCH   4   5
HETATM    5  C9  UNL     1     -31.952   7.451   3.596  1.00 20.00     0.001 C 
BRANCH   5   6
HETATM    6  C8  UNL     1     -32.998   7.319   4.707  1.00 20.00     0.004 C 
BRANCH   6   7
HETATM    7  C6  UNL     1     -34.301   6.662   4.236  1.00 20.00     0.033 C 
BRANCH   7   8
HETATM    8  C3  UNL     1     -34.513   5.251   4.734  1.00 20.00    -0.093 C 
HETATM    9  C2  UNL     1     -34.356   4.192   3.924  1.00 20.00     0.014 C 
HETATM   10  C4  UNL     1     -34.871   5.082   6.182  1.00 20.00     0.042 C 
ENDBRANCH   7   8
ENDBRANCH   6   7
ENDBRANCH   5   6
ENDBRANCH   4   5
ENDBRANCH   2   4
TORSDOF 5
ENDMDL
MODEL 6
REMARK VINA RESULT:      -4.3     10.964     11.765
REMARK  5 active torsions:
REMARK  status: ('A' for Active; 'I' for Inactive)
REMARK    1  A    between atoms: C3_3  and  C6_6 
REMARK    2  A    between atoms: C5_5  and  C7_7 
REMARK    3  A    between atoms: C6_6  and  C8_8 
REMARK    4  A    between atoms: C7_7  and  C9_9 
REMARK    5  A    between atoms: C8_8  and  C9_9 
ROOT
HETATM    1  C1  UNL     1     -36.177  14.000  -4.268  1.00 20.00     0.059 C 
HETATM    2  C5  UNL     1     -34.815  14.443  -3.943  1.00 20.00     0.124 C 
HETATM    3  N10 UNL     1     -37.253  13.649  -4.527  1.00 20.00    -0.197 NA
ENDROOT
BRANCH   2   4
HETATM    4  C7  UNL     1     -34.794  15.468  -2.809  1.00 20.00     0.014 C 
BRANCH   4   5
HETATM    5  C9  UNL     1     -33.493  16.279  -2.764  1.00 20.00     0.001 C 
BRANCH   5   6
HETATM    6  C8  UNL     1     -33.595  17.431  -1.760  1.00 20.00     0.004 C 
BRANCH   6   7
HETATM    7  C6  UNL     1     -32.230  18.004  -1.356  1.00 20.00     0.033 C 
BRANCH   7   8
HETATM    8  C3  UNL     1     -32.097  18.345   0.110  1.00 20.00    -0.093 C 
HETATM    9  C2  UNL     1     -33.172  18.615   0.866  1.00 20.00     0.014 C 
HETATM   10  C4  UNL     1     -30.713  18.333   0.693  1.00 20.00     0.042 C 
ENDBRANCH   7   8
ENDBRANCH   6   7
ENDBRANCH   5   6
ENDBRANCH   4   5
ENDBRANCH   2   4
TORSDOF 5
ENDMDL
MODEL 7
REMARK VINA RESULT:      -4.2     10.901     11.568
REMARK  5 active torsions:
REMARK  status: ('A' for Active; 'I' for Inactive)
REMARK    1  A    between atoms: C3_3  and  C6_6 
REMARK    2  A    between atoms: C5_5  and  C7_7 
REMARK    3  A    between atoms: C6_6  and  C8_8 
REMARK    4  A    between atoms: C7_7  and  C9_9 
REMARK    5  A    between atoms: C8_8  and  C9_9 
ROOT
HETATM    1  C1  UNL     1     -36.750  14.100  -4.463  1.00 20.00     0.059 C 
HETATM    2  C5  UNL     1     -35.309  14.341  -4.617  1.00 20.00     0.124 C 
HETATM    3  N10 UNL     1     -37.889  13.911  -4.343  1.00 20.00    -0.197 NA
ENDROOT
BRANCH   2   4
HETATM    4  C7  UNL     1     -34.681  14.924  -3.351  1.00 20.00     0.014 C 
BRANCH   4   5
HETATM    5  C9  UNL     1     -33.313  15.570  -3.609  1.00 20.00     0.001 C 
BRANCH   5   6
HETATM    6  C8  UNL     1     -33.127  16.829  -2.757  1.00 20.00     0.004 C 
BRANCH   6   7
HETATM    7  C6  UNL     1     -34.443  17.375  -2.189  1.00 20.00     0.033 C 
BRANCH   7   8
HETATM    8  C3  UNL     1     -34.436  17.617  -0.698  1.00 20.00    -0.093 C 
HETATM    9  C2  UNL     1     -35.398  17.121   0.096  1.00 20.00     0.014 C 
HETATM   10  C4  UNL     1     -33.287  18.403  -0.136  1.00 20.00     0.042 C 
ENDBRANCH   7   8
ENDBRANCH   6   7
ENDBRANCH   5   6
ENDBRANCH   4   5
ENDBRANCH   2   4
TORSDOF 5
ENDMDL
MODEL 8
REMARK VINA RESULT:      -4.1     11.158     11.962
REMARK  5 active torsions:
REMARK  status: ('A' for Active; 'I' for Inactive)
REMARK    1  A    between atoms: C3_3  and  C6_6 
REMARK    2  A    between atoms: C5_5  and  C7_7 
REMARK    3  A    between atoms: C6_6  and  C8_8 
REMARK    4  A    between atoms: C7_7  and  C9_9 
REMARK    5  A    between atoms: C8_8  and  C9_9 
ROOT
HETATM    1  C1  UNL     1     -31.365  18.333  -0.577  1.00 20.00     0.059 C 
HETATM    2  C5  UNL     1     -32.574  18.098  -1.378  1.00 20.00     0.124 C 
HETATM    3  N10 UNL     1     -30.408  18.518   0.054  1.00 20.00    -0.197 NA
ENDROOT
BRANCH   2   4
HETATM    4  C7  UNL     1     -33.844  18.112  -0.527  1.00 20.00     0.014 C 
BRANCH   4   5
HETATM    5  C9  UNL     1     -34.871  17.065  -0.975  1.00 20.00     0.001 C 
BRANCH   5   6
HETATM    6  C8  UNL     1     -34.347  16.250  -2.161  1.00 20.00     0.004 C 
BRANCH   6   7
HETATM    7  C6  UNL     1     -35.458  15.543  -2.947  1.00 20.00     0.033 C 
BRANCH   7   8
HETATM    8  C3  UNL     1     -34.972  14.528  -3.955  1.00 20.00    -0.093 C 
HETATM    9  C2  UNL     1     -33.679  14.457  -4.309  1.00 20.00     0.014 C 
HETATM   10  C4  UNL     1     -35.989  13.577  -4.516  1.00 20.00     0.042 C 
ENDBRANCH   7   8
ENDBRANCH   6   7
ENDBRANCH   5   6
ENDBRANCH   4   5
ENDBRANCH   2   4
TORSDOF 5
ENDMDL
MODEL 9
REMARK VINA RESULT:      -4.1     11.037     12.268
REMARK  5 active torsions:
REMARK  status: ('A' for Active; 'I' for Inactive)
REMARK    1  A    between atoms: C3_3  and  C6_6 
REMARK    2  A    between atoms: C5_5  and  C7_7 
REMARK    3  A    between atoms: C6_6  and  C8_8 
REMARK    4  A    between atoms: C7_7  and  C9_9 
REMARK    5  A    between atoms: C8_8  and  C9_9 
ROOT
HETATM    1  C1  UNL     1     -37.777  15.019  -4.736  1.00 20.00     0.059 C 
HETATM    2  C5  UNL     1     -37.167  16.249  -5.256  1.00 20.00     0.124 C 
HETATM    3  N10 UNL     1     -38.260  14.047  -4.323  1.00 20.00    -0.197 NA
ENDROOT
BRANCH   2   4
HETATM    4  C7  UNL     1     -36.194  15.973  -6.403  1.00 20.00     0.014 C 
BRANCH   4   5
HETATM    5  C9  UNL     1     -35.358  14.706  -6.182  1.00 20.00     0.001 C 
BRANCH   5   6
HETATM    6  C8  UNL     1     -34.001  15.041  -5.557  1.00 20.00     0.004 C 
BRANCH   6   7
HETATM    7  C6  UNL     1     -33.891  14.619  -4.086  1.00 20.00     0.033 C 
BRANCH   7   8
HETATM    8  C3  UNL     1     -33.922  15.761  -3.097  1.00 20.00    -0.093 C 
HETATM    9  C2  UNL     1     -32.930  16.662  -3.037  1.00 20.00     0.014 C 
HETATM   10  C4  UNL     1     -35.128  15.865  -2.209  1.00 20.00     0.042 C 
ENDBRANCH   7   8
ENDBRANCH   6   7
ENDBRANCH   5   6
ENDBRANCH   4   5
ENDBRANCH   2   4
TORSDOF 5
ENDMDL
