MODEL 1
REMARK VINA RESULT:      -3.1      0.000      0.000
REMARK  0 active torsions:
REMARK  status: ('A' for Active; 'I' for Inactive)
ROOT
HETATM    1  C1  UNL     1     -23.112  18.715   9.416  1.00 20.00     0.011 C 
HETATM    2  C2  UNL     1     -24.536  18.641   8.861  1.00 20.00     0.011 C 
HETATM    3  C3  UNL     1     -22.637  17.420  10.072  1.00 20.00     0.075 C 
HETATM    4  C4  UNL     1     -25.626  19.260   9.732  1.00 20.00     0.075 C 
HETATM    5  C5  UNL     1     -25.036  17.142  11.481  1.00 20.00     0.147 C 
HETATM    6  S6  UNL     1     -23.246  17.128  11.760  1.00 20.00    -0.159 SA
HETATM    7  S7  UNL     1     -25.693  18.828  11.497  1.00 20.00    -0.159 SA
ENDROOT
TORSDOF 0
ENDMDL
MODEL 2
REMARK VINA RESULT:      -3.1      1.479      2.685
REMARK  0 active torsions:
REMARK  status: ('A' for Active; 'I' for Inactive)
ROOT
HETATM    1  C1  UNL     1     -25.460  16.822  11.975  1.00 20.00     0.011 C 
HETATM    2  C2  UNL     1     -25.564  18.310  12.318  1.00 20.00     0.011 C 
HETATM    3  C3  UNL     1     -24.045  16.366  11.624  1.00 20.00     0.075 C 
HETATM    4  C4  UNL     1     -26.076  19.218  11.204  1.00 20.00     0.075 C 
HETATM    5  C5  UNL     1     -23.651  18.566   9.943  1.00 20.00     0.147 C 
HETATM    6  S6  UNL     1     -23.491  16.762   9.939  1.00 20.00    -0.159 SA
HETATM    7  S7  UNL     1     -25.340  19.080   9.547  1.00 20.00    -0.159 SA
ENDROOT
TORSDOF 0
ENDMDL
MODEL 3
REMARK VINA RESULT:      -3.1      1.605      2.749
REMARK  0 active torsions:
REMARK  status: ('A' for Active; 'I' for Inactive)
ROOT
HETATM    1  C1  UNL     1     -22.178  17.820   9.838  1.00 20.00     0.011 C 
HETATM    2  C2  UNL     1     -22.232  17.858  11.366  1.00 20.00     0.011 C 
HETATM    3  C3  UNL     1     -22.976  18.935   9.164  1.00 20.00     0.075 C 
HETATM    4  C4  UNL     1     -23.208  16.886  12.025  1.00 20.00     0.075 C 
HETATM    5  C5  UNL     1     -25.177  18.499  10.834  1.00 20.00     0.147 C 
HETATM    6  S6  UNL     1     -24.772  18.669   9.076  1.00 20.00    -0.159 SA
HETATM    7  S7  UNL     1     -24.918  16.803  11.409  1.00 20.00    -0.159 SA
ENDROOT
TORSDOF 0
ENDMDL
MODEL 4
REMARK VINA RESULT:      -3.1      1.564      3.519
REMARK  0 active torsions:
REMARK  status: ('A' for Active; 'I' for Inactive)
ROOT
HETATM    1  C1  UNL     1     -25.350  18.704  12.151  1.00 20.00     0.011 C 
HETATM    2  C2  UNL     1     -24.829  17.270  12.276  1.00 20.00     0.011 C 
HETATM    3  C3  UNL     1     -26.098  18.978  10.848  1.00 20.00     0.075 C 
HETATM    4  C4  UNL     1     -23.351  17.066  11.958  1.00 20.00     0.075 C 
HETATM    5  C5  UNL     1     -24.117  17.712   9.333  1.00 20.00     0.147 C 
HETATM    6  S6  UNL     1     -25.052  19.263   9.389  1.00 20.00    -0.159 SA
HETATM    7  S7  UNL     1     -22.675  17.771  10.424  1.00 20.00    -0.159 SA
ENDROOT
TORSDOF 0
ENDMDL
MODEL 5
REMARK VINA RESULT:      -3.0     17.491     18.341
REMARK  0 active torsions:
REMARK  status: ('A' for Active; 'I' for Inactive)
ROOT
HETATM    1  C1  UNL     1     -34.871  15.823  -2.433  1.00 20.00     0.011 C 
HETATM    2  C2  UNL     1     -36.070  16.352  -3.223  1.00 20.00     0.011 C 
HETATM    3  C3  UNL     1     -33.544  15.924  -3.182  1.00 20.00     0.075 C 
HETATM    4  C4  UNL     1     -36.938  15.299  -3.906  1.00 20.00     0.075 C 
HETATM    5  C5  UNL     1     -34.676  14.887  -5.520  1.00 20.00     0.147 C 
HETATM    6  S6  UNL     1     -33.250  14.636  -4.430  1.00 20.00    -0.159 SA
HETATM    7  S7  UNL     1     -36.136  14.011  -4.908  1.00 20.00    -0.159 SA
ENDROOT
TORSDOF 0
ENDMDL
MODEL 6
REMARK VINA RESULT:      -2.9     17.203     18.143
REMARK  0 active torsions:
REMARK  status: ('A' for Active; 'I' for Inactive)
ROOT
HETATM    1  C1  UNL     1     -33.236  16.042  -3.379  1.00 20.00     0.011 C 
HETATM    2  C2  UNL     1     -33.341  14.775  -4.231  1.00 20.00     0.011 C 
HETATM    3  C3  UNL     1     -34.313  16.154  -2.302  1.00 20.00     0.075 C 
HETATM    4  C4  UNL     1     -33.998  14.941  -5.599  1.00 20.00     0.075 C 
HETATM    5  C5  UNL     1     -36.326  15.438  -4.106  1.00 20.00     0.147 C 
HETATM    6  S6  UNL     1     -35.943  16.715  -2.880  1.00 20.00    -0.159 SA
HETATM    7  S7  UNL     1     -35.585  15.821  -5.712  1.00 20.00    -0.159 SA
ENDROOT
TORSDOF 0
ENDMDL
MODEL 7
REMARK VINA RESULT:      -2.9     23.351     23.945
REMARK  0 active torsions:
REMARK  status: ('A' for Active; 'I' for Inactive)
ROOT
HETATM    1  C1  UNL     1     -41.485   7.829   0.233  1.00 20.00     0.011 C 
HETATM    2  C2  UNL     1     -42.968   7.825   0.609  1.00 20.00     0.011 C 
HETATM    3  C3  UNL     1     -41.194   7.230  -1.141  1.00 20.00     0.075 C 
HETATM    4  C4  UNL     1     -43.417   6.706   1.545  1.00 20.00     0.075 C 
HETATM    5  C5  UNL     1     -42.851   5.034  -0.641  1.00 20.00     0.147 C 
HETATM    6  S6  UNL     1     -41.176   5.414  -1.216  1.00 20.00    -0.159 SA
HETATM    7  S7  UNL     1     -42.934   4.994   1.166  1.00 20.00    -0.159 SA
ENDROOT
TORSDOF 0
ENDMDL
MODEL 8
REMARK VINA RESULT:      -2.9     17.393     18.355
REMARK  0 active torsions:
REMARK  status: ('A' for Active; 'I' for Inactive)
ROOT
HETATM    1  C1  UNL     1     -34.675  15.372  -2.905  1.00 20.00     0.011 C 
HETATM    2  C2  UNL     1     -33.396  16.156  -3.204  1.00 20.00     0.011 C 
HETATM    3  C3  UNL     1     -34.980  14.274  -3.922  1.00 20.00     0.075 C 
HETATM    4  C4  UNL     1     -33.585  17.513  -3.877  1.00 20.00     0.075 C 
HETATM    5  C5  UNL     1     -34.457  15.988  -6.070  1.00 20.00     0.147 C 
HETATM    6  S6  UNL     1     -35.726  14.837  -5.481  1.00 20.00    -0.159 SA
HETATM    7  S7  UNL     1     -34.664  17.629  -5.337  1.00 20.00    -0.159 SA
ENDROOT
TORSDOF 0
ENDMDL
MODEL 9
REMARK VINA RESULT:      -2.8     17.296     18.247
REMARK  0 active torsions:
REMARK  status: ('A' for Active; 'I' for Inactive)
ROOT
HETATM    1  C1  UNL     1     -33.527  14.589  -4.363  1.00 20.00     0.011 C 
HETATM    2  C2  UNL     1     -33.138  15.783  -3.488  1.00 20.00     0.011 C 
HETATM    3  C3  UNL     1     -34.019  14.979  -5.756  1.00 20.00     0.075 C 
HETATM    4  C4  UNL     1     -34.177  16.224  -2.461  1.00 20.00     0.075 C 
HETATM    5  C5  UNL     1     -35.674  16.979  -4.716  1.00 20.00     0.147 C 
HETATM    6  S6  UNL     1     -35.739  15.563  -5.843  1.00 20.00    -0.159 SA
HETATM    7  S7  UNL     1     -35.899  16.464  -2.996  1.00 20.00    -0.159 SA
ENDROOT
TORSDOF 0
ENDMDL
