MODEL 1
REMARK VINA RESULT:      -4.7      0.000      0.000
REMARK  0 active torsions:
REMARK  status: ('A' for Active; 'I' for Inactive)
ROOT
HETATM    1  C1  UNL     1     -33.064   7.422   3.558  1.00 20.00     0.029 A 
HETATM    2  C2  UNL     1     -33.228   5.642   1.959  1.00 20.00     0.136 A 
HETATM    3  C3  UNL     1     -33.656   6.571   4.468  1.00 20.00    -0.032 A 
HETATM    4  C4  UNL     1     -32.848   6.949   2.265  1.00 20.00     0.029 A 
HETATM    5  C5  UNL     1     -33.996   5.283   4.067  1.00 20.00     0.040 A 
HETATM    6  C6  UNL     1     -33.972   6.793   5.908  1.00 20.00     0.041 C 
HETATM    7  C7  UNL     1     -34.574   4.504   5.213  1.00 20.00     0.060 C 
HETATM    8  C8  UNL     1     -34.954   5.640   6.175  1.00 20.00     0.011 C 
HETATM    9  N9  UNL     1     -33.799   4.782   2.836  1.00 20.00    -0.264 NA
HETATM   10 BR10 UNL     1     -32.055   8.052   0.959  1.00 20.00    -0.050 Br
ENDROOT
TORSDOF 0
ENDMDL
MODEL 2
REMARK VINA RESULT:      -4.5     11.759     12.411
REMARK  0 active torsions:
REMARK  status: ('A' for Active; 'I' for Inactive)
ROOT
HETATM    1  C1  UNL     1     -32.736  17.234  -2.233  1.00 20.00     0.029 A 
HETATM    2  C2  UNL     1     -34.535  17.632  -0.698  1.00 20.00     0.136 A 
HETATM    3  C3  UNL     1     -33.541  16.283  -2.826  1.00 20.00    -0.032 A 
HETATM    4  C4  UNL     1     -33.242  17.925  -1.135  1.00 20.00     0.029 A 
HETATM    5  C5  UNL     1     -34.816  16.065  -2.319  1.00 20.00     0.040 A 
HETATM    6  C6  UNL     1     -33.276  15.428  -4.020  1.00 20.00     0.041 C 
HETATM    7  C7  UNL     1     -35.545  15.036  -3.135  1.00 20.00     0.060 C 
HETATM    8  C8  UNL     1     -34.374  14.363  -3.866  1.00 20.00     0.011 C 
HETATM    9  N9  UNL     1     -35.350  16.713  -1.269  1.00 20.00    -0.264 NA
HETATM   10 BR10 UNL     1     -32.204  19.232  -0.259  1.00 20.00    -0.050 Br
ENDROOT
TORSDOF 0
ENDMDL
MODEL 3
REMARK VINA RESULT:      -4.4     11.838     12.265
REMARK  0 active torsions:
REMARK  status: ('A' for Active; 'I' for Inactive)
ROOT
HETATM    1  C1  UNL     1     -35.459  15.777  -2.589  1.00 20.00     0.029 A 
HETATM    2  C2  UNL     1     -33.644  15.173  -4.035  1.00 20.00     0.136 A 
HETATM    3  C3  UNL     1     -34.598  16.673  -1.991  1.00 20.00    -0.032 A 
HETATM    4  C4  UNL     1     -34.970  15.000  -3.637  1.00 20.00     0.029 A 
HETATM    5  C5  UNL     1     -33.293  16.775  -2.462  1.00 20.00     0.040 A 
HETATM    6  C6  UNL     1     -34.855  17.643  -0.887  1.00 20.00     0.041 C 
HETATM    7  C7  UNL     1     -32.540  17.839  -1.718  1.00 20.00     0.060 C 
HETATM    8  C8  UNL     1     -33.418  17.996  -0.467  1.00 20.00     0.011 C 
HETATM    9  N9  UNL     1     -32.781  16.054  -3.474  1.00 20.00    -0.264 NA
HETATM   10 BR10 UNL     1     -36.077  13.744  -4.501  1.00 20.00    -0.050 Br
ENDROOT
TORSDOF 0
ENDMDL
MODEL 4
REMARK VINA RESULT:      -4.4     15.240     15.906
REMARK  0 active torsions:
REMARK  status: ('A' for Active; 'I' for Inactive)
ROOT
HETATM    1  C1  UNL     1     -26.717  19.226   6.668  1.00 20.00     0.029 A 
HETATM    2  C2  UNL     1     -24.811  19.242   5.213  1.00 20.00     0.136 A 
HETATM    3  C3  UNL     1     -25.829  19.213   7.723  1.00 20.00    -0.032 A 
HETATM    4  C4  UNL     1     -26.197  19.235   5.375  1.00 20.00     0.029 A 
HETATM    5  C5  UNL     1     -24.464  19.224   7.458  1.00 20.00     0.040 A 
HETATM    6  C6  UNL     1     -26.099  19.235   9.190  1.00 20.00     0.041 C 
HETATM    7  C7  UNL     1     -23.675  19.263   8.735  1.00 20.00     0.060 C 
HETATM    8  C8  UNL     1     -24.734  18.798   9.746  1.00 20.00     0.011 C 
HETATM    9  N9  UNL     1     -23.917  19.242   6.231  1.00 20.00    -0.264 NA
HETATM   10 BR10 UNL     1     -27.341  19.241   3.878  1.00 20.00    -0.050 Br
ENDROOT
TORSDOF 0
ENDMDL
MODEL 5
REMARK VINA RESULT:      -4.4     16.054     16.622
REMARK  0 active torsions:
REMARK  status: ('A' for Active; 'I' for Inactive)
ROOT
HETATM    1  C1  UNL     1     -24.041  18.289   8.689  1.00 20.00     0.029 A 
HETATM    2  C2  UNL     1     -26.164  19.261   9.238  1.00 20.00     0.136 A 
HETATM    3  C3  UNL     1     -23.868  18.067  10.039  1.00 20.00    -0.032 A 
HETATM    4  C4  UNL     1     -25.218  18.908   8.274  1.00 20.00     0.029 A 
HETATM    5  C5  UNL     1     -24.870  18.453  10.922  1.00 20.00     0.040 A 
HETATM    6  C6  UNL     1     -22.739  17.404  10.754  1.00 20.00     0.041 C 
HETATM    7  C7  UNL     1     -24.513  18.076  12.331  1.00 20.00     0.060 C 
HETATM    8  C8  UNL     1     -22.998  17.862  12.199  1.00 20.00     0.011 C 
HETATM    9  N9  UNL     1     -26.024  19.043  10.567  1.00 20.00    -0.264 NA
HETATM   10 BR10 UNL     1     -25.529  19.258   6.448  1.00 20.00    -0.050 Br
ENDROOT
TORSDOF 0
ENDMDL
MODEL 6
REMARK VINA RESULT:      -4.3     11.775     12.479
REMARK  0 active torsions:
REMARK  status: ('A' for Active; 'I' for Inactive)
ROOT
HETATM    1  C1  UNL     1     -35.251  16.556  -1.477  1.00 20.00     0.029 A 
HETATM    2  C2  UNL     1     -33.227  17.842  -1.436  1.00 20.00     0.136 A 
HETATM    3  C3  UNL     1     -34.700  15.847  -2.524  1.00 20.00    -0.032 A 
HETATM    4  C4  UNL     1     -34.498  17.587  -0.919  1.00 20.00     0.029 A 
HETATM    5  C5  UNL     1     -33.424  16.175  -2.967  1.00 20.00     0.040 A 
HETATM    6  C6  UNL     1     -35.257  14.687  -3.280  1.00 20.00     0.041 C 
HETATM    7  C7  UNL     1     -32.990  15.254  -4.070  1.00 20.00     0.060 C 
HETATM    8  C8  UNL     1     -34.341  14.677  -4.516  1.00 20.00     0.011 C 
HETATM    9  N9  UNL     1     -32.658  17.153  -2.454  1.00 20.00    -0.264 NA
HETATM   10 BR10 UNL     1     -35.181  18.612   0.507  1.00 20.00    -0.050 Br
ENDROOT
TORSDOF 0
ENDMDL
MODEL 7
REMARK VINA RESULT:      -4.3     16.665     17.447
REMARK  0 active torsions:
REMARK  status: ('A' for Active; 'I' for Inactive)
ROOT
HETATM    1  C1  UNL     1     -24.998  18.554   9.974  1.00 20.00     0.029 A 
HETATM    2  C2  UNL     1     -24.669  18.267  12.332  1.00 20.00     0.136 A 
HETATM    3  C3  UNL     1     -23.658  18.265   9.819  1.00 20.00    -0.032 A 
HETATM    4  C4  UNL     1     -25.520  18.562  11.266  1.00 20.00     0.029 A 
HETATM    5  C5  UNL     1     -22.893  17.981  10.945  1.00 20.00     0.040 A 
HETATM    6  C6  UNL     1     -22.850  18.154   8.570  1.00 20.00     0.041 C 
HETATM    7  C7  UNL     1     -21.483  17.641  10.558  1.00 20.00     0.060 C 
HETATM    8  C8  UNL     1     -21.422  18.222   9.138  1.00 20.00     0.011 C 
HETATM    9  N9  UNL     1     -23.354  17.967  12.207  1.00 20.00    -0.264 NA
HETATM   10 BR10 UNL     1     -27.337  18.958  11.566  1.00 20.00    -0.050 Br
ENDROOT
TORSDOF 0
ENDMDL
MODEL 8
REMARK VINA RESULT:      -4.2      1.376      2.018
REMARK  0 active torsions:
REMARK  status: ('A' for Active; 'I' for Inactive)
ROOT
HETATM    1  C1  UNL     1     -33.651   6.265   2.539  1.00 20.00     0.029 A 
HETATM    2  C2  UNL     1     -32.117   7.850   3.479  1.00 20.00     0.136 A 
HETATM    3  C3  UNL     1     -34.077   6.013   3.826  1.00 20.00    -0.032 A 
HETATM    4  C4  UNL     1     -32.639   7.205   2.357  1.00 20.00     0.029 A 
HETATM    5  C5  UNL     1     -33.496   6.710   4.879  1.00 20.00     0.040 A 
HETATM    6  C6  UNL     1     -35.150   5.096   4.307  1.00 20.00     0.041 C 
HETATM    7  C7  UNL     1     -34.134   6.332   6.185  1.00 20.00     0.060 C 
HETATM    8  C8  UNL     1     -34.810   5.006   5.805  1.00 20.00     0.011 C 
HETATM    9  N9  UNL     1     -32.526   7.632   4.752  1.00 20.00    -0.264 NA
HETATM   10 BR10 UNL     1     -31.991   7.600   0.632  1.00 20.00    -0.050 Br
ENDROOT
TORSDOF 0
ENDMDL
MODEL 9
REMARK VINA RESULT:      -4.2     11.791     12.294
REMARK  0 active torsions:
REMARK  status: ('A' for Active; 'I' for Inactive)
ROOT
HETATM    1  C1  UNL     1     -35.179  16.003  -1.946  1.00 20.00     0.029 A 
HETATM    2  C2  UNL     1     -33.081  16.480  -3.005  1.00 20.00     0.136 A 
HETATM    3  C3  UNL     1     -34.873  16.997  -1.041  1.00 20.00    -0.032 A 
HETATM    4  C4  UNL     1     -34.257  15.731  -2.954  1.00 20.00     0.029 A 
HETATM    5  C5  UNL     1     -33.675  17.691  -1.177  1.00 20.00     0.040 A 
HETATM    6  C6  UNL     1     -35.676  17.518   0.104  1.00 20.00     0.041 C 
HETATM    7  C7  UNL     1     -33.558  18.761  -0.130  1.00 20.00     0.060 C 
HETATM    8  C8  UNL     1     -34.600  18.284   0.892  1.00 20.00     0.011 C 
HETATM    9  N9  UNL     1     -32.761  17.469  -2.137  1.00 20.00    -0.264 NA
HETATM   10 BR10 UNL     1     -34.593  14.381  -4.226  1.00 20.00    -0.050 Br
ENDROOT
TORSDOF 0
ENDMDL
