MODEL 1
REMARK VINA RESULT:      -4.6      0.000      0.000
REMARK  6 active torsions:
REMARK  status: ('A' for Active; 'I' for Inactive)
REMARK    1  A    between atoms: C1_1  and  C6_6 
REMARK    2  A    between atoms: C1_1  and  C10_10 
REMARK    3  A    between atoms: C7_7  and  C8_8 
REMARK    4  A    between atoms: C8_8  and  C11_11 
REMARK    5  A    between atoms: C9_9  and  C10_10 
REMARK    6  A    between atoms: C9_9  and  C11_11 
ROOT
HETATM    1  C9  UNL     1     -34.891  15.969  -3.300  1.00 20.00     0.016 C 
ENDROOT
BRANCH   1   2
HETATM    2  C10 UNL     1     -34.556  14.507  -3.642  1.00 20.00     0.051 C 
HETATM    3  C4  UNL     1     -33.308  14.365  -4.511  1.00 20.00     0.018 C 
BRANCH   2   4
HETATM    4  C1  UNL     1     -35.759  13.883  -4.353  1.00 20.00     0.130 C 
HETATM    5  O12 UNL     1     -35.854  12.667  -4.517  1.00 20.00    -0.298 OA
BRANCH   4   6
HETATM    6  C6  UNL     1     -36.810  14.854  -4.869  1.00 20.00     0.074 C 
HETATM    7  C2  UNL     1     -38.183  14.600  -4.274  1.00 20.00     0.013 C 
ENDBRANCH   4   6
ENDBRANCH   2   4
ENDBRANCH   1   2
BRANCH   1   8
HETATM    8  C11 UNL     1     -34.338  16.500  -1.958  1.00 20.00    -0.018 C 
HETATM    9  C5  UNL     1     -33.037  17.267  -2.231  1.00 20.00     0.010 C 
BRANCH   8  10
HETATM   10  C8  UNL     1     -35.373  17.375  -1.220  1.00 20.00     0.004 C 
BRANCH  10  11
HETATM   11  C7  UNL     1     -35.477  17.077   0.278  1.00 20.00    -0.004 C 
HETATM   12  C3  UNL     1     -34.516  17.940   1.083  1.00 20.00     0.005 C 
ENDBRANCH  10  11
ENDBRANCH   8  10
ENDBRANCH   1   8
TORSDOF 6
ENDMDL
MODEL 2
REMARK VINA RESULT:      -4.6      1.592      2.113
REMARK  6 active torsions:
REMARK  status: ('A' for Active; 'I' for Inactive)
REMARK    1  A    between atoms: C1_1  and  C6_6 
REMARK    2  A    between atoms: C1_1  and  C10_10 
REMARK    3  A    between atoms: C7_7  and  C8_8 
REMARK    4  A    between atoms: C8_8  and  C11_11 
REMARK    5  A    between atoms: C9_9  and  C10_10 
REMARK    6  A    between atoms: C9_9  and  C11_11 
ROOT
HETATM    1  C9  UNL     1     -34.753  15.735  -2.989  1.00 20.00     0.016 C 
ENDROOT
BRANCH   1   2
HETATM    2  C10 UNL     1     -34.404  14.375  -3.619  1.00 20.00     0.051 C 
HETATM    3  C4  UNL     1     -33.117  14.408  -4.441  1.00 20.00     0.018 C 
BRANCH   2   4
HETATM    4  C1  UNL     1     -35.573  13.930  -4.500  1.00 20.00     0.130 C 
HETATM    5  O12 UNL     1     -35.924  12.752  -4.563  1.00 20.00    -0.298 OA
BRANCH   4   6
HETATM    6  C6  UNL     1     -36.253  15.022  -5.312  1.00 20.00     0.074 C 
HETATM    7  C2  UNL     1     -35.827  15.017  -6.770  1.00 20.00     0.013 C 
ENDBRANCH   4   6
ENDBRANCH   2   4
ENDBRANCH   1   2
BRANCH   1   8
HETATM    8  C11 UNL     1     -33.665  16.829  -3.081  1.00 20.00    -0.018 C 
HETATM    9  C5  UNL     1     -34.133  17.905  -4.069  1.00 20.00     0.010 C 
BRANCH   8  10
HETATM   10  C8  UNL     1     -33.337  17.426  -1.696  1.00 20.00     0.004 C 
BRANCH  10  11
HETATM   11  C7  UNL     1     -32.200  18.452  -1.719  1.00 20.00    -0.004 C 
HETATM   12  C3  UNL     1     -31.301  18.311  -0.500  1.00 20.00     0.005 C 
ENDBRANCH  10  11
ENDBRANCH   8  10
ENDBRANCH   1   8
TORSDOF 6
ENDMDL
MODEL 3
REMARK VINA RESULT:      -4.6      1.286      1.977
REMARK  6 active torsions:
REMARK  status: ('A' for Active; 'I' for Inactive)
REMARK    1  A    between atoms: C1_1  and  C6_6 
REMARK    2  A    between atoms: C1_1  and  C10_10 
REMARK    3  A    between atoms: C7_7  and  C8_8 
REMARK    4  A    between atoms: C8_8  and  C11_11 
REMARK    5  A    between atoms: C9_9  and  C10_10 
REMARK    6  A    between atoms: C9_9  and  C11_11 
ROOT
HETATM    1  C9  UNL     1     -33.883  14.896  -3.619  1.00 20.00     0.016 C 
ENDROOT
BRANCH   1   2
HETATM    2  C10 UNL     1     -34.451  14.622  -5.023  1.00 20.00     0.051 C 
HETATM    3  C4  UNL     1     -34.506  15.871  -5.901  1.00 20.00     0.018 C 
BRANCH   2   4
HETATM    4  C1  UNL     1     -35.852  14.027  -4.876  1.00 20.00     0.130 C 
HETATM    5  O12 UNL     1     -36.025  12.837  -4.614  1.00 20.00    -0.298 OA
BRANCH   4   6
HETATM    6  C6  UNL     1     -37.014  14.983  -5.101  1.00 20.00     0.074 C 
HETATM    7  C2  UNL     1     -38.186  14.707  -4.176  1.00 20.00     0.013 C 
ENDBRANCH   4   6
ENDBRANCH   2   4
ENDBRANCH   1   2
BRANCH   1   8
HETATM    8  C11 UNL     1     -34.176  16.293  -3.025  1.00 20.00    -0.018 C 
HETATM    9  C5  UNL     1     -35.138  16.133  -1.841  1.00 20.00     0.010 C 
BRANCH   8  10
HETATM   10  C8  UNL     1     -32.879  17.022  -2.615  1.00 20.00     0.004 C 
BRANCH  10  11
HETATM   11  C7  UNL     1     -33.020  17.865  -1.344  1.00 20.00    -0.004 C 
HETATM   12  C3  UNL     1     -31.662  18.312  -0.822  1.00 20.00     0.005 C 
ENDBRANCH  10  11
ENDBRANCH   8  10
ENDBRANCH   1   8
TORSDOF 6
ENDMDL
MODEL 4
REMARK VINA RESULT:      -4.5      0.808      1.143
REMARK  6 active torsions:
REMARK  status: ('A' for Active; 'I' for Inactive)
REMARK    1  A    between atoms: C1_1  and  C6_6 
REMARK    2  A    between atoms: C1_1  and  C10_10 
REMARK    3  A    between atoms: C7_7  and  C8_8 
REMARK    4  A    between atoms: C8_8  and  C11_11 
REMARK    5  A    between atoms: C9_9  and  C10_10 
REMARK    6  A    between atoms: C9_9  and  C11_11 
ROOT
HETATM    1  C9  UNL     1     -34.921  15.877  -3.218  1.00 20.00     0.016 C 
ENDROOT
BRANCH   1   2
HETATM    2  C10 UNL     1     -34.519  14.463  -3.675  1.00 20.00     0.051 C 
HETATM    3  C4  UNL     1     -33.188  14.431  -4.424  1.00 20.00     0.018 C 
BRANCH   2   4
HETATM    4  C1  UNL     1     -35.630  13.903  -4.565  1.00 20.00     0.130 C 
HETATM    5  O12 UNL     1     -35.918  12.706  -4.565  1.00 20.00    -0.298 OA
BRANCH   4   6
HETATM    6  C6  UNL     1     -36.335  14.904  -5.469  1.00 20.00     0.074 C 
HETATM    7  C2  UNL     1     -35.771  14.917  -6.878  1.00 20.00     0.013 C 
ENDBRANCH   4   6
ENDBRANCH   2   4
ENDBRANCH   1   2
BRANCH   1   8
HETATM    8  C11 UNL     1     -34.261  16.386  -1.917  1.00 20.00    -0.018 C 
HETATM    9  C5  UNL     1     -33.164  17.395  -2.284  1.00 20.00     0.010 C 
BRANCH   8  10
HETATM   10  C8  UNL     1     -35.299  16.996  -0.951  1.00 20.00     0.004 C 
BRANCH  10  11
HETATM   11  C7  UNL     1     -34.774  18.196  -0.158  1.00 20.00    -0.004 C 
HETATM   12  C3  UNL     1     -34.521  17.831   1.298  1.00 20.00     0.005 C 
ENDBRANCH  10  11
ENDBRANCH   8  10
ENDBRANCH   1   8
TORSDOF 6
ENDMDL
MODEL 5
REMARK VINA RESULT:      -4.4     14.881     17.632
REMARK  6 active torsions:
REMARK  status: ('A' for Active; 'I' for Inactive)
REMARK    1  A    between atoms: C1_1  and  C6_6 
REMARK    2  A    between atoms: C1_1  and  C10_10 
REMARK    3  A    between atoms: C7_7  and  C8_8 
REMARK    4  A    between atoms: C8_8  and  C11_11 
REMARK    5  A    between atoms: C9_9  and  C10_10 
REMARK    6  A    between atoms: C9_9  and  C11_11 
ROOT
HETATM    1  C9  UNL     1     -22.991  17.056   9.819  1.00 20.00     0.016 C 
ENDROOT
BRANCH   1   2
HETATM    2  C10 UNL     1     -23.535  17.597  11.153  1.00 20.00     0.051 C 
HETATM    3  C4  UNL     1     -22.473  17.669  12.248  1.00 20.00     0.018 C 
BRANCH   2   4
HETATM    4  C1  UNL     1     -24.691  16.704  11.608  1.00 20.00     0.130 C 
HETATM    5  O12 UNL     1     -24.703  15.494  11.377  1.00 20.00    -0.298 OA
BRANCH   4   6
HETATM    6  C6  UNL     1     -25.833  17.401  12.332  1.00 20.00     0.074 C 
HETATM    7  C2  UNL     1     -26.122  18.783  11.773  1.00 20.00     0.013 C 
ENDBRANCH   4   6
ENDBRANCH   2   4
ENDBRANCH   1   2
BRANCH   1   8
HETATM    8  C11 UNL     1     -22.279  18.081   8.907  1.00 20.00    -0.018 C 
HETATM    9  C5  UNL     1     -21.664  17.335   7.715  1.00 20.00     0.010 C 
BRANCH   8  10
HETATM   10  C8  UNL     1     -23.238  19.200   8.448  1.00 20.00     0.004 C 
BRANCH  10  11
HETATM   11  C7  UNL     1     -24.689  18.741   8.282  1.00 20.00    -0.004 C 
HETATM   12  C3  UNL     1     -25.215  19.056   6.889  1.00 20.00     0.005 C 
ENDBRANCH  10  11
ENDBRANCH   8  10
ENDBRANCH   1   8
TORSDOF 6
ENDMDL
MODEL 6
REMARK VINA RESULT:      -4.3      1.846      2.552
REMARK  6 active torsions:
REMARK  status: ('A' for Active; 'I' for Inactive)
REMARK    1  A    between atoms: C1_1  and  C6_6 
REMARK    2  A    between atoms: C1_1  and  C10_10 
REMARK    3  A    between atoms: C7_7  and  C8_8 
REMARK    4  A    between atoms: C8_8  and  C11_11 
REMARK    5  A    between atoms: C9_9  and  C10_10 
REMARK    6  A    between atoms: C9_9  and  C11_11 
ROOT
HETATM    1  C9  UNL     1     -33.832  16.042  -2.682  1.00 20.00     0.016 C 
ENDROOT
BRANCH   1   2
HETATM    2  C10 UNL     1     -33.588  16.111  -4.200  1.00 20.00     0.051 C 
HETATM    3  C4  UNL     1     -34.310  17.278  -4.870  1.00 20.00     0.018 C 
BRANCH   2   4
HETATM    4  C1  UNL     1     -34.040  14.791  -4.828  1.00 20.00     0.130 C 
HETATM    5  O12 UNL     1     -33.725  14.480  -5.977  1.00 20.00    -0.298 OA
BRANCH   4   6
HETATM    6  C6  UNL     1     -34.923  13.904  -3.963  1.00 20.00     0.074 C 
HETATM    7  C2  UNL     1     -36.362  13.862  -4.446  1.00 20.00     0.013 C 
ENDBRANCH   4   6
ENDBRANCH   2   4
ENDBRANCH   1   2
BRANCH   1   8
HETATM    8  C11 UNL     1     -33.901  17.396  -1.940  1.00 20.00    -0.018 C 
HETATM    9  C5  UNL     1     -34.793  17.234  -0.702  1.00 20.00     0.010 C 
BRANCH   8  10
HETATM   10  C8  UNL     1     -32.496  17.915  -1.568  1.00 20.00     0.004 C 
BRANCH  10  11
HETATM   11  C7  UNL     1     -32.382  18.409  -0.123  1.00 20.00    -0.004 C 
HETATM   12  C3  UNL     1     -30.944  18.349   0.372  1.00 20.00     0.005 C 
ENDBRANCH  10  11
ENDBRANCH   8  10
ENDBRANCH   1   8
TORSDOF 6
ENDMDL
MODEL 7
REMARK VINA RESULT:      -4.3     10.723     11.682
REMARK  6 active torsions:
REMARK  status: ('A' for Active; 'I' for Inactive)
REMARK    1  A    between atoms: C1_1  and  C6_6 
REMARK    2  A    between atoms: C1_1  and  C10_10 
REMARK    3  A    between atoms: C7_7  and  C8_8 
REMARK    4  A    between atoms: C8_8  and  C11_11 
REMARK    5  A    between atoms: C9_9  and  C10_10 
REMARK    6  A    between atoms: C9_9  and  C11_11 
ROOT
HETATM    1  C9  UNL     1     -33.479   5.783   2.399  1.00 20.00     0.016 C 
ENDROOT
BRANCH   1   2
HETATM    2  C10 UNL     1     -33.616   4.961   3.692  1.00 20.00     0.051 C 
HETATM    3  C4  UNL     1     -33.683   3.456   3.441  1.00 20.00     0.018 C 
BRANCH   2   4
HETATM    4  C1  UNL     1     -34.874   5.421   4.433  1.00 20.00     0.130 C 
HETATM    5  O12 UNL     1     -35.940   5.602   3.846  1.00 20.00    -0.298 OA
BRANCH   4   6
HETATM    6  C6  UNL     1     -34.720   5.667   5.926  1.00 20.00     0.074 C 
HETATM    7  C2  UNL     1     -33.971   6.952   6.232  1.00 20.00     0.013 C 
ENDBRANCH   4   6
ENDBRANCH   2   4
ENDBRANCH   1   2
BRANCH   1   8
HETATM    8  C11 UNL     1     -32.887   7.203   2.553  1.00 20.00    -0.018 C 
HETATM    9  C5  UNL     1     -31.829   7.177   3.663  1.00 20.00     0.010 C 
BRANCH   8  10
HETATM   10  C8  UNL     1     -32.308   7.727   1.222  1.00 20.00     0.004 C 
BRANCH  10  11
HETATM   11  C7  UNL     1     -32.873   9.085   0.795  1.00 20.00    -0.004 C 
HETATM   12  C3  UNL     1     -33.609   8.986  -0.534  1.00 20.00     0.005 C 
ENDBRANCH  10  11
ENDBRANCH   8  10
ENDBRANCH   1   8
TORSDOF 6
ENDMDL
MODEL 8
REMARK VINA RESULT:      -4.2      1.866      2.740
REMARK  6 active torsions:
REMARK  status: ('A' for Active; 'I' for Inactive)
REMARK    1  A    between atoms: C1_1  and  C6_6 
REMARK    2  A    between atoms: C1_1  and  C10_10 
REMARK    3  A    between atoms: C7_7  and  C8_8 
REMARK    4  A    between atoms: C8_8  and  C11_11 
REMARK    5  A    between atoms: C9_9  and  C10_10 
REMARK    6  A    between atoms: C9_9  and  C11_11 
ROOT
HETATM    1  C9  UNL     1     -34.561  15.206  -3.104  1.00 20.00     0.016 C 
ENDROOT
BRANCH   1   2
HETATM    2  C10 UNL     1     -35.426  15.083  -4.371  1.00 20.00     0.051 C 
HETATM    3  C4  UNL     1     -36.104  13.720  -4.503  1.00 20.00     0.018 C 
BRANCH   2   4
HETATM    4  C1  UNL     1     -34.544  15.345  -5.593  1.00 20.00     0.130 C 
HETATM    5  O12 UNL     1     -33.785  14.485  -6.040  1.00 20.00    -0.298 OA
BRANCH   4   6
HETATM    6  C6  UNL     1     -34.638  16.736  -6.202  1.00 20.00     0.074 C 
HETATM    7  C2  UNL     1     -35.947  17.431  -5.872  1.00 20.00     0.013 C 
ENDBRANCH   4   6
ENDBRANCH   2   4
ENDBRANCH   1   2
BRANCH   1   8
HETATM    8  C11 UNL     1     -34.415  16.627  -2.514  1.00 20.00    -0.018 C 
HETATM    9  C5  UNL     1     -35.160  16.681  -1.174  1.00 20.00     0.010 C 
BRANCH   8  10
HETATM   10  C8  UNL     1     -32.934  17.032  -2.362  1.00 20.00     0.004 C 
BRANCH  10  11
HETATM   11  C7  UNL     1     -32.728  18.351  -1.610  1.00 20.00    -0.004 C 
HETATM   12  C3  UNL     1     -31.502  18.291  -0.710  1.00 20.00     0.005 C 
ENDBRANCH  10  11
ENDBRANCH   8  10
ENDBRANCH   1   8
TORSDOF 6
ENDMDL
MODEL 9
REMARK VINA RESULT:      -4.2      1.508      2.738
REMARK  6 active torsions:
REMARK  status: ('A' for Active; 'I' for Inactive)
REMARK    1  A    between atoms: C1_1  and  C6_6 
REMARK    2  A    between atoms: C1_1  and  C10_10 
REMARK    3  A    between atoms: C7_7  and  C8_8 
REMARK    4  A    between atoms: C8_8  and  C11_11 
REMARK    5  A    between atoms: C9_9  and  C10_10 
REMARK    6  A    between atoms: C9_9  and  C11_11 
ROOT
HETATM    1  C9  UNL     1     -35.080  15.178  -3.054  1.00 20.00     0.016 C 
ENDROOT
BRANCH   1   2
HETATM    2  C10 UNL     1     -36.001  15.715  -4.164  1.00 20.00     0.051 C 
HETATM    3  C4  UNL     1     -37.166  16.544  -3.627  1.00 20.00     0.018 C 
BRANCH   2   4
HETATM    4  C1  UNL     1     -36.536  14.530  -4.971  1.00 20.00     0.130 C 
HETATM    5  O12 UNL     1     -37.363  13.748  -4.502  1.00 20.00    -0.298 OA
BRANCH   4   6
HETATM    6  C6  UNL     1     -35.963  14.359  -6.370  1.00 20.00     0.074 C 
HETATM    7  C2  UNL     1     -35.394  15.650  -6.931  1.00 20.00     0.013 C 
ENDBRANCH   4   6
ENDBRANCH   2   4
ENDBRANCH   1   2
BRANCH   1   8
HETATM    8  C11 UNL     1     -33.589  15.572  -3.156  1.00 20.00    -0.018 C 
HETATM    9  C5  UNL     1     -32.940  14.757  -4.282  1.00 20.00     0.010 C 
BRANCH   8  10
HETATM   10  C8  UNL     1     -33.413  17.090  -3.374  1.00 20.00     0.004 C 
BRANCH  10  11
HETATM   11  C7  UNL     1     -32.756  17.811  -2.194  1.00 20.00    -0.004 C 
HETATM   12  C3  UNL     1     -33.702  17.907  -1.006  1.00 20.00     0.005 C 
ENDBRANCH  10  11
ENDBRANCH   8  10
ENDBRANCH   1   8
TORSDOF 6
ENDMDL
