MODEL 1
REMARK VINA RESULT:      -4.3      0.000      0.000
REMARK  1 active torsions:
REMARK  status: ('A' for Active; 'I' for Inactive)
REMARK    1  A    between atoms: C3_3  and  C4_4 
ROOT
HETATM    1  C1  UNL     1     -32.793   6.272   2.468  1.00 20.00     0.087 C 
HETATM    2  C2  UNL     1     -33.081   4.892   2.655  1.00 20.00     0.093 C 
HETATM    3  C3  UNL     1     -34.139   4.490   3.372  1.00 20.00     0.011 C 
HETATM    4  N7  UNL     1     -32.555   7.396   2.313  1.00 20.00    -0.192 NA
ENDROOT
BRANCH   3   5
HETATM    5  C4  UNL     1     -35.058   5.410   4.005  1.00 20.00    -0.004 C 
HETATM    6  C5  UNL     1     -35.049   5.667   5.321  1.00 20.00    -0.031 C 
HETATM    7  C6  UNL     1     -34.094   5.038   6.282  1.00 20.00     0.036 C 
ENDBRANCH   3   5
TORSDOF 1
ENDMDL
MODEL 2
REMARK VINA RESULT:      -4.3      2.101      3.784
REMARK  1 active torsions:
REMARK  status: ('A' for Active; 'I' for Inactive)
REMARK    1  A    between atoms: C3_3  and  C4_4 
ROOT
HETATM    1  C1  UNL     1     -34.636   5.037   4.717  1.00 20.00     0.087 C 
HETATM    2  C2  UNL     1     -34.245   4.706   3.390  1.00 20.00     0.093 C 
HETATM    3  C3  UNL     1     -33.376   5.463   2.707  1.00 20.00     0.011 C 
HETATM    4  N7  UNL     1     -34.956   5.304   5.799  1.00 20.00    -0.192 NA
ENDROOT
BRANCH   3   5
HETATM    5  C4  UNL     1     -32.773   6.658   3.254  1.00 20.00    -0.004 C 
HETATM    6  C5  UNL     1     -32.384   7.695   2.499  1.00 20.00    -0.031 C 
HETATM    7  C6  UNL     1     -32.526   7.737   1.012  1.00 20.00     0.036 C 
ENDBRANCH   3   5
TORSDOF 1
ENDMDL
MODEL 3
REMARK VINA RESULT:      -4.2      1.179      1.251
REMARK  1 active torsions:
REMARK  status: ('A' for Active; 'I' for Inactive)
REMARK    1  A    between atoms: C3_3  and  C4_4 
ROOT
HETATM    1  C1  UNL     1     -32.709   7.203   1.847  1.00 20.00     0.087 C 
HETATM    2  C2  UNL     1     -33.050   5.890   2.273  1.00 20.00     0.093 C 
HETATM    3  C3  UNL     1     -33.543   5.658   3.497  1.00 20.00     0.011 C 
HETATM    4  N7  UNL     1     -32.431   8.273   1.495  1.00 20.00    -0.192 NA
ENDROOT
BRANCH   3   5
HETATM    5  C4  UNL     1     -33.766   6.706   4.468  1.00 20.00    -0.004 C 
HETATM    6  C5  UNL     1     -34.312   6.486   5.673  1.00 20.00    -0.031 C 
HETATM    7  C6  UNL     1     -34.753   5.141   6.150  1.00 20.00     0.036 C 
ENDBRANCH   3   5
TORSDOF 1
ENDMDL
MODEL 4
REMARK VINA RESULT:      -4.2     12.078     12.380
REMARK  1 active torsions:
REMARK  status: ('A' for Active; 'I' for Inactive)
REMARK    1  A    between atoms: C3_3  and  C4_4 
ROOT
HETATM    1  C1  UNL     1     -36.640  14.024  -4.405  1.00 20.00     0.087 C 
HETATM    2  C2  UNL     1     -35.221  14.074  -4.486  1.00 20.00     0.093 C 
HETATM    3  C3  UNL     1     -34.498  14.807  -3.629  1.00 20.00     0.011 C 
HETATM    4  N7  UNL     1     -37.797  13.980  -4.342  1.00 20.00    -0.192 NA
ENDROOT
BRANCH   3   5
HETATM    5  C4  UNL     1     -35.090  15.595  -2.571  1.00 20.00    -0.004 C 
HETATM    6  C5  UNL     1     -34.459  16.616  -1.974  1.00 20.00    -0.031 C 
HETATM    7  C6  UNL     1     -33.077  17.058  -2.331  1.00 20.00     0.036 C 
ENDBRANCH   3   5
TORSDOF 1
ENDMDL
MODEL 5
REMARK VINA RESULT:      -3.9      2.221      4.088
REMARK  1 active torsions:
REMARK  status: ('A' for Active; 'I' for Inactive)
REMARK    1  A    between atoms: C3_3  and  C4_4 
ROOT
HETATM    1  C1  UNL     1     -34.463   5.350   4.449  1.00 20.00     0.087 C 
HETATM    2  C2  UNL     1     -34.012   6.680   4.668  1.00 20.00     0.093 C 
HETATM    3  C3  UNL     1     -33.160   7.277   3.823  1.00 20.00     0.011 C 
HETATM    4  N7  UNL     1     -34.833   4.265   4.274  1.00 20.00    -0.192 NA
ENDROOT
BRANCH   3   5
HETATM    5  C4  UNL     1     -32.638   6.629   2.640  1.00 20.00    -0.004 C 
HETATM    6  C5  UNL     1     -32.483   7.257   1.466  1.00 20.00    -0.031 C 
HETATM    7  C6  UNL     1     -32.829   8.693   1.243  1.00 20.00     0.036 C 
ENDBRANCH   3   5
TORSDOF 1
ENDMDL
MODEL 6
REMARK VINA RESULT:      -3.8     12.238     13.212
REMARK  1 active torsions:
REMARK  status: ('A' for Active; 'I' for Inactive)
REMARK    1  A    between atoms: C3_3  and  C4_4 
ROOT
HETATM    1  C1  UNL     1     -31.703  18.308  -0.509  1.00 20.00     0.087 C 
HETATM    2  C2  UNL     1     -33.121  18.233  -0.584  1.00 20.00     0.093 C 
HETATM    3  C3  UNL     1     -33.735  17.563  -1.568  1.00 20.00     0.011 C 
HETATM    4  N7  UNL     1     -30.547  18.370  -0.444  1.00 20.00    -0.192 NA
ENDROOT
BRANCH   3   5
HETATM    5  C4  UNL     1     -33.018  16.872  -2.617  1.00 20.00    -0.004 C 
HETATM    6  C5  UNL     1     -33.526  15.828  -3.289  1.00 20.00    -0.031 C 
HETATM    7  C6  UNL     1     -34.884  15.260  -3.034  1.00 20.00     0.036 C 
ENDBRANCH   3   5
TORSDOF 1
ENDMDL
MODEL 7
REMARK VINA RESULT:      -3.7     16.226     16.902
REMARK  1 active torsions:
REMARK  status: ('A' for Active; 'I' for Inactive)
REMARK    1  A    between atoms: C3_3  and  C4_4 
ROOT
HETATM    1  C1  UNL     1     -22.112  17.622   8.220  1.00 20.00     0.087 C 
HETATM    2  C2  UNL     1     -22.557  18.459   9.280  1.00 20.00     0.093 C 
HETATM    3  C3  UNL     1     -23.337  17.988  10.262  1.00 20.00     0.011 C 
HETATM    4  N7  UNL     1     -21.746  16.942   7.354  1.00 20.00    -0.192 NA
ENDROOT
BRANCH   3   5
HETATM    5  C4  UNL     1     -23.782  16.614  10.324  1.00 20.00    -0.004 C 
HETATM    6  C5  UNL     1     -24.633  16.159  11.255  1.00 20.00    -0.031 C 
HETATM    7  C6  UNL     1     -25.219  17.015  12.331  1.00 20.00     0.036 C 
ENDBRANCH   3   5
TORSDOF 1
ENDMDL
MODEL 8
REMARK VINA RESULT:      -3.7     11.943     12.695
REMARK  1 active torsions:
REMARK  status: ('A' for Active; 'I' for Inactive)
REMARK    1  A    between atoms: C3_3  and  C4_4 
ROOT
HETATM    1  C1  UNL     1     -35.943  14.343  -5.938  1.00 20.00     0.087 C 
HETATM    2  C2  UNL     1     -35.914  13.816  -4.617  1.00 20.00     0.093 C 
HETATM    3  C3  UNL     1     -34.861  14.007  -3.812  1.00 20.00     0.011 C 
HETATM    4  N7  UNL     1     -35.971  14.773  -7.015  1.00 20.00    -0.192 NA
ENDROOT
BRANCH   3   5
HETATM    5  C4  UNL     1     -33.688  14.752  -4.211  1.00 20.00    -0.004 C 
HETATM    6  C5  UNL     1     -33.250  15.839  -3.560  1.00 20.00    -0.031 C 
HETATM    7  C6  UNL     1     -33.921  16.405  -2.350  1.00 20.00     0.036 C 
ENDBRANCH   3   5
TORSDOF 1
ENDMDL
MODEL 9
REMARK VINA RESULT:      -3.6     12.063     13.067
REMARK  1 active torsions:
REMARK  status: ('A' for Active; 'I' for Inactive)
REMARK    1  A    between atoms: C3_3  and  C4_4 
ROOT
HETATM    1  C1  UNL     1     -32.726  18.273  -1.699  1.00 20.00     0.087 C 
HETATM    2  C2  UNL     1     -33.867  17.450  -1.490  1.00 20.00     0.093 C 
HETATM    3  C3  UNL     1     -34.105  16.377  -2.256  1.00 20.00     0.011 C 
HETATM    4  N7  UNL     1     -31.796  18.945  -1.866  1.00 20.00    -0.192 NA
ENDROOT
BRANCH   3   5
HETATM    5  C4  UNL     1     -33.237  15.974  -3.340  1.00 20.00    -0.004 C 
HETATM    6  C5  UNL     1     -33.494  14.927  -4.136  1.00 20.00    -0.031 C 
HETATM    7  C6  UNL     1     -34.703  14.059  -3.999  1.00 20.00     0.036 C 
ENDBRANCH   3   5
TORSDOF 1
ENDMDL
