MODEL 1
REMARK VINA RESULT:      -4.4      0.000      0.000
REMARK  1 active torsions:
REMARK  status: ('A' for Active; 'I' for Inactive)
REMARK    1  A    between atoms: C3_3  and  C4_4 
ROOT
HETATM    1  C1  UNL     1     -34.417   5.923   5.490  1.00 20.00     0.087 C 
HETATM    2  C2  UNL     1     -34.836   4.832   4.680  1.00 20.00     0.093 C 
HETATM    3  C3  UNL     1     -34.265   4.583   3.493  1.00 20.00     0.011 C 
HETATM    4  N7  UNL     1     -34.077   6.810   6.154  1.00 20.00    -0.192 NA
ENDROOT
BRANCH   3   5
HETATM    5  C4  UNL     1     -33.194   5.388   2.950  1.00 20.00    -0.004 C 
HETATM    6  C5  UNL     1     -33.375   6.631   2.481  1.00 20.00    -0.031 C 
HETATM    7  C6  UNL     1     -32.276   7.473   1.918  1.00 20.00     0.036 C 
ENDBRANCH   3   5
TORSDOF 1
ENDMDL
MODEL 2
REMARK VINA RESULT:      -4.3      1.719      2.281
REMARK  1 active torsions:
REMARK  status: ('A' for Active; 'I' for Inactive)
REMARK    1  A    between atoms: C3_3  and  C4_4 
ROOT
HETATM    1  C1  UNL     1     -34.596   4.634   4.906  1.00 20.00     0.087 C 
HETATM    2  C2  UNL     1     -34.775   5.624   5.910  1.00 20.00     0.093 C 
HETATM    3  C3  UNL     1     -34.072   6.765   5.902  1.00 20.00     0.011 C 
HETATM    4  N7  UNL     1     -34.453   3.826   4.087  1.00 20.00    -0.192 NA
ENDROOT
BRANCH   3   5
HETATM    5  C4  UNL     1     -33.091   7.078   4.887  1.00 20.00    -0.004 C 
HETATM    6  C5  UNL     1     -33.342   6.995   3.572  1.00 20.00    -0.031 C 
HETATM    7  C6  UNL     1     -32.338   7.317   2.514  1.00 20.00     0.036 C 
ENDBRANCH   3   5
TORSDOF 1
ENDMDL
MODEL 3
REMARK VINA RESULT:      -4.3     11.912     12.192
REMARK  1 active torsions:
REMARK  status: ('A' for Active; 'I' for Inactive)
REMARK    1  A    between atoms: C3_3  and  C4_4 
ROOT
HETATM    1  C1  UNL     1     -36.647  14.018  -4.429  1.00 20.00     0.087 C 
HETATM    2  C2  UNL     1     -35.233  14.136  -4.519  1.00 20.00     0.093 C 
HETATM    3  C3  UNL     1     -34.536  14.883  -3.651  1.00 20.00     0.011 C 
HETATM    4  N7  UNL     1     -37.800  13.918  -4.356  1.00 20.00    -0.192 NA
ENDROOT
BRANCH   3   5
HETATM    5  C4  UNL     1     -35.155  15.616  -2.569  1.00 20.00    -0.004 C 
HETATM    6  C5  UNL     1     -34.502  16.527  -1.832  1.00 20.00    -0.031 C 
HETATM    7  C6  UNL     1     -35.130  17.292  -0.713  1.00 20.00     0.036 C 
ENDBRANCH   3   5
TORSDOF 1
ENDMDL
MODEL 4
REMARK VINA RESULT:      -4.1      1.553      3.324
REMARK  1 active torsions:
REMARK  status: ('A' for Active; 'I' for Inactive)
REMARK    1  A    between atoms: C3_3  and  C4_4 
ROOT
HETATM    1  C1  UNL     1     -32.373   6.882   2.894  1.00 20.00     0.087 C 
HETATM    2  C2  UNL     1     -32.988   5.924   2.043  1.00 20.00     0.093 C 
HETATM    3  C3  UNL     1     -33.712   4.910   2.538  1.00 20.00     0.011 C 
HETATM    4  N7  UNL     1     -31.872   7.666   3.586  1.00 20.00    -0.192 NA
ENDROOT
BRANCH   3   5
HETATM    5  C4  UNL     1     -33.923   4.712   3.954  1.00 20.00    -0.004 C 
HETATM    6  C5  UNL     1     -34.777   5.449   4.680  1.00 20.00    -0.031 C 
HETATM    7  C6  UNL     1     -35.005   5.252   6.143  1.00 20.00     0.036 C 
ENDBRANCH   3   5
TORSDOF 1
ENDMDL
MODEL 5
REMARK VINA RESULT:      -4.0     12.257     12.845
REMARK  1 active torsions:
REMARK  status: ('A' for Active; 'I' for Inactive)
REMARK    1  A    between atoms: C3_3  and  C4_4 
ROOT
HETATM    1  C1  UNL     1     -31.769  18.342  -0.431  1.00 20.00     0.087 C 
HETATM    2  C2  UNL     1     -33.188  18.313  -0.353  1.00 20.00     0.093 C 
HETATM    3  C3  UNL     1     -33.923  17.620  -1.234  1.00 20.00     0.011 C 
HETATM    4  N7  UNL     1     -30.611  18.367  -0.491  1.00 20.00    -0.192 NA
ENDROOT
BRANCH   3   5
HETATM    5  C4  UNL     1     -33.343  16.858  -2.317  1.00 20.00    -0.004 C 
HETATM    6  C5  UNL     1     -33.963  15.823  -2.901  1.00 20.00    -0.031 C 
HETATM    7  C6  UNL     1     -33.375  15.029  -4.022  1.00 20.00     0.036 C 
ENDBRANCH   3   5
TORSDOF 1
ENDMDL
MODEL 6
REMARK VINA RESULT:      -3.9     11.842     12.502
REMARK  1 active torsions:
REMARK  status: ('A' for Active; 'I' for Inactive)
REMARK    1  A    between atoms: C3_3  and  C4_4 
ROOT
HETATM    1  C1  UNL     1     -34.151  14.568  -4.049  1.00 20.00     0.087 C 
HETATM    2  C2  UNL     1     -35.127  15.048  -3.135  1.00 20.00     0.093 C 
HETATM    3  C3  UNL     1     -34.861  16.058  -2.294  1.00 20.00     0.011 C 
HETATM    4  N7  UNL     1     -33.357  14.175  -4.799  1.00 20.00    -0.192 NA
ENDROOT
BRANCH   3   5
HETATM    5  C4  UNL     1     -33.581  16.730  -2.250  1.00 20.00    -0.004 C 
HETATM    6  C5  UNL     1     -33.285  17.688  -1.360  1.00 20.00    -0.031 C 
HETATM    7  C6  UNL     1     -31.967  18.389  -1.303  1.00 20.00     0.036 C 
ENDBRANCH   3   5
TORSDOF 1
ENDMDL
MODEL 7
REMARK VINA RESULT:      -3.8     15.290     16.615
REMARK  1 active torsions:
REMARK  status: ('A' for Active; 'I' for Inactive)
REMARK    1  A    between atoms: C3_3  and  C4_4 
ROOT
HETATM    1  C1  UNL     1     -22.270  17.613   8.164  1.00 20.00     0.087 C 
HETATM    2  C2  UNL     1     -22.900  18.540   9.037  1.00 20.00     0.093 C 
HETATM    3  C3  UNL     1     -23.971  19.249   8.651  1.00 20.00     0.011 C 
HETATM    4  N7  UNL     1     -21.755  16.853   7.455  1.00 20.00    -0.192 NA
ENDROOT
BRANCH   3   5
HETATM    5  C4  UNL     1     -24.563  19.128   7.337  1.00 20.00    -0.004 C 
HETATM    6  C5  UNL     1     -25.877  18.953   7.138  1.00 20.00    -0.031 C 
HETATM    7  C6  UNL     1     -26.501  18.829   5.786  1.00 20.00     0.036 C 
ENDBRANCH   3   5
TORSDOF 1
ENDMDL
MODEL 8
REMARK VINA RESULT:      -3.8     16.778     17.095
REMARK  1 active torsions:
REMARK  status: ('A' for Active; 'I' for Inactive)
REMARK    1  A    between atoms: C3_3  and  C4_4 
ROOT
HETATM    1  C1  UNL     1     -22.788  17.739   8.232  1.00 20.00     0.087 C 
HETATM    2  C2  UNL     1     -22.552  16.997   9.421  1.00 20.00     0.093 C 
HETATM    3  C3  UNL     1     -23.306  17.172  10.516  1.00 20.00     0.011 C 
HETATM    4  N7  UNL     1     -22.978  18.341   7.259  1.00 20.00    -0.192 NA
ENDROOT
BRANCH   3   5
HETATM    5  C4  UNL     1     -24.402  18.113  10.575  1.00 20.00    -0.004 C 
HETATM    6  C5  UNL     1     -25.158  18.291  11.668  1.00 20.00    -0.031 C 
HETATM    7  C6  UNL     1     -26.292  19.261  11.743  1.00 20.00     0.036 C 
ENDBRANCH   3   5
TORSDOF 1
ENDMDL
MODEL 9
REMARK VINA RESULT:      -3.7     15.279     16.140
REMARK  1 active torsions:
REMARK  status: ('A' for Active; 'I' for Inactive)
REMARK    1  A    between atoms: C3_3  and  C4_4 
ROOT
HETATM    1  C1  UNL     1     -25.570  18.961   3.965  1.00 20.00     0.087 C 
HETATM    2  C2  UNL     1     -26.678  19.120   4.841  1.00 20.00     0.093 C 
HETATM    3  C3  UNL     1     -26.510  19.261   6.163  1.00 20.00     0.011 C 
HETATM    4  N7  UNL     1     -24.668  18.832   3.247  1.00 20.00    -0.192 NA
ENDROOT
BRANCH   3   5
HETATM    5  C4  UNL     1     -25.210  19.263   6.796  1.00 20.00    -0.004 C 
HETATM    6  C5  UNL     1     -25.025  18.985   8.094  1.00 20.00    -0.031 C 
HETATM    7  C6  UNL     1     -23.687  18.982   8.760  1.00 20.00     0.036 C 
ENDBRANCH   3   5
TORSDOF 1
ENDMDL
