MODEL 1
REMARK VINA RESULT:      -4.4      0.000      0.000
REMARK  1 active torsions:
REMARK  status: ('A' for Active; 'I' for Inactive)
REMARK    1  A    between atoms: C3_3  and  C5_5 
ROOT
HETATM    1  C1  UNL     1     -33.903   4.766   3.485  1.00 20.00     0.025 A 
HETATM    2  C2  UNL     1     -33.334   5.348   2.316  1.00 20.00     0.028 A 
HETATM    3  C3  UNL     1     -33.997   5.671   4.520  1.00 20.00     0.089 A 
HETATM    4  C4  UNL     1     -33.015   6.675   2.501  1.00 20.00     0.052 A 
HETATM    5  S9  UNL     1     -33.401   7.215   4.080  1.00 20.00    -0.078 SA
HETATM    6 BR10 UNL     1     -32.238   7.790   1.174  1.00 20.00    -0.043 Br
ENDROOT
BRANCH   3   7
HETATM    7  C5  UNL     1     -34.526   5.457   5.884  1.00 20.00     0.423 C 
HETATM    8  F6  UNL     1     -35.767   4.874   5.919  1.00 20.00    -0.166 F 
HETATM    9  F7  UNL     1     -33.743   4.649   6.668  1.00 20.00    -0.166 F 
HETATM   10  F8  UNL     1     -34.661   6.620   6.596  1.00 20.00    -0.166 F 
ENDBRANCH   3   7
TORSDOF 1
ENDMDL
MODEL 2
REMARK VINA RESULT:      -4.2     12.036     12.591
REMARK  1 active torsions:
REMARK  status: ('A' for Active; 'I' for Inactive)
REMARK    1  A    between atoms: C3_3  and  C5_5 
ROOT
HETATM    1  C1  UNL     1     -33.588  14.888  -4.200  1.00 20.00     0.025 A 
HETATM    2  C2  UNL     1     -32.926  15.883  -3.424  1.00 20.00     0.028 A 
HETATM    3  C3  UNL     1     -34.927  14.795  -3.888  1.00 20.00     0.089 A 
HETATM    4  C4  UNL     1     -33.784  16.513  -2.550  1.00 20.00     0.052 A 
HETATM    5  S9  UNL     1     -35.381  15.905  -2.665  1.00 20.00    -0.078 SA
HETATM    6 BR10 UNL     1     -33.274  17.894  -1.351  1.00 20.00    -0.043 Br
ENDROOT
BRANCH   3   7
HETATM    7  C5  UNL     1     -35.946  13.891  -4.465  1.00 20.00     0.423 C 
HETATM    8  F6  UNL     1     -37.228  14.163  -4.062  1.00 20.00    -0.166 F 
HETATM    9  F7  UNL     1     -36.003  13.914  -5.835  1.00 20.00    -0.166 F 
HETATM   10  F8  UNL     1     -35.743  12.576  -4.140  1.00 20.00    -0.166 F 
ENDBRANCH   3   7
TORSDOF 1
ENDMDL
MODEL 3
REMARK VINA RESULT:      -4.2     12.037     12.595
REMARK  1 active torsions:
REMARK  status: ('A' for Active; 'I' for Inactive)
REMARK    1  A    between atoms: C3_3  and  C5_5 
ROOT
HETATM    1  C1  UNL     1     -33.590  14.894  -4.202  1.00 20.00     0.025 A 
HETATM    2  C2  UNL     1     -32.928  15.888  -3.426  1.00 20.00     0.028 A 
HETATM    3  C3  UNL     1     -34.928  14.797  -3.885  1.00 20.00     0.089 A 
HETATM    4  C4  UNL     1     -33.784  16.513  -2.546  1.00 20.00     0.052 A 
HETATM    5  S9  UNL     1     -35.379  15.902  -2.657  1.00 20.00    -0.078 SA
HETATM    6 BR10 UNL     1     -33.271  17.892  -1.344  1.00 20.00    -0.043 Br
ENDROOT
BRANCH   3   7
HETATM    7  C5  UNL     1     -35.947  13.894  -4.462  1.00 20.00     0.423 C 
HETATM    8  F6  UNL     1     -35.764  12.571  -4.150  1.00 20.00    -0.166 F 
HETATM    9  F7  UNL     1     -37.229  14.168  -4.062  1.00 20.00    -0.166 F 
HETATM   10  F8  UNL     1     -35.986  13.932  -5.831  1.00 20.00    -0.166 F 
ENDBRANCH   3   7
TORSDOF 1
ENDMDL
MODEL 4
REMARK VINA RESULT:      -4.1     12.412     13.023
REMARK  1 active torsions:
REMARK  status: ('A' for Active; 'I' for Inactive)
REMARK    1  A    between atoms: C3_3  and  C5_5 
ROOT
HETATM    1  C1  UNL     1     -35.094  15.830  -2.195  1.00 20.00     0.025 A 
HETATM    2  C2  UNL     1     -35.137  16.859  -1.211  1.00 20.00     0.028 A 
HETATM    3  C3  UNL     1     -33.949  15.893  -2.959  1.00 20.00     0.089 A 
HETATM    4  C4  UNL     1     -34.024  17.669  -1.260  1.00 20.00     0.052 A 
HETATM    5  S9  UNL     1     -32.932  17.188  -2.488  1.00 20.00    -0.078 SA
HETATM    6 BR10 UNL     1     -33.720  19.149  -0.108  1.00 20.00    -0.043 Br
ENDROOT
BRANCH   3   7
HETATM    7  C5  UNL     1     -33.535  15.012  -4.073  1.00 20.00     0.423 C 
HETATM    8  F6  UNL     1     -33.845  15.498  -5.317  1.00 20.00    -0.166 F 
HETATM    9  F7  UNL     1     -32.187  14.768  -4.123  1.00 20.00    -0.166 F 
HETATM   10  F8  UNL     1     -34.118  13.772  -4.021  1.00 20.00    -0.166 F 
ENDBRANCH   3   7
TORSDOF 1
ENDMDL
MODEL 5
REMARK VINA RESULT:      -4.1     12.184     12.849
REMARK  1 active torsions:
REMARK  status: ('A' for Active; 'I' for Inactive)
REMARK    1  A    between atoms: C3_3  and  C5_5 
ROOT
HETATM    1  C1  UNL     1     -35.180  15.812  -2.160  1.00 20.00     0.025 A 
HETATM    2  C2  UNL     1     -34.905  16.943  -1.339  1.00 20.00     0.028 A 
HETATM    3  C3  UNL     1     -34.186  15.592  -3.089  1.00 20.00     0.089 A 
HETATM    4  C4  UNL     1     -33.712  17.545  -1.671  1.00 20.00     0.052 A 
HETATM    5  S9  UNL     1     -32.927  16.747  -2.967  1.00 20.00    -0.078 SA
HETATM    6 BR10 UNL     1     -33.004  19.079  -0.802  1.00 20.00    -0.043 Br
ENDROOT
BRANCH   3   7
HETATM    7  C5  UNL     1     -34.101  14.529  -4.113  1.00 20.00     0.423 C 
HETATM    8  F6  UNL     1     -32.819  14.163  -4.436  1.00 20.00    -0.166 F 
HETATM    9  F7  UNL     1     -34.716  13.357  -3.756  1.00 20.00    -0.166 F 
HETATM   10  F8  UNL     1     -34.678  14.884  -5.305  1.00 20.00    -0.166 F 
ENDBRANCH   3   7
TORSDOF 1
ENDMDL
MODEL 6
REMARK VINA RESULT:      -4.1     12.396     13.042
REMARK  1 active torsions:
REMARK  status: ('A' for Active; 'I' for Inactive)
REMARK    1  A    between atoms: C3_3  and  C5_5 
ROOT
HETATM    1  C1  UNL     1     -32.873  16.876  -2.611  1.00 20.00     0.025 A 
HETATM    2  C2  UNL     1     -33.528  17.621  -1.588  1.00 20.00     0.028 A 
HETATM    3  C3  UNL     1     -33.677  15.880  -3.120  1.00 20.00     0.089 A 
HETATM    4  C4  UNL     1     -34.807  17.166  -1.355  1.00 20.00     0.052 A 
HETATM    5  S9  UNL     1     -35.215  15.846  -2.367  1.00 20.00    -0.078 SA
HETATM    6 BR10 UNL     1     -35.993  17.905  -0.068  1.00 20.00    -0.043 Br
ENDROOT
BRANCH   3   7
HETATM    7  C5  UNL     1     -33.366  14.900  -4.183  1.00 20.00     0.423 C 
HETATM    8  F6  UNL     1     -32.038  14.570  -4.270  1.00 20.00    -0.166 F 
HETATM    9  F7  UNL     1     -34.012  13.699  -4.044  1.00 20.00    -0.166 F 
HETATM   10  F8  UNL     1     -33.704  15.341  -5.436  1.00 20.00    -0.166 F 
ENDBRANCH   3   7
TORSDOF 1
ENDMDL
MODEL 7
REMARK VINA RESULT:      -4.0      9.701     10.107
REMARK  1 active torsions:
REMARK  status: ('A' for Active; 'I' for Inactive)
REMARK    1  A    between atoms: C3_3  and  C5_5 
ROOT
HETATM    1  C1  UNL     1     -40.803   5.960  -0.704  1.00 20.00     0.025 A 
HETATM    2  C2  UNL     1     -41.183   4.791  -1.425  1.00 20.00     0.028 A 
HETATM    3  C3  UNL     1     -41.879   6.783  -0.449  1.00 20.00     0.089 A 
HETATM    4  C4  UNL     1     -42.534   4.765  -1.694  1.00 20.00     0.052 A 
HETATM    5  S9  UNL     1     -43.339   6.146  -1.078  1.00 20.00    -0.078 SA
HETATM    6 BR10 UNL     1     -43.416   3.371  -2.634  1.00 20.00    -0.043 Br
ENDROOT
BRANCH   3   7
HETATM    7  C5  UNL     1     -41.898   8.077   0.266  1.00 20.00     0.423 C 
HETATM    8  F6  UNL     1     -41.091   8.117   1.373  1.00 20.00    -0.166 F 
HETATM    9  F7  UNL     1     -41.493   9.143  -0.495  1.00 20.00    -0.166 F 
HETATM   10  F8  UNL     1     -43.144   8.420   0.722  1.00 20.00    -0.166 F 
ENDBRANCH   3   7
TORSDOF 1
ENDMDL
MODEL 8
REMARK VINA RESULT:      -3.9     12.516     13.066
REMARK  1 active torsions:
REMARK  status: ('A' for Active; 'I' for Inactive)
REMARK    1  A    between atoms: C3_3  and  C5_5 
ROOT
HETATM    1  C1  UNL     1     -35.061  14.118  -4.203  1.00 20.00     0.025 A 
HETATM    2  C2  UNL     1     -36.447  13.871  -4.415  1.00 20.00     0.028 A 
HETATM    3  C3  UNL     1     -34.826  15.401  -3.759  1.00 20.00     0.089 A 
HETATM    4  C4  UNL     1     -37.220  14.973  -4.125  1.00 20.00     0.052 A 
HETATM    5  S9  UNL     1     -36.274  16.301  -3.598  1.00 20.00    -0.078 SA
HETATM    6 BR10 UNL     1     -39.112  15.032  -4.283  1.00 20.00    -0.043 Br
ENDROOT
BRANCH   3   7
HETATM    7  C5  UNL     1     -33.533  16.039  -3.428  1.00 20.00     0.423 C 
HETATM    8  F6  UNL     1     -33.311  17.225  -4.078  1.00 20.00    -0.166 F 
HETATM    9  F7  UNL     1     -33.381  16.340  -2.099  1.00 20.00    -0.166 F 
HETATM   10  F8  UNL     1     -32.453  15.256  -3.740  1.00 20.00    -0.166 F 
ENDBRANCH   3   7
TORSDOF 1
ENDMDL
MODEL 9
REMARK VINA RESULT:      -3.8     13.055     13.646
REMARK  1 active torsions:
REMARK  status: ('A' for Active; 'I' for Inactive)
REMARK    1  A    between atoms: C3_3  and  C5_5 
ROOT
HETATM    1  C1  UNL     1     -33.378  15.731  -3.954  1.00 20.00     0.025 A 
HETATM    2  C2  UNL     1     -33.491  16.246  -2.631  1.00 20.00     0.028 A 
HETATM    3  C3  UNL     1     -34.609  15.546  -4.544  1.00 20.00     0.089 A 
HETATM    4  C4  UNL     1     -34.804  16.435  -2.259  1.00 20.00     0.052 A 
HETATM    5  S9  UNL     1     -35.894  15.992  -3.504  1.00 20.00    -0.078 SA
HETATM    6 BR10 UNL     1     -35.358  17.106  -0.571  1.00 20.00    -0.043 Br
ENDROOT
BRANCH   3   7
HETATM    7  C5  UNL     1     -34.913  15.033  -5.898  1.00 20.00     0.423 C 
HETATM    8  F6  UNL     1     -35.782  13.973  -5.913  1.00 20.00    -0.166 F 
HETATM    9  F7  UNL     1     -35.484  15.959  -6.732  1.00 20.00    -0.166 F 
HETATM   10  F8  UNL     1     -33.802  14.590  -6.566  1.00 20.00    -0.166 F 
ENDBRANCH   3   7
TORSDOF 1
ENDMDL
