MODEL 1
REMARK VINA RESULT:      -4.7      0.000      0.000
REMARK  2 active torsions:
REMARK  status: ('A' for Active; 'I' for Inactive)
REMARK    1  A    between atoms: C1_1  and  C6_6 
REMARK    2  A    between atoms: C5_5  and  N7_7 
ROOT
HETATM    1  C1  UNL     1     -33.996   6.240   4.350  1.00 20.00     0.108 C 
HETATM    2  C2  UNL     1     -33.744   7.164   5.516  1.00 20.00     0.075 C 
HETATM    3  N7  UNL     1     -33.534   6.418   3.159  1.00 20.00    -0.285 NA
ENDROOT
BRANCH   1   4
HETATM    4  C6  UNL     1     -34.838   5.022   4.610  1.00 20.00     0.430 C 
HETATM    5  F8  UNL     1     -35.008   4.806   5.939  1.00 20.00    -0.165 F 
HETATM    6  F9  UNL     1     -34.297   3.888   4.095  1.00 20.00    -0.165 F 
HETATM    7  F10 UNL     1     -36.078   5.145   4.069  1.00 20.00    -0.165 F 
ENDBRANCH   1   4
BRANCH   3   8
HETATM    8  C5  UNL     1     -32.708   7.589   2.905  1.00 20.00     0.100 C 
HETATM    9  C3  UNL     1     -31.318   7.346   3.474  1.00 20.00     0.034 C 
HETATM   10  C4  UNL     1     -32.666   7.847   1.406  1.00 20.00     0.034 C 
ENDBRANCH   3   8
TORSDOF 2
ENDMDL
MODEL 2
REMARK VINA RESULT:      -4.6      2.972      4.229
REMARK  2 active torsions:
REMARK  status: ('A' for Active; 'I' for Inactive)
REMARK    1  A    between atoms: C1_1  and  C6_6 
REMARK    2  A    between atoms: C5_5  and  N7_7 
ROOT
HETATM    1  C1  UNL     1     -33.155   6.276   2.945  1.00 20.00     0.108 C 
HETATM    2  C2  UNL     1     -33.067   4.917   2.296  1.00 20.00     0.075 C 
HETATM    3  N7  UNL     1     -33.796   6.530   4.035  1.00 20.00    -0.285 NA
ENDROOT
BRANCH   1   4
HETATM    4  C6  UNL     1     -32.428   7.406   2.269  1.00 20.00     0.430 C 
HETATM    5  F8  UNL     1     -33.276   8.406   1.918  1.00 20.00    -0.165 F 
HETATM    6  F9  UNL     1     -31.789   7.019   1.136  1.00 20.00    -0.165 F 
HETATM    7  F10 UNL     1     -31.488   7.953   3.082  1.00 20.00    -0.165 F 
ENDBRANCH   1   4
BRANCH   3   8
HETATM    8  C5  UNL     1     -34.491   5.437   4.699  1.00 20.00     0.100 C 
HETATM    9  C3  UNL     1     -34.548   5.723   6.192  1.00 20.00     0.034 C 
HETATM   10  C4  UNL     1     -35.883   5.301   4.099  1.00 20.00     0.034 C 
ENDBRANCH   3   8
TORSDOF 2
ENDMDL
MODEL 3
REMARK VINA RESULT:      -4.6      1.088      2.072
REMARK  2 active torsions:
REMARK  status: ('A' for Active; 'I' for Inactive)
REMARK    1  A    between atoms: C1_1  and  C6_6 
REMARK    2  A    between atoms: C5_5  and  N7_7 
ROOT
HETATM    1  C1  UNL     1     -33.886   5.672   3.505  1.00 20.00     0.108 C 
HETATM    2  C2  UNL     1     -33.357   4.509   2.703  1.00 20.00     0.075 C 
HETATM    3  N7  UNL     1     -33.484   6.891   3.382  1.00 20.00    -0.285 NA
ENDROOT
BRANCH   1   4
HETATM    4  C6  UNL     1     -34.968   5.378   4.506  1.00 20.00     0.430 C 
HETATM    5  F8  UNL     1     -34.922   4.089   4.928  1.00 20.00    -0.165 F 
HETATM    6  F9  UNL     1     -36.215   5.583   4.010  1.00 20.00    -0.165 F 
HETATM    7  F10 UNL     1     -34.853   6.159   5.611  1.00 20.00    -0.165 F 
ENDBRANCH   1   4
BRANCH   3   8
HETATM    8  C5  UNL     1     -32.446   7.183   2.406  1.00 20.00     0.100 C 
HETATM    9  C3  UNL     1     -32.974   8.210   1.415  1.00 20.00     0.034 C 
HETATM   10  C4  UNL     1     -31.210   7.689   3.135  1.00 20.00     0.034 C 
ENDBRANCH   3   8
TORSDOF 2
ENDMDL
MODEL 4
REMARK VINA RESULT:      -4.4      1.740      2.446
REMARK  2 active torsions:
REMARK  status: ('A' for Active; 'I' for Inactive)
REMARK    1  A    between atoms: C1_1  and  C6_6 
REMARK    2  A    between atoms: C5_5  and  N7_7 
ROOT
HETATM    1  C1  UNL     1     -34.246   6.158   4.597  1.00 20.00     0.108 C 
HETATM    2  C2  UNL     1     -35.416   5.352   4.091  1.00 20.00     0.075 C 
HETATM    3  N7  UNL     1     -33.297   6.619   3.856  1.00 20.00    -0.285 NA
ENDROOT
BRANCH   1   4
HETATM    4  C6  UNL     1     -34.202   6.450   6.071  1.00 20.00     0.430 C 
HETATM    5  F8  UNL     1     -34.356   7.775   6.323  1.00 20.00    -0.165 F 
HETATM    6  F9  UNL     1     -33.031   6.076   6.647  1.00 20.00    -0.165 F 
HETATM    7  F10 UNL     1     -35.192   5.805   6.739  1.00 20.00    -0.165 F 
ENDBRANCH   1   4
BRANCH   3   8
HETATM    8  C5  UNL     1     -33.342   6.350   2.426  1.00 20.00     0.100 C 
HETATM    9  C3  UNL     1     -32.434   7.339   1.709  1.00 20.00     0.034 C 
HETATM   10  C4  UNL     1     -32.912   4.911   2.182  1.00 20.00     0.034 C 
ENDBRANCH   3   8
TORSDOF 2
ENDMDL
MODEL 5
REMARK VINA RESULT:      -4.2     11.712     12.660
REMARK  2 active torsions:
REMARK  status: ('A' for Active; 'I' for Inactive)
REMARK    1  A    between atoms: C1_1  and  C6_6 
REMARK    2  A    between atoms: C5_5  and  N7_7 
ROOT
HETATM    1  C1  UNL     1     -33.733  15.996  -3.109  1.00 20.00     0.108 C 
HETATM    2  C2  UNL     1     -34.997  15.841  -2.300  1.00 20.00     0.075 C 
HETATM    3  N7  UNL     1     -32.887  16.959  -2.973  1.00 20.00    -0.285 NA
ENDROOT
BRANCH   1   4
HETATM    4  C6  UNL     1     -33.445  14.938  -4.138  1.00 20.00     0.430 C 
HETATM    5  F8  UNL     1     -32.126  14.618  -4.170  1.00 20.00    -0.165 F 
HETATM    6  F9  UNL     1     -33.786  15.318  -5.396  1.00 20.00    -0.165 F 
HETATM    7  F10 UNL     1     -34.122  13.790  -3.879  1.00 20.00    -0.165 F 
ENDBRANCH   1   4
BRANCH   3   8
HETATM    8  C5  UNL     1     -33.155  17.979  -1.970  1.00 20.00     0.100 C 
HETATM    9  C3  UNL     1     -31.906  18.179  -1.123  1.00 20.00     0.034 C 
HETATM   10  C4  UNL     1     -33.571  19.263  -2.672  1.00 20.00     0.034 C 
ENDBRANCH   3   8
TORSDOF 2
ENDMDL
MODEL 6
REMARK VINA RESULT:      -4.1     12.367     13.206
REMARK  2 active torsions:
REMARK  status: ('A' for Active; 'I' for Inactive)
REMARK    1  A    between atoms: C1_1  and  C6_6 
REMARK    2  A    between atoms: C5_5  and  N7_7 
ROOT
HETATM    1  C1  UNL     1     -33.843  15.211  -4.831  1.00 20.00     0.108 C 
HETATM    2  C2  UNL     1     -32.790  14.210  -4.428  1.00 20.00     0.075 C 
HETATM    3  N7  UNL     1     -34.344  16.106  -4.048  1.00 20.00    -0.285 NA
ENDROOT
BRANCH   1   4
HETATM    4  C6  UNL     1     -34.327  15.162  -6.254  1.00 20.00     0.430 C 
HETATM    5  F8  UNL     1     -35.388  14.326  -6.392  1.00 20.00    -0.165 F 
HETATM    6  F9  UNL     1     -33.375  14.732  -7.120  1.00 20.00    -0.165 F 
HETATM    7  F10 UNL     1     -34.730  16.384  -6.688  1.00 20.00    -0.165 F 
ENDBRANCH   1   4
BRANCH   3   8
HETATM    8  C5  UNL     1     -33.870  16.166  -2.674  1.00 20.00     0.100 C 
HETATM    9  C3  UNL     1     -32.952  17.370  -2.520  1.00 20.00     0.034 C 
HETATM   10  C4  UNL     1     -35.069  16.251  -1.742  1.00 20.00     0.034 C 
ENDBRANCH   3   8
TORSDOF 2
ENDMDL
MODEL 7
REMARK VINA RESULT:      -4.1     11.813     12.676
REMARK  2 active torsions:
REMARK  status: ('A' for Active; 'I' for Inactive)
REMARK    1  A    between atoms: C1_1  and  C6_6 
REMARK    2  A    between atoms: C5_5  and  N7_7 
ROOT
HETATM    1  C1  UNL     1     -33.648  16.041  -3.870  1.00 20.00     0.108 C 
HETATM    2  C2  UNL     1     -34.389  17.031  -4.735  1.00 20.00     0.075 C 
HETATM    3  N7  UNL     1     -33.276  16.261  -2.655  1.00 20.00    -0.285 NA
ENDROOT
BRANCH   1   4
HETATM    4  C6  UNL     1     -33.338  14.700  -4.476  1.00 20.00     0.430 C 
HETATM    5  F8  UNL     1     -32.044  14.345  -4.267  1.00 20.00    -0.165 F 
HETATM    6  F9  UNL     1     -33.541  14.667  -5.817  1.00 20.00    -0.165 F 
HETATM    7  F10 UNL     1     -34.107  13.718  -3.939  1.00 20.00    -0.165 F 
ENDBRANCH   1   4
BRANCH   3   8
HETATM    8  C5  UNL     1     -33.585  17.553  -2.060  1.00 20.00     0.100 C 
HETATM    9  C3  UNL     1     -34.642  17.360  -0.982  1.00 20.00     0.034 C 
HETATM   10  C4  UNL     1     -32.307  18.153  -1.494  1.00 20.00     0.034 C 
ENDBRANCH   3   8
TORSDOF 2
ENDMDL
MODEL 8
REMARK VINA RESULT:      -4.1     11.542     12.331
REMARK  2 active torsions:
REMARK  status: ('A' for Active; 'I' for Inactive)
REMARK    1  A    between atoms: C1_1  and  C6_6 
REMARK    2  A    between atoms: C5_5  and  N7_7 
ROOT
HETATM    1  C1  UNL     1     -35.756  15.296  -4.188  1.00 20.00     0.108 C 
HETATM    2  C2  UNL     1     -36.024  16.508  -5.046  1.00 20.00     0.075 C 
HETATM    3  N7  UNL     1     -35.141  15.320  -3.054  1.00 20.00    -0.285 NA
ENDROOT
BRANCH   1   4
HETATM    4  C6  UNL     1     -36.259  13.973  -4.696  1.00 20.00     0.430 C 
HETATM    5  F8  UNL     1     -36.044  13.835  -6.029  1.00 20.00    -0.165 F 
HETATM    6  F9  UNL     1     -37.591  13.803  -4.494  1.00 20.00    -0.165 F 
HETATM    7  F10 UNL     1     -35.634  12.933  -4.086  1.00 20.00    -0.165 F 
ENDBRANCH   1   4
BRANCH   3   8
HETATM    8  C5  UNL     1     -34.664  16.600  -2.553  1.00 20.00     0.100 C 
HETATM    9  C3  UNL     1     -35.126  16.769  -1.113  1.00 20.00     0.034 C 
HETATM   10  C4  UNL     1     -33.147  16.639  -2.666  1.00 20.00     0.034 C 
ENDBRANCH   3   8
TORSDOF 2
ENDMDL
MODEL 9
REMARK VINA RESULT:      -4.0      3.414      4.583
REMARK  2 active torsions:
REMARK  status: ('A' for Active; 'I' for Inactive)
REMARK    1  A    between atoms: C1_1  and  C6_6 
REMARK    2  A    between atoms: C5_5  and  N7_7 
ROOT
HETATM    1  C1  UNL     1     -32.635   7.307   2.175  1.00 20.00     0.108 C 
HETATM    2  C2  UNL     1     -31.665   7.648   3.279  1.00 20.00     0.075 C 
HETATM    3  N7  UNL     1     -33.501   6.352   2.227  1.00 20.00    -0.285 NA
ENDROOT
BRANCH   1   4
HETATM    4  C6  UNL     1     -32.588   8.156   0.935  1.00 20.00     0.430 C 
HETATM    5  F8  UNL     1     -32.626   9.480   1.234  1.00 20.00    -0.165 F 
HETATM    6  F9  UNL     1     -33.623   7.915   0.091  1.00 20.00    -0.165 F 
HETATM    7  F10 UNL     1     -31.448   7.945   0.227  1.00 20.00    -0.165 F 
ENDBRANCH   1   4
BRANCH   3   8
HETATM    8  C5  UNL     1     -33.559   5.536   3.430  1.00 20.00     0.100 C 
HETATM    9  C3  UNL     1     -34.708   6.022   4.301  1.00 20.00     0.034 C 
HETATM   10  C4  UNL     1     -33.734   4.078   3.028  1.00 20.00     0.034 C 
ENDBRANCH   3   8
TORSDOF 2
ENDMDL
