MODEL 1
REMARK VINA RESULT:      -4.2      0.000      0.000
REMARK  3 active torsions:
REMARK  status: ('A' for Active; 'I' for Inactive)
REMARK    1  A    between atoms: C1_1  and  C5_5 
REMARK    2  A    between atoms: C5_5  and  C6_6 
REMARK    3  A    between atoms: C5_5  and  O8_8 
ROOT
HETATM    1  C5  UNL     1     -23.221  17.296   9.645  1.00 20.00     0.186 C 
ENDROOT
BRANCH   1   2
HETATM    2  C1  UNL     1     -22.008  18.201   9.539  1.00 20.00     0.263 C 
HETATM    3  O7  UNL     1     -21.989  19.261   8.921  1.00 20.00    -0.304 OA
ENDBRANCH   1   2
BRANCH   1   4
HETATM    4  C6  UNL     1     -23.882  17.313  11.049  1.00 20.00    -0.019 C 
HETATM    5  C2  UNL     1     -24.475  15.935  11.397  1.00 20.00     0.017 C 
HETATM    6  C3  UNL     1     -25.031  18.344  11.054  1.00 20.00     0.017 C 
HETATM    7  C4  UNL     1     -22.873  17.718  12.141  1.00 20.00     0.017 C 
ENDBRANCH   1   4
BRANCH   1   8
HETATM    8  O8  UNL     1     -22.807  15.977   9.314  1.00 20.00    -0.388 OA
HETATM    9  H20 UNL     1     -22.266  15.660  10.056  1.00 20.00     0.210 HD
ENDBRANCH   1   8
TORSDOF 3
ENDMDL
MODEL 2
REMARK VINA RESULT:      -4.1     18.450     19.191
REMARK  3 active torsions:
REMARK  status: ('A' for Active; 'I' for Inactive)
REMARK    1  A    between atoms: C1_1  and  C5_5 
REMARK    2  A    between atoms: C5_5  and  C6_6 
REMARK    3  A    between atoms: C5_5  and  O8_8 
ROOT
HETATM    1  C5  UNL     1     -35.407  14.033  -3.773  1.00 20.00     0.186 C 
ENDROOT
BRANCH   1   2
HETATM    2  C1  UNL     1     -36.597  14.168  -4.707  1.00 20.00     0.263 C 
HETATM    3  O7  UNL     1     -37.713  13.717  -4.472  1.00 20.00    -0.304 OA
ENDBRANCH   1   2
BRANCH   1   4
HETATM    4  C6  UNL     1     -34.318  15.115  -4.003  1.00 20.00    -0.019 C 
HETATM    5  C2  UNL     1     -34.731  16.083  -5.126  1.00 20.00     0.017 C 
HETATM    6  C3  UNL     1     -33.002  14.425  -4.424  1.00 20.00     0.017 C 
HETATM    7  C4  UNL     1     -34.045  15.920  -2.717  1.00 20.00     0.017 C 
ENDBRANCH   1   4
BRANCH   1   8
HETATM    8  O8  UNL     1     -34.857  12.736  -3.958  1.00 20.00    -0.388 OA
HETATM    9  H20 UNL     1     -35.578  12.103  -3.807  1.00 20.00     0.210 HD
ENDBRANCH   1   8
TORSDOF 3
ENDMDL
MODEL 3
REMARK VINA RESULT:      -4.1     18.435     19.171
REMARK  3 active torsions:
REMARK  status: ('A' for Active; 'I' for Inactive)
REMARK    1  A    between atoms: C1_1  and  C5_5 
REMARK    2  A    between atoms: C5_5  and  C6_6 
REMARK    3  A    between atoms: C5_5  and  O8_8 
ROOT
HETATM    1  C5  UNL     1     -35.404  14.064  -3.753  1.00 20.00     0.186 C 
ENDROOT
BRANCH   1   2
HETATM    2  C1  UNL     1     -36.625  14.246  -4.636  1.00 20.00     0.263 C 
HETATM    3  O7  UNL     1     -37.699  13.680  -4.455  1.00 20.00    -0.304 OA
ENDBRANCH   1   2
BRANCH   1   4
HETATM    4  C6  UNL     1     -34.294  15.118  -4.010  1.00 20.00    -0.019 C 
HETATM    5  C2  UNL     1     -32.974  14.440  -4.417  1.00 20.00     0.017 C 
HETATM    6  C3  UNL     1     -34.044  15.914  -2.711  1.00 20.00     0.017 C 
HETATM    7  C4  UNL     1     -34.710  16.116  -5.108  1.00 20.00     0.017 C 
ENDBRANCH   1   4
BRANCH   1   8
HETATM    8  O8  UNL     1     -34.899  12.755  -3.979  1.00 20.00    -0.388 OA
HETATM    9  H20 UNL     1     -35.109  12.529  -4.900  1.00 20.00     0.210 HD
ENDBRANCH   1   8
TORSDOF 3
ENDMDL
MODEL 4
REMARK VINA RESULT:      -4.1     17.847     18.545
REMARK  3 active torsions:
REMARK  status: ('A' for Active; 'I' for Inactive)
REMARK    1  A    between atoms: C1_1  and  C5_5 
REMARK    2  A    between atoms: C5_5  and  C6_6 
REMARK    3  A    between atoms: C5_5  and  O8_8 
ROOT
HETATM    1  C5  UNL     1     -34.278  14.316  -3.893  1.00 20.00     0.186 C 
ENDROOT
BRANCH   1   2
HETATM    2  C1  UNL     1     -35.619  13.797  -4.380  1.00 20.00     0.263 C 
HETATM    3  O7  UNL     1     -35.890  12.609  -4.521  1.00 20.00    -0.304 OA
ENDBRANCH   1   2
BRANCH   1   4
HETATM    4  C6  UNL     1     -34.317  15.802  -3.448  1.00 20.00    -0.019 C 
HETATM    5  C2  UNL     1     -35.113  15.966  -2.140  1.00 20.00     0.017 C 
HETATM    6  C3  UNL     1     -35.015  16.639  -4.542  1.00 20.00     0.017 C 
HETATM    7  C4  UNL     1     -32.897  16.367  -3.249  1.00 20.00     0.017 C 
ENDBRANCH   1   4
BRANCH   1   8
HETATM    8  O8  UNL     1     -33.339  14.143  -4.945  1.00 20.00    -0.388 OA
HETATM    9  H20 UNL     1     -33.828  14.257  -5.777  1.00 20.00     0.210 HD
ENDBRANCH   1   8
TORSDOF 3
ENDMDL
MODEL 5
REMARK VINA RESULT:      -4.1     17.866     18.603
REMARK  3 active torsions:
REMARK  status: ('A' for Active; 'I' for Inactive)
REMARK    1  A    between atoms: C1_1  and  C5_5 
REMARK    2  A    between atoms: C5_5  and  C6_6 
REMARK    3  A    between atoms: C5_5  and  O8_8 
ROOT
HETATM    1  C5  UNL     1     -34.291  14.307  -3.919  1.00 20.00     0.186 C 
ENDROOT
BRANCH   1   2
HETATM    2  C1  UNL     1     -35.622  13.779  -4.423  1.00 20.00     0.263 C 
HETATM    3  O7  UNL     1     -35.911  12.589  -4.491  1.00 20.00    -0.304 OA
ENDBRANCH   1   2
BRANCH   1   4
HETATM    4  C6  UNL     1     -34.346  15.793  -3.475  1.00 20.00    -0.019 C 
HETATM    5  C2  UNL     1     -35.013  16.667  -4.554  1.00 20.00     0.017 C 
HETATM    6  C3  UNL     1     -32.908  16.310  -3.261  1.00 20.00     0.017 C 
HETATM    7  C4  UNL     1     -35.114  15.956  -2.149  1.00 20.00     0.017 C 
ENDBRANCH   1   4
BRANCH   1   8
HETATM    8  O8  UNL     1     -33.338  14.141  -4.960  1.00 20.00    -0.388 OA
HETATM    9  H20 UNL     1     -32.539  14.620  -4.686  1.00 20.00     0.210 HD
ENDBRANCH   1   8
TORSDOF 3
ENDMDL
MODEL 6
REMARK VINA RESULT:      -4.1     17.859     18.599
REMARK  3 active torsions:
REMARK  status: ('A' for Active; 'I' for Inactive)
REMARK    1  A    between atoms: C1_1  and  C5_5 
REMARK    2  A    between atoms: C5_5  and  C6_6 
REMARK    3  A    between atoms: C5_5  and  O8_8 
ROOT
HETATM    1  C5  UNL     1     -34.278  14.322  -3.914  1.00 20.00     0.186 C 
ENDROOT
BRANCH   1   2
HETATM    2  C1  UNL     1     -35.613  13.798  -4.410  1.00 20.00     0.263 C 
HETATM    3  O7  UNL     1     -35.898  12.608  -4.499  1.00 20.00    -0.304 OA
ENDBRANCH   1   2
BRANCH   1   4
HETATM    4  C6  UNL     1     -34.322  15.814  -3.488  1.00 20.00    -0.019 C 
HETATM    5  C2  UNL     1     -32.903  16.357  -3.237  1.00 20.00     0.017 C 
HETATM    6  C3  UNL     1     -35.123  15.941  -2.175  1.00 20.00     0.017 C 
HETATM    7  C4  UNL     1     -35.014  16.684  -4.556  1.00 20.00     0.017 C 
ENDBRANCH   1   4
BRANCH   1   8
HETATM    8  O8  UNL     1     -33.327  14.136  -4.953  1.00 20.00    -0.388 OA
HETATM    9  H20 UNL     1     -33.816  14.180  -5.791  1.00 20.00     0.210 HD
ENDBRANCH   1   8
TORSDOF 3
ENDMDL
MODEL 7
REMARK VINA RESULT:      -4.0     18.576     19.284
REMARK  3 active torsions:
REMARK  status: ('A' for Active; 'I' for Inactive)
REMARK    1  A    between atoms: C1_1  and  C5_5 
REMARK    2  A    between atoms: C5_5  and  C6_6 
REMARK    3  A    between atoms: C5_5  and  O8_8 
ROOT
HETATM    1  C5  UNL     1     -35.662  14.093  -3.757  1.00 20.00     0.186 C 
ENDROOT
BRANCH   1   2
HETATM    2  C1  UNL     1     -36.923  14.437  -4.529  1.00 20.00     0.263 C 
HETATM    3  O7  UNL     1     -37.988  13.840  -4.412  1.00 20.00    -0.304 OA
ENDBRANCH   1   2
BRANCH   1   4
HETATM    4  C6  UNL     1     -34.530  15.141  -3.926  1.00 20.00    -0.019 C 
HETATM    5  C2  UNL     1     -34.271  15.891  -2.607  1.00 20.00     0.017 C 
HETATM    6  C3  UNL     1     -34.956  16.176  -4.990  1.00 20.00     0.017 C 
HETATM    7  C4  UNL     1     -33.219  14.483  -4.399  1.00 20.00     0.017 C 
ENDBRANCH   1   4
BRANCH   1   8
HETATM    8  O8  UNL     1     -35.219  12.817  -4.199  1.00 20.00    -0.388 OA
HETATM    9  H20 UNL     1     -35.085  12.885  -5.158  1.00 20.00     0.210 HD
ENDBRANCH   1   8
TORSDOF 3
ENDMDL
MODEL 8
REMARK VINA RESULT:      -3.7      1.101      2.251
REMARK  3 active torsions:
REMARK  status: ('A' for Active; 'I' for Inactive)
REMARK    1  A    between atoms: C1_1  and  C5_5 
REMARK    2  A    between atoms: C5_5  and  C6_6 
REMARK    3  A    between atoms: C5_5  and  O8_8 
ROOT
HETATM    1  C5  UNL     1     -22.497  18.111   9.750  1.00 20.00     0.186 C 
ENDROOT
BRANCH   1   2
HETATM    2  C1  UNL     1     -22.107  16.965   8.835  1.00 20.00     0.263 C 
HETATM    3  O7  UNL     1     -22.152  17.013   7.610  1.00 20.00    -0.304 OA
ENDBRANCH   1   2
BRANCH   1   4
HETATM    4  C6  UNL     1     -23.706  17.784  10.667  1.00 20.00    -0.019 C 
HETATM    5  C2  UNL     1     -24.906  18.691  10.342  1.00 20.00     0.017 C 
HETATM    6  C3  UNL     1     -23.305  18.027  12.138  1.00 20.00     0.017 C 
HETATM    7  C4  UNL     1     -24.135  16.310  10.527  1.00 20.00     0.017 C 
ENDBRANCH   1   4
BRANCH   1   8
HETATM    8  O8  UNL     1     -22.792  19.236   8.933  1.00 20.00    -0.388 OA
HETATM    9  H20 UNL     1     -22.531  19.000   8.028  1.00 20.00     0.210 HD
ENDBRANCH   1   8
TORSDOF 3
ENDMDL
MODEL 9
REMARK VINA RESULT:      -3.7     18.068     18.793
REMARK  3 active torsions:
REMARK  status: ('A' for Active; 'I' for Inactive)
REMARK    1  A    between atoms: C1_1  and  C5_5 
REMARK    2  A    between atoms: C5_5  and  C6_6 
REMARK    3  A    between atoms: C5_5  and  O8_8 
ROOT
HETATM    1  C5  UNL     1     -35.743  15.063  -4.065  1.00 20.00     0.186 C 
ENDROOT
BRANCH   1   2
HETATM    2  C1  UNL     1     -35.223  13.637  -4.087  1.00 20.00     0.263 C 
HETATM    3  O7  UNL     1     -35.857  12.677  -4.513  1.00 20.00    -0.304 OA
ENDBRANCH   1   2
BRANCH   1   4
HETATM    4  C6  UNL     1     -34.764  16.066  -3.399  1.00 20.00    -0.019 C 
HETATM    5  C2  UNL     1     -34.908  17.469  -4.016  1.00 20.00     0.017 C 
HETATM    6  C3  UNL     1     -33.315  15.587  -3.631  1.00 20.00     0.017 C 
HETATM    7  C4  UNL     1     -34.999  16.156  -1.878  1.00 20.00     0.017 C 
ENDBRANCH   1   4
BRANCH   1   8
HETATM    8  O8  UNL     1     -36.986  15.060  -3.376  1.00 20.00    -0.388 OA
HETATM    9  H20 UNL     1     -37.309  14.144  -3.386  1.00 20.00     0.210 HD
ENDBRANCH   1   8
TORSDOF 3
ENDMDL
