MODEL 1
REMARK VINA RESULT:      -3.4      0.000      0.000
REMARK  2 active torsions:
REMARK  status: ('A' for Active; 'I' for Inactive)
REMARK    1  A    between atoms: C1_1  and  N7_7 
REMARK    2  A    between atoms: N6_6  and  N8_8 
ROOT
HETATM    1  C1  UNL     1     -24.831  19.029   7.352  1.00 20.00     0.220 C 
HETATM    2  N6  UNL     1     -23.640  18.662   6.999  1.00 20.00    -0.195 NA
ENDROOT
BRANCH   1   3
HETATM    3  N7  UNL     1     -25.928  19.256   6.540  1.00 20.00    -0.383 N 
HETATM    4  C2  UNL     1     -27.278  19.263   7.086  1.00 20.00     0.150 C 
HETATM    5  C3  UNL     1     -25.809  19.235   5.089  1.00 20.00     0.150 C 
ENDBRANCH   1   3
BRANCH   2   6
HETATM    6  N8  UNL     1     -22.796  18.520   8.055  1.00 20.00    -0.216 NA
HETATM    7  C4  UNL     1     -23.448  18.499   9.371  1.00 20.00     0.138 C 
HETATM    8  C5  UNL     1     -21.913  17.357   7.945  1.00 20.00     0.138 C 
ENDBRANCH   2   6
TORSDOF 2
ENDMDL
MODEL 2
REMARK VINA RESULT:      -3.2      2.467      4.314
REMARK  2 active torsions:
REMARK  status: ('A' for Active; 'I' for Inactive)
REMARK    1  A    between atoms: C1_1  and  N7_7 
REMARK    2  A    between atoms: N6_6  and  N8_8 
ROOT
HETATM    1  C1  UNL     1     -24.183  17.666  10.118  1.00 20.00     0.220 C 
HETATM    2  N6  UNL     1     -23.124  18.384   9.917  1.00 20.00    -0.195 NA
ENDROOT
BRANCH   1   3
HETATM    3  N7  UNL     1     -24.735  17.284  11.328  1.00 20.00    -0.383 N 
HETATM    4  C2  UNL     1     -24.664  15.903  11.783  1.00 20.00     0.150 C 
HETATM    5  C3  UNL     1     -25.628  18.171  12.063  1.00 20.00     0.150 C 
ENDBRANCH   1   3
BRANCH   2   6
HETATM    6  N8  UNL     1     -22.863  18.581   8.598  1.00 20.00    -0.216 NA
HETATM    7  C4  UNL     1     -22.037  17.544   7.966  1.00 20.00     0.138 C 
HETATM    8  C5  UNL     1     -24.067  18.785   7.789  1.00 20.00     0.138 C 
ENDBRANCH   2   6
TORSDOF 2
ENDMDL
MODEL 3
REMARK VINA RESULT:      -3.0      2.701      3.945
REMARK  2 active torsions:
REMARK  status: ('A' for Active; 'I' for Inactive)
REMARK    1  A    between atoms: C1_1  and  N7_7 
REMARK    2  A    between atoms: N6_6  and  N8_8 
ROOT
HETATM    1  C1  UNL     1     -24.298  18.059   9.813  1.00 20.00     0.220 C 
HETATM    2  N6  UNL     1     -23.724  18.024  10.974  1.00 20.00    -0.195 NA
ENDROOT
BRANCH   1   3
HETATM    3  N7  UNL     1     -23.713  18.289   8.581  1.00 20.00    -0.383 N 
HETATM    4  C2  UNL     1     -24.443  18.965   7.518  1.00 20.00     0.150 C 
HETATM    5  C3  UNL     1     -22.461  17.645   8.208  1.00 20.00     0.150 C 
ENDBRANCH   1   3
BRANCH   2   6
HETATM    6  N8  UNL     1     -24.594  17.761  11.985  1.00 20.00    -0.216 NA
HETATM    7  C4  UNL     1     -25.719  18.699  12.094  1.00 20.00     0.138 C 
HETATM    8  C5  UNL     1     -25.117  16.394  11.965  1.00 20.00     0.138 C 
ENDBRANCH   2   6
TORSDOF 2
ENDMDL
MODEL 4
REMARK VINA RESULT:      -3.0     13.609     15.717
REMARK  2 active torsions:
REMARK  status: ('A' for Active; 'I' for Inactive)
REMARK    1  A    between atoms: C1_1  and  N7_7 
REMARK    2  A    between atoms: N6_6  and  N8_8 
ROOT
HETATM    1  C1  UNL     1     -34.782  15.503  -3.331  1.00 20.00     0.220 C 
HETATM    2  N6  UNL     1     -34.141  14.594  -3.996  1.00 20.00    -0.195 NA
ENDROOT
BRANCH   1   3
HETATM    3  N7  UNL     1     -34.313  16.290  -2.295  1.00 20.00    -0.383 N 
HETATM    4  C2  UNL     1     -35.167  16.638  -1.169  1.00 20.00     0.150 C 
HETATM    5  C3  UNL     1     -33.053  17.013  -2.409  1.00 20.00     0.150 C 
ENDBRANCH   1   3
BRANCH   2   6
HETATM    6  N8  UNL     1     -34.901  14.013  -4.961  1.00 20.00    -0.216 NA
HETATM    7  C4  UNL     1     -36.259  13.641  -4.543  1.00 20.00     0.138 C 
HETATM    8  C5  UNL     1     -34.984  14.801  -6.193  1.00 20.00     0.138 C 
ENDBRANCH   2   6
TORSDOF 2
ENDMDL
MODEL 5
REMARK VINA RESULT:      -2.9     17.111     18.246
REMARK  2 active torsions:
REMARK  status: ('A' for Active; 'I' for Inactive)
REMARK    1  A    between atoms: C1_1  and  N7_7 
REMARK    2  A    between atoms: N6_6  and  N8_8 
ROOT
HETATM    1  C1  UNL     1     -37.818  15.062  -4.499  1.00 20.00     0.220 C 
HETATM    2  N6  UNL     1     -37.525  13.799  -4.500  1.00 20.00    -0.195 NA
ENDROOT
BRANCH   1   3
HETATM    3  N7  UNL     1     -38.978  15.666  -4.051  1.00 20.00    -0.383 N 
HETATM    4  C2  UNL     1     -40.286  15.176  -4.460  1.00 20.00     0.150 C 
HETATM    5  C3  UNL     1     -38.944  16.957  -3.377  1.00 20.00     0.150 C 
ENDBRANCH   1   3
BRANCH   2   6
HETATM    6  N8  UNL     1     -36.290  13.545  -5.005  1.00 20.00    -0.216 NA
HETATM    7  C4  UNL     1     -35.921  14.348  -6.178  1.00 20.00     0.138 C 
HETATM    8  C5  UNL     1     -35.220  13.642  -4.010  1.00 20.00     0.138 C 
ENDBRANCH   2   6
TORSDOF 2
ENDMDL
MODEL 6
REMARK VINA RESULT:      -2.9      3.932      5.735
REMARK  2 active torsions:
REMARK  status: ('A' for Active; 'I' for Inactive)
REMARK    1  A    between atoms: C1_1  and  N7_7 
REMARK    2  A    between atoms: N6_6  and  N8_8 
ROOT
HETATM    1  C1  UNL     1     -24.624  18.145  11.212  1.00 20.00     0.220 C 
HETATM    2  N6  UNL     1     -25.498  17.601  11.999  1.00 20.00    -0.195 NA
ENDROOT
BRANCH   1   3
HETATM    3  N7  UNL     1     -23.371  17.666  10.872  1.00 20.00    -0.383 N 
HETATM    4  C2  UNL     1     -23.184  16.811   9.709  1.00 20.00     0.150 C 
HETATM    5  C3  UNL     1     -22.247  17.775  11.792  1.00 20.00     0.150 C 
ENDBRANCH   1   3
BRANCH   2   6
HETATM    6  N8  UNL     1     -26.637  18.335  12.109  1.00 20.00    -0.216 NA
HETATM    7  C4  UNL     1     -26.887  19.263  10.998  1.00 20.00     0.138 C 
HETATM    8  C5  UNL     1     -27.836  17.523  12.327  1.00 20.00     0.138 C 
ENDBRANCH   2   6
TORSDOF 2
ENDMDL
MODEL 7
REMARK VINA RESULT:      -2.9     17.162     18.150
REMARK  2 active torsions:
REMARK  status: ('A' for Active; 'I' for Inactive)
REMARK    1  A    between atoms: C1_1  and  N7_7 
REMARK    2  A    between atoms: N6_6  and  N8_8 
ROOT
HETATM    1  C1  UNL     1     -37.711  15.176  -4.506  1.00 20.00     0.220 C 
HETATM    2  N6  UNL     1     -37.531  13.893  -4.511  1.00 20.00    -0.195 NA
ENDROOT
BRANCH   1   3
HETATM    3  N7  UNL     1     -38.813  15.879  -4.054  1.00 20.00    -0.383 N 
HETATM    4  C2  UNL     1     -38.659  17.127  -3.322  1.00 20.00     0.150 C 
HETATM    5  C3  UNL     1     -40.142  15.280  -4.057  1.00 20.00     0.150 C 
ENDBRANCH   1   3
BRANCH   2   6
HETATM    6  N8  UNL     1     -36.323  13.532  -5.019  1.00 20.00    -0.216 NA
HETATM    7  C4  UNL     1     -35.890  14.298  -6.195  1.00 20.00     0.138 C 
HETATM    8  C5  UNL     1     -35.246  13.539  -4.026  1.00 20.00     0.138 C 
ENDBRANCH   2   6
TORSDOF 2
ENDMDL
MODEL 8
REMARK VINA RESULT:      -2.8     13.601     15.735
REMARK  2 active torsions:
REMARK  status: ('A' for Active; 'I' for Inactive)
REMARK    1  A    between atoms: C1_1  and  N7_7 
REMARK    2  A    between atoms: N6_6  and  N8_8 
ROOT
HETATM    1  C1  UNL     1     -34.799  15.697  -3.413  1.00 20.00     0.220 C 
HETATM    2  N6  UNL     1     -34.179  14.674  -3.913  1.00 20.00    -0.195 NA
ENDROOT
BRANCH   1   3
HETATM    3  N7  UNL     1     -34.381  16.528  -2.390  1.00 20.00    -0.383 N 
HETATM    4  C2  UNL     1     -33.027  17.060  -2.359  1.00 20.00     0.150 C 
HETATM    5  C3  UNL     1     -35.177  16.692  -1.180  1.00 20.00     0.150 C 
ENDBRANCH   1   3
BRANCH   2   6
HETATM    6  N8  UNL     1     -34.870  14.081  -4.922  1.00 20.00    -0.216 NA
HETATM    7  C4  UNL     1     -36.243  13.684  -4.585  1.00 20.00     0.138 C 
HETATM    8  C5  UNL     1     -34.894  14.869  -6.157  1.00 20.00     0.138 C 
ENDBRANCH   2   6
TORSDOF 2
ENDMDL
MODEL 9
REMARK VINA RESULT:      -2.8     12.721     14.849
REMARK  2 active torsions:
REMARK  status: ('A' for Active; 'I' for Inactive)
REMARK    1  A    between atoms: C1_1  and  N7_7 
REMARK    2  A    between atoms: N6_6  and  N8_8 
ROOT
HETATM    1  C1  UNL     1     -33.895  16.091  -2.689  1.00 20.00     0.220 C 
HETATM    2  N6  UNL     1     -34.909  15.298  -2.839  1.00 20.00    -0.195 NA
ENDROOT
BRANCH   1   3
HETATM    3  N7  UNL     1     -33.772  17.161  -1.821  1.00 20.00    -0.383 N 
HETATM    4  C2  UNL     1     -32.531  17.915  -1.730  1.00 20.00     0.150 C 
HETATM    5  C3  UNL     1     -34.768  17.411  -0.787  1.00 20.00     0.150 C 
ENDBRANCH   1   3
BRANCH   2   6
HETATM    6  N8  UNL     1     -34.694  14.338  -3.777  1.00 20.00    -0.216 NA
HETATM    7  C4  UNL     1     -35.907  13.812  -4.416  1.00 20.00     0.138 C 
HETATM    8  C5  UNL     1     -33.747  14.742  -4.819  1.00 20.00     0.138 C 
ENDBRANCH   2   6
TORSDOF 2
ENDMDL
