MODEL 1
REMARK VINA RESULT:      -5.3      0.000      0.000
REMARK  0 active torsions:
REMARK  status: ('A' for Active; 'I' for Inactive)
ROOT
HETATM    1  C1  UNL     1     -24.442  19.250   9.240  1.00 20.00     0.009 A 
HETATM    2  C2  UNL     1     -23.375  18.908   8.409  1.00 20.00     0.024 A 
HETATM    3  C3  UNL     1     -23.187  16.774   9.526  1.00 20.00     0.033 A 
HETATM    4  C4  UNL     1     -24.885  18.358  10.226  1.00 20.00    -0.048 A 
HETATM    5  C5  UNL     1     -24.265  17.103  10.358  1.00 20.00    -0.022 A 
HETATM    6  C6  UNL     1     -22.747  17.672   8.553  1.00 20.00     0.034 A 
HETATM    7  C7  UNL     1     -26.061  18.719  11.096  1.00 20.00     0.069 C 
HETATM    8  C8  UNL     1     -24.709  16.139  11.431  1.00 20.00     0.308 C 
HETATM    9  C9  UNL     1     -26.174  17.823  12.332  1.00 20.00     0.274 C 
HETATM   10  N10 UNL     1     -26.053  16.416  11.951  1.00 20.00     0.087 N 
HETATM   11 CL11 UNL     1     -21.427  17.254   7.531  1.00 20.00    -0.084 Cl
HETATM   12  H21 UNL     1     -26.743  16.202  11.231  1.00 20.00     0.316 HD
ENDROOT
TORSDOF 0
ENDMDL
MODEL 2
REMARK VINA RESULT:      -5.0     15.794     16.285
REMARK  0 active torsions:
REMARK  status: ('A' for Active; 'I' for Inactive)
ROOT
HETATM    1  C1  UNL     1     -32.911  15.962  -3.516  1.00 20.00     0.009 A 
HETATM    2  C2  UNL     1     -33.690  14.979  -4.127  1.00 20.00     0.024 A 
HETATM    3  C3  UNL     1     -35.504  15.471  -2.609  1.00 20.00     0.033 A 
HETATM    4  C4  UNL     1     -33.422  16.703  -2.441  1.00 20.00    -0.048 A 
HETATM    5  C5  UNL     1     -34.734  16.468  -1.996  1.00 20.00    -0.022 A 
HETATM    6  C6  UNL     1     -34.984  14.732  -3.673  1.00 20.00     0.034 A 
HETATM    7  C7  UNL     1     -32.588  17.787  -1.809  1.00 20.00     0.069 C 
HETATM    8  C8  UNL     1     -35.293  17.235  -0.822  1.00 20.00     0.308 C 
HETATM    9  C9  UNL     1     -33.133  18.229  -0.449  1.00 20.00     0.274 C 
HETATM   10  N10 UNL     1     -34.571  18.480  -0.536  1.00 20.00     0.087 N 
HETATM   11 CL11 UNL     1     -35.942  13.516  -4.425  1.00 20.00    -0.084 Cl
HETATM   12  H21 UNL     1     -34.750  19.152  -1.282  1.00 20.00     0.316 HD
ENDROOT
TORSDOF 0
ENDMDL
MODEL 3
REMARK VINA RESULT:      -4.9     16.576     17.074
REMARK  0 active torsions:
REMARK  status: ('A' for Active; 'I' for Inactive)
ROOT
HETATM    1  C1  UNL     1     -35.438  16.414  -1.858  1.00 20.00     0.009 A 
HETATM    2  C2  UNL     1     -34.393  17.168  -1.324  1.00 20.00     0.024 A 
HETATM    3  C3  UNL     1     -32.972  16.500  -3.160  1.00 20.00     0.033 A 
HETATM    4  C4  UNL     1     -35.255  15.691  -3.045  1.00 20.00    -0.048 A 
HETATM    5  C5  UNL     1     -34.019  15.749  -3.711  1.00 20.00    -0.022 A 
HETATM    6  C6  UNL     1     -33.160  17.209  -1.974  1.00 20.00     0.034 A 
HETATM    7  C7  UNL     1     -36.399  14.907  -3.635  1.00 20.00     0.069 C 
HETATM    8  C8  UNL     1     -33.792  14.956  -4.975  1.00 20.00     0.308 C 
HETATM    9  C9  UNL     1     -35.939  13.904  -4.694  1.00 20.00     0.274 C 
HETATM   10  N10 UNL     1     -35.034  14.550  -5.644  1.00 20.00     0.087 N 
HETATM   11 CL11 UNL     1     -31.870  18.136  -1.311  1.00 20.00    -0.084 Cl
HETATM   12  H21 UNL     1     -35.490  15.373  -6.037  1.00 20.00     0.316 HD
ENDROOT
TORSDOF 0
ENDMDL
MODEL 4
REMARK VINA RESULT:      -4.8      1.998      2.415
REMARK  0 active torsions:
REMARK  status: ('A' for Active; 'I' for Inactive)
ROOT
HETATM    1  C1  UNL     1     -25.780  19.014   9.377  1.00 20.00     0.009 A 
HETATM    2  C2  UNL     1     -25.641  19.262   8.011  1.00 20.00     0.024 A 
HETATM    3  C3  UNL     1     -23.410  18.335   8.068  1.00 20.00     0.033 A 
HETATM    4  C4  UNL     1     -24.731  18.429  10.100  1.00 20.00    -0.048 A 
HETATM    5  C5  UNL     1     -23.544  18.071   9.437  1.00 20.00    -0.022 A 
HETATM    6  C6  UNL     1     -24.456  18.926   7.358  1.00 20.00     0.034 A 
HETATM    7  C7  UNL     1     -24.901  18.131  11.567  1.00 20.00     0.069 C 
HETATM    8  C8  UNL     1     -22.393  17.466  10.203  1.00 20.00     0.308 C 
HETATM    9  C9  UNL     1     -23.570  17.849  12.267  1.00 20.00     0.274 C 
HETATM   10  N10 UNL     1     -22.784  16.888  11.494  1.00 20.00     0.087 N 
HETATM   11 CL11 UNL     1     -24.285  19.238   5.674  1.00 20.00    -0.084 Cl
HETATM   12  H21 UNL     1     -23.342  16.050  11.332  1.00 20.00     0.316 HD
ENDROOT
TORSDOF 0
ENDMDL
MODEL 5
REMARK VINA RESULT:      -4.8      2.047      2.760
REMARK  0 active torsions:
REMARK  status: ('A' for Active; 'I' for Inactive)
ROOT
HETATM    1  C1  UNL     1     -22.797  18.042   8.665  1.00 20.00     0.009 A 
HETATM    2  C2  UNL     1     -23.390  18.368   7.445  1.00 20.00     0.024 A 
HETATM    3  C3  UNL     1     -25.403  19.039   8.599  1.00 20.00     0.033 A 
HETATM    4  C4  UNL     1     -23.508  18.205   9.862  1.00 20.00    -0.048 A 
HETATM    5  C5  UNL     1     -24.813  18.725   9.831  1.00 20.00    -0.022 A 
HETATM    6  C6  UNL     1     -24.692  18.865   7.412  1.00 20.00     0.034 A 
HETATM    7  C7  UNL     1     -22.850  17.883  11.179  1.00 20.00     0.069 C 
HETATM    8  C8  UNL     1     -25.605  18.882  11.107  1.00 20.00     0.308 C 
HETATM    9  C9  UNL     1     -23.857  17.762  12.325  1.00 20.00     0.274 C 
HETATM   10  N10 UNL     1     -24.774  18.902  12.315  1.00 20.00     0.087 N 
HETATM   11 CL11 UNL     1     -25.422  19.263   5.905  1.00 20.00    -0.084 Cl
HETATM   12  H21 UNL     1     -24.235  19.767  12.340  1.00 20.00     0.316 HD
ENDROOT
TORSDOF 0
ENDMDL
MODEL 6
REMARK VINA RESULT:      -4.8     15.737     16.280
REMARK  0 active torsions:
REMARK  status: ('A' for Active; 'I' for Inactive)
ROOT
HETATM    1  C1  UNL     1     -35.370  16.712  -1.390  1.00 20.00     0.009 A 
HETATM    2  C2  UNL     1     -34.605  17.674  -0.731  1.00 20.00     0.024 A 
HETATM    3  C3  UNL     1     -32.745  17.205  -2.199  1.00 20.00     0.033 A 
HETATM    4  C4  UNL     1     -34.825  15.983  -2.456  1.00 20.00    -0.048 A 
HETATM    5  C5  UNL     1     -33.509  16.244  -2.876  1.00 20.00    -0.022 A 
HETATM    6  C6  UNL     1     -33.294  17.919  -1.133  1.00 20.00     0.034 A 
HETATM    7  C7  UNL     1     -35.667  14.969  -3.187  1.00 20.00     0.069 C 
HETATM    8  C8  UNL     1     -32.893  15.451  -4.003  1.00 20.00     0.308 C 
HETATM    9  C9  UNL     1     -34.831  14.024  -4.052  1.00 20.00     0.274 C 
HETATM   10  N10 UNL     1     -33.880  14.787  -4.861  1.00 20.00     0.087 N 
HETATM   11 CL11 UNL     1     -32.350  19.103  -0.315  1.00 20.00    -0.084 Cl
HETATM   12  H21 UNL     1     -34.385  15.489  -5.401  1.00 20.00     0.316 HD
ENDROOT
TORSDOF 0
ENDMDL
MODEL 7
REMARK VINA RESULT:      -4.7     16.836     17.398
REMARK  0 active torsions:
REMARK  status: ('A' for Active; 'I' for Inactive)
ROOT
HETATM    1  C1  UNL     1     -32.985  16.326  -3.432  1.00 20.00     0.009 A 
HETATM    2  C2  UNL     1     -33.087  17.001  -2.216  1.00 20.00     0.024 A 
HETATM    3  C3  UNL     1     -35.389  16.296  -2.015  1.00 20.00     0.033 A 
HETATM    4  C4  UNL     1     -34.088  15.637  -3.953  1.00 20.00    -0.048 A 
HETATM    5  C5  UNL     1     -35.294  15.606  -3.231  1.00 20.00    -0.022 A 
HETATM    6  C6  UNL     1     -34.288  16.988  -1.509  1.00 20.00     0.034 A 
HETATM    7  C7  UNL     1     -33.962  14.881  -5.251  1.00 20.00     0.069 C 
HETATM    8  C8  UNL     1     -36.502  14.892  -3.787  1.00 20.00     0.308 C 
HETATM    9  C9  UNL     1     -35.320  14.508  -5.849  1.00 20.00     0.274 C 
HETATM   10  N10 UNL     1     -36.176  13.909  -4.826  1.00 20.00     0.087 N 
HETATM   11 CL11 UNL     1     -34.413  17.825  -0.010  1.00 20.00    -0.084 Cl
HETATM   12  H21 UNL     1     -35.690  13.119  -4.401  1.00 20.00     0.316 HD
ENDROOT
TORSDOF 0
ENDMDL
MODEL 8
REMARK VINA RESULT:      -4.7      3.015      4.049
REMARK  0 active torsions:
REMARK  status: ('A' for Active; 'I' for Inactive)
ROOT
HETATM    1  C1  UNL     1     -24.760  19.146   8.996  1.00 20.00     0.009 A 
HETATM    2  C2  UNL     1     -25.969  19.262   9.682  1.00 20.00     0.024 A 
HETATM    3  C3  UNL     1     -24.982  18.192  11.610  1.00 20.00     0.033 A 
HETATM    4  C4  UNL     1     -23.653  18.545   9.611  1.00 20.00    -0.048 A 
HETATM    5  C5  UNL     1     -23.760  18.081  10.934  1.00 20.00    -0.022 A 
HETATM    6  C6  UNL     1     -26.081  18.784  10.986  1.00 20.00     0.034 A 
HETATM    7  C7  UNL     1     -22.340  18.454   8.878  1.00 20.00     0.069 C 
HETATM    8  C8  UNL     1     -22.588  17.405  11.604  1.00 20.00     0.308 C 
HETATM    9  C9  UNL     1     -21.372  17.464   9.528  1.00 20.00     0.274 C 
HETATM   10  N10 UNL     1     -21.298  17.699  10.969  1.00 20.00     0.087 N 
HETATM   11 CL11 UNL     1     -27.575  18.925  11.829  1.00 20.00    -0.084 Cl
HETATM   12  H21 UNL     1     -21.054  18.675  11.139  1.00 20.00     0.316 HD
ENDROOT
TORSDOF 0
ENDMDL
MODEL 9
REMARK VINA RESULT:      -4.6     15.268     15.842
REMARK  0 active torsions:
REMARK  status: ('A' for Active; 'I' for Inactive)
ROOT
HETATM    1  C1  UNL     1     -32.499   7.807   4.461  1.00 20.00     0.009 A 
HETATM    2  C2  UNL     1     -31.996   8.065   3.186  1.00 20.00     0.024 A 
HETATM    3  C3  UNL     1     -33.290   6.227   2.301  1.00 20.00     0.033 A 
HETATM    4  C4  UNL     1     -33.396   6.750   4.667  1.00 20.00    -0.048 A 
HETATM    5  C5  UNL     1     -33.809   5.965   3.576  1.00 20.00    -0.022 A 
HETATM    6  C6  UNL     1     -32.390   7.275   2.107  1.00 20.00     0.034 A 
HETATM    7  C7  UNL     1     -33.962   6.497   6.041  1.00 20.00     0.069 C 
HETATM    8  C8  UNL     1     -34.753   4.806   3.781  1.00 20.00     0.308 C 
HETATM    9  C9  UNL     1     -34.613   5.118   6.163  1.00 20.00     0.274 C 
HETATM   10  N10 UNL     1     -35.512   4.880   5.034  1.00 20.00     0.087 N 
HETATM   11 CL11 UNL     1     -31.765   7.593   0.535  1.00 20.00    -0.084 Cl
HETATM   12  H21 UNL     1     -36.187   5.642   4.975  1.00 20.00     0.316 HD
ENDROOT
TORSDOF 0
ENDMDL
