MODEL 1
REMARK VINA RESULT:      -5.3      0.000      0.000
REMARK  1 active torsions:
REMARK  status: ('A' for Active; 'I' for Inactive)
REMARK    1  A    between atoms: C2_2  and  C4_4 
ROOT
HETATM    1  C1  UNL     1     -34.108   6.432   5.389  1.00 20.00     0.146 C 
HETATM    2  C4  UNL     1     -34.904   5.366   4.785  1.00 20.00     0.388 C 
HETATM    3  N5  UNL     1     -33.480   7.281   5.871  1.00 20.00    -0.190 NA
HETATM    4  F9  UNL     1     -35.351   4.550   5.776  1.00 20.00    -0.181 F 
HETATM    5  F10 UNL     1     -36.013   5.923   4.229  1.00 20.00    -0.181 F 
ENDROOT
BRANCH   2   6
HETATM    6  C2  UNL     1     -34.095   4.587   3.799  1.00 20.00     0.247 C 
HETATM    7  C3  UNL     1     -33.413   5.115   2.776  1.00 20.00     0.308 C 
HETATM    8  F7  UNL     1     -32.708   4.330   1.935  1.00 20.00    -0.170 F 
HETATM    9  F8  UNL     1     -33.434   6.450   2.580  1.00 20.00    -0.170 F 
HETATM   10  F6  UNL     1     -34.069   3.239   3.934  1.00 20.00    -0.197 F 
ENDBRANCH   2   6
TORSDOF 1
ENDMDL
MODEL 2
REMARK VINA RESULT:      -5.1      1.933      3.616
REMARK  1 active torsions:
REMARK  status: ('A' for Active; 'I' for Inactive)
REMARK    1  A    between atoms: C2_2  and  C4_4 
ROOT
HETATM    1  C1  UNL     1     -32.742   6.900   2.251  1.00 20.00     0.146 C 
HETATM    2  C4  UNL     1     -33.369   5.740   2.882  1.00 20.00     0.388 C 
HETATM    3  N5  UNL     1     -32.243   7.818   1.747  1.00 20.00    -0.190 NA
HETATM    4  F9  UNL     1     -34.443   5.373   2.132  1.00 20.00    -0.181 F 
HETATM    5  F10 UNL     1     -32.497   4.698   2.823  1.00 20.00    -0.181 F 
ENDROOT
BRANCH   2   6
HETATM    6  C2  UNL     1     -33.796   6.055   4.278  1.00 20.00     0.247 C 
HETATM    7  C3  UNL     1     -34.678   5.347   4.992  1.00 20.00     0.308 C 
HETATM    8  F7  UNL     1     -35.002   5.709   6.250  1.00 20.00    -0.170 F 
HETATM    9  F8  UNL     1     -35.255   4.256   4.444  1.00 20.00    -0.170 F 
HETATM   10  F6  UNL     1     -33.269   7.159   4.861  1.00 20.00    -0.197 F 
ENDBRANCH   2   6
TORSDOF 1
ENDMDL
MODEL 3
REMARK VINA RESULT:      -5.1     11.876     12.757
REMARK  1 active torsions:
REMARK  status: ('A' for Active; 'I' for Inactive)
REMARK    1  A    between atoms: C2_2  and  C4_4 
ROOT
HETATM    1  C1  UNL     1     -36.685  14.084  -4.289  1.00 20.00     0.146 C 
HETATM    2  C4  UNL     1     -35.234  14.233  -4.192  1.00 20.00     0.388 C 
HETATM    3  N5  UNL     1     -37.836  13.961  -4.369  1.00 20.00    -0.190 NA
HETATM    4  F9  UNL     1     -34.706  13.045  -3.793  1.00 20.00    -0.181 F 
HETATM    5  F10 UNL     1     -34.744  14.460  -5.441  1.00 20.00    -0.181 F 
ENDROOT
BRANCH   2   6
HETATM    6  C2  UNL     1     -34.870  15.312  -3.226  1.00 20.00     0.247 C 
HETATM    7  C3  UNL     1     -33.643  15.820  -3.066  1.00 20.00     0.308 C 
HETATM    8  F7  UNL     1     -33.409  16.797  -2.165  1.00 20.00    -0.170 F 
HETATM    9  F8  UNL     1     -32.623  15.346  -3.812  1.00 20.00    -0.170 F 
HETATM   10  F6  UNL     1     -35.853  15.800  -2.431  1.00 20.00    -0.197 F 
ENDBRANCH   2   6
TORSDOF 1
ENDMDL
MODEL 4
REMARK VINA RESULT:      -5.1      2.024      2.809
REMARK  1 active torsions:
REMARK  status: ('A' for Active; 'I' for Inactive)
REMARK    1  A    between atoms: C2_2  and  C4_4 
ROOT
HETATM    1  C1  UNL     1     -34.344   4.282   4.252  1.00 20.00     0.146 C 
HETATM    2  C4  UNL     1     -34.731   5.598   4.754  1.00 20.00     0.388 C 
HETATM    3  N5  UNL     1     -34.041   3.234   3.855  1.00 20.00    -0.190 NA
HETATM    4  F9  UNL     1     -35.858   5.992   4.102  1.00 20.00    -0.181 F 
HETATM    5  F10 UNL     1     -35.080   5.471   6.063  1.00 20.00    -0.181 F 
ENDROOT
BRANCH   2   6
HETATM    6  C2  UNL     1     -33.637   6.594   4.545  1.00 20.00     0.247 C 
HETATM    7  C3  UNL     1     -32.977   6.781   3.396  1.00 20.00     0.308 C 
HETATM    8  F7  UNL     1     -32.000   7.707   3.301  1.00 20.00    -0.170 F 
HETATM    9  F8  UNL     1     -33.288   6.030   2.319  1.00 20.00    -0.170 F 
HETATM   10  F6  UNL     1     -33.265   7.349   5.605  1.00 20.00    -0.197 F 
ENDBRANCH   2   6
TORSDOF 1
ENDMDL
MODEL 5
REMARK VINA RESULT:      -5.0      1.054      1.557
REMARK  1 active torsions:
REMARK  status: ('A' for Active; 'I' for Inactive)
REMARK    1  A    between atoms: C2_2  and  C4_4 
ROOT
HETATM    1  C1  UNL     1     -34.272   5.959   5.272  1.00 20.00     0.146 C 
HETATM    2  C4  UNL     1     -34.508   5.162   4.070  1.00 20.00     0.388 C 
HETATM    3  N5  UNL     1     -34.089   6.589   6.229  1.00 20.00    -0.190 NA
HETATM    4  F9  UNL     1     -34.464   3.846   4.412  1.00 20.00    -0.181 F 
HETATM    5  F10 UNL     1     -35.778   5.397   3.644  1.00 20.00    -0.181 F 
ENDROOT
BRANCH   2   6
HETATM    6  C2  UNL     1     -33.485   5.459   3.022  1.00 20.00     0.247 C 
HETATM    7  C3  UNL     1     -33.067   6.683   2.680  1.00 20.00     0.308 C 
HETATM    8  F7  UNL     1     -32.136   6.853   1.719  1.00 20.00    -0.170 F 
HETATM    9  F8  UNL     1     -33.587   7.762   3.302  1.00 20.00    -0.170 F 
HETATM   10  F6  UNL     1     -32.956   4.410   2.347  1.00 20.00    -0.197 F 
ENDBRANCH   2   6
TORSDOF 1
ENDMDL
MODEL 6
REMARK VINA RESULT:      -5.0      1.380      3.124
REMARK  1 active torsions:
REMARK  status: ('A' for Active; 'I' for Inactive)
REMARK    1  A    between atoms: C2_2  and  C4_4 
ROOT
HETATM    1  C1  UNL     1     -32.680   6.407   2.829  1.00 20.00     0.146 C 
HETATM    2  C4  UNL     1     -33.475   5.194   2.652  1.00 20.00     0.388 C 
HETATM    3  N5  UNL     1     -32.048   7.371   2.965  1.00 20.00    -0.190 NA
HETATM    4  F9  UNL     1     -34.424   5.436   1.708  1.00 20.00    -0.181 F 
HETATM    5  F10 UNL     1     -32.670   4.227   2.135  1.00 20.00    -0.181 F 
ENDROOT
BRANCH   2   6
HETATM    6  C2  UNL     1     -34.116   4.781   3.937  1.00 20.00     0.247 C 
HETATM    7  C3  UNL     1     -34.699   5.613   4.807  1.00 20.00     0.308 C 
HETATM    8  F7  UNL     1     -35.254   5.148   5.946  1.00 20.00    -0.170 F 
HETATM    9  F8  UNL     1     -34.730   6.937   4.545  1.00 20.00    -0.170 F 
HETATM   10  F6  UNL     1     -34.082   3.466   4.261  1.00 20.00    -0.197 F 
ENDBRANCH   2   6
TORSDOF 1
ENDMDL
MODEL 7
REMARK VINA RESULT:      -5.0      2.176      3.746
REMARK  1 active torsions:
REMARK  status: ('A' for Active; 'I' for Inactive)
REMARK    1  A    between atoms: C2_2  and  C4_4 
ROOT
HETATM    1  C1  UNL     1     -33.096   5.444   2.726  1.00 20.00     0.146 C 
HETATM    2  C4  UNL     1     -33.180   6.713   3.444  1.00 20.00     0.388 C 
HETATM    3  N5  UNL     1     -33.028   4.437   2.151  1.00 20.00    -0.190 NA
HETATM    4  F9  UNL     1     -31.936   7.261   3.495  1.00 20.00    -0.181 F 
HETATM    5  F10 UNL     1     -33.937   7.571   2.709  1.00 20.00    -0.181 F 
ENDROOT
BRANCH   2   6
HETATM    6  C2  UNL     1     -33.714   6.513   4.825  1.00 20.00     0.247 C 
HETATM    7  C3  UNL     1     -34.785   5.773   5.136  1.00 20.00     0.308 C 
HETATM    8  F7  UNL     1     -35.194   5.650   6.415  1.00 20.00    -0.170 F 
HETATM    9  F8  UNL     1     -35.467   5.145   4.155  1.00 20.00    -0.170 F 
HETATM   10  F6  UNL     1     -33.083   7.149   5.840  1.00 20.00    -0.197 F 
ENDBRANCH   2   6
TORSDOF 1
ENDMDL
MODEL 8
REMARK VINA RESULT:      -5.0      2.140      3.644
REMARK  1 active torsions:
REMARK  status: ('A' for Active; 'I' for Inactive)
REMARK    1  A    between atoms: C2_2  and  C4_4 
ROOT
HETATM    1  C1  UNL     1     -33.678   4.790   2.790  1.00 20.00     0.146 C 
HETATM    2  C4  UNL     1     -34.424   5.018   4.027  1.00 20.00     0.388 C 
HETATM    3  N5  UNL     1     -33.089   4.606   1.807  1.00 20.00    -0.190 NA
HETATM    4  F9  UNL     1     -35.744   5.123   3.719  1.00 20.00    -0.181 F 
HETATM    5  F10 UNL     1     -34.308   3.908   4.805  1.00 20.00    -0.181 F 
ENDROOT
BRANCH   2   6
HETATM    6  C2  UNL     1     -33.952   6.256   4.716  1.00 20.00     0.247 C 
HETATM    7  C3  UNL     1     -34.282   6.617   5.961  1.00 20.00     0.308 C 
HETATM    8  F7  UNL     1     -33.805   7.758   6.502  1.00 20.00    -0.170 F 
HETATM    9  F8  UNL     1     -35.107   5.832   6.685  1.00 20.00    -0.170 F 
HETATM   10  F6  UNL     1     -33.147   7.094   4.019  1.00 20.00    -0.197 F 
ENDBRANCH   2   6
TORSDOF 1
ENDMDL
MODEL 9
REMARK VINA RESULT:      -4.9      2.048      3.449
REMARK  1 active torsions:
REMARK  status: ('A' for Active; 'I' for Inactive)
REMARK    1  A    between atoms: C2_2  and  C4_4 
ROOT
HETATM    1  C1  UNL     1     -32.909   6.884   2.261  1.00 20.00     0.146 C 
HETATM    2  C4  UNL     1     -33.402   5.636   2.840  1.00 20.00     0.388 C 
HETATM    3  N5  UNL     1     -32.516   7.873   1.798  1.00 20.00    -0.190 NA
HETATM    4  F9  UNL     1     -34.183   5.014   1.917  1.00 20.00    -0.181 F 
HETATM    5  F10 UNL     1     -32.339   4.813   3.048  1.00 20.00    -0.181 F 
ENDROOT
BRANCH   2   6
HETATM    6  C2  UNL     1     -34.181   5.896   4.087  1.00 20.00     0.247 C 
HETATM    7  C3  UNL     1     -33.780   6.677   5.097  1.00 20.00     0.308 C 
HETATM    8  F7  UNL     1     -34.555   6.853   6.187  1.00 20.00    -0.170 F 
HETATM    9  F8  UNL     1     -32.582   7.295   5.025  1.00 20.00    -0.170 F 
HETATM   10  F6  UNL     1     -35.376   5.273   4.221  1.00 20.00    -0.197 F 
ENDBRANCH   2   6
TORSDOF 1
ENDMDL
