MODEL 1
REMARK VINA RESULT:      -5.0      0.000      0.000
REMARK  0 active torsions:
REMARK  status: ('A' for Active; 'I' for Inactive)
ROOT
HETATM    1  C1  UNL     1     -36.138  14.139  -4.059  1.00 20.00     0.064 C 
HETATM    2  C2  UNL     1     -33.858  16.456  -2.250  1.00 20.00     0.011 C 
HETATM    3  C3  UNL     1     -34.729  17.656  -4.113  1.00 20.00     0.010 C 
HETATM    4  C4  UNL     1     -34.979  14.736  -3.394  1.00 20.00     0.101 C 
HETATM    5  C5  UNL     1     -33.593  16.682  -3.743  1.00 20.00    -0.009 C 
HETATM    6  C6  UNL     1     -35.290  15.950  -2.488  1.00 20.00     0.007 C 
HETATM    7  C7  UNL     1     -35.886  17.190  -3.208  1.00 20.00    -0.013 C 
HETATM    8  C8  UNL     1     -33.921  15.302  -4.370  1.00 20.00     0.003 C 
HETATM    9  C9  UNL     1     -37.200  17.014  -3.948  1.00 20.00     0.010 C 
HETATM   10  C10 UNL     1     -32.691  14.403  -4.464  1.00 20.00     0.011 C 
HETATM   11  N11 UNL     1     -37.056  13.663  -4.585  1.00 20.00    -0.197 NA
ENDROOT
TORSDOF 0
ENDMDL
MODEL 2
REMARK VINA RESULT:      -4.7      1.603      2.897
REMARK  0 active torsions:
REMARK  status: ('A' for Active; 'I' for Inactive)
ROOT
HETATM    1  C1  UNL     1     -35.207  15.219  -6.763  1.00 20.00     0.064 C 
HETATM    2  C2  UNL     1     -33.066  15.648  -3.752  1.00 20.00     0.011 C 
HETATM    3  C3  UNL     1     -35.311  15.463  -2.983  1.00 20.00     0.010 C 
HETATM    4  C4  UNL     1     -34.234  15.716  -5.789  1.00 20.00     0.101 C 
HETATM    5  C5  UNL     1     -34.310  16.510  -3.511  1.00 20.00    -0.009 C 
HETATM    6  C6  UNL     1     -33.798  14.697  -4.712  1.00 20.00     0.007 C 
HETATM    7  C7  UNL     1     -34.925  14.195  -3.768  1.00 20.00    -0.013 C 
HETATM    8  C8  UNL     1     -34.744  16.908  -4.946  1.00 20.00     0.003 C 
HETATM    9  C9  UNL     1     -36.112  13.488  -4.397  1.00 20.00     0.010 C 
HETATM   10  C10 UNL     1     -34.125  18.230  -5.391  1.00 20.00     0.011 C 
HETATM   11  N11 UNL     1     -35.978  14.827  -7.536  1.00 20.00    -0.197 NA
ENDROOT
TORSDOF 0
ENDMDL
MODEL 3
REMARK VINA RESULT:      -4.5      1.794      2.567
REMARK  0 active torsions:
REMARK  status: ('A' for Active; 'I' for Inactive)
ROOT
HETATM    1  C1  UNL     1     -36.573  16.985  -4.812  1.00 20.00     0.064 C 
HETATM    2  C2  UNL     1     -34.544  14.010  -3.877  1.00 20.00     0.011 C 
HETATM    3  C3  UNL     1     -33.361  15.925  -3.103  1.00 20.00     0.010 C 
HETATM    4  C4  UNL     1     -35.816  15.732  -4.846  1.00 20.00     0.101 C 
HETATM    5  C5  UNL     1     -33.545  15.064  -4.369  1.00 20.00    -0.009 C 
HETATM    6  C6  UNL     1     -35.592  15.059  -3.472  1.00 20.00     0.007 C 
HETATM    7  C7  UNL     1     -34.756  15.879  -2.452  1.00 20.00    -0.013 C 
HETATM    8  C8  UNL     1     -34.377  15.884  -5.390  1.00 20.00     0.003 C 
HETATM    9  C9  UNL     1     -35.279  17.244  -2.043  1.00 20.00     0.010 C 
HETATM   10  C10 UNL     1     -34.242  15.344  -6.811  1.00 20.00     0.011 C 
HETATM   11  N11 UNL     1     -37.173  17.977  -4.788  1.00 20.00    -0.197 NA
ENDROOT
TORSDOF 0
ENDMDL
MODEL 4
REMARK VINA RESULT:      -4.5      1.492      2.265
REMARK  0 active torsions:
REMARK  status: ('A' for Active; 'I' for Inactive)
ROOT
HETATM    1  C1  UNL     1     -37.014  14.199  -4.528  1.00 20.00     0.064 C 
HETATM    2  C2  UNL     1     -33.335  14.635  -4.861  1.00 20.00     0.011 C 
HETATM    3  C3  UNL     1     -34.223  16.740  -4.191  1.00 20.00     0.010 C 
HETATM    4  C4  UNL     1     -35.640  14.213  -5.032  1.00 20.00     0.101 C 
HETATM    5  C5  UNL     1     -33.965  15.899  -5.457  1.00 20.00    -0.009 C 
HETATM    6  C6  UNL     1     -34.542  14.351  -3.953  1.00 20.00     0.007 C 
HETATM    7  C7  UNL     1     -34.567  15.671  -3.136  1.00 20.00    -0.013 C 
HETATM    8  C8  UNL     1     -35.334  15.393  -5.984  1.00 20.00     0.003 C 
HETATM    9  C9  UNL     1     -35.821  15.988  -2.340  1.00 20.00     0.010 C 
HETATM   10  C10 UNL     1     -35.263  14.948  -7.442  1.00 20.00     0.011 C 
HETATM   11  N11 UNL     1     -38.103  14.187  -4.130  1.00 20.00    -0.197 NA
ENDROOT
TORSDOF 0
ENDMDL
MODEL 5
REMARK VINA RESULT:      -4.4      1.555      2.602
REMARK  0 active torsions:
REMARK  status: ('A' for Active; 'I' for Inactive)
ROOT
HETATM    1  C1  UNL     1     -36.010  13.858  -4.251  1.00 20.00     0.064 C 
HETATM    2  C2  UNL     1     -36.441  17.551  -4.372  1.00 20.00     0.011 C 
HETATM    3  C3  UNL     1     -34.437  17.050  -5.555  1.00 20.00     0.010 C 
HETATM    4  C4  UNL     1     -36.209  15.263  -3.891  1.00 20.00     0.101 C 
HETATM    5  C5  UNL     1     -34.947  17.308  -4.124  1.00 20.00    -0.009 C 
HETATM    6  C6  UNL     1     -36.643  16.187  -5.052  1.00 20.00     0.007 C 
HETATM    7  C7  UNL     1     -35.625  16.325  -6.216  1.00 20.00    -0.013 C 
HETATM    8  C8  UNL     1     -34.935  15.959  -3.358  1.00 20.00     0.003 C 
HETATM    9  C9  UNL     1     -35.227  15.063  -6.961  1.00 20.00     0.010 C 
HETATM   10  C10 UNL     1     -34.979  16.153  -1.845  1.00 20.00     0.011 C 
HETATM   11  N11 UNL     1     -35.853  12.744  -4.535  1.00 20.00    -0.197 NA
ENDROOT
TORSDOF 0
ENDMDL
MODEL 6
REMARK VINA RESULT:      -4.4      1.234      2.784
REMARK  0 active torsions:
REMARK  status: ('A' for Active; 'I' for Inactive)
ROOT
HETATM    1  C1  UNL     1     -37.107  16.156  -3.930  1.00 20.00     0.064 C 
HETATM    2  C2  UNL     1     -33.551  17.245  -3.858  1.00 20.00     0.011 C 
HETATM    3  C3  UNL     1     -33.544  14.878  -4.108  1.00 20.00     0.010 C 
HETATM    4  C4  UNL     1     -35.831  16.766  -3.554  1.00 20.00     0.101 C 
HETATM    5  C5  UNL     1     -33.618  15.964  -3.018  1.00 20.00    -0.009 C 
HETATM    6  C6  UNL     1     -34.789  16.872  -4.690  1.00 20.00     0.007 C 
HETATM    7  C7  UNL     1     -34.304  15.522  -5.284  1.00 20.00    -0.013 C 
HETATM    8  C8  UNL     1     -35.065  15.987  -2.459  1.00 20.00     0.003 C 
HETATM    9  C9  UNL     1     -35.344  14.608  -5.907  1.00 20.00     0.010 C 
HETATM   10  C10 UNL     1     -35.148  16.678  -1.100  1.00 20.00     0.011 C 
HETATM   11  N11 UNL     1     -38.120  15.674  -4.228  1.00 20.00    -0.197 NA
ENDROOT
TORSDOF 0
ENDMDL
MODEL 7
REMARK VINA RESULT:      -4.4      1.095      3.043
REMARK  0 active torsions:
REMARK  status: ('A' for Active; 'I' for Inactive)
ROOT
HETATM    1  C1  UNL     1     -37.295  14.959  -4.339  1.00 20.00     0.064 C 
HETATM    2  C2  UNL     1     -34.613  17.536  -4.315  1.00 20.00     0.011 C 
HETATM    3  C3  UNL     1     -34.051  15.938  -2.643  1.00 20.00     0.010 C 
HETATM    4  C4  UNL     1     -36.563  16.225  -4.290  1.00 20.00     0.101 C 
HETATM    5  C5  UNL     1     -34.898  17.210  -2.844  1.00 20.00    -0.009 C 
HETATM    6  C6  UNL     1     -35.108  16.168  -4.810  1.00 20.00     0.007 C 
HETATM    7  C7  UNL     1     -34.147  15.242  -4.014  1.00 20.00    -0.013 C 
HETATM    8  C8  UNL     1     -36.392  16.794  -2.862  1.00 20.00     0.003 C 
HETATM    9  C9  UNL     1     -34.499  13.768  -3.922  1.00 20.00     0.010 C 
HETATM   10  C10 UNL     1     -37.323  17.976  -2.601  1.00 20.00     0.011 C 
HETATM   11  N11 UNL     1     -37.878  13.957  -4.379  1.00 20.00    -0.197 NA
ENDROOT
TORSDOF 0
ENDMDL
MODEL 8
REMARK VINA RESULT:      -4.3      1.701      3.029
REMARK  0 active torsions:
REMARK  status: ('A' for Active; 'I' for Inactive)
ROOT
HETATM    1  C1  UNL     1     -36.498  17.168  -3.422  1.00 20.00     0.064 C 
HETATM    2  C2  UNL     1     -34.109  15.180  -5.466  1.00 20.00     0.011 C 
HETATM    3  C3  UNL     1     -35.243  13.646  -4.041  1.00 20.00     0.010 C 
HETATM    4  C4  UNL     1     -35.292  16.663  -4.079  1.00 20.00     0.101 C 
HETATM    5  C5  UNL     1     -34.034  14.602  -4.048  1.00 20.00    -0.009 C 
HETATM    6  C6  UNL     1     -35.538  15.711  -5.272  1.00 20.00     0.007 C 
HETATM    7  C7  UNL     1     -36.264  14.381  -4.931  1.00 20.00    -0.013 C 
HETATM    8  C8  UNL     1     -34.381  15.822  -3.154  1.00 20.00     0.003 C 
HETATM    9  C9  UNL     1     -37.650  14.469  -4.317  1.00 20.00     0.010 C 
HETATM   10  C10 UNL     1     -33.137  16.593  -2.721  1.00 20.00     0.011 C 
HETATM   11  N11 UNL     1     -37.453  17.570  -2.902  1.00 20.00    -0.197 NA
ENDROOT
TORSDOF 0
ENDMDL
MODEL 9
REMARK VINA RESULT:      -4.3      2.843      4.220
REMARK  0 active torsions:
REMARK  status: ('A' for Active; 'I' for Inactive)
ROOT
HETATM    1  C1  UNL     1     -32.500  18.339  -1.800  1.00 20.00     0.064 C 
HETATM    2  C2  UNL     1     -34.757  15.513  -2.668  1.00 20.00     0.011 C 
HETATM    3  C3  UNL     1     -35.646  17.456  -3.719  1.00 20.00     0.010 C 
HETATM    4  C4  UNL     1     -33.391  17.181  -1.733  1.00 20.00     0.101 C 
HETATM    5  C5  UNL     1     -35.671  16.707  -2.371  1.00 20.00    -0.009 C 
HETATM    6  C6  UNL     1     -33.566  16.404  -3.058  1.00 20.00     0.007 C 
HETATM    7  C7  UNL     1     -34.212  17.203  -4.223  1.00 20.00    -0.013 C 
HETATM    8  C8  UNL     1     -34.847  17.533  -1.348  1.00 20.00     0.003 C 
HETATM    9  C9  UNL     1     -33.505  18.461  -4.696  1.00 20.00     0.010 C 
HETATM   10  C10 UNL     1     -35.167  17.149   0.094  1.00 20.00     0.011 C 
HETATM   11  N11 UNL     1     -31.792  19.257  -1.851  1.00 20.00    -0.197 NA
ENDROOT
TORSDOF 0
ENDMDL
