MODEL 1
REMARK VINA RESULT:      -3.2      0.000      0.000
REMARK  0 active torsions:
REMARK  status: ('A' for Active; 'I' for Inactive)
ROOT
HETATM    1  C1  UNL     1     -34.854   4.961   4.719  1.00 20.00     0.184 C 
HETATM    2  C2  UNL     1     -34.021   6.449   5.869  1.00 20.00     0.184 C 
HETATM    3  C3  UNL     1     -34.479   6.410   4.413  1.00 20.00     0.101 C 
HETATM    4  O4  UNL     1     -34.627   5.161   6.134  1.00 20.00    -0.389 OA
HETATM    5  I5  UNL     1     -32.793   6.684   2.838  1.00 20.00    -0.080 I 
ENDROOT
TORSDOF 0
ENDMDL
MODEL 2
REMARK VINA RESULT:      -2.9     12.464     12.834
REMARK  0 active torsions:
REMARK  status: ('A' for Active; 'I' for Inactive)
ROOT
HETATM    1  C1  UNL     1     -36.170  13.647  -4.499  1.00 20.00     0.184 C 
HETATM    2  C2  UNL     1     -37.615  15.071  -4.155  1.00 20.00     0.184 C 
HETATM    3  C3  UNL     1     -36.116  15.173  -4.428  1.00 20.00     0.101 C 
HETATM    4  O4  UNL     1     -37.617  13.660  -4.481  1.00 20.00    -0.389 OA
HETATM    5  I5  UNL     1     -34.849  16.037  -2.683  1.00 20.00    -0.080 I 
ENDROOT
TORSDOF 0
ENDMDL
MODEL 3
REMARK VINA RESULT:      -2.8     17.054     17.484
REMARK  0 active torsions:
REMARK  status: ('A' for Active; 'I' for Inactive)
ROOT
HETATM    1  C1  UNL     1     -23.420  18.933   8.966  1.00 20.00     0.184 C 
HETATM    2  C2  UNL     1     -21.694  17.971   9.541  1.00 20.00     0.184 C 
HETATM    3  C3  UNL     1     -23.124  17.479   9.330  1.00 20.00     0.101 C 
HETATM    4  O4  UNL     1     -22.009  19.256   8.951  1.00 20.00    -0.389 OA
HETATM    5  I5  UNL     1     -24.195  16.700  11.239  1.00 20.00    -0.080 I 
ENDROOT
TORSDOF 0
ENDMDL
MODEL 4
REMARK VINA RESULT:      -2.8     12.706     13.022
REMARK  0 active torsions:
REMARK  status: ('A' for Active; 'I' for Inactive)
ROOT
HETATM    1  C1  UNL     1     -36.158  13.644  -4.516  1.00 20.00     0.184 C 
HETATM    2  C2  UNL     1     -34.857  14.746  -5.667  1.00 20.00     0.184 C 
HETATM    3  C3  UNL     1     -34.822  14.316  -4.203  1.00 20.00     0.101 C 
HETATM    4  O4  UNL     1     -35.989  13.883  -5.934  1.00 20.00    -0.389 OA
HETATM    5  I5  UNL     1     -34.925  16.048  -2.659  1.00 20.00    -0.080 I 
ENDROOT
TORSDOF 0
ENDMDL
MODEL 5
REMARK VINA RESULT:      -2.8      9.481      9.782
REMARK  0 active torsions:
REMARK  status: ('A' for Active; 'I' for Inactive)
ROOT
HETATM    1  C1  UNL     1     -41.533   9.010   0.009  1.00 20.00     0.184 C 
HETATM    2  C2  UNL     1     -43.298   8.082   0.514  1.00 20.00     0.184 C 
HETATM    3  C3  UNL     1     -41.841   7.637   0.605  1.00 20.00     0.101 C 
HETATM    4  O4  UNL     1     -42.904   9.437   0.187  1.00 20.00    -0.389 OA
HETATM    5  I5  UNL     1     -41.274   5.826  -0.736  1.00 20.00    -0.080 I 
ENDROOT
TORSDOF 0
ENDMDL
MODEL 6
REMARK VINA RESULT:      -2.8      2.961      3.342
REMARK  0 active torsions:
REMARK  status: ('A' for Active; 'I' for Inactive)
ROOT
HETATM    1  C1  UNL     1     -32.983   6.881   3.357  1.00 20.00     0.184 C 
HETATM    2  C2  UNL     1     -33.458   4.995   2.686  1.00 20.00     0.184 C 
HETATM    3  C3  UNL     1     -34.216   5.999   3.552  1.00 20.00     0.101 C 
HETATM    4  O4  UNL     1     -32.452   5.982   2.355  1.00 20.00    -0.389 OA
HETATM    5  I5  UNL     1     -34.609   5.320   5.739  1.00 20.00    -0.080 I 
ENDROOT
TORSDOF 0
ENDMDL
MODEL 7
REMARK VINA RESULT:      -2.8     12.715     13.053
REMARK  0 active torsions:
REMARK  status: ('A' for Active; 'I' for Inactive)
ROOT
HETATM    1  C1  UNL     1     -35.092  14.712  -5.184  1.00 20.00     0.184 C 
HETATM    2  C2  UNL     1     -33.171  14.532  -4.468  1.00 20.00     0.184 C 
HETATM    3  C3  UNL     1     -34.531  14.535  -3.773  1.00 20.00     0.101 C 
HETATM    4  O4  UNL     1     -33.795  14.453  -5.772  1.00 20.00    -0.389 OA
HETATM    5  I5  UNL     1     -34.902  16.318  -2.331  1.00 20.00    -0.080 I 
ENDROOT
TORSDOF 0
ENDMDL
MODEL 8
REMARK VINA RESULT:      -2.6      9.285      9.486
REMARK  0 active torsions:
REMARK  status: ('A' for Active; 'I' for Inactive)
ROOT
HETATM    1  C1  UNL     1     -41.324   6.916  -1.025  1.00 20.00     0.184 C 
HETATM    2  C2  UNL     1     -41.574   8.269   0.505  1.00 20.00     0.184 C 
HETATM    3  C3  UNL     1     -41.454   6.747   0.489  1.00 20.00     0.101 C 
HETATM    4  O4  UNL     1     -41.200   8.352  -0.892  1.00 20.00    -0.389 OA
HETATM    5  I5  UNL     1     -43.345   5.598   1.197  1.00 20.00    -0.080 I 
ENDROOT
TORSDOF 0
ENDMDL
MODEL 9
REMARK VINA RESULT:      -2.6     12.248     12.651
REMARK  0 active torsions:
REMARK  status: ('A' for Active; 'I' for Inactive)
ROOT
HETATM    1  C1  UNL     1     -33.139  14.947  -4.216  1.00 20.00     0.184 C 
HETATM    2  C2  UNL     1     -34.946  13.993  -3.973  1.00 20.00     0.184 C 
HETATM    3  C3  UNL     1     -34.559  15.470  -3.999  1.00 20.00     0.101 C 
HETATM    4  O4  UNL     1     -33.627  13.600  -4.423  1.00 20.00    -0.389 OA
HETATM    5  I5  UNL     1     -34.895  16.616  -2.006  1.00 20.00    -0.080 I 
ENDROOT
TORSDOF 0
ENDMDL
