MODEL 1
REMARK VINA RESULT:      -5.5      0.000      0.000
REMARK  0 active torsions:
REMARK  status: ('A' for Active; 'I' for Inactive)
ROOT
HETATM    1  C1  UNL     1     -35.447  16.296  -2.093  1.00 20.00     0.013 A 
HETATM    2  C2  UNL     1     -34.399  16.986  -1.481  1.00 20.00     0.043 A 
HETATM    3  C3  UNL     1     -32.953  16.302  -3.263  1.00 20.00     0.050 A 
HETATM    4  C4  UNL     1     -35.292  15.588  -3.311  1.00 20.00    -0.020 A 
HETATM    5  C5  UNL     1     -34.008  15.612  -3.899  1.00 20.00    -0.046 A 
HETATM    6  C6  UNL     1     -33.146  16.986  -2.068  1.00 20.00     0.117 A 
HETATM    7  C7  UNL     1     -33.686  14.902  -5.191  1.00 20.00     0.039 C 
HETATM    8  C8  UNL     1     -34.641  15.260  -6.324  1.00 20.00     0.007 C 
HETATM    9  C9  UNL     1     -35.825  14.311  -6.402  1.00 20.00     0.035 C 
HETATM   10  C10 UNL     1     -36.509  14.861  -3.841  1.00 20.00     0.184 A 
HETATM   11  C11 UNL     1     -36.756  14.350  -5.242  1.00 20.00     0.156 A 
HETATM   12  O12 UNL     1     -36.352  13.475  -4.172  1.00 20.00    -0.370 OA
HETATM   13  F13 UNL     1     -32.130  17.639  -1.495  1.00 20.00    -0.206 F 
ENDROOT
TORSDOF 0
ENDMDL
MODEL 2
REMARK VINA RESULT:      -5.4      2.889      5.156
REMARK  0 active torsions:
REMARK  status: ('A' for Active; 'I' for Inactive)
ROOT
HETATM    1  C1  UNL     1     -35.160  16.024  -1.919  1.00 20.00     0.013 A 
HETATM    2  C2  UNL     1     -34.834  15.253  -3.036  1.00 20.00     0.043 A 
HETATM    3  C3  UNL     1     -32.804  16.504  -3.265  1.00 20.00     0.050 A 
HETATM    4  C4  UNL     1     -34.325  17.059  -1.430  1.00 20.00    -0.020 A 
HETATM    5  C5  UNL     1     -33.117  17.282  -2.129  1.00 20.00    -0.046 A 
HETATM    6  C6  UNL     1     -33.652  15.495  -3.712  1.00 20.00     0.117 A 
HETATM    7  C7  UNL     1     -32.127  18.349  -1.732  1.00 20.00     0.039 C 
HETATM    8  C8  UNL     1     -31.722  18.274  -0.265  1.00 20.00     0.007 C 
HETATM    9  C9  UNL     1     -32.606  19.132   0.623  1.00 20.00     0.035 C 
HETATM   10  C10 UNL     1     -34.823  17.833  -0.228  1.00 20.00     0.184 A 
HETATM   11  C11 UNL     1     -34.029  18.707   0.714  1.00 20.00     0.156 A 
HETATM   12  O12 UNL     1     -34.846  19.262  -0.333  1.00 20.00    -0.370 OA
HETATM   13  F13 UNL     1     -33.323  14.769  -4.785  1.00 20.00    -0.206 F 
ENDROOT
TORSDOF 0
ENDMDL
MODEL 3
REMARK VINA RESULT:      -4.8      1.419      2.464
REMARK  0 active torsions:
REMARK  status: ('A' for Active; 'I' for Inactive)
ROOT
HETATM    1  C1  UNL     1     -33.092  17.010  -3.332  1.00 20.00     0.013 A 
HETATM    2  C2  UNL     1     -33.110  17.402  -1.992  1.00 20.00     0.043 A 
HETATM    3  C3  UNL     1     -35.277  16.407  -1.765  1.00 20.00     0.050 A 
HETATM    4  C4  UNL     1     -34.158  16.301  -3.939  1.00 20.00    -0.020 A 
HETATM    5  C5  UNL     1     -35.264  15.993  -3.116  1.00 20.00    -0.046 A 
HETATM    6  C6  UNL     1     -34.208  17.101  -1.207  1.00 20.00     0.117 A 
HETATM    7  C7  UNL     1     -36.476  15.248  -3.618  1.00 20.00     0.039 C 
HETATM    8  C8  UNL     1     -36.127  13.936  -4.310  1.00 20.00     0.007 C 
HETATM    9  C9  UNL     1     -35.935  14.106  -5.807  1.00 20.00     0.035 C 
HETATM   10  C10 UNL     1     -34.012  15.969  -5.408  1.00 20.00     0.184 A 
HETATM   11  C11 UNL     1     -34.773  14.943  -6.215  1.00 20.00     0.156 A 
HETATM   12  O12 UNL     1     -35.090  16.346  -6.275  1.00 20.00    -0.370 OA
HETATM   13  F13 UNL     1     -34.245  17.470   0.078  1.00 20.00    -0.206 F 
ENDROOT
TORSDOF 0
ENDMDL
MODEL 4
REMARK VINA RESULT:      -4.8      2.953      4.544
REMARK  0 active torsions:
REMARK  status: ('A' for Active; 'I' for Inactive)
ROOT
HETATM    1  C1  UNL     1     -32.430  18.496   0.158  1.00 20.00     0.013 A 
HETATM    2  C2  UNL     1     -32.868  18.574   1.482  1.00 20.00     0.043 A 
HETATM    3  C3  UNL     1     -34.953  17.605   0.812  1.00 20.00     0.050 A 
HETATM    4  C4  UNL     1     -33.230  17.969  -0.886  1.00 20.00    -0.020 A 
HETATM    5  C5  UNL     1     -34.516  17.509  -0.527  1.00 20.00    -0.046 A 
HETATM    6  C6  UNL     1     -34.136  18.128   1.809  1.00 20.00     0.117 A 
HETATM    7  C7  UNL     1     -35.485  16.926  -1.527  1.00 20.00     0.039 C 
HETATM    8  C8  UNL     1     -34.883  15.798  -2.356  1.00 20.00     0.007 C 
HETATM    9  C9  UNL     1     -34.258  16.299  -3.646  1.00 20.00     0.035 C 
HETATM   10  C10 UNL     1     -32.634  17.977  -2.277  1.00 20.00     0.184 A 
HETATM   11  C11 UNL     1     -33.069  17.179  -3.484  1.00 20.00     0.156 A 
HETATM   12  O12 UNL     1     -33.418  18.566  -3.322  1.00 20.00    -0.370 OA
HETATM   13  F13 UNL     1     -34.574  18.196   3.070  1.00 20.00    -0.206 F 
ENDROOT
TORSDOF 0
ENDMDL
MODEL 5
REMARK VINA RESULT:      -4.7      1.765      2.359
REMARK  0 active torsions:
REMARK  status: ('A' for Active; 'I' for Inactive)
ROOT
HETATM    1  C1  UNL     1     -33.676  18.426  -4.610  1.00 20.00     0.013 A 
HETATM    2  C2  UNL     1     -32.787  18.933  -3.661  1.00 20.00     0.043 A 
HETATM    3  C3  UNL     1     -33.270  17.055  -2.254  1.00 20.00     0.050 A 
HETATM    4  C4  UNL     1     -34.391  17.217  -4.423  1.00 20.00    -0.020 A 
HETATM    5  C5  UNL     1     -34.161  16.526  -3.213  1.00 20.00    -0.046 A 
HETATM    6  C6  UNL     1     -32.585  18.246  -2.477  1.00 20.00     0.117 A 
HETATM    7  C7  UNL     1     -34.852  15.229  -2.867  1.00 20.00     0.039 C 
HETATM    8  C8  UNL     1     -34.715  14.170  -3.955  1.00 20.00     0.007 C 
HETATM    9  C9  UNL     1     -35.862  14.212  -4.949  1.00 20.00     0.035 C 
HETATM   10  C10 UNL     1     -35.344  16.806  -5.525  1.00 20.00     0.184 A 
HETATM   11  C11 UNL     1     -35.945  15.444  -5.781  1.00 20.00     0.156 A 
HETATM   12  O12 UNL     1     -36.692  16.498  -5.145  1.00 20.00    -0.370 OA
HETATM   13  F13 UNL     1     -31.740  18.717  -1.555  1.00 20.00    -0.206 F 
ENDROOT
TORSDOF 0
ENDMDL
MODEL 6
REMARK VINA RESULT:      -4.6      1.592      1.938
REMARK  0 active torsions:
REMARK  status: ('A' for Active; 'I' for Inactive)
ROOT
HETATM    1  C1  UNL     1     -36.893  17.449  -2.864  1.00 20.00     0.013 A 
HETATM    2  C2  UNL     1     -36.409  17.727  -1.584  1.00 20.00     0.043 A 
HETATM    3  C3  UNL     1     -34.746  16.029  -1.880  1.00 20.00     0.050 A 
HETATM    4  C4  UNL     1     -36.323  16.457  -3.701  1.00 20.00    -0.020 A 
HETATM    5  C5  UNL     1     -35.218  15.748  -3.181  1.00 20.00    -0.046 A 
HETATM    6  C6  UNL     1     -35.332  17.013  -1.090  1.00 20.00     0.117 A 
HETATM    7  C7  UNL     1     -34.508  14.660  -3.949  1.00 20.00     0.039 C 
HETATM    8  C8  UNL     1     -34.071  15.099  -5.341  1.00 20.00     0.007 C 
HETATM    9  C9  UNL     1     -35.120  14.799  -6.398  1.00 20.00     0.035 C 
HETATM   10  C10 UNL     1     -36.972  16.244  -5.051  1.00 20.00     0.184 A 
HETATM   11  C11 UNL     1     -36.397  15.553  -6.266  1.00 20.00     0.156 A 
HETATM   12  O12 UNL     1     -37.342  14.902  -5.396  1.00 20.00    -0.370 OA
HETATM   13  F13 UNL     1     -34.857  17.263   0.134  1.00 20.00    -0.206 F 
ENDROOT
TORSDOF 0
ENDMDL
MODEL 7
REMARK VINA RESULT:      -4.6      2.963      4.541
REMARK  0 active torsions:
REMARK  status: ('A' for Active; 'I' for Inactive)
ROOT
HETATM    1  C1  UNL     1     -36.240  16.316  -5.070  1.00 20.00     0.013 A 
HETATM    2  C2  UNL     1     -36.589  14.964  -5.052  1.00 20.00     0.043 A 
HETATM    3  C3  UNL     1     -34.626  14.511  -3.756  1.00 20.00     0.050 A 
HETATM    4  C4  UNL     1     -35.078  16.818  -4.432  1.00 20.00    -0.020 A 
HETATM    5  C5  UNL     1     -34.270  15.877  -3.756  1.00 20.00    -0.046 A 
HETATM    6  C6  UNL     1     -35.777  14.058  -4.393  1.00 20.00     0.117 A 
HETATM    7  C7  UNL     1     -33.001  16.257  -3.035  1.00 20.00     0.039 C 
HETATM    8  C8  UNL     1     -33.196  17.393  -2.037  1.00 20.00     0.007 C 
HETATM    9  C9  UNL     1     -32.943  18.756  -2.657  1.00 20.00     0.035 C 
HETATM   10  C10 UNL     1     -34.812  18.302  -4.562  1.00 20.00     0.184 A 
HETATM   11  C11 UNL     1     -33.899  19.165  -3.722  1.00 20.00     0.156 A 
HETATM   12  O12 UNL     1     -33.514  18.696  -5.028  1.00 20.00    -0.370 OA
HETATM   13  F13 UNL     1     -36.093  12.759  -4.367  1.00 20.00    -0.206 F 
ENDROOT
TORSDOF 0
ENDMDL
MODEL 8
REMARK VINA RESULT:      -4.5      1.959      2.914
REMARK  0 active torsions:
REMARK  status: ('A' for Active; 'I' for Inactive)
ROOT
HETATM    1  C1  UNL     1     -35.378  17.000  -0.188  1.00 20.00     0.013 A 
HETATM    2  C2  UNL     1     -34.814  17.749   0.846  1.00 20.00     0.043 A 
HETATM    3  C3  UNL     1     -32.982  18.298  -0.596  1.00 20.00     0.050 A 
HETATM    4  C4  UNL     1     -34.772  16.873  -1.463  1.00 20.00    -0.020 A 
HETATM    5  C5  UNL     1     -33.549  17.554  -1.654  1.00 20.00    -0.046 A 
HETATM    6  C6  UNL     1     -33.610  18.399   0.641  1.00 20.00     0.117 A 
HETATM    7  C7  UNL     1     -32.782  17.510  -2.952  1.00 20.00     0.039 C 
HETATM    8  C8  UNL     1     -33.631  17.886  -4.161  1.00 20.00     0.007 C 
HETATM    9  C9  UNL     1     -34.281  16.675  -4.808  1.00 20.00     0.035 C 
HETATM   10  C10 UNL     1     -35.483  16.003  -2.477  1.00 20.00     0.184 A 
HETATM   11  C11 UNL     1     -35.294  15.969  -3.976  1.00 20.00     0.156 A 
HETATM   12  O12 UNL     1     -34.712  14.974  -3.113  1.00 20.00    -0.370 OA
HETATM   13  F13 UNL     1     -33.053  19.119   1.621  1.00 20.00    -0.206 F 
ENDROOT
TORSDOF 0
ENDMDL
MODEL 9
REMARK VINA RESULT:      -4.4      2.936      5.075
REMARK  0 active torsions:
REMARK  status: ('A' for Active; 'I' for Inactive)
ROOT
HETATM    1  C1  UNL     1     -32.916  15.884  -3.788  1.00 20.00     0.013 A 
HETATM    2  C2  UNL     1     -33.603  14.780  -4.298  1.00 20.00     0.043 A 
HETATM    3  C3  UNL     1     -35.322  15.141  -2.670  1.00 20.00     0.050 A 
HETATM    4  C4  UNL     1     -33.404  16.659  -2.707  1.00 20.00    -0.020 A 
HETATM    5  C5  UNL     1     -34.643  16.267  -2.155  1.00 20.00    -0.046 A 
HETATM    6  C6  UNL     1     -34.810  14.406  -3.734  1.00 20.00     0.117 A 
HETATM    7  C7  UNL     1     -35.290  16.990  -0.998  1.00 20.00     0.039 C 
HETATM    8  C8  UNL     1     -35.422  18.490  -1.229  1.00 20.00     0.007 C 
HETATM    9  C9  UNL     1     -34.225  19.263  -0.703  1.00 20.00     0.035 C 
HETATM   10  C10 UNL     1     -32.537  17.808  -2.241  1.00 20.00     0.184 A 
HETATM   11  C11 UNL     1     -32.934  18.996  -1.395  1.00 20.00     0.156 A 
HETATM   12  O12 UNL     1     -32.226  17.870  -0.843  1.00 20.00    -0.370 OA
HETATM   13  F13 UNL     1     -35.480  13.351  -4.207  1.00 20.00    -0.206 F 
ENDROOT
TORSDOF 0
ENDMDL
