MODEL 1
REMARK VINA RESULT:      -4.1      0.000      0.000
REMARK  1 active torsions:
REMARK  status: ('A' for Active; 'I' for Inactive)
REMARK    1  A    between atoms: C3_3  and  C4_4 
ROOT
HETATM    1  C1  UNL     1     -36.903  15.977  -4.210  1.00 20.00     0.087 A 
HETATM    2  C2  UNL     1     -39.076  14.940  -4.286  1.00 20.00     0.166 A 
HETATM    3  C3  UNL     1     -36.910  14.599  -4.266  1.00 20.00     0.125 A 
HETATM    4  N5  UNL     1     -38.155  14.002  -4.309  1.00 20.00    -0.249 NA
HETATM    5  S7  UNL     1     -38.516  16.560  -4.213  1.00 20.00    -0.092 SA
ENDROOT
BRANCH   3   6
HETATM    6  C4  UNL     1     -35.721  13.794  -4.280  1.00 20.00     0.271 C 
HETATM    7  O6  UNL     1     -35.804  12.561  -4.516  1.00 20.00    -0.272 OA
HETATM    8 CL8  UNL     1     -34.110  14.492  -3.968  1.00 20.00    -0.037 Cl
ENDBRANCH   3   6
TORSDOF 1
ENDMDL
MODEL 2
REMARK VINA RESULT:      -3.9      3.141      3.716
REMARK  1 active torsions:
REMARK  status: ('A' for Active; 'I' for Inactive)
REMARK    1  A    between atoms: C3_3  and  C4_4 
ROOT
HETATM    1  C1  UNL     1     -34.919  15.597  -3.138  1.00 20.00     0.087 A 
HETATM    2  C2  UNL     1     -32.782  15.106  -4.137  1.00 20.00     0.166 A 
HETATM    3  C3  UNL     1     -34.892  14.523  -4.003  1.00 20.00     0.125 A 
HETATM    4  N5  UNL     1     -33.669  14.240  -4.577  1.00 20.00    -0.249 NA
HETATM    5  S7  UNL     1     -33.353  16.287  -3.031  1.00 20.00    -0.092 SA
ENDROOT
BRANCH   3   6
HETATM    6  C4  UNL     1     -36.042  13.722  -4.317  1.00 20.00     0.271 C 
HETATM    7  O6  UNL     1     -35.899  12.498  -4.571  1.00 20.00    -0.272 OA
HETATM    8 CL8  UNL     1     -37.685  14.412  -4.360  1.00 20.00    -0.037 Cl
ENDBRANCH   3   6
TORSDOF 1
ENDMDL
MODEL 3
REMARK VINA RESULT:      -3.8     20.073     20.484
REMARK  1 active torsions:
REMARK  status: ('A' for Active; 'I' for Inactive)
REMARK    1  A    between atoms: C3_3  and  C4_4 
ROOT
HETATM    1  C1  UNL     1     -23.830  16.510  10.013  1.00 20.00     0.087 A 
HETATM    2  C2  UNL     1     -23.489  17.357  12.243  1.00 20.00     0.166 A 
HETATM    3  C3  UNL     1     -22.888  17.511  10.139  1.00 20.00     0.125 A 
HETATM    4  N5  UNL     1     -22.692  17.998  11.416  1.00 20.00    -0.249 NA
HETATM    5  S7  UNL     1     -24.501  16.157  11.550  1.00 20.00    -0.092 SA
ENDROOT
BRANCH   3   6
HETATM    6  C4  UNL     1     -22.136  18.043   9.038  1.00 20.00     0.271 C 
HETATM    7  O6  UNL     1     -21.827  19.262   9.024  1.00 20.00    -0.272 OA
HETATM    8 CL8  UNL     1     -21.621  17.021   7.670  1.00 20.00    -0.037 Cl
ENDBRANCH   3   6
TORSDOF 1
ENDMDL
MODEL 4
REMARK VINA RESULT:      -3.7     11.696     12.150
REMARK  1 active torsions:
REMARK  status: ('A' for Active; 'I' for Inactive)
REMARK    1  A    between atoms: C3_3  and  C4_4 
ROOT
HETATM    1  C1  UNL     1     -33.931   6.591   4.738  1.00 20.00     0.087 A 
HETATM    2  C2  UNL     1     -34.437   4.472   3.709  1.00 20.00     0.166 A 
HETATM    3  C3  UNL     1     -33.305   6.342   3.533  1.00 20.00     0.125 A 
HETATM    4  N5  UNL     1     -33.594   5.128   2.942  1.00 20.00    -0.249 NA
HETATM    5  S7  UNL     1     -34.923   5.257   5.155  1.00 20.00    -0.092 SA
ENDROOT
BRANCH   3   6
HETATM    6  C4  UNL     1     -32.403   7.260   2.897  1.00 20.00     0.271 C 
HETATM    7  O6  UNL     1     -31.380   7.657   3.512  1.00 20.00    -0.272 OA
HETATM    8 CL8  UNL     1     -32.689   7.866   1.245  1.00 20.00    -0.037 Cl
ENDBRANCH   3   6
TORSDOF 1
ENDMDL
MODEL 5
REMARK VINA RESULT:      -3.6     19.434     19.838
REMARK  1 active torsions:
REMARK  status: ('A' for Active; 'I' for Inactive)
REMARK    1  A    between atoms: C3_3  and  C4_4 
ROOT
HETATM    1  C1  UNL     1     -24.658  18.170  10.489  1.00 20.00     0.087 A 
HETATM    2  C2  UNL     1     -22.549  17.735  11.569  1.00 20.00     0.166 A 
HETATM    3  C3  UNL     1     -23.551  18.156   9.665  1.00 20.00     0.125 A 
HETATM    4  N5  UNL     1     -22.341  17.907  10.282  1.00 20.00    -0.249 NA
HETATM    5  S7  UNL     1     -24.174  17.859  12.104  1.00 20.00    -0.092 SA
ENDROOT
BRANCH   3   6
HETATM    6  C4  UNL     1     -23.608  18.381   8.248  1.00 20.00     0.271 C 
HETATM    7  O6  UNL     1     -22.650  18.016   7.519  1.00 20.00    -0.272 OA
HETATM    8 CL8  UNL     1     -25.007  19.174   7.478  1.00 20.00    -0.037 Cl
ENDBRANCH   3   6
TORSDOF 1
ENDMDL
MODEL 6
REMARK VINA RESULT:      -3.6      3.041      3.520
REMARK  1 active torsions:
REMARK  status: ('A' for Active; 'I' for Inactive)
REMARK    1  A    between atoms: C3_3  and  C4_4 
ROOT
HETATM    1  C1  UNL     1     -33.928  14.851  -4.273  1.00 20.00     0.087 A 
HETATM    2  C2  UNL     1     -34.398  16.323  -2.426  1.00 20.00     0.166 A 
HETATM    3  C3  UNL     1     -35.205  14.777  -3.756  1.00 20.00     0.125 A 
HETATM    4  N5  UNL     1     -35.476  15.620  -2.696  1.00 20.00    -0.249 NA
HETATM    5  S7  UNL     1     -33.023  16.021  -3.406  1.00 20.00    -0.092 SA
ENDROOT
BRANCH   3   6
HETATM    6  C4  UNL     1     -36.220  13.894  -4.257  1.00 20.00     0.271 C 
HETATM    7  O6  UNL     1     -35.912  12.729  -4.618  1.00 20.00    -0.272 OA
HETATM    8 CL8  UNL     1     -37.925  14.400  -4.387  1.00 20.00    -0.037 Cl
ENDBRANCH   3   6
TORSDOF 1
ENDMDL
MODEL 7
REMARK VINA RESULT:      -3.6     19.309     19.524
REMARK  1 active torsions:
REMARK  status: ('A' for Active; 'I' for Inactive)
REMARK    1  A    between atoms: C3_3  and  C4_4 
ROOT
HETATM    1  C1  UNL     1     -23.814  16.657  10.208  1.00 20.00     0.087 A 
HETATM    2  C2  UNL     1     -25.398  17.614  11.751  1.00 20.00     0.166 A 
HETATM    3  C3  UNL     1     -24.193  17.959   9.951  1.00 20.00     0.125 A 
HETATM    4  N5  UNL     1     -25.101  18.509  10.835  1.00 20.00    -0.249 NA
HETATM    5  S7  UNL     1     -24.621  16.090  11.610  1.00 20.00    -0.092 SA
ENDROOT
BRANCH   3   6
HETATM    6  C4  UNL     1     -23.699  18.732   8.847  1.00 20.00     0.271 C 
HETATM    7  O6  UNL     1     -22.560  19.263   8.915  1.00 20.00    -0.272 OA
HETATM    8 CL8  UNL     1     -24.658  18.968   7.362  1.00 20.00    -0.037 Cl
ENDBRANCH   3   6
TORSDOF 1
ENDMDL
MODEL 8
REMARK VINA RESULT:      -3.6     12.106     12.552
REMARK  1 active torsions:
REMARK  status: ('A' for Active; 'I' for Inactive)
REMARK    1  A    between atoms: C3_3  and  C4_4 
ROOT
HETATM    1  C1  UNL     1     -34.551   4.990   4.404  1.00 20.00     0.087 A 
HETATM    2  C2  UNL     1     -33.992   6.753   5.948  1.00 20.00     0.166 A 
HETATM    3  C3  UNL     1     -33.679   5.948   3.931  1.00 20.00     0.125 A 
HETATM    4  N5  UNL     1     -33.357   6.960   4.815  1.00 20.00    -0.249 NA
HETATM    5  S7  UNL     1     -34.992   5.361   6.019  1.00 20.00    -0.092 SA
ENDROOT
BRANCH   3   6
HETATM    6  C4  UNL     1     -33.116   5.935   2.611  1.00 20.00     0.271 C 
HETATM    7  O6  UNL     1     -33.047   4.853   1.972  1.00 20.00    -0.272 OA
HETATM    8 CL8  UNL     1     -32.500   7.418   1.836  1.00 20.00    -0.037 Cl
ENDBRANCH   3   6
TORSDOF 1
ENDMDL
MODEL 9
REMARK VINA RESULT:      -3.6      3.368      3.839
REMARK  1 active torsions:
REMARK  status: ('A' for Active; 'I' for Inactive)
REMARK    1  A    between atoms: C3_3  and  C4_4 
ROOT
HETATM    1  C1  UNL     1     -35.103  15.878  -2.276  1.00 20.00     0.087 A 
HETATM    2  C2  UNL     1     -32.968  16.654  -3.076  1.00 20.00     0.166 A 
HETATM    3  C3  UNL     1     -34.546  15.149  -3.306  1.00 20.00     0.125 A 
HETATM    4  N5  UNL     1     -33.322  15.593  -3.767  1.00 20.00    -0.249 NA
HETATM    5  S7  UNL     1     -34.059  17.173  -1.858  1.00 20.00    -0.092 SA
ENDROOT
BRANCH   3   6
HETATM    6  C4  UNL     1     -35.165  13.995  -3.894  1.00 20.00     0.271 C 
HETATM    7  O6  UNL     1     -34.543  12.903  -3.931  1.00 20.00    -0.272 OA
HETATM    8 CL8  UNL     1     -36.808  14.060  -4.586  1.00 20.00    -0.037 Cl
ENDBRANCH   3   6
TORSDOF 1
ENDMDL
