MODEL 1
REMARK VINA RESULT:      -5.1      0.000      0.000
REMARK  1 active torsions:
REMARK  status: ('A' for Active; 'I' for Inactive)
REMARK    1  A    between atoms: C10_10  and  O11_11 
ROOT
HETATM    1  C1  UNL     1     -33.553  16.454  -2.557  1.00 20.00    -0.030 C 
HETATM    2  C2  UNL     1     -33.524  16.628  -3.898  1.00 20.00    -0.025 C 
HETATM    3  C3  UNL     1     -34.919  15.953  -2.084  1.00 20.00     0.032 C 
HETATM    4  C4  UNL     1     -37.074  15.995  -4.997  1.00 20.00     0.013 C 
HETATM    5  C5  UNL     1     -35.476  14.518  -6.008  1.00 20.00     0.037 C 
HETATM    6  C6  UNL     1     -34.913  16.457  -4.385  1.00 20.00     0.017 C 
HETATM    7  C7  UNL     1     -35.338  15.352  -3.405  1.00 20.00     0.003 C 
HETATM    8  C8  UNL     1     -35.661  16.012  -5.646  1.00 20.00    -0.004 C 
HETATM    9  C9  UNL     1     -36.705  14.912  -3.966  1.00 20.00     0.020 C 
HETATM   10  C10 UNL     1     -36.399  13.787  -4.995  1.00 20.00     0.123 C 
ENDROOT
BRANCH  10  11
HETATM   11  O11 UNL     1     -35.773  12.651  -4.435  1.00 20.00    -0.395 OA
HETATM   12  H25 UNL     1     -36.140  12.531  -3.541  1.00 20.00     0.210 HD
ENDBRANCH  10  11
TORSDOF 1
ENDMDL
MODEL 2
REMARK VINA RESULT:      -4.9      1.821      2.691
REMARK  1 active torsions:
REMARK  status: ('A' for Active; 'I' for Inactive)
REMARK    1  A    between atoms: C10_10  and  O11_11 
ROOT
HETATM    1  C1  UNL     1     -34.133  17.471  -1.763  1.00 20.00    -0.030 C 
HETATM    2  C2  UNL     1     -35.304  16.858  -2.053  1.00 20.00    -0.025 C 
HETATM    3  C3  UNL     1     -32.947  16.759  -2.419  1.00 20.00     0.032 C 
HETATM    4  C4  UNL     1     -34.289  13.760  -3.947  1.00 20.00     0.013 C 
HETATM    5  C5  UNL     1     -35.724  15.224  -5.195  1.00 20.00     0.037 C 
HETATM    6  C6  UNL     1     -34.967  15.590  -2.745  1.00 20.00     0.017 C 
HETATM    7  C7  UNL     1     -33.743  16.101  -3.522  1.00 20.00     0.003 C 
HETATM    8  C8  UNL     1     -35.568  14.629  -3.775  1.00 20.00    -0.004 C 
HETATM    9  C9  UNL     1     -33.437  14.929  -4.474  1.00 20.00     0.020 C 
HETATM   10  C10 UNL     1     -34.275  15.193  -5.757  1.00 20.00     0.123 C 
ENDROOT
BRANCH  10  11
HETATM   11  O11 UNL     1     -33.943  16.394  -6.424  1.00 20.00    -0.395 OA
HETATM   12  H25 UNL     1     -34.523  16.461  -7.203  1.00 20.00     0.210 HD
ENDBRANCH  10  11
TORSDOF 1
ENDMDL
MODEL 3
REMARK VINA RESULT:      -4.9      1.360      2.071
REMARK  1 active torsions:
REMARK  status: ('A' for Active; 'I' for Inactive)
REMARK    1  A    between atoms: C10_10  and  O11_11 
ROOT
HETATM    1  C1  UNL     1     -35.721  17.233  -1.865  1.00 20.00    -0.030 C 
HETATM    2  C2  UNL     1     -34.814  16.232  -1.820  1.00 20.00    -0.025 C 
HETATM    3  C3  UNL     1     -36.288  17.418  -3.275  1.00 20.00     0.032 C 
HETATM    4  C4  UNL     1     -34.408  15.181  -5.419  1.00 20.00     0.013 C 
HETATM    5  C5  UNL     1     -35.166  13.416  -3.980  1.00 20.00     0.037 C 
HETATM    6  C6  UNL     1     -34.559  15.817  -3.221  1.00 20.00     0.017 C 
HETATM    7  C7  UNL     1     -35.987  16.017  -3.754  1.00 20.00     0.003 C 
HETATM    8  C8  UNL     1     -34.140  14.574  -4.012  1.00 20.00    -0.004 C 
HETATM    9  C9  UNL     1     -35.913  15.388  -5.160  1.00 20.00     0.020 C 
HETATM   10  C10 UNL     1     -36.267  13.885  -4.971  1.00 20.00     0.123 C 
ENDROOT
BRANCH  10  11
HETATM   11  O11 UNL     1     -37.566  13.661  -4.463  1.00 20.00    -0.395 OA
HETATM   12  H25 UNL     1     -37.488  13.592  -3.495  1.00 20.00     0.210 HD
ENDBRANCH  10  11
TORSDOF 1
ENDMDL
MODEL 4
REMARK VINA RESULT:      -4.6      1.652      3.236
REMARK  1 active torsions:
REMARK  status: ('A' for Active; 'I' for Inactive)
REMARK    1  A    between atoms: C10_10  and  O11_11 
ROOT
HETATM    1  C1  UNL     1     -36.083  17.984  -5.763  1.00 20.00    -0.030 C 
HETATM    2  C2  UNL     1     -36.674  16.993  -5.057  1.00 20.00    -0.025 C 
HETATM    3  C3  UNL     1     -34.625  18.183  -5.342  1.00 20.00     0.032 C 
HETATM    4  C4  UNL     1     -34.088  16.002  -2.498  1.00 20.00     0.013 C 
HETATM    5  C5  UNL     1     -34.744  14.206  -3.949  1.00 20.00     0.037 C 
HETATM    6  C6  UNL     1     -35.726  16.603  -3.985  1.00 20.00     0.017 C 
HETATM    7  C7  UNL     1     -34.427  16.793  -4.783  1.00 20.00     0.003 C 
HETATM    8  C8  UNL     1     -35.358  15.377  -3.144  1.00 20.00    -0.004 C 
HETATM    9  C9  UNL     1     -33.364  16.187  -3.846  1.00 20.00     0.020 C 
HETATM   10  C10 UNL     1     -33.287  14.677  -4.212  1.00 20.00     0.123 C 
ENDROOT
BRANCH  10  11
HETATM   11  O11 UNL     1     -32.885  14.429  -5.544  1.00 20.00    -0.395 OA
HETATM   12  H25 UNL     1     -33.681  14.485  -6.100  1.00 20.00     0.210 HD
ENDBRANCH  10  11
TORSDOF 1
ENDMDL
MODEL 5
REMARK VINA RESULT:      -4.6      1.482      3.196
REMARK  1 active torsions:
REMARK  status: ('A' for Active; 'I' for Inactive)
REMARK    1  A    between atoms: C10_10  and  O11_11 
ROOT
HETATM    1  C1  UNL     1     -34.732  16.179  -7.727  1.00 20.00    -0.030 C 
HETATM    2  C2  UNL     1     -35.342  16.811  -6.698  1.00 20.00    -0.025 C 
HETATM    3  C3  UNL     1     -33.724  15.140  -7.232  1.00 20.00     0.032 C 
HETATM    4  C4  UNL     1     -33.575  15.514  -3.630  1.00 20.00     0.013 C 
HETATM    5  C5  UNL     1     -35.933  15.071  -3.642  1.00 20.00     0.037 C 
HETATM    6  C6  UNL     1     -34.643  16.391  -5.459  1.00 20.00     0.017 C 
HETATM    7  C7  UNL     1     -34.352  14.940  -5.873  1.00 20.00     0.003 C 
HETATM    8  C8  UNL     1     -34.928  16.203  -3.966  1.00 20.00    -0.004 C 
HETATM    9  C9  UNL     1     -33.831  14.316  -4.563  1.00 20.00     0.020 C 
HETATM   10  C10 UNL     1     -35.087  13.780  -3.819  1.00 20.00     0.123 C 
ENDROOT
BRANCH  10  11
HETATM   11  O11 UNL     1     -35.791  12.780  -4.527  1.00 20.00    -0.395 OA
HETATM   12  H25 UNL     1     -36.714  12.803  -4.217  1.00 20.00     0.210 HD
ENDBRANCH  10  11
TORSDOF 1
ENDMDL
MODEL 6
REMARK VINA RESULT:      -4.5      1.555      2.450
REMARK  1 active torsions:
REMARK  status: ('A' for Active; 'I' for Inactive)
REMARK    1  A    between atoms: C10_10  and  O11_11 
ROOT
HETATM    1  C1  UNL     1     -33.623  16.259  -2.565  1.00 20.00    -0.030 C 
HETATM    2  C2  UNL     1     -34.943  16.137  -2.297  1.00 20.00    -0.025 C 
HETATM    3  C3  UNL     1     -33.235  15.508  -3.841  1.00 20.00     0.032 C 
HETATM    4  C4  UNL     1     -36.200  13.708  -4.892  1.00 20.00     0.013 C 
HETATM    5  C5  UNL     1     -37.282  15.849  -4.974  1.00 20.00     0.037 C 
HETATM    6  C6  UNL     1     -35.486  15.137  -3.248  1.00 20.00     0.017 C 
HETATM    7  C7  UNL     1     -34.615  15.514  -4.457  1.00 20.00     0.003 C 
HETATM    8  C8  UNL     1     -36.801  14.790  -3.951  1.00 20.00    -0.004 C 
HETATM    9  C9  UNL     1     -35.252  14.696  -5.598  1.00 20.00     0.020 C 
HETATM   10  C10 UNL     1     -36.362  15.603  -6.202  1.00 20.00     0.123 C 
ENDROOT
BRANCH  10  11
HETATM   11  O11 UNL     1     -35.879  16.813  -6.750  1.00 20.00    -0.395 OA
HETATM   12  H25 UNL     1     -36.301  16.923  -7.621  1.00 20.00     0.210 HD
ENDBRANCH  10  11
TORSDOF 1
ENDMDL
MODEL 7
REMARK VINA RESULT:      -4.5      1.720      2.215
REMARK  1 active torsions:
REMARK  status: ('A' for Active; 'I' for Inactive)
REMARK    1  A    between atoms: C10_10  and  O11_11 
ROOT
HETATM    1  C1  UNL     1     -32.576  18.513  -2.970  1.00 20.00    -0.030 C 
HETATM    2  C2  UNL     1     -33.293  18.511  -4.117  1.00 20.00    -0.025 C 
HETATM    3  C3  UNL     1     -32.917  17.308  -2.089  1.00 20.00     0.032 C 
HETATM    4  C4  UNL     1     -35.682  15.621  -3.715  1.00 20.00     0.013 C 
HETATM    5  C5  UNL     1     -34.236  15.417  -5.619  1.00 20.00     0.037 C 
HETATM    6  C6  UNL     1     -34.302  17.431  -3.992  1.00 20.00     0.017 C 
HETATM    7  C7  UNL     1     -33.436  16.433  -3.207  1.00 20.00     0.003 C 
HETATM    8  C8  UNL     1     -35.097  16.469  -4.880  1.00 20.00    -0.004 C 
HETATM    9  C9  UNL     1     -34.301  15.157  -3.218  1.00 20.00     0.020 C 
HETATM   10  C10 UNL     1     -33.900  14.384  -4.507  1.00 20.00     0.123 C 
ENDROOT
BRANCH  10  11
HETATM   11  O11 UNL     1     -32.543  13.991  -4.543  1.00 20.00    -0.395 OA
HETATM   12  H25 UNL     1     -32.272  13.808  -3.626  1.00 20.00     0.210 HD
ENDBRANCH  10  11
TORSDOF 1
ENDMDL
MODEL 8
REMARK VINA RESULT:      -4.5      1.511      2.418
REMARK  1 active torsions:
REMARK  status: ('A' for Active; 'I' for Inactive)
REMARK    1  A    between atoms: C10_10  and  O11_11 
ROOT
HETATM    1  C1  UNL     1     -35.134  17.521  -2.183  1.00 20.00    -0.030 C 
HETATM    2  C2  UNL     1     -35.052  16.202  -1.897  1.00 20.00    -0.025 C 
HETATM    3  C3  UNL     1     -34.788  17.802  -3.648  1.00 20.00     0.032 C 
HETATM    4  C4  UNL     1     -33.680  14.648  -5.047  1.00 20.00     0.013 C 
HETATM    5  C5  UNL     1     -35.826  13.787  -4.404  1.00 20.00     0.037 C 
HETATM    6  C6  UNL     1     -34.453  15.540  -3.081  1.00 20.00     0.017 C 
HETATM    7  C7  UNL     1     -35.110  16.417  -4.158  1.00 20.00     0.003 C 
HETATM    8  C8  UNL     1     -34.462  14.180  -3.786  1.00 20.00    -0.004 C 
HETATM    9  C9  UNL     1     -34.751  15.675  -5.461  1.00 20.00     0.020 C 
HETATM   10  C10 UNL     1     -35.897  14.649  -5.695  1.00 20.00     0.123 C 
ENDROOT
BRANCH  10  11
HETATM   11  O11 UNL     1     -37.169  15.239  -5.866  1.00 20.00    -0.395 OA
HETATM   12  H25 UNL     1     -37.398  15.679  -5.029  1.00 20.00     0.210 HD
ENDBRANCH  10  11
TORSDOF 1
ENDMDL
MODEL 9
REMARK VINA RESULT:      -4.4      1.761      2.139
REMARK  1 active torsions:
REMARK  status: ('A' for Active; 'I' for Inactive)
REMARK    1  A    between atoms: C10_10  and  O11_11 
ROOT
HETATM    1  C1  UNL     1     -35.338  17.677  -2.260  1.00 20.00    -0.030 C 
HETATM    2  C2  UNL     1     -35.721  17.699  -3.557  1.00 20.00    -0.025 C 
HETATM    3  C3  UNL     1     -34.997  16.258  -1.797  1.00 20.00     0.032 C 
HETATM    4  C4  UNL     1     -35.866  14.064  -4.549  1.00 20.00     0.013 C 
HETATM    5  C5  UNL     1     -34.332  15.360  -5.862  1.00 20.00     0.037 C 
HETATM    6  C6  UNL     1     -35.862  16.288  -3.989  1.00 20.00     0.017 C 
HETATM    7  C7  UNL     1     -34.697  15.708  -3.172  1.00 20.00     0.003 C 
HETATM    8  C8  UNL     1     -35.756  15.442  -5.262  1.00 20.00    -0.004 C 
HETATM    9  C9  UNL     1     -34.584  14.271  -3.720  1.00 20.00     0.020 C 
HETATM   10  C10 UNL     1     -33.607  14.353  -4.927  1.00 20.00     0.123 C 
ENDROOT
BRANCH  10  11
HETATM   11  O11 UNL     1     -32.307  14.791  -4.585  1.00 20.00    -0.395 OA
HETATM   12  H25 UNL     1     -32.324  15.032  -3.642  1.00 20.00     0.210 HD
ENDBRANCH  10  11
TORSDOF 1
ENDMDL
