MODEL 1
REMARK VINA RESULT:      -4.2      0.000      0.000
REMARK  1 active torsions:
REMARK  status: ('A' for Active; 'I' for Inactive)
REMARK    1  A    between atoms: C1_1  and  C2_2 
ROOT
HETATM    1  C1  UNL     1     -34.543   5.762   5.305  1.00 20.00     0.346 C 
HETATM    2  O3  UNL     1     -33.957   6.797   5.585  1.00 20.00    -0.255 OA
HETATM    3  F4  UNL     1     -35.178   5.132   6.305  1.00 20.00    -0.160 F 
ENDROOT
BRANCH   1   4
HETATM    4  C2  UNL     1     -34.559   5.127   3.953  1.00 20.00     0.369 C 
HETATM    5  F5  UNL     1     -34.289   3.797   4.024  1.00 20.00    -0.222 F 
HETATM    6 CL6  UNL     1     -33.338   5.925   2.957  1.00 20.00    -0.078 Cl
ENDBRANCH   1   4
TORSDOF 1
ENDMDL
MODEL 2
REMARK VINA RESULT:      -4.2      2.567      2.970
REMARK  1 active torsions:
REMARK  status: ('A' for Active; 'I' for Inactive)
REMARK    1  A    between atoms: C1_1  and  C2_2 
ROOT
HETATM    1  C1  UNL     1     -34.225   5.119   3.763  1.00 20.00     0.346 C 
HETATM    2  O3  UNL     1     -34.872   4.262   4.345  1.00 20.00    -0.255 OA
HETATM    3  F4  UNL     1     -33.629   4.759   2.616  1.00 20.00    -0.160 F 
ENDROOT
BRANCH   1   4
HETATM    4  C2  UNL     1     -34.010   6.512   4.258  1.00 20.00     0.369 C 
HETATM    5  F5  UNL     1     -32.792   6.990   3.889  1.00 20.00    -0.222 F 
HETATM    6 CL6  UNL     1     -34.126   6.493   6.021  1.00 20.00    -0.078 Cl
ENDBRANCH   1   4
TORSDOF 1
ENDMDL
MODEL 3
REMARK VINA RESULT:      -4.2      2.137      2.704
REMARK  1 active torsions:
REMARK  status: ('A' for Active; 'I' for Inactive)
REMARK    1  A    between atoms: C1_1  and  C2_2 
ROOT
HETATM    1  C1  UNL     1     -33.853   5.478   3.483  1.00 20.00     0.346 C 
HETATM    2  O3  UNL     1     -33.319   6.577   3.472  1.00 20.00    -0.255 OA
HETATM    3  F4  UNL     1     -33.467   4.603   2.542  1.00 20.00    -0.160 F 
ENDROOT
BRANCH   1   4
HETATM    4  C2  UNL     1     -34.932   5.061   4.428  1.00 20.00     0.369 C 
HETATM    5  F5  UNL     1     -36.148   5.518   4.029  1.00 20.00    -0.222 F 
HETATM    6 CL6  UNL     1     -34.550   5.717   6.023  1.00 20.00    -0.078 Cl
ENDBRANCH   1   4
TORSDOF 1
ENDMDL
MODEL 4
REMARK VINA RESULT:      -4.2      1.699      2.017
REMARK  1 active torsions:
REMARK  status: ('A' for Active; 'I' for Inactive)
REMARK    1  A    between atoms: C1_1  and  C2_2 
ROOT
HETATM    1  C1  UNL     1     -34.032   6.544   4.762  1.00 20.00     0.346 C 
HETATM    2  O3  UNL     1     -33.347   6.828   3.791  1.00 20.00    -0.255 OA
HETATM    3  F4  UNL     1     -33.881   7.305   5.857  1.00 20.00    -0.160 F 
ENDROOT
BRANCH   1   4
HETATM    4  C2  UNL     1     -34.978   5.391   4.834  1.00 20.00     0.369 C 
HETATM    5  F5  UNL     1     -35.198   5.005   6.118  1.00 20.00    -0.222 F 
HETATM    6 CL6  UNL     1     -34.277   4.047   3.927  1.00 20.00    -0.078 Cl
ENDBRANCH   1   4
TORSDOF 1
ENDMDL
MODEL 5
REMARK VINA RESULT:      -4.1      2.114      2.637
REMARK  1 active torsions:
REMARK  status: ('A' for Active; 'I' for Inactive)
REMARK    1  A    between atoms: C1_1  and  C2_2 
ROOT
HETATM    1  C1  UNL     1     -34.880   4.960   4.452  1.00 20.00     0.346 C 
HETATM    2  O3  UNL     1     -34.257   4.250   3.678  1.00 20.00    -0.255 OA
HETATM    3  F4  UNL     1     -36.015   5.511   3.994  1.00 20.00    -0.160 F 
ENDROOT
BRANCH   1   4
HETATM    4  C2  UNL     1     -34.447   5.298   5.841  1.00 20.00     0.369 C 
HETATM    5  F5  UNL     1     -35.482   5.221   6.719  1.00 20.00    -0.222 F 
HETATM    6 CL6  UNL     1     -33.803   6.943   5.831  1.00 20.00    -0.078 Cl
ENDBRANCH   1   4
TORSDOF 1
ENDMDL
MODEL 6
REMARK VINA RESULT:      -4.1      2.444      2.499
REMARK  1 active torsions:
REMARK  status: ('A' for Active; 'I' for Inactive)
REMARK    1  A    between atoms: C1_1  and  C2_2 
ROOT
HETATM    1  C1  UNL     1     -34.875   5.259   4.146  1.00 20.00     0.346 C 
HETATM    2  O3  UNL     1     -34.449   4.114   4.149  1.00 20.00    -0.255 OA
HETATM    3  F4  UNL     1     -36.206   5.414   4.075  1.00 20.00    -0.160 F 
ENDROOT
BRANCH   1   4
HETATM    4  C2  UNL     1     -34.027   6.488   4.162  1.00 20.00     0.369 C 
HETATM    5  F5  UNL     1     -32.861   6.299   3.490  1.00 20.00    -0.222 F 
HETATM    6 CL6  UNL     1     -33.678   6.893   5.846  1.00 20.00    -0.078 Cl
ENDBRANCH   1   4
TORSDOF 1
ENDMDL
MODEL 7
REMARK VINA RESULT:      -4.0      1.973      2.056
REMARK  1 active torsions:
REMARK  status: ('A' for Active; 'I' for Inactive)
REMARK    1  A    between atoms: C1_1  and  C2_2 
ROOT
HETATM    1  C1  UNL     1     -34.291   5.301   3.948  1.00 20.00     0.346 C 
HETATM    2  O3  UNL     1     -34.804   4.249   4.299  1.00 20.00    -0.255 OA
HETATM    3  F4  UNL     1     -34.473   6.364   4.747  1.00 20.00    -0.160 F 
ENDROOT
BRANCH   1   4
HETATM    4  C2  UNL     1     -33.527   5.500   2.680  1.00 20.00     0.369 C 
HETATM    5  F5  UNL     1     -32.761   4.417   2.384  1.00 20.00    -0.222 F 
HETATM    6 CL6  UNL     1     -32.492   6.918   2.878  1.00 20.00    -0.078 Cl
ENDBRANCH   1   4
TORSDOF 1
ENDMDL
MODEL 8
REMARK VINA RESULT:      -3.9      2.384      3.057
REMARK  1 active torsions:
REMARK  status: ('A' for Active; 'I' for Inactive)
REMARK    1  A    between atoms: C1_1  and  C2_2 
ROOT
HETATM    1  C1  UNL     1     -33.183   6.218   3.173  1.00 20.00     0.346 C 
HETATM    2  O3  UNL     1     -32.391   7.053   2.762  1.00 20.00    -0.255 OA
HETATM    3  F4  UNL     1     -33.225   5.046   2.523  1.00 20.00    -0.160 F 
ENDROOT
BRANCH   1   4
HETATM    4  C2  UNL     1     -34.135   6.427   4.305  1.00 20.00     0.369 C 
HETATM    5  F5  UNL     1     -33.507   6.937   5.398  1.00 20.00    -0.222 F 
HETATM    6 CL6  UNL     1     -34.855   4.867   4.713  1.00 20.00    -0.078 Cl
ENDBRANCH   1   4
TORSDOF 1
ENDMDL
MODEL 9
REMARK VINA RESULT:      -3.8      2.017      2.383
REMARK  1 active torsions:
REMARK  status: ('A' for Active; 'I' for Inactive)
REMARK    1  A    between atoms: C1_1  and  C2_2 
ROOT
HETATM    1  C1  UNL     1     -34.745   5.147   4.329  1.00 20.00     0.346 C 
HETATM    2  O3  UNL     1     -34.516   3.960   4.150  1.00 20.00    -0.255 OA
HETATM    3  F4  UNL     1     -36.007   5.560   4.136  1.00 20.00    -0.160 F 
ENDROOT
BRANCH   1   4
HETATM    4  C2  UNL     1     -33.720   6.171   4.694  1.00 20.00     0.369 C 
HETATM    5  F5  UNL     1     -34.261   7.177   5.429  1.00 20.00    -0.222 F 
HETATM    6 CL6  UNL     1     -33.045   6.829   3.199  1.00 20.00    -0.078 Cl
ENDBRANCH   1   4
TORSDOF 1
ENDMDL
