MODEL 1
REMARK VINA RESULT:      -3.4      0.000      0.000
REMARK  0 active torsions:
REMARK  status: ('A' for Active; 'I' for Inactive)
ROOT
HETATM    1  C1  UNL     1     -35.346  13.845  -4.290  1.00 20.00     0.101 C 
HETATM    2  C2  UNL     1     -34.848  15.601  -2.623  1.00 20.00     0.067 C 
HETATM    3  C3  UNL     1     -34.597  15.078  -4.031  1.00 20.00     0.197 C 
HETATM    4  N4  UNL     1     -35.941  12.868  -4.492  1.00 20.00    -0.194 NA
HETATM    5 CL5  UNL     1     -32.862  14.728  -4.245  1.00 20.00    -0.085 Cl
HETATM    6 CL6  UNL     1     -35.106  16.298  -5.230  1.00 20.00    -0.085 Cl
ENDROOT
TORSDOF 0
ENDMDL
MODEL 2
REMARK VINA RESULT:      -3.4      1.348      1.968
REMARK  0 active torsions:
REMARK  status: ('A' for Active; 'I' for Inactive)
ROOT
HETATM    1  C1  UNL     1     -35.339  13.840  -4.317  1.00 20.00     0.101 C 
HETATM    2  C2  UNL     1     -34.947  16.156  -5.088  1.00 20.00     0.067 C 
HETATM    3  C3  UNL     1     -34.562  15.064  -4.099  1.00 20.00     0.197 C 
HETATM    4  N4  UNL     1     -35.956  12.872  -4.493  1.00 20.00    -0.194 NA
HETATM    5 CL5  UNL     1     -34.865  15.623  -2.433  1.00 20.00    -0.085 Cl
HETATM    6 CL6  UNL     1     -32.833  14.663  -4.283  1.00 20.00    -0.085 Cl
ENDROOT
TORSDOF 0
ENDMDL
MODEL 3
REMARK VINA RESULT:      -3.4      1.344      1.972
REMARK  0 active torsions:
REMARK  status: ('A' for Active; 'I' for Inactive)
ROOT
HETATM    1  C1  UNL     1     -35.338  13.831  -4.297  1.00 20.00     0.101 C 
HETATM    2  C2  UNL     1     -33.075  14.825  -4.235  1.00 20.00     0.067 C 
HETATM    3  C3  UNL     1     -34.571  15.059  -4.068  1.00 20.00     0.197 C 
HETATM    4  N4  UNL     1     -35.943  12.857  -4.480  1.00 20.00    -0.194 NA
HETATM    5 CL5  UNL     1     -35.126  16.286  -5.236  1.00 20.00    -0.085 Cl
HETATM    6 CL6  UNL     1     -34.912  15.624  -2.410  1.00 20.00    -0.085 Cl
ENDROOT
TORSDOF 0
ENDMDL
MODEL 4
REMARK VINA RESULT:      -3.3     18.287     18.835
REMARK  0 active torsions:
REMARK  status: ('A' for Active; 'I' for Inactive)
ROOT
HETATM    1  C1  UNL     1     -22.977  16.893   9.714  1.00 20.00     0.101 C 
HETATM    2  C2  UNL     1     -22.803  17.706  12.042  1.00 20.00     0.067 C 
HETATM    3  C3  UNL     1     -23.725  17.216  10.933  1.00 20.00     0.197 C 
HETATM    4  N4  UNL     1     -22.382  16.637   8.750  1.00 20.00    -0.194 NA
HETATM    5 CL5  UNL     1     -24.917  18.479  10.533  1.00 20.00    -0.085 Cl
HETATM    6 CL6  UNL     1     -24.580  15.743  11.465  1.00 20.00    -0.085 Cl
ENDROOT
TORSDOF 0
ENDMDL
MODEL 5
REMARK VINA RESULT:      -3.3     18.287     18.808
REMARK  0 active torsions:
REMARK  status: ('A' for Active; 'I' for Inactive)
ROOT
HETATM    1  C1  UNL     1     -23.026  16.872   9.744  1.00 20.00     0.101 C 
HETATM    2  C2  UNL     1     -24.548  15.926  11.446  1.00 20.00     0.067 C 
HETATM    3  C3  UNL     1     -23.798  17.158  10.956  1.00 20.00     0.197 C 
HETATM    4  N4  UNL     1     -22.416  16.643   8.783  1.00 20.00    -0.194 NA
HETATM    5 CL5  UNL     1     -22.666  17.717  12.215  1.00 20.00    -0.085 Cl
HETATM    6 CL6  UNL     1     -24.957  18.462  10.582  1.00 20.00    -0.085 Cl
ENDROOT
TORSDOF 0
ENDMDL
MODEL 6
REMARK VINA RESULT:      -3.2     18.299     18.930
REMARK  0 active torsions:
REMARK  status: ('A' for Active; 'I' for Inactive)
ROOT
HETATM    1  C1  UNL     1     -22.820  18.557   9.686  1.00 20.00     0.101 C 
HETATM    2  C2  UNL     1     -25.116  18.662  10.594  1.00 20.00     0.067 C 
HETATM    3  C3  UNL     1     -23.764  17.963  10.637  1.00 20.00     0.197 C 
HETATM    4  N4  UNL     1     -22.074  19.031   8.932  1.00 20.00    -0.194 NA
HETATM    5 CL5  UNL     1     -23.959  16.241  10.222  1.00 20.00    -0.085 Cl
HETATM    6 CL6  UNL     1     -23.063  18.101  12.273  1.00 20.00    -0.085 Cl
ENDROOT
TORSDOF 0
ENDMDL
MODEL 7
REMARK VINA RESULT:      -3.1     18.545     18.977
REMARK  0 active torsions:
REMARK  status: ('A' for Active; 'I' for Inactive)
ROOT
HETATM    1  C1  UNL     1     -24.943  18.186  11.018  1.00 20.00     0.101 C 
HETATM    2  C2  UNL     1     -23.170  17.015   9.755  1.00 20.00     0.067 C 
HETATM    3  C3  UNL     1     -23.875  17.185  11.094  1.00 20.00     0.197 C 
HETATM    4  N4  UNL     1     -25.789  18.979  10.954  1.00 20.00    -0.194 NA
HETATM    5 CL5  UNL     1     -22.706  17.714  12.332  1.00 20.00    -0.085 Cl
HETATM    6 CL6  UNL     1     -24.604  15.634  11.594  1.00 20.00    -0.085 Cl
ENDROOT
TORSDOF 0
ENDMDL
MODEL 8
REMARK VINA RESULT:      -3.1     18.283     18.923
REMARK  0 active torsions:
REMARK  status: ('A' for Active; 'I' for Inactive)
ROOT
HETATM    1  C1  UNL     1     -24.921  18.122  10.953  1.00 20.00     0.101 C 
HETATM    2  C2  UNL     1     -24.550  15.791  11.685  1.00 20.00     0.067 C 
HETATM    3  C3  UNL     1     -23.919  17.074  11.160  1.00 20.00     0.197 C 
HETATM    4  N4  UNL     1     -25.718  18.951  10.790  1.00 20.00    -0.194 NA
HETATM    5 CL5  UNL     1     -23.116  16.758   9.599  1.00 20.00    -0.085 Cl
HETATM    6 CL6  UNL     1     -22.716  17.680  12.331  1.00 20.00    -0.085 Cl
ENDROOT
TORSDOF 0
ENDMDL
MODEL 9
REMARK VINA RESULT:      -3.1     11.320     11.737
REMARK  0 active torsions:
REMARK  status: ('A' for Active; 'I' for Inactive)
ROOT
HETATM    1  C1  UNL     1     -42.788   7.164  -1.174  1.00 20.00     0.101 C 
HETATM    2  C2  UNL     1     -42.882   5.607   0.744  1.00 20.00     0.067 C 
HETATM    3  C3  UNL     1     -41.998   6.447  -0.169  1.00 20.00     0.197 C 
HETATM    4  N4  UNL     1     -43.417   7.731  -1.968  1.00 20.00    -0.194 NA
HETATM    5 CL5  UNL     1     -40.838   5.396  -1.022  1.00 20.00    -0.085 Cl
HETATM    6 CL6  UNL     1     -41.104   7.652   0.797  1.00 20.00    -0.085 Cl
ENDROOT
TORSDOF 0
ENDMDL
