MODEL 1
REMARK VINA RESULT:      -4.8      0.000      0.000
REMARK  0 active torsions:
REMARK  status: ('A' for Active; 'I' for Inactive)
ROOT
HETATM    1  C1  UNL     1     -32.850  15.694  -3.723  1.00 20.00     0.015 A 
HETATM    2  C2  UNL     1     -33.743  14.761  -4.261  1.00 20.00     0.025 A 
HETATM    3  C3  UNL     1     -32.660  17.557  -1.906  1.00 20.00     0.031 A 
HETATM    4  C4  UNL     1     -35.489  15.467  -2.726  1.00 20.00     0.054 A 
HETATM    5  C5  UNL     1     -33.587  18.021  -1.001  1.00 20.00     0.091 A 
HETATM    6  C6  UNL     1     -33.278  16.528  -2.670  1.00 20.00    -0.008 A 
HETATM    7  C7  UNL     1     -34.586  16.395  -2.197  1.00 20.00     0.045 A 
HETATM    8  C8  UNL     1     -35.043  14.651  -3.768  1.00 20.00     0.036 A 
HETATM    9  C9  UNL     1     -35.953  17.516  -0.414  1.00 20.00     0.155 C 
HETATM   10  N10 UNL     1     -34.745  17.314  -1.184  1.00 20.00    -0.360 N 
HETATM   11 CL11 UNL     1     -36.117  13.490  -4.454  1.00 20.00    -0.084 Cl
ENDROOT
TORSDOF 0
ENDMDL
MODEL 2
REMARK VINA RESULT:      -4.7     15.489     16.911
REMARK  0 active torsions:
REMARK  status: ('A' for Active; 'I' for Inactive)
ROOT
HETATM    1  C1  UNL     1     -23.042  17.480  11.745  1.00 20.00     0.015 A 
HETATM    2  C2  UNL     1     -24.286  17.738  12.332  1.00 20.00     0.025 A 
HETATM    3  C3  UNL     1     -21.770  17.605   9.470  1.00 20.00     0.031 A 
HETATM    4  C4  UNL     1     -25.185  18.516  10.213  1.00 20.00     0.054 A 
HETATM    5  C5  UNL     1     -22.194  18.027   8.231  1.00 20.00     0.091 A 
HETATM    6  C6  UNL     1     -22.863  17.743  10.371  1.00 20.00    -0.008 A 
HETATM    7  C7  UNL     1     -23.937  18.253   9.639  1.00 20.00     0.045 A 
HETATM    8  C8  UNL     1     -25.340  18.248  11.576  1.00 20.00     0.036 A 
HETATM    9  C9  UNL     1     -24.297  18.925   7.246  1.00 20.00     0.155 C 
HETATM   10  N10 UNL     1     -23.501  18.416   8.343  1.00 20.00    -0.360 N 
HETATM   11 CL11 UNL     1     -26.858  18.556  12.331  1.00 20.00    -0.084 Cl
ENDROOT
TORSDOF 0
ENDMDL
MODEL 3
REMARK VINA RESULT:      -4.5      2.332      3.734
REMARK  0 active torsions:
REMARK  status: ('A' for Active; 'I' for Inactive)
ROOT
HETATM    1  C1  UNL     1     -32.915  17.004  -2.275  1.00 20.00     0.015 A 
HETATM    2  C2  UNL     1     -33.821  17.551  -1.359  1.00 20.00     0.025 A 
HETATM    3  C3  UNL     1     -32.726  15.229  -4.178  1.00 20.00     0.031 A 
HETATM    4  C4  UNL     1     -35.595  16.100  -2.165  1.00 20.00     0.054 A 
HETATM    5  C5  UNL     1     -33.667  14.371  -4.696  1.00 20.00     0.091 A 
HETATM    6  C6  UNL     1     -33.352  15.990  -3.151  1.00 20.00    -0.008 A 
HETATM    7  C7  UNL     1     -34.679  15.562  -3.076  1.00 20.00     0.045 A 
HETATM    8  C8  UNL     1     -35.141  17.104  -1.307  1.00 20.00     0.036 A 
HETATM    9  C9  UNL     1     -36.070  13.860  -4.291  1.00 20.00     0.155 C 
HETATM   10  N10 UNL     1     -34.842  14.579  -4.026  1.00 20.00    -0.360 N 
HETATM   11 CL11 UNL     1     -36.230  17.801  -0.167  1.00 20.00    -0.084 Cl
ENDROOT
TORSDOF 0
ENDMDL
MODEL 4
REMARK VINA RESULT:      -4.4      1.240      1.807
REMARK  0 active torsions:
REMARK  status: ('A' for Active; 'I' for Inactive)
ROOT
HETATM    1  C1  UNL     1     -32.630  17.411  -2.328  1.00 20.00     0.015 A 
HETATM    2  C2  UNL     1     -33.151  16.342  -3.066  1.00 20.00     0.025 A 
HETATM    3  C3  UNL     1     -33.151  18.962  -0.296  1.00 20.00     0.031 A 
HETATM    4  C4  UNL     1     -35.130  16.266  -1.660  1.00 20.00     0.054 A 
HETATM    5  C5  UNL     1     -34.236  18.992   0.550  1.00 20.00     0.091 A 
HETATM    6  C6  UNL     1     -33.366  17.918  -1.238  1.00 20.00    -0.008 A 
HETATM    7  C7  UNL     1     -34.598  17.335  -0.930  1.00 20.00     0.045 A 
HETATM    8  C8  UNL     1     -34.383  15.781  -2.735  1.00 20.00     0.036 A 
HETATM    9  C9  UNL     1     -36.364  17.726   0.812  1.00 20.00     0.155 C 
HETATM   10  N10 UNL     1     -35.102  18.007   0.160  1.00 20.00    -0.360 N 
HETATM   11 CL11 UNL     1     -34.995  14.465  -3.665  1.00 20.00    -0.084 Cl
ENDROOT
TORSDOF 0
ENDMDL
MODEL 5
REMARK VINA RESULT:      -4.4     15.667     16.521
REMARK  0 active torsions:
REMARK  status: ('A' for Active; 'I' for Inactive)
ROOT
HETATM    1  C1  UNL     1     -24.913  19.263   9.016  1.00 20.00     0.015 A 
HETATM    2  C2  UNL     1     -23.831  18.908   8.202  1.00 20.00     0.025 A 
HETATM    3  C3  UNL     1     -26.154  18.584  11.208  1.00 20.00     0.031 A 
HETATM    4  C4  UNL     1     -23.255  17.067   9.680  1.00 20.00     0.054 A 
HETATM    5  C5  UNL     1     -25.902  17.567  12.099  1.00 20.00     0.091 A 
HETATM    6  C6  UNL     1     -25.172  18.512  10.180  1.00 20.00    -0.008 A 
HETATM    7  C7  UNL     1     -24.339  17.433  10.485  1.00 20.00     0.045 A 
HETATM    8  C8  UNL     1     -23.016  17.826   8.531  1.00 20.00     0.036 A 
HETATM    9  C9  UNL     1     -24.232  15.735  12.331  1.00 20.00     0.155 C 
HETATM   10  N10 UNL     1     -24.806  16.879  11.655  1.00 20.00    -0.360 N 
HETATM   11 CL11 UNL     1     -21.691  17.416   7.507  1.00 20.00    -0.084 Cl
ENDROOT
TORSDOF 0
ENDMDL
MODEL 6
REMARK VINA RESULT:      -4.3      2.507      3.865
REMARK  0 active torsions:
REMARK  status: ('A' for Active; 'I' for Inactive)
ROOT
HETATM    1  C1  UNL     1     -32.998  16.277  -3.421  1.00 20.00     0.015 A 
HETATM    2  C2  UNL     1     -33.307  16.842  -2.178  1.00 20.00     0.025 A 
HETATM    3  C3  UNL     1     -34.053  14.940  -5.397  1.00 20.00     0.031 A 
HETATM    4  C4  UNL     1     -35.612  16.094  -2.351  1.00 20.00     0.054 A 
HETATM    5  C5  UNL     1     -35.336  14.478  -5.580  1.00 20.00     0.091 A 
HETATM    6  C6  UNL     1     -34.009  15.611  -4.143  1.00 20.00    -0.008 A 
HETATM    7  C7  UNL     1     -35.290  15.534  -3.592  1.00 20.00     0.045 A 
HETATM    8  C8  UNL     1     -34.595  16.750  -1.653  1.00 20.00     0.036 A 
HETATM    9  C9  UNL     1     -37.478  14.534  -4.312  1.00 20.00     0.155 C 
HETATM   10  N10 UNL     1     -36.074  14.841  -4.486  1.00 20.00    -0.360 N 
HETATM   11 CL11 UNL     1     -34.941  17.457  -0.119  1.00 20.00    -0.084 Cl
ENDROOT
TORSDOF 0
ENDMDL
MODEL 7
REMARK VINA RESULT:      -4.3      1.539      2.679
REMARK  0 active torsions:
REMARK  status: ('A' for Active; 'I' for Inactive)
ROOT
HETATM    1  C1  UNL     1     -35.584  16.200  -1.955  1.00 20.00     0.015 A 
HETATM    2  C2  UNL     1     -35.053  15.472  -3.025  1.00 20.00     0.025 A 
HETATM    3  C3  UNL     1     -34.960  18.006  -0.178  1.00 20.00     0.031 A 
HETATM    4  C4  UNL     1     -32.895  16.555  -2.762  1.00 20.00     0.054 A 
HETATM    5  C5  UNL     1     -33.775  18.668   0.044  1.00 20.00     0.091 A 
HETATM    6  C6  UNL     1     -34.762  17.122  -1.276  1.00 20.00    -0.008 A 
HETATM    7  C7  UNL     1     -33.438  17.277  -1.694  1.00 20.00     0.045 A 
HETATM    8  C8  UNL     1     -33.728  15.648  -3.421  1.00 20.00     0.036 A 
HETATM    9  C9  UNL     1     -31.496  18.690  -0.960  1.00 20.00     0.155 C 
HETATM   10  N10 UNL     1     -32.864  18.223  -0.875  1.00 20.00    -0.360 N 
HETATM   11 CL11 UNL     1     -33.106  14.735  -4.744  1.00 20.00    -0.084 Cl
ENDROOT
TORSDOF 0
ENDMDL
MODEL 8
REMARK VINA RESULT:      -4.2      2.708      4.542
REMARK  0 active torsions:
REMARK  status: ('A' for Active; 'I' for Inactive)
ROOT
HETATM    1  C1  UNL     1     -35.451  16.011  -1.975  1.00 20.00     0.015 A 
HETATM    2  C2  UNL     1     -34.423  16.898  -1.636  1.00 20.00     0.025 A 
HETATM    3  C3  UNL     1     -36.311  14.496  -3.917  1.00 20.00     0.031 A 
HETATM    4  C4  UNL     1     -33.390  16.618  -3.818  1.00 20.00     0.054 A 
HETATM    5  C5  UNL     1     -35.798  14.277  -5.174  1.00 20.00     0.091 A 
HETATM    6  C6  UNL     1     -35.452  15.415  -3.252  1.00 20.00    -0.008 A 
HETATM    7  C7  UNL     1     -34.423  15.733  -4.143  1.00 20.00     0.045 A 
HETATM    8  C8  UNL     1     -33.409  17.196  -2.546  1.00 20.00     0.036 A 
HETATM    9  C9  UNL     1     -33.833  15.060  -6.489  1.00 20.00     0.155 C 
HETATM   10  N10 UNL     1     -34.659  15.027  -5.301  1.00 20.00    -0.360 N 
HETATM   11 CL11 UNL     1     -32.158  18.293  -2.096  1.00 20.00    -0.084 Cl
ENDROOT
TORSDOF 0
ENDMDL
MODEL 9
REMARK VINA RESULT:      -4.2      2.666      4.451
REMARK  0 active torsions:
REMARK  status: ('A' for Active; 'I' for Inactive)
ROOT
HETATM    1  C1  UNL     1     -35.571  17.030  -1.568  1.00 20.00     0.015 A 
HETATM    2  C2  UNL     1     -34.550  17.846  -1.067  1.00 20.00     0.025 A 
HETATM    3  C3  UNL     1     -36.016  15.075  -3.237  1.00 20.00     0.031 A 
HETATM    4  C4  UNL     1     -32.903  16.736  -2.466  1.00 20.00     0.054 A 
HETATM    5  C5  UNL     1     -35.154  14.392  -4.063  1.00 20.00     0.091 A 
HETATM    6  C6  UNL     1     -35.257  16.050  -2.531  1.00 20.00    -0.008 A 
HETATM    7  C7  UNL     1     -33.933  15.927  -2.957  1.00 20.00     0.045 A 
HETATM    8  C8  UNL     1     -33.237  17.700  -1.512  1.00 20.00     0.036 A 
HETATM    9  C9  UNL     1     -32.720  14.449  -4.586  1.00 20.00     0.155 C 
HETATM   10  N10 UNL     1     -33.900  14.912  -3.887  1.00 20.00    -0.360 N 
HETATM   11 CL11 UNL     1     -32.005  18.722  -0.874  1.00 20.00    -0.084 Cl
ENDROOT
TORSDOF 0
ENDMDL
