MODEL 1
REMARK VINA RESULT:      -4.6      0.000      0.000
REMARK  3 active torsions:
REMARK  status: ('A' for Active; 'I' for Inactive)
REMARK    1  A    between atoms: C1_1  and  C3_3 
REMARK    2  A    between atoms: C3_3  and  O9_9 
REMARK    3  A    between atoms: C7_7  and  O9_9 
ROOT
HETATM    1  C3  UNL     1     -33.880   5.293   3.283  1.00 20.00     0.282 C 
HETATM    2  O8  UNL     1     -33.188   4.406   2.807  1.00 20.00    -0.260 OA
ENDROOT
BRANCH   1   3
HETATM    3  C1  UNL     1     -35.026   5.091   4.195  1.00 20.00     0.077 C 
HETATM    4  C2  UNL     1     -34.988   5.594   5.436  1.00 20.00    -0.025 C 
HETATM    5  C4  UNL     1     -33.831   6.368   5.974  1.00 20.00     0.036 C 
ENDBRANCH   1   3
BRANCH   1   6
HETATM    6  O9  UNL     1     -33.747   6.632   3.077  1.00 20.00    -0.314 OA
BRANCH   6   7
HETATM    7  C7  UNL     1     -32.515   7.043   2.475  1.00 20.00     0.124 C 
HETATM    8  C5  UNL     1     -32.811   8.029   1.356  1.00 20.00     0.040 C 
HETATM    9  C6  UNL     1     -31.613   7.647   3.540  1.00 20.00     0.040 C 
ENDBRANCH   6   7
ENDBRANCH   1   6
TORSDOF 3
ENDMDL
MODEL 2
REMARK VINA RESULT:      -4.4      1.235      4.112
REMARK  3 active torsions:
REMARK  status: ('A' for Active; 'I' for Inactive)
REMARK    1  A    between atoms: C1_1  and  C3_3 
REMARK    2  A    between atoms: C3_3  and  O9_9 
REMARK    3  A    between atoms: C7_7  and  O9_9 
ROOT
HETATM    1  C3  UNL     1     -32.531   7.245   3.082  1.00 20.00     0.282 C 
HETATM    2  O8  UNL     1     -31.593   7.634   3.761  1.00 20.00    -0.260 OA
ENDROOT
BRANCH   1   3
HETATM    3  C1  UNL     1     -32.490   6.997   1.625  1.00 20.00     0.077 C 
HETATM    4  C2  UNL     1     -32.702   8.005   0.769  1.00 20.00    -0.025 C 
HETATM    5  C4  UNL     1     -32.986   9.405   1.203  1.00 20.00     0.036 C 
ENDBRANCH   1   3
BRANCH   1   6
HETATM    6  O9  UNL     1     -33.791   6.963   3.513  1.00 20.00    -0.314 OA
BRANCH   6   7
HETATM    7  C7  UNL     1     -33.879   6.002   4.569  1.00 20.00     0.124 C 
HETATM    8  C5  UNL     1     -34.086   6.727   5.890  1.00 20.00     0.040 C 
HETATM    9  C6  UNL     1     -35.012   5.032   4.271  1.00 20.00     0.040 C 
ENDBRANCH   6   7
ENDBRANCH   1   6
TORSDOF 3
ENDMDL
MODEL 3
REMARK VINA RESULT:      -4.2     15.806     16.509
REMARK  3 active torsions:
REMARK  status: ('A' for Active; 'I' for Inactive)
REMARK    1  A    between atoms: C1_1  and  C3_3 
REMARK    2  A    between atoms: C3_3  and  O9_9 
REMARK    3  A    between atoms: C7_7  and  O9_9 
ROOT
HETATM    1  C3  UNL     1     -23.500  16.776  11.450  1.00 20.00     0.282 C 
HETATM    2  O8  UNL     1     -22.643  17.218  12.199  1.00 20.00    -0.260 OA
ENDROOT
BRANCH   1   3
HETATM    3  C1  UNL     1     -24.758  16.126  11.875  1.00 20.00     0.077 C 
HETATM    4  C2  UNL     1     -25.817  16.874  12.213  1.00 20.00    -0.025 C 
HETATM    5  C4  UNL     1     -25.809  18.367  12.186  1.00 20.00     0.036 C 
ENDBRANCH   1   3
BRANCH   1   6
HETATM    6  O9  UNL     1     -23.482  16.788  10.089  1.00 20.00    -0.314 OA
BRANCH   6   7
HETATM    7  C7  UNL     1     -22.767  17.875   9.493  1.00 20.00     0.124 C 
HETATM    8  C5  UNL     1     -21.953  17.355   8.318  1.00 20.00     0.040 C 
HETATM    9  C6  UNL     1     -23.755  18.950   9.066  1.00 20.00     0.040 C 
ENDBRANCH   6   7
ENDBRANCH   1   6
TORSDOF 3
ENDMDL
MODEL 4
REMARK VINA RESULT:      -4.1     11.207     12.246
REMARK  3 active torsions:
REMARK  status: ('A' for Active; 'I' for Inactive)
REMARK    1  A    between atoms: C1_1  and  C3_3 
REMARK    2  A    between atoms: C3_3  and  O9_9 
REMARK    3  A    between atoms: C7_7  and  O9_9 
ROOT
HETATM    1  C3  UNL     1     -35.346  14.207  -4.320  1.00 20.00     0.282 C 
HETATM    2  O8  UNL     1     -34.738  13.211  -3.956  1.00 20.00    -0.260 OA
ENDROOT
BRANCH   1   3
HETATM    3  C1  UNL     1     -36.100  14.337  -5.585  1.00 20.00     0.077 C 
HETATM    4  C2  UNL     1     -35.472  14.734  -6.699  1.00 20.00    -0.025 C 
HETATM    5  C4  UNL     1     -34.016  15.063  -6.749  1.00 20.00     0.036 C 
ENDBRANCH   1   3
BRANCH   1   6
HETATM    6  O9  UNL     1     -35.455  15.387  -3.651  1.00 20.00    -0.314 OA
BRANCH   6   7
HETATM    7  C7  UNL     1     -34.467  15.617  -2.642  1.00 20.00     0.124 C 
HETATM    8  C5  UNL     1     -33.244  16.261  -3.278  1.00 20.00     0.040 C 
HETATM    9  C6  UNL     1     -35.061  16.488  -1.546  1.00 20.00     0.040 C 
ENDBRANCH   6   7
ENDBRANCH   1   6
TORSDOF 3
ENDMDL
MODEL 5
REMARK VINA RESULT:      -4.1     11.198     12.346
REMARK  3 active torsions:
REMARK  status: ('A' for Active; 'I' for Inactive)
REMARK    1  A    between atoms: C1_1  and  C3_3 
REMARK    2  A    between atoms: C3_3  and  O9_9 
REMARK    3  A    between atoms: C7_7  and  O9_9 
ROOT
HETATM    1  C3  UNL     1     -36.046  13.790  -4.438  1.00 20.00     0.282 C 
HETATM    2  O8  UNL     1     -35.813  12.591  -4.444  1.00 20.00    -0.260 OA
ENDROOT
BRANCH   1   3
HETATM    3  C1  UNL     1     -35.505  14.764  -3.466  1.00 20.00     0.077 C 
HETATM    4  C2  UNL     1     -34.213  15.114  -3.519  1.00 20.00    -0.025 C 
HETATM    5  C4  UNL     1     -33.256  14.569  -4.526  1.00 20.00     0.036 C 
ENDBRANCH   1   3
BRANCH   1   6
HETATM    6  O9  UNL     1     -36.840  14.472  -5.307  1.00 20.00    -0.314 OA
BRANCH   6   7
HETATM    7  C7  UNL     1     -37.686  15.464  -4.719  1.00 20.00     0.124 C 
HETATM    8  C5  UNL     1     -37.921  16.582  -5.724  1.00 20.00     0.040 C 
HETATM    9  C6  UNL     1     -38.990  14.815  -4.279  1.00 20.00     0.040 C 
ENDBRANCH   6   7
ENDBRANCH   1   6
TORSDOF 3
ENDMDL
MODEL 6
REMARK VINA RESULT:      -4.1     11.235     12.436
REMARK  3 active torsions:
REMARK  status: ('A' for Active; 'I' for Inactive)
REMARK    1  A    between atoms: C1_1  and  C3_3 
REMARK    2  A    between atoms: C3_3  and  O9_9 
REMARK    3  A    between atoms: C7_7  and  O9_9 
ROOT
HETATM    1  C3  UNL     1     -33.686  14.214  -4.530  1.00 20.00     0.282 C 
HETATM    2  O8  UNL     1     -34.185  13.239  -3.990  1.00 20.00    -0.260 OA
ENDROOT
BRANCH   1   3
HETATM    3  C1  UNL     1     -33.050  15.350  -3.829  1.00 20.00     0.077 C 
HETATM    4  C2  UNL     1     -33.743  16.048  -2.920  1.00 20.00    -0.025 C 
HETATM    5  C4  UNL     1     -35.159  15.742  -2.556  1.00 20.00     0.036 C 
ENDBRANCH   1   3
BRANCH   1   6
HETATM    6  O9  UNL     1     -33.610  14.459  -5.867  1.00 20.00    -0.314 OA
BRANCH   6   7
HETATM    7  C7  UNL     1     -34.518  15.447  -6.364  1.00 20.00     0.124 C 
HETATM    8  C5  UNL     1     -34.069  15.887  -7.748  1.00 20.00     0.040 C 
HETATM    9  C6  UNL     1     -35.926  14.871  -6.380  1.00 20.00     0.040 C 
ENDBRANCH   6   7
ENDBRANCH   1   6
TORSDOF 3
ENDMDL
MODEL 7
REMARK VINA RESULT:      -4.1     11.214     12.559
REMARK  3 active torsions:
REMARK  status: ('A' for Active; 'I' for Inactive)
REMARK    1  A    between atoms: C1_1  and  C3_3 
REMARK    2  A    between atoms: C3_3  and  O9_9 
REMARK    3  A    between atoms: C7_7  and  O9_9 
ROOT
HETATM    1  C3  UNL     1     -36.013  13.881  -4.740  1.00 20.00     0.282 C 
HETATM    2  O8  UNL     1     -37.150  13.683  -4.339  1.00 20.00    -0.260 OA
ENDROOT
BRANCH   1   3
HETATM    3  C1  UNL     1     -34.825  14.084  -3.883  1.00 20.00     0.077 C 
HETATM    4  C2  UNL     1     -34.743  15.166  -3.098  1.00 20.00    -0.025 C 
HETATM    5  C4  UNL     1     -35.806  16.213  -3.030  1.00 20.00     0.036 C 
ENDBRANCH   1   3
BRANCH   1   6
HETATM    6  O9  UNL     1     -35.605  13.958  -6.036  1.00 20.00    -0.314 OA
BRANCH   6   7
HETATM    7  C7  UNL     1     -35.255  15.268  -6.494  1.00 20.00     0.124 C 
HETATM    8  C5  UNL     1     -34.003  15.179  -7.352  1.00 20.00     0.040 C 
HETATM    9  C6  UNL     1     -36.427  15.860  -7.261  1.00 20.00     0.040 C 
ENDBRANCH   6   7
ENDBRANCH   1   6
TORSDOF 3
ENDMDL
MODEL 8
REMARK VINA RESULT:      -4.0      1.391      2.411
REMARK  3 active torsions:
REMARK  status: ('A' for Active; 'I' for Inactive)
REMARK    1  A    between atoms: C1_1  and  C3_3 
REMARK    2  A    between atoms: C3_3  and  O9_9 
REMARK    3  A    between atoms: C7_7  and  O9_9 
ROOT
HETATM    1  C3  UNL     1     -35.066   5.134   4.400  1.00 20.00     0.282 C 
HETATM    2  O8  UNL     1     -36.049   5.579   3.828  1.00 20.00    -0.260 OA
ENDROOT
BRANCH   1   3
HETATM    3  C1  UNL     1     -34.860   5.116   5.864  1.00 20.00     0.077 C 
HETATM    4  C2  UNL     1     -34.210   6.125   6.459  1.00 20.00    -0.025 C 
HETATM    5  C4  UNL     1     -33.664   7.301   5.719  1.00 20.00     0.036 C 
ENDBRANCH   1   3
BRANCH   1   6
HETATM    6  O9  UNL     1     -33.971   4.569   3.822  1.00 20.00    -0.314 OA
BRANCH   6   7
HETATM    7  C7  UNL     1     -33.642   5.057   2.518  1.00 20.00     0.124 C 
HETATM    8  C5  UNL     1     -32.782   6.304   2.653  1.00 20.00     0.040 C 
HETATM    9  C6  UNL     1     -32.933   3.962   1.737  1.00 20.00     0.040 C 
ENDBRANCH   6   7
ENDBRANCH   1   6
TORSDOF 3
ENDMDL
MODEL 9
REMARK VINA RESULT:      -3.9      1.550      2.457
REMARK  3 active torsions:
REMARK  status: ('A' for Active; 'I' for Inactive)
REMARK    1  A    between atoms: C1_1  and  C3_3 
REMARK    2  A    between atoms: C3_3  and  O9_9 
REMARK    3  A    between atoms: C7_7  and  O9_9 
ROOT
HETATM    1  C3  UNL     1     -32.661   6.904   2.688  1.00 20.00     0.282 C 
HETATM    2  O8  UNL     1     -31.795   7.318   3.443  1.00 20.00    -0.260 OA
ENDROOT
BRANCH   1   3
HETATM    3  C1  UNL     1     -33.062   5.489   2.536  1.00 20.00     0.077 C 
HETATM    4  C2  UNL     1     -33.982   4.963   3.355  1.00 20.00    -0.025 C 
HETATM    5  C4  UNL     1     -34.650   5.737   4.443  1.00 20.00     0.036 C 
ENDBRANCH   1   3
BRANCH   1   6
HETATM    6  O9  UNL     1     -33.427   7.643   1.840  1.00 20.00    -0.314 OA
BRANCH   6   7
HETATM    7  C7  UNL     1     -32.706   8.436   0.892  1.00 20.00     0.124 C 
HETATM    8  C5  UNL     1     -33.154   8.068  -0.514  1.00 20.00     0.040 C 
HETATM    9  C6  UNL     1     -32.936   9.910   1.193  1.00 20.00     0.040 C 
ENDBRANCH   6   7
ENDBRANCH   1   6
TORSDOF 3
ENDMDL
