MODEL 1
REMARK VINA RESULT:      -4.2      0.000      0.000
REMARK  3 active torsions:
REMARK  status: ('A' for Active; 'I' for Inactive)
REMARK    1  A    between atoms: C3_3  and  C6_6 
REMARK    2  A    between atoms: C4_4  and  C7_7 
REMARK    3  A    between atoms: C5_5  and  C8_8 
ROOT
HETATM    1  C1  UNL     1     -24.380  16.077  11.138  1.00 20.00     0.012 C 
HETATM    2  C2  UNL     1     -25.077  18.293  11.489  1.00 20.00     0.012 C 
HETATM    3  C3  UNL     1     -24.547  17.391  10.372  1.00 20.00    -0.005 C 
HETATM    4  C4  UNL     1     -23.347  16.666  12.094  1.00 20.00     0.022 C 
HETATM    5  C5  UNL     1     -23.812  18.142  12.329  1.00 20.00     0.022 C 
ENDROOT
BRANCH   3   6
HETATM    6  C6  UNL     1     -23.079  17.879  10.212  1.00 20.00     0.048 C 
HETATM    7  C7  UNL     1     -23.100  19.002   9.137  1.00 20.00     0.133 C 
HETATM    8  O9  UNL     1     -21.913  18.411   8.520  1.00 20.00    -0.379 OA
HETATM    9  C8  UNL     1     -22.503  17.150   8.966  1.00 20.00     0.133 C 
ENDBRANCH   3   6
TORSDOF 3
ENDMDL
MODEL 2
REMARK VINA RESULT:      -4.0     18.386     19.176
REMARK  3 active torsions:
REMARK  status: ('A' for Active; 'I' for Inactive)
REMARK    1  A    between atoms: C3_3  and  C6_6 
REMARK    2  A    between atoms: C4_4  and  C7_7 
REMARK    3  A    between atoms: C5_5  and  C8_8 
ROOT
HETATM    1  C1  UNL     1     -35.399  17.298  -4.110  1.00 20.00     0.012 C 
HETATM    2  C2  UNL     1     -33.822  15.657  -3.526  1.00 20.00     0.012 C 
HETATM    3  C3  UNL     1     -35.019  15.857  -4.457  1.00 20.00    -0.005 C 
HETATM    4  C4  UNL     1     -35.708  16.957  -2.656  1.00 20.00     0.022 C 
HETATM    5  C5  UNL     1     -34.657  15.864  -2.267  1.00 20.00     0.022 C 
ENDROOT
BRANCH   3   6
HETATM    6  C6  UNL     1     -36.136  15.034  -3.753  1.00 20.00     0.048 C 
HETATM    7  C7  UNL     1     -36.169  13.645  -4.451  1.00 20.00     0.133 C 
HETATM    8  O9  UNL     1     -37.630  13.713  -4.481  1.00 20.00    -0.379 OA
HETATM    9  C8  UNL     1     -37.401  15.147  -4.648  1.00 20.00     0.133 C 
ENDBRANCH   3   6
TORSDOF 3
ENDMDL
MODEL 3
REMARK VINA RESULT:      -3.9     16.970     17.704
REMARK  3 active torsions:
REMARK  status: ('A' for Active; 'I' for Inactive)
REMARK    1  A    between atoms: C3_3  and  C6_6 
REMARK    2  A    between atoms: C4_4  and  C7_7 
REMARK    3  A    between atoms: C5_5  and  C8_8 
ROOT
HETATM    1  C1  UNL     1     -35.677  17.008  -2.851  1.00 20.00     0.012 C 
HETATM    2  C2  UNL     1     -33.501  17.576  -3.533  1.00 20.00     0.012 C 
HETATM    3  C3  UNL     1     -34.625  16.600  -3.884  1.00 20.00    -0.005 C 
HETATM    4  C4  UNL     1     -34.786  16.635  -1.670  1.00 20.00     0.022 C 
HETATM    5  C5  UNL     1     -33.337  17.015  -2.124  1.00 20.00     0.022 C 
ENDROOT
BRANCH   3   6
HETATM    6  C6  UNL     1     -34.094  15.254  -3.313  1.00 20.00     0.048 C 
HETATM    7  C7  UNL     1     -33.156  14.652  -4.397  1.00 20.00     0.133 C 
HETATM    8  O9  UNL     1     -33.775  13.345  -4.183  1.00 20.00    -0.379 OA
HETATM    9  C8  UNL     1     -34.979  14.133  -3.925  1.00 20.00     0.133 C 
ENDBRANCH   3   6
TORSDOF 3
ENDMDL
MODEL 4
REMARK VINA RESULT:      -3.9     23.461     24.328
REMARK  3 active torsions:
REMARK  status: ('A' for Active; 'I' for Inactive)
REMARK    1  A    between atoms: C3_3  and  C6_6 
REMARK    2  A    between atoms: C4_4  and  C7_7 
REMARK    3  A    between atoms: C5_5  and  C8_8 
ROOT
HETATM    1  C1  UNL     1     -41.103   7.882   0.741  1.00 20.00     0.012 C 
HETATM    2  C2  UNL     1     -43.407   7.450   0.902  1.00 20.00     0.012 C 
HETATM    3  C3  UNL     1     -42.085   6.710   0.690  1.00 20.00    -0.005 C 
HETATM    4  C4  UNL     1     -41.715   8.560  -0.481  1.00 20.00     0.022 C 
HETATM    5  C5  UNL     1     -43.250   8.273  -0.373  1.00 20.00     0.022 C 
ENDROOT
BRANCH   3   6
HETATM    6  C6  UNL     1     -42.128   6.371  -0.828  1.00 20.00     0.048 C 
HETATM    7  C7  UNL     1     -42.942   5.053  -0.964  1.00 20.00     0.133 C 
HETATM    8  O9  UNL     1     -41.941   4.551  -1.904  1.00 20.00    -0.379 OA
HETATM    9  C8  UNL     1     -41.011   5.319  -1.079  1.00 20.00     0.133 C 
ENDBRANCH   3   6
TORSDOF 3
ENDMDL
MODEL 5
REMARK VINA RESULT:      -3.9      0.921      2.075
REMARK  3 active torsions:
REMARK  status: ('A' for Active; 'I' for Inactive)
REMARK    1  A    between atoms: C3_3  and  C6_6 
REMARK    2  A    between atoms: C4_4  and  C7_7 
REMARK    3  A    between atoms: C5_5  and  C8_8 
ROOT
HETATM    1  C1  UNL     1     -24.708  18.417  12.107  1.00 20.00     0.012 C 
HETATM    2  C2  UNL     1     -23.211  16.608  12.019  1.00 20.00     0.012 C 
HETATM    3  C3  UNL     1     -23.462  17.958  11.345  1.00 20.00    -0.005 C 
HETATM    4  C4  UNL     1     -25.545  17.238  11.620  1.00 20.00     0.022 C 
HETATM    5  C5  UNL     1     -24.548  16.033  11.562  1.00 20.00     0.022 C 
ENDROOT
BRANCH   3   6
HETATM    6  C6  UNL     1     -24.045  17.542   9.964  1.00 20.00     0.048 C 
HETATM    7  C7  UNL     1     -22.828  17.259   9.038  1.00 20.00     0.133 C 
HETATM    8  O9  UNL     1     -23.490  18.004   7.968  1.00 20.00    -0.379 OA
HETATM    9  C8  UNL     1     -24.012  18.812   9.069  1.00 20.00     0.133 C 
ENDBRANCH   3   6
TORSDOF 3
ENDMDL
MODEL 6
REMARK VINA RESULT:      -3.8     23.330     24.243
REMARK  3 active torsions:
REMARK  status: ('A' for Active; 'I' for Inactive)
REMARK    1  A    between atoms: C3_3  and  C6_6 
REMARK    2  A    between atoms: C4_4  and  C7_7 
REMARK    3  A    between atoms: C5_5  and  C8_8 
ROOT
HETATM    1  C1  UNL     1     -42.489   5.323   0.917  1.00 20.00     0.012 C 
HETATM    2  C2  UNL     1     -40.881   5.450  -0.791  1.00 20.00     0.012 C 
HETATM    3  C3  UNL     1     -41.451   6.294   0.350  1.00 20.00    -0.005 C 
HETATM    4  C4  UNL     1     -43.291   5.289  -0.380  1.00 20.00     0.022 C 
HETATM    5  C5  UNL     1     -42.220   5.373  -1.518  1.00 20.00     0.022 C 
ENDROOT
BRANCH   3   6
HETATM    6  C6  UNL     1     -42.333   7.330  -0.403  1.00 20.00     0.048 C 
HETATM    7  C7  UNL     1     -41.505   8.644  -0.478  1.00 20.00     0.133 C 
HETATM    8  O9  UNL     1     -42.700   9.399  -0.104  1.00 20.00    -0.379 OA
HETATM    9  C8  UNL     1     -43.012   8.208   0.684  1.00 20.00     0.133 C 
ENDBRANCH   3   6
TORSDOF 3
ENDMDL
MODEL 7
REMARK VINA RESULT:      -3.8     18.232     18.978
REMARK  3 active torsions:
REMARK  status: ('A' for Active; 'I' for Inactive)
REMARK    1  A    between atoms: C3_3  and  C6_6 
REMARK    2  A    between atoms: C4_4  and  C7_7 
REMARK    3  A    between atoms: C5_5  and  C8_8 
ROOT
HETATM    1  C1  UNL     1     -35.886  16.833  -2.719  1.00 20.00     0.012 C 
HETATM    2  C2  UNL     1     -34.139  16.905  -4.289  1.00 20.00     0.012 C 
HETATM    3  C3  UNL     1     -35.596  16.453  -4.173  1.00 20.00    -0.005 C 
HETATM    4  C4  UNL     1     -34.825  15.884  -2.170  1.00 20.00     0.022 C 
HETATM    5  C5  UNL     1     -33.661  15.933  -3.215  1.00 20.00     0.022 C 
ENDROOT
BRANCH   3   6
HETATM    6  C6  UNL     1     -35.464  14.905  -4.098  1.00 20.00     0.048 C 
HETATM    7  C7  UNL     1     -35.448  14.391  -5.565  1.00 20.00     0.133 C 
HETATM    8  O9  UNL     1     -36.376  13.327  -5.185  1.00 20.00    -0.379 OA
HETATM    9  C8  UNL     1     -36.899  14.330  -4.259  1.00 20.00     0.133 C 
ENDBRANCH   3   6
TORSDOF 3
ENDMDL
MODEL 8
REMARK VINA RESULT:      -3.8     23.139     23.999
REMARK  3 active torsions:
REMARK  status: ('A' for Active; 'I' for Inactive)
REMARK    1  A    between atoms: C3_3  and  C6_6 
REMARK    2  A    between atoms: C4_4  and  C7_7 
REMARK    3  A    between atoms: C5_5  and  C8_8 
ROOT
HETATM    1  C1  UNL     1     -41.164   5.780  -1.151  1.00 20.00     0.012 C 
HETATM    2  C2  UNL     1     -43.417   5.657  -0.496  1.00 20.00     0.012 C 
HETATM    3  C3  UNL     1     -42.418   6.655  -1.084  1.00 20.00    -0.005 C 
HETATM    4  C4  UNL     1     -41.123   5.574   0.359  1.00 20.00     0.022 C 
HETATM    5  C5  UNL     1     -42.623   5.491   0.796  1.00 20.00     0.022 C 
ENDROOT
BRANCH   3   6
HETATM    6  C6  UNL     1     -42.117   7.584   0.127  1.00 20.00     0.048 C 
HETATM    7  C7  UNL     1     -43.125   8.765   0.040  1.00 20.00     0.133 C 
HETATM    8  O9  UNL     1     -42.036   9.694   0.339  1.00 20.00    -0.379 OA
HETATM    9  C8  UNL     1     -41.225   8.737  -0.410  1.00 20.00     0.133 C 
ENDBRANCH   3   6
TORSDOF 3
ENDMDL
MODEL 9
REMARK VINA RESULT:      -3.7     18.176     18.859
REMARK  3 active torsions:
REMARK  status: ('A' for Active; 'I' for Inactive)
REMARK    1  A    between atoms: C3_3  and  C6_6 
REMARK    2  A    between atoms: C4_4  and  C7_7 
REMARK    3  A    between atoms: C5_5  and  C8_8 
ROOT
HETATM    1  C1  UNL     1     -34.637  14.013  -3.793  1.00 20.00     0.012 C 
HETATM    2  C2  UNL     1     -34.476  15.890  -2.388  1.00 20.00     0.012 C 
HETATM    3  C3  UNL     1     -35.393  15.302  -3.462  1.00 20.00    -0.005 C 
HETATM    4  C4  UNL     1     -33.401  14.762  -4.279  1.00 20.00     0.022 C 
HETATM    5  C5  UNL     1     -33.293  16.012  -3.342  1.00 20.00     0.022 C 
ENDROOT
BRANCH   3   6
HETATM    6  C6  UNL     1     -35.087  16.199  -4.695  1.00 20.00     0.048 C 
HETATM    7  C7  UNL     1     -36.067  17.404  -4.620  1.00 20.00     0.133 C 
HETATM    8  O9  UNL     1     -36.330  17.259  -6.051  1.00 20.00    -0.379 OA
HETATM    9  C8  UNL     1     -36.138  15.835  -5.780  1.00 20.00     0.133 C 
ENDBRANCH   3   6
TORSDOF 3
ENDMDL
