MODEL 1
REMARK VINA RESULT:      -5.3      0.000      0.000
REMARK  0 active torsions:
REMARK  status: ('A' for Active; 'I' for Inactive)
ROOT
HETATM    1  C1  UNL     1     -32.595   7.205   2.955  1.00 20.00     0.179 A 
HETATM    2  C2  UNL     1     -33.332   6.664   3.974  1.00 20.00    -0.007 A 
HETATM    3  C3  UNL     1     -33.753   5.416   3.462  1.00 20.00     0.070 A 
HETATM    4  C4  UNL     1     -33.696   7.172   5.318  1.00 20.00     0.043 C 
HETATM    5  C5  UNL     1     -34.570   4.444   4.230  1.00 20.00     0.062 C 
HETATM    6  C6  UNL     1     -34.229   6.031   6.207  1.00 20.00     0.005 C 
HETATM    7  C7  UNL     1     -35.217   5.118   5.455  1.00 20.00     0.006 C 
HETATM    8  N8  UNL     1     -33.304   5.197   2.224  1.00 20.00    -0.133 NA
HETATM    9  O9  UNL     1     -32.571   6.338   1.905  1.00 20.00    -0.225 OA
ENDROOT
TORSDOF 0
ENDMDL
MODEL 2
REMARK VINA RESULT:      -5.3      0.904      2.046
REMARK  0 active torsions:
REMARK  status: ('A' for Active; 'I' for Inactive)
ROOT
HETATM    1  C1  UNL     1     -33.258   5.270   2.240  1.00 20.00     0.179 A 
HETATM    2  C2  UNL     1     -33.775   5.367   3.504  1.00 20.00    -0.007 A 
HETATM    3  C3  UNL     1     -33.318   6.624   3.960  1.00 20.00     0.070 A 
HETATM    4  C4  UNL     1     -34.599   4.443   4.317  1.00 20.00     0.043 C 
HETATM    5  C5  UNL     1     -33.651   7.189   5.291  1.00 20.00     0.062 C 
HETATM    6  C6  UNL     1     -35.215   5.177   5.525  1.00 20.00     0.005 C 
HETATM    7  C7  UNL     1     -34.197   6.096   6.229  1.00 20.00     0.006 C 
HETATM    8  N8  UNL     1     -32.583   7.261   3.045  1.00 20.00    -0.133 NA
HETATM    9  O9  UNL     1     -32.545   6.394   1.954  1.00 20.00    -0.225 OA
ENDROOT
TORSDOF 0
ENDMDL
MODEL 3
REMARK VINA RESULT:      -5.1      2.319      3.702
REMARK  0 active torsions:
REMARK  status: ('A' for Active; 'I' for Inactive)
ROOT
HETATM    1  C1  UNL     1     -35.012   5.177   5.562  1.00 20.00     0.179 A 
HETATM    2  C2  UNL     1     -34.297   5.376   4.412  1.00 20.00    -0.007 A 
HETATM    3  C3  UNL     1     -33.596   6.578   4.652  1.00 20.00     0.070 A 
HETATM    4  C4  UNL     1     -34.213   4.609   3.147  1.00 20.00     0.043 C 
HETATM    5  C5  UNL     1     -32.653   7.191   3.683  1.00 20.00     0.062 C 
HETATM    6  C6  UNL     1     -32.993   5.055   2.316  1.00 20.00     0.005 C 
HETATM    7  C7  UNL     1     -32.844   6.589   2.278  1.00 20.00     0.006 C 
HETATM    8  N8  UNL     1     -33.850   7.082   5.863  1.00 20.00    -0.133 NA
HETATM    9  O9  UNL     1     -34.754   6.189   6.436  1.00 20.00    -0.225 OA
ENDROOT
TORSDOF 0
ENDMDL
MODEL 4
REMARK VINA RESULT:      -4.9      2.227      3.151
REMARK  0 active torsions:
REMARK  status: ('A' for Active; 'I' for Inactive)
ROOT
HETATM    1  C1  UNL     1     -34.106   6.765   5.954  1.00 20.00     0.179 A 
HETATM    2  C2  UNL     1     -33.645   6.532   4.686  1.00 20.00    -0.007 A 
HETATM    3  C3  UNL     1     -34.282   5.328   4.310  1.00 20.00     0.070 A 
HETATM    4  C4  UNL     1     -32.691   7.266   3.822  1.00 20.00     0.043 C 
HETATM    5  C5  UNL     1     -34.109   4.682   2.985  1.00 20.00     0.062 C 
HETATM    6  C6  UNL     1     -32.796   6.787   2.361  1.00 20.00     0.005 C 
HETATM    7  C7  UNL     1     -32.878   5.252   2.255  1.00 20.00     0.006 C 
HETATM    8  N8  UNL     1     -35.084   4.857   5.269  1.00 20.00    -0.133 NA
HETATM    9  O9  UNL     1     -34.966   5.772   6.312  1.00 20.00    -0.225 OA
ENDROOT
TORSDOF 0
ENDMDL
MODEL 5
REMARK VINA RESULT:      -4.7     16.293     16.588
REMARK  0 active torsions:
REMARK  status: ('A' for Active; 'I' for Inactive)
ROOT
HETATM    1  C1  UNL     1     -21.750  17.288   8.082  1.00 20.00     0.179 A 
HETATM    2  C2  UNL     1     -22.792  17.563   8.927  1.00 20.00    -0.007 A 
HETATM    3  C3  UNL     1     -23.673  18.335   8.138  1.00 20.00     0.070 A 
HETATM    4  C4  UNL     1     -23.040  17.219  10.347  1.00 20.00     0.043 C 
HETATM    5  C5  UNL     1     -24.977  18.852   8.623  1.00 20.00     0.062 C 
HETATM    6  C6  UNL     1     -24.518  17.453  10.716  1.00 20.00     0.005 C 
HETATM    7  C7  UNL     1     -25.053  18.788  10.160  1.00 20.00     0.006 C 
HETATM    8  N8  UNL     1     -23.217  18.516   6.896  1.00 20.00    -0.133 NA
HETATM    9  O9  UNL     1     -21.993  17.852   6.867  1.00 20.00    -0.225 OA
ENDROOT
TORSDOF 0
ENDMDL
MODEL 6
REMARK VINA RESULT:      -4.6     11.857     12.499
REMARK  0 active torsions:
REMARK  status: ('A' for Active; 'I' for Inactive)
ROOT
HETATM    1  C1  UNL     1     -37.557  14.812  -4.170  1.00 20.00     0.179 A 
HETATM    2  C2  UNL     1     -36.322  15.355  -3.942  1.00 20.00    -0.007 A 
HETATM    3  C3  UNL     1     -35.431  14.289  -4.199  1.00 20.00     0.070 A 
HETATM    4  C4  UNL     1     -35.892  16.704  -3.504  1.00 20.00     0.043 C 
HETATM    5  C5  UNL     1     -33.954  14.408  -4.107  1.00 20.00     0.062 C 
HETATM    6  C6  UNL     1     -34.384  16.905  -3.753  1.00 20.00     0.005 C 
HETATM    7  C7  UNL     1     -33.554  15.677  -3.331  1.00 20.00     0.006 C 
HETATM    8  N8  UNL     1     -36.066  13.174  -4.567  1.00 20.00    -0.133 NA
HETATM    9  O9  UNL     1     -37.418  13.511  -4.543  1.00 20.00    -0.225 OA
ENDROOT
TORSDOF 0
ENDMDL
MODEL 7
REMARK VINA RESULT:      -4.6     11.227     12.244
REMARK  0 active torsions:
REMARK  status: ('A' for Active; 'I' for Inactive)
ROOT
HETATM    1  C1  UNL     1     -34.872  13.294  -4.017  1.00 20.00     0.179 A 
HETATM    2  C2  UNL     1     -35.150  14.570  -3.608  1.00 20.00    -0.007 A 
HETATM    3  C3  UNL     1     -36.497  14.763  -3.989  1.00 20.00     0.070 A 
HETATM    4  C4  UNL     1     -34.323  15.606  -2.945  1.00 20.00     0.043 C 
HETATM    5  C5  UNL     1     -37.259  16.009  -3.726  1.00 20.00     0.062 C 
HETATM    6  C6  UNL     1     -35.210  16.732  -2.376  1.00 20.00     0.005 C 
HETATM    7  C7  UNL     1     -36.308  17.166  -3.366  1.00 20.00     0.006 C 
HETATM    8  N8  UNL     1     -37.016  13.684  -4.581  1.00 20.00    -0.133 NA
HETATM    9  O9  UNL     1     -35.978  12.754  -4.599  1.00 20.00    -0.225 OA
ENDROOT
TORSDOF 0
ENDMDL
MODEL 8
REMARK VINA RESULT:      -4.6     12.094     12.506
REMARK  0 active torsions:
REMARK  status: ('A' for Active; 'I' for Inactive)
ROOT
HETATM    1  C1  UNL     1     -37.052  14.576  -3.927  1.00 20.00     0.179 A 
HETATM    2  C2  UNL     1     -35.749  14.964  -3.767  1.00 20.00    -0.007 A 
HETATM    3  C3  UNL     1     -35.118  14.526  -4.953  1.00 20.00     0.070 A 
HETATM    4  C4  UNL     1     -35.043  15.652  -2.661  1.00 20.00     0.043 C 
HETATM    5  C5  UNL     1     -33.682  14.748  -5.253  1.00 20.00     0.062 C 
HETATM    6  C6  UNL     1     -33.671  16.176  -3.130  1.00 20.00     0.005 C 
HETATM    7  C7  UNL     1     -32.910  15.139  -3.979  1.00 20.00     0.006 C 
HETATM    8  N8  UNL     1     -35.968  13.921  -5.788  1.00 20.00    -0.133 NA
HETATM    9  O9  UNL     1     -37.195  13.953  -5.129  1.00 20.00    -0.225 OA
ENDROOT
TORSDOF 0
ENDMDL
MODEL 9
REMARK VINA RESULT:      -4.4     15.967     16.266
REMARK  0 active torsions:
REMARK  status: ('A' for Active; 'I' for Inactive)
ROOT
HETATM    1  C1  UNL     1     -23.679  18.449   8.216  1.00 20.00     0.179 A 
HETATM    2  C2  UNL     1     -24.257  18.196   9.430  1.00 20.00    -0.007 A 
HETATM    3  C3  UNL     1     -23.600  17.030   9.882  1.00 20.00     0.070 A 
HETATM    4  C4  UNL     1     -25.334  18.882  10.183  1.00 20.00     0.043 C 
HETATM    5  C5  UNL     1     -23.877  16.381  11.188  1.00 20.00     0.062 C 
HETATM    6  C6  UNL     1     -25.358  18.415  11.652  1.00 20.00     0.005 C 
HETATM    7  C7  UNL     1     -25.206  16.887  11.780  1.00 20.00     0.006 C 
HETATM    8  N8  UNL     1     -22.679  16.598   9.018  1.00 20.00    -0.133 NA
HETATM    9  O9  UNL     1     -22.735  17.502   7.959  1.00 20.00    -0.225 OA
ENDROOT
TORSDOF 0
ENDMDL
