MODEL 1
REMARK VINA RESULT:      -4.7      0.000      0.000
REMARK  3 active torsions:
REMARK  status: ('A' for Active; 'I' for Inactive)
REMARK    1  A    between atoms: C3_3  and  C8_8 
REMARK    2  A    between atoms: C7_7  and  C8_8 
REMARK    3  A    between atoms: N9_9  and  O10_10 
ROOT
HETATM    1  C1  UNL     1     -34.198   5.089   4.362  1.00 20.00     0.043 C 
HETATM    2  C4  UNL     1     -34.894   5.400   5.655  1.00 20.00     0.057 C 
HETATM    3  C5  UNL     1     -34.091   6.597   6.143  1.00 20.00     0.006 C 
HETATM    4  C6  UNL     1     -33.678   7.321   4.865  1.00 20.00     0.011 C 
HETATM    5  C7  UNL     1     -33.292   6.201   3.892  1.00 20.00     0.039 C 
HETATM    6  N9  UNL     1     -34.360   3.965   3.752  1.00 20.00    -0.145 NA
ENDROOT
BRANCH   5   7
HETATM    7  C8  UNL     1     -33.507   6.596   2.443  1.00 20.00     0.036 C 
BRANCH   7   8
HETATM    8  C3  UNL     1     -32.432   7.524   1.963  1.00 20.00    -0.036 C 
HETATM    9  C2  UNL     1     -32.586   8.389   0.955  1.00 20.00     0.007 C 
ENDBRANCH   7   8
ENDBRANCH   5   7
BRANCH   6  10
HETATM   10  O10 UNL     1     -33.587   3.979   2.590  1.00 20.00    -0.266 OA
HETATM   11  H23 UNL     1     -33.060   3.169   2.696  1.00 20.00     0.247 HD
ENDBRANCH   6  10
TORSDOF 3
ENDMDL
MODEL 2
REMARK VINA RESULT:      -4.7     11.976     12.562
REMARK  3 active torsions:
REMARK  status: ('A' for Active; 'I' for Inactive)
REMARK    1  A    between atoms: C3_3  and  C8_8 
REMARK    2  A    between atoms: C7_7  and  C8_8 
REMARK    3  A    between atoms: N9_9  and  O10_10 
ROOT
HETATM    1  C1  UNL     1     -35.003  14.830  -5.460  1.00 20.00     0.043 C 
HETATM    2  C4  UNL     1     -36.483  15.067  -5.533  1.00 20.00     0.057 C 
HETATM    3  C5  UNL     1     -36.919  14.644  -4.138  1.00 20.00     0.006 C 
HETATM    4  C6  UNL     1     -35.745  15.025  -3.242  1.00 20.00     0.011 C 
HETATM    5  C7  UNL     1     -34.500  14.637  -4.049  1.00 20.00     0.039 C 
HETATM    6  N9  UNL     1     -34.266  14.776  -6.517  1.00 20.00    -0.145 NA
ENDROOT
BRANCH   5   7
HETATM    7  C8  UNL     1     -33.298  15.496  -3.705  1.00 20.00     0.036 C 
BRANCH   7   8
HETATM    8  C3  UNL     1     -33.603  16.438  -2.579  1.00 20.00    -0.036 C 
HETATM    9  C2  UNL     1     -32.824  17.468  -2.234  1.00 20.00     0.007 C 
ENDBRANCH   7   8
ENDBRANCH   5   7
BRANCH   6  10
HETATM   10  O10 UNL     1     -32.947  14.545  -6.123  1.00 20.00    -0.266 OA
HETATM   11  H23 UNL     1     -32.591  14.081  -6.899  1.00 20.00     0.247 HD
ENDBRANCH   6  10
TORSDOF 3
ENDMDL
MODEL 3
REMARK VINA RESULT:      -4.6     11.388     12.123
REMARK  3 active torsions:
REMARK  status: ('A' for Active; 'I' for Inactive)
REMARK    1  A    between atoms: C3_3  and  C8_8 
REMARK    2  A    between atoms: C7_7  and  C8_8 
REMARK    3  A    between atoms: N9_9  and  O10_10 
ROOT
HETATM    1  C1  UNL     1     -36.421  14.720  -4.020  1.00 20.00     0.043 C 
HETATM    2  C4  UNL     1     -37.198  16.001  -3.939  1.00 20.00     0.057 C 
HETATM    3  C5  UNL     1     -36.389  16.773  -2.907  1.00 20.00     0.006 C 
HETATM    4  C6  UNL     1     -34.950  16.323  -3.141  1.00 20.00     0.011 C 
HETATM    5  C7  UNL     1     -35.051  14.814  -3.391  1.00 20.00     0.039 C 
HETATM    6  N9  UNL     1     -36.911  13.656  -4.557  1.00 20.00    -0.145 NA
ENDROOT
BRANCH   5   7
HETATM    7  C8  UNL     1     -33.933  14.299  -4.277  1.00 20.00     0.036 C 
BRANCH   7   8
HETATM    8  C3  UNL     1     -33.668  15.232  -5.421  1.00 20.00    -0.036 C 
HETATM    9  C2  UNL     1     -34.023  14.984  -6.686  1.00 20.00     0.007 C 
ENDBRANCH   7   8
ENDBRANCH   5   7
BRANCH   6  10
HETATM   10  O10 UNL     1     -35.954  12.642  -4.480  1.00 20.00    -0.266 OA
HETATM   11  H23 UNL     1     -35.862  12.389  -5.414  1.00 20.00     0.247 HD
ENDBRANCH   6  10
TORSDOF 3
ENDMDL
MODEL 4
REMARK VINA RESULT:      -4.6      9.191      9.684
REMARK  3 active torsions:
REMARK  status: ('A' for Active; 'I' for Inactive)
REMARK    1  A    between atoms: C3_3  and  C8_8 
REMARK    2  A    between atoms: C7_7  and  C8_8 
REMARK    3  A    between atoms: N9_9  and  O10_10 
ROOT
HETATM    1  C1  UNL     1     -42.548   6.790   0.799  1.00 20.00     0.043 C 
HETATM    2  C4  UNL     1     -43.267   8.094   0.612  1.00 20.00     0.057 C 
HETATM    3  C5  UNL     1     -42.161   8.960   0.027  1.00 20.00     0.006 C 
HETATM    4  C6  UNL     1     -41.319   7.992  -0.799  1.00 20.00     0.011 C 
HETATM    5  C7  UNL     1     -41.233   6.724   0.060  1.00 20.00     0.039 C 
HETATM    6  N9  UNL     1     -43.021   5.849   1.543  1.00 20.00    -0.145 NA
ENDROOT
BRANCH   5   7
HETATM    7  C8  UNL     1     -41.063   5.471  -0.778  1.00 20.00     0.036 C 
BRANCH   7   8
HETATM    8  C3  UNL     1     -42.150   5.345  -1.802  1.00 20.00    -0.036 C 
HETATM    9  C2  UNL     1     -42.932   4.268  -1.934  1.00 20.00     0.007 C 
ENDBRANCH   7   8
ENDBRANCH   5   7
BRANCH   6  10
HETATM   10  O10 UNL     1     -42.131   4.774   1.514  1.00 20.00    -0.266 OA
HETATM   11  H23 UNL     1     -42.018   4.590   2.461  1.00 20.00     0.247 HD
ENDBRANCH   6  10
TORSDOF 3
ENDMDL
MODEL 5
REMARK VINA RESULT:      -4.5     11.421     12.031
REMARK  3 active torsions:
REMARK  status: ('A' for Active; 'I' for Inactive)
REMARK    1  A    between atoms: C3_3  and  C8_8 
REMARK    2  A    between atoms: C7_7  and  C8_8 
REMARK    3  A    between atoms: N9_9  and  O10_10 
ROOT
HETATM    1  C1  UNL     1     -36.303  14.191  -4.297  1.00 20.00     0.043 C 
HETATM    2  C4  UNL     1     -37.502  14.880  -4.881  1.00 20.00     0.057 C 
HETATM    3  C5  UNL     1     -37.634  16.080  -3.954  1.00 20.00     0.006 C 
HETATM    4  C6  UNL     1     -36.197  16.419  -3.567  1.00 20.00     0.011 C 
HETATM    5  C7  UNL     1     -35.527  15.060  -3.335  1.00 20.00     0.039 C 
HETATM    6  N9  UNL     1     -36.007  12.971  -4.588  1.00 20.00    -0.145 NA
ENDROOT
BRANCH   5   7
HETATM    7  C8  UNL     1     -34.035  15.098  -3.611  1.00 20.00     0.036 C 
BRANCH   7   8
HETATM    8  C3  UNL     1     -33.491  16.490  -3.488  1.00 20.00    -0.036 C 
HETATM    9  C2  UNL     1     -32.964  16.989  -2.365  1.00 20.00     0.007 C 
ENDBRANCH   7   8
ENDBRANCH   5   7
BRANCH   6  10
HETATM   10  O10 UNL     1     -34.848  12.621  -3.892  1.00 20.00    -0.266 OA
HETATM   11  H23 UNL     1     -34.707  13.408  -3.341  1.00 20.00     0.247 HD
ENDBRANCH   6  10
TORSDOF 3
ENDMDL
MODEL 6
REMARK VINA RESULT:      -4.5     11.948     12.539
REMARK  3 active torsions:
REMARK  status: ('A' for Active; 'I' for Inactive)
REMARK    1  A    between atoms: C3_3  and  C8_8 
REMARK    2  A    between atoms: C7_7  and  C8_8 
REMARK    3  A    between atoms: N9_9  and  O10_10 
ROOT
HETATM    1  C1  UNL     1     -34.066  15.009  -4.794  1.00 20.00     0.043 C 
HETATM    2  C4  UNL     1     -32.934  15.362  -3.873  1.00 20.00     0.057 C 
HETATM    3  C5  UNL     1     -33.659  16.173  -2.809  1.00 20.00     0.006 C 
HETATM    4  C6  UNL     1     -35.043  15.535  -2.725  1.00 20.00     0.011 C 
HETATM    5  C7  UNL     1     -35.426  15.247  -4.182  1.00 20.00     0.039 C 
HETATM    6  N9  UNL     1     -33.864  14.573  -5.990  1.00 20.00    -0.145 NA
ENDROOT
BRANCH   5   7
HETATM    7  C8  UNL     1     -36.370  14.066  -4.308  1.00 20.00     0.036 C 
BRANCH   7   8
HETATM    8  C3  UNL     1     -37.803  14.506  -4.288  1.00 20.00    -0.036 C 
HETATM    9  C2  UNL     1     -38.233  15.674  -4.776  1.00 20.00     0.007 C 
ENDBRANCH   7   8
ENDBRANCH   5   7
BRANCH   6  10
HETATM   10  O10 UNL     1     -35.103  14.338  -6.588  1.00 20.00    -0.266 OA
HETATM   11  H23 UNL     1     -35.660  15.003  -6.151  1.00 20.00     0.247 HD
ENDBRANCH   6  10
TORSDOF 3
ENDMDL
MODEL 7
REMARK VINA RESULT:      -4.3     11.421     12.786
REMARK  3 active torsions:
REMARK  status: ('A' for Active; 'I' for Inactive)
REMARK    1  A    between atoms: C3_3  and  C8_8 
REMARK    2  A    between atoms: C7_7  and  C8_8 
REMARK    3  A    between atoms: N9_9  and  O10_10 
ROOT
HETATM    1  C1  UNL     1     -36.269  14.770  -5.371  1.00 20.00     0.043 C 
HETATM    2  C4  UNL     1     -36.560  15.818  -6.406  1.00 20.00     0.057 C 
HETATM    3  C5  UNL     1     -37.119  16.939  -5.541  1.00 20.00     0.006 C 
HETATM    4  C6  UNL     1     -36.361  16.815  -4.223  1.00 20.00     0.011 C 
HETATM    5  C7  UNL     1     -36.287  15.306  -3.960  1.00 20.00     0.039 C 
HETATM    6  N9  UNL     1     -36.056  13.538  -5.687  1.00 20.00    -0.145 NA
ENDROOT
BRANCH   5   7
HETATM    7  C8  UNL     1     -35.067  14.922  -3.143  1.00 20.00     0.036 C 
BRANCH   7   8
HETATM    8  C3  UNL     1     -33.842  15.647  -3.616  1.00 20.00    -0.036 C 
HETATM    9  C2  UNL     1     -33.118  16.470  -2.850  1.00 20.00     0.007 C 
ENDBRANCH   7   8
ENDBRANCH   5   7
BRANCH   6  10
HETATM   10  O10 UNL     1     -35.818  12.818  -4.515  1.00 20.00    -0.266 OA
HETATM   11  H23 UNL     1     -36.425  13.252  -3.893  1.00 20.00     0.247 HD
ENDBRANCH   6  10
TORSDOF 3
ENDMDL
MODEL 8
REMARK VINA RESULT:      -4.3     11.699     12.964
REMARK  3 active torsions:
REMARK  status: ('A' for Active; 'I' for Inactive)
REMARK    1  A    between atoms: C3_3  and  C8_8 
REMARK    2  A    between atoms: C7_7  and  C8_8 
REMARK    3  A    between atoms: N9_9  and  O10_10 
ROOT
HETATM    1  C1  UNL     1     -35.525  14.698  -5.681  1.00 20.00     0.043 C 
HETATM    2  C4  UNL     1     -34.577  15.105  -6.771  1.00 20.00     0.057 C 
HETATM    3  C5  UNL     1     -34.415  16.590  -6.482  1.00 20.00     0.006 C 
HETATM    4  C6  UNL     1     -34.522  16.694  -4.964  1.00 20.00     0.011 C 
HETATM    5  C7  UNL     1     -35.655  15.731  -4.588  1.00 20.00     0.039 C 
HETATM    6  N9  UNL     1     -36.169  13.581  -5.717  1.00 20.00    -0.145 NA
ENDROOT
BRANCH   5   7
HETATM    7  C8  UNL     1     -35.493  15.167  -3.189  1.00 20.00     0.036 C 
BRANCH   7   8
HETATM    8  C3  UNL     1     -34.642  16.058  -2.335  1.00 20.00    -0.036 C 
HETATM    9  C2  UNL     1     -35.088  16.705  -1.253  1.00 20.00     0.007 C 
ENDBRANCH   7   8
ENDBRANCH   5   7
BRANCH   6  10
HETATM   10  O10 UNL     1     -36.963  13.493  -4.572  1.00 20.00    -0.266 OA
HETATM   11  H23 UNL     1     -36.725  12.612  -4.238  1.00 20.00     0.247 HD
ENDBRANCH   6  10
TORSDOF 3
ENDMDL
MODEL 9
REMARK VINA RESULT:      -4.3      2.248      2.529
REMARK  3 active torsions:
REMARK  status: ('A' for Active; 'I' for Inactive)
REMARK    1  A    between atoms: C3_3  and  C8_8 
REMARK    2  A    between atoms: C7_7  and  C8_8 
REMARK    3  A    between atoms: N9_9  and  O10_10 
ROOT
HETATM    1  C1  UNL     1     -33.819   6.442   5.327  1.00 20.00     0.043 C 
HETATM    2  C4  UNL     1     -34.677   5.291   5.765  1.00 20.00     0.057 C 
HETATM    3  C5  UNL     1     -35.492   5.034   4.506  1.00 20.00     0.006 C 
HETATM    4  C6  UNL     1     -34.542   5.381   3.363  1.00 20.00     0.011 C 
HETATM    5  C7  UNL     1     -33.819   6.649   3.832  1.00 20.00     0.039 C 
HETATM    6  N9  UNL     1     -33.179   7.177   6.171  1.00 20.00    -0.145 NA
ENDROOT
BRANCH   5   7
HETATM    7  C8  UNL     1     -32.432   6.778   3.231  1.00 20.00     0.036 C 
BRANCH   7   8
HETATM    8  C3  UNL     1     -32.497   7.083   1.764  1.00 20.00    -0.036 C 
HETATM    9  C2  UNL     1     -32.658   8.312   1.263  1.00 20.00     0.007 C 
ENDBRANCH   7   8
ENDBRANCH   5   7
BRANCH   6  10
HETATM   10  O10 UNL     1     -32.479   8.155   5.462  1.00 20.00    -0.266 OA
HETATM   11  H23 UNL     1     -32.374   7.728   4.595  1.00 20.00     0.247 HD
ENDBRANCH   6  10
TORSDOF 3
ENDMDL
