MODEL 1
REMARK VINA RESULT:      -4.7      0.000      0.000
REMARK  3 active torsions:
REMARK  status: ('A' for Active; 'I' for Inactive)
REMARK    1  A    between atoms: C3_3  and  C5_5 
REMARK    2  A    between atoms: C4_4  and  C6_6 
REMARK    3  A    between atoms: C5_5  and  C6_6 
ROOT
HETATM    1  C1  UNL     1     -32.854   6.175   2.605  1.00 20.00     0.087 C 
HETATM    2  C3  UNL     1     -33.433   4.881   2.516  1.00 20.00     0.093 C 
HETATM    3  N7  UNL     1     -32.379   7.233   2.674  1.00 20.00    -0.192 NA
ENDROOT
BRANCH   2   4
HETATM    4  C5  UNL     1     -33.977   4.281   3.584  1.00 20.00     0.011 C 
BRANCH   4   5
HETATM    5  C6  UNL     1     -35.061   4.862   4.346  1.00 20.00     0.011 C 
BRANCH   5   6
HETATM    6  C4  UNL     1     -34.925   5.270   5.615  1.00 20.00     0.093 C 
HETATM    7  C2  UNL     1     -34.144   6.409   5.949  1.00 20.00     0.087 C 
HETATM    8  N8  UNL     1     -33.508   7.340   6.226  1.00 20.00    -0.192 NA
ENDBRANCH   5   6
ENDBRANCH   4   5
ENDBRANCH   2   4
TORSDOF 3
ENDMDL
MODEL 2
REMARK VINA RESULT:      -4.7      0.024      3.180
REMARK  3 active torsions:
REMARK  status: ('A' for Active; 'I' for Inactive)
REMARK    1  A    between atoms: C3_3  and  C5_5 
REMARK    2  A    between atoms: C4_4  and  C6_6 
REMARK    3  A    between atoms: C5_5  and  C6_6 
ROOT
HETATM    1  C1  UNL     1     -34.124   6.405   5.934  1.00 20.00     0.087 C 
HETATM    2  C3  UNL     1     -34.908   5.263   5.618  1.00 20.00     0.093 C 
HETATM    3  N7  UNL     1     -33.485   7.337   6.197  1.00 20.00    -0.192 NA
ENDROOT
BRANCH   2   4
HETATM    4  C5  UNL     1     -35.064   4.849   4.352  1.00 20.00     0.011 C 
BRANCH   4   5
HETATM    5  C6  UNL     1     -33.991   4.265   3.577  1.00 20.00     0.011 C 
BRANCH   5   6
HETATM    6  C4  UNL     1     -33.442   4.874   2.517  1.00 20.00     0.093 C 
HETATM    7  C2  UNL     1     -32.867   6.168   2.620  1.00 20.00     0.087 C 
HETATM    8  N8  UNL     1     -32.395   7.227   2.701  1.00 20.00    -0.192 NA
ENDBRANCH   5   6
ENDBRANCH   4   5
ENDBRANCH   2   4
TORSDOF 3
ENDMDL
MODEL 3
REMARK VINA RESULT:      -4.5      1.659      2.342
REMARK  3 active torsions:
REMARK  status: ('A' for Active; 'I' for Inactive)
REMARK    1  A    between atoms: C3_3  and  C5_5 
REMARK    2  A    between atoms: C4_4  and  C6_6 
REMARK    3  A    between atoms: C5_5  and  C6_6 
ROOT
HETATM    1  C1  UNL     1     -32.680   8.123   1.261  1.00 20.00     0.087 C 
HETATM    2  C3  UNL     1     -32.250   7.243   2.290  1.00 20.00     0.093 C 
HETATM    3  N7  UNL     1     -33.027   8.842   0.419  1.00 20.00    -0.192 NA
ENDROOT
BRANCH   2   4
HETATM    4  C5  UNL     1     -33.126   6.628   3.097  1.00 20.00     0.011 C 
BRANCH   4   5
HETATM    5  C6  UNL     1     -33.609   5.285   2.857  1.00 20.00     0.011 C 
BRANCH   5   6
HETATM    6  C4  UNL     1     -34.388   4.624   3.723  1.00 20.00     0.093 C 
HETATM    7  C2  UNL     1     -34.662   5.138   5.018  1.00 20.00     0.087 C 
HETATM    8  N8  UNL     1     -34.889   5.556   6.078  1.00 20.00    -0.192 NA
ENDBRANCH   5   6
ENDBRANCH   4   5
ENDBRANCH   2   4
TORSDOF 3
ENDMDL
MODEL 4
REMARK VINA RESULT:      -4.5      1.686      4.028
REMARK  3 active torsions:
REMARK  status: ('A' for Active; 'I' for Inactive)
REMARK    1  A    between atoms: C3_3  and  C5_5 
REMARK    2  A    between atoms: C4_4  and  C6_6 
REMARK    3  A    between atoms: C5_5  and  C6_6 
ROOT
HETATM    1  C1  UNL     1     -34.685   5.107   5.003  1.00 20.00     0.087 C 
HETATM    2  C3  UNL     1     -34.440   4.659   3.677  1.00 20.00     0.093 C 
HETATM    3  N7  UNL     1     -34.889   5.470   6.086  1.00 20.00    -0.192 NA
ENDROOT
BRANCH   2   4
HETATM    4  C5  UNL     1     -33.535   5.260   2.891  1.00 20.00     0.011 C 
BRANCH   4   5
HETATM    5  C6  UNL     1     -33.136   6.640   3.062  1.00 20.00     0.011 C 
BRANCH   5   6
HETATM    6  C4  UNL     1     -32.257   7.251   2.255  1.00 20.00     0.093 C 
HETATM    7  C2  UNL     1     -32.681   8.157   1.247  1.00 20.00     0.087 C 
HETATM    8  N8  UNL     1     -33.024   8.899   0.422  1.00 20.00    -0.192 NA
ENDBRANCH   5   6
ENDBRANCH   4   5
ENDBRANCH   2   4
TORSDOF 3
ENDMDL
MODEL 5
REMARK VINA RESULT:      -4.0     11.754     12.888
REMARK  3 active torsions:
REMARK  status: ('A' for Active; 'I' for Inactive)
REMARK    1  A    between atoms: C3_3  and  C5_5 
REMARK    2  A    between atoms: C4_4  and  C6_6 
REMARK    3  A    between atoms: C5_5  and  C6_6 
ROOT
HETATM    1  C1  UNL     1     -32.279  18.155  -1.909  1.00 20.00     0.087 C 
HETATM    2  C3  UNL     1     -33.076  17.195  -2.589  1.00 20.00     0.093 C 
HETATM    3  N7  UNL     1     -31.625  18.940  -1.357  1.00 20.00    -0.192 NA
ENDROOT
BRANCH   2   4
HETATM    4  C5  UNL     1     -34.140  16.628  -2.004  1.00 20.00     0.011 C 
BRANCH   4   5
HETATM    5  C6  UNL     1     -34.951  15.621  -2.653  1.00 20.00     0.011 C 
BRANCH   5   6
HETATM    6  C4  UNL     1     -34.481  14.810  -3.610  1.00 20.00     0.093 C 
HETATM    7  C2  UNL     1     -35.257  13.734  -4.119  1.00 20.00     0.087 C 
HETATM    8  N8  UNL     1     -35.888  12.854  -4.538  1.00 20.00    -0.192 NA
ENDBRANCH   5   6
ENDBRANCH   4   5
ENDBRANCH   2   4
TORSDOF 3
ENDMDL
MODEL 6
REMARK VINA RESULT:      -4.0     12.195     12.774
REMARK  3 active torsions:
REMARK  status: ('A' for Active; 'I' for Inactive)
REMARK    1  A    between atoms: C3_3  and  C5_5 
REMARK    2  A    between atoms: C4_4  and  C6_6 
REMARK    3  A    between atoms: C5_5  and  C6_6 
ROOT
HETATM    1  C1  UNL     1     -36.102  14.102  -4.180  1.00 20.00     0.087 C 
HETATM    2  C3  UNL     1     -34.844  14.589  -3.735  1.00 20.00     0.093 C 
HETATM    3  N7  UNL     1     -37.129  13.702  -4.546  1.00 20.00    -0.192 NA
ENDROOT
BRANCH   2   4
HETATM    4  C5  UNL     1     -34.752  15.514  -2.769  1.00 20.00     0.011 C 
BRANCH   4   5
HETATM    5  C6  UNL     1     -33.612  16.393  -2.627  1.00 20.00     0.011 C 
BRANCH   5   6
HETATM    6  C4  UNL     1     -33.567  17.391  -1.735  1.00 20.00     0.093 C 
HETATM    7  C2  UNL     1     -32.353  18.067  -1.437  1.00 20.00     0.087 C 
HETATM    8  N8  UNL     1     -31.363  18.622  -1.192  1.00 20.00    -0.192 NA
ENDBRANCH   5   6
ENDBRANCH   4   5
ENDBRANCH   2   4
TORSDOF 3
ENDMDL
MODEL 7
REMARK VINA RESULT:      -3.8     11.938     12.439
REMARK  3 active torsions:
REMARK  status: ('A' for Active; 'I' for Inactive)
REMARK    1  A    between atoms: C3_3  and  C5_5 
REMARK    2  A    between atoms: C4_4  and  C6_6 
REMARK    3  A    between atoms: C5_5  and  C6_6 
ROOT
HETATM    1  C1  UNL     1     -36.835  14.066  -4.483  1.00 20.00     0.087 C 
HETATM    2  C3  UNL     1     -35.430  14.142  -4.682  1.00 20.00     0.093 C 
HETATM    3  N7  UNL     1     -37.983  14.003  -4.325  1.00 20.00    -0.192 NA
ENDROOT
BRANCH   2   4
HETATM    4  C5  UNL     1     -34.594  14.428  -3.674  1.00 20.00     0.011 C 
BRANCH   4   5
HETATM    5  C6  UNL     1     -33.647  15.520  -3.722  1.00 20.00     0.011 C 
BRANCH   5   6
HETATM    6  C4  UNL     1     -33.503  16.406  -2.728  1.00 20.00     0.093 C 
HETATM    7  C2  UNL     1     -34.533  16.626  -1.775  1.00 20.00     0.087 C 
HETATM    8  N8  UNL     1     -35.373  16.808  -0.993  1.00 20.00    -0.192 NA
ENDBRANCH   5   6
ENDBRANCH   4   5
ENDBRANCH   2   4
TORSDOF 3
ENDMDL
MODEL 8
REMARK VINA RESULT:      -3.7     12.016     12.575
REMARK  3 active torsions:
REMARK  status: ('A' for Active; 'I' for Inactive)
REMARK    1  A    between atoms: C3_3  and  C5_5 
REMARK    2  A    between atoms: C4_4  and  C6_6 
REMARK    3  A    between atoms: C5_5  and  C6_6 
ROOT
HETATM    1  C1  UNL     1     -35.265  17.052  -0.380  1.00 20.00     0.087 C 
HETATM    2  C3  UNL     1     -34.777  16.795  -1.689  1.00 20.00     0.093 C 
HETATM    3  N7  UNL     1     -35.661  17.266   0.691  1.00 20.00    -0.192 NA
ENDROOT
BRANCH   2   4
HETATM    4  C5  UNL     1     -35.282  15.809  -2.444  1.00 20.00     0.011 C 
BRANCH   4   5
HETATM    5  C6  UNL     1     -34.490  15.060  -3.394  1.00 20.00     0.011 C 
BRANCH   5   6
HETATM    6  C4  UNL     1     -35.025  14.219  -4.289  1.00 20.00     0.093 C 
HETATM    7  C2  UNL     1     -36.428  14.011  -4.366  1.00 20.00     0.087 C 
HETATM    8  N8  UNL     1     -37.575  13.840  -4.432  1.00 20.00    -0.192 NA
ENDBRANCH   5   6
ENDBRANCH   4   5
ENDBRANCH   2   4
TORSDOF 3
ENDMDL
MODEL 9
REMARK VINA RESULT:      -3.7      1.923      2.600
REMARK  3 active torsions:
REMARK  status: ('A' for Active; 'I' for Inactive)
REMARK    1  A    between atoms: C3_3  and  C5_5 
REMARK    2  A    between atoms: C4_4  and  C6_6 
REMARK    3  A    between atoms: C5_5  and  C6_6 
ROOT
HETATM    1  C1  UNL     1     -32.489   7.265   2.854  1.00 20.00     0.087 C 
HETATM    2  C3  UNL     1     -32.492   7.227   4.274  1.00 20.00     0.093 C 
HETATM    3  N7  UNL     1     -32.482   7.296   1.694  1.00 20.00    -0.192 NA
ENDROOT
BRANCH   2   4
HETATM    4  C5  UNL     1     -33.621   7.396   4.977  1.00 20.00     0.011 C 
BRANCH   4   5
HETATM    5  C6  UNL     1     -34.022   6.511   6.049  1.00 20.00     0.011 C 
BRANCH   5   6
HETATM    6  C4  UNL     1     -34.770   5.417   5.850  1.00 20.00     0.093 C 
HETATM    7  C2  UNL     1     -34.573   4.577   4.723  1.00 20.00     0.087 C 
HETATM    8  N8  UNL     1     -34.414   3.887   3.802  1.00 20.00    -0.192 NA
ENDBRANCH   5   6
ENDBRANCH   4   5
ENDBRANCH   2   4
TORSDOF 3
ENDMDL
