MODEL 1
REMARK VINA RESULT:      -4.9      0.000      0.000
REMARK  0 active torsions:
REMARK  status: ('A' for Active; 'I' for Inactive)
ROOT
HETATM    1  C1  UNL     1     -36.970  14.433  -4.501  1.00 20.00     0.086 C 
HETATM    2  C2  UNL     1     -34.040  16.710  -4.164  1.00 20.00     0.017 C 
HETATM    3  C3  UNL     1     -34.555  14.414  -3.771  1.00 20.00     0.049 C 
HETATM    4  C4  UNL     1     -33.989  15.661  -3.038  1.00 20.00     0.020 C 
HETATM    5  C5  UNL     1     -35.565  16.541  -4.363  1.00 20.00     0.055 C 
HETATM    6  C6  UNL     1     -35.058  16.141  -2.069  1.00 20.00     0.155 A 
HETATM    7  C7  UNL     1     -36.104  16.744  -2.945  1.00 20.00     0.158 A 
HETATM    8  C8  UNL     1     -35.642  15.023  -4.707  1.00 20.00     0.132 C 
HETATM    9  N9  UNL     1     -38.018  13.965  -4.340  1.00 20.00    -0.195 NA
HETATM   10  O10 UNL     1     -35.338  17.543  -2.037  1.00 20.00    -0.374 OA
HETATM   11 CL11 UNL     1     -35.228  14.742  -6.428  1.00 20.00    -0.102 Cl
ENDROOT
TORSDOF 0
ENDMDL
MODEL 2
REMARK VINA RESULT:      -4.7      2.190      2.824
REMARK  0 active torsions:
REMARK  status: ('A' for Active; 'I' for Inactive)
ROOT
HETATM    1  C1  UNL     1     -37.233  14.811  -4.132  1.00 20.00     0.086 C 
HETATM    2  C2  UNL     1     -33.899  16.375  -3.564  1.00 20.00     0.017 C 
HETATM    3  C3  UNL     1     -35.660  16.487  -5.171  1.00 20.00     0.049 C 
HETATM    4  C4  UNL     1     -34.131  16.230  -5.080  1.00 20.00     0.020 C 
HETATM    5  C5  UNL     1     -34.907  15.252  -3.220  1.00 20.00     0.055 C 
HETATM    6  C6  UNL     1     -33.906  14.745  -5.322  1.00 20.00     0.155 A 
HETATM    7  C7  UNL     1     -34.406  14.089  -4.079  1.00 20.00     0.158 A 
HETATM    8  C8  UNL     1     -36.204  15.823  -3.870  1.00 20.00     0.132 C 
HETATM    9  N9  UNL     1     -38.048  14.012  -4.339  1.00 20.00    -0.195 NA
HETATM   10  O10 UNL     1     -33.020  14.058  -4.435  1.00 20.00    -0.374 OA
HETATM   11 CL11 UNL     1     -36.962  17.046  -2.801  1.00 20.00    -0.102 Cl
ENDROOT
TORSDOF 0
ENDMDL
MODEL 3
REMARK VINA RESULT:      -4.5      2.025      2.727
REMARK  0 active torsions:
REMARK  status: ('A' for Active; 'I' for Inactive)
ROOT
HETATM    1  C1  UNL     1     -34.402  14.975  -5.697  1.00 20.00     0.086 C 
HETATM    2  C2  UNL     1     -35.146  15.970  -2.184  1.00 20.00     0.017 C 
HETATM    3  C3  UNL     1     -35.797  16.618  -4.387  1.00 20.00     0.049 C 
HETATM    4  C4  UNL     1     -35.209  17.220  -3.082  1.00 20.00     0.020 C 
HETATM    5  C5  UNL     1     -34.238  15.205  -3.176  1.00 20.00     0.055 C 
HETATM    6  C6  UNL     1     -33.743  17.529  -3.346  1.00 20.00     0.155 A 
HETATM    7  C7  UNL     1     -33.088  16.190  -3.393  1.00 20.00     0.158 A 
HETATM    8  C8  UNL     1     -35.137  15.208  -4.449  1.00 20.00     0.132 C 
HETATM    9  N9  UNL     1     -33.822  14.790  -6.684  1.00 20.00    -0.195 NA
HETATM   10  O10 UNL     1     -32.795  17.129  -2.353  1.00 20.00    -0.374 OA
HETATM   11 CL11 UNL     1     -36.379  13.919  -4.349  1.00 20.00    -0.102 Cl
ENDROOT
TORSDOF 0
ENDMDL
MODEL 4
REMARK VINA RESULT:      -4.5      2.986      3.677
REMARK  0 active torsions:
REMARK  status: ('A' for Active; 'I' for Inactive)
ROOT
HETATM    1  C1  UNL     1     -34.984  17.691  -3.699  1.00 20.00     0.086 C 
HETATM    2  C2  UNL     1     -34.794  13.971  -3.791  1.00 20.00     0.017 C 
HETATM    3  C3  UNL     1     -33.298  15.818  -3.577  1.00 20.00     0.049 C 
HETATM    4  C4  UNL     1     -33.528  14.552  -4.448  1.00 20.00     0.020 C 
HETATM    5  C5  UNL     1     -35.615  15.258  -4.045  1.00 20.00     0.055 C 
HETATM    6  C6  UNL     1     -34.027  15.020  -5.805  1.00 20.00     0.155 A 
HETATM    7  C7  UNL     1     -35.424  15.476  -5.547  1.00 20.00     0.158 A 
HETATM    8  C8  UNL     1     -34.749  16.305  -3.280  1.00 20.00     0.132 C 
HETATM    9  N9  UNL     1     -35.169  18.787  -4.028  1.00 20.00    -0.195 NA
HETATM   10  O10 UNL     1     -35.150  14.336  -6.368  1.00 20.00    -0.374 OA
HETATM   11 CL11 UNL     1     -35.091  16.246  -1.521  1.00 20.00    -0.102 Cl
ENDROOT
TORSDOF 0
ENDMDL
MODEL 5
REMARK VINA RESULT:      -4.4      2.644      3.421
REMARK  0 active torsions:
REMARK  status: ('A' for Active; 'I' for Inactive)
ROOT
HETATM    1  C1  UNL     1     -35.948  16.990  -3.089  1.00 20.00     0.086 C 
HETATM    2  C2  UNL     1     -33.740  14.275  -4.369  1.00 20.00     0.017 C 
HETATM    3  C3  UNL     1     -34.427  16.463  -5.031  1.00 20.00     0.049 C 
HETATM    4  C4  UNL     1     -34.380  15.005  -5.565  1.00 20.00     0.020 C 
HETATM    5  C5  UNL     1     -34.859  14.720  -3.396  1.00 20.00     0.055 C 
HETATM    6  C6  UNL     1     -35.806  14.477  -5.569  1.00 20.00     0.155 A 
HETATM    7  C7  UNL     1     -36.125  14.269  -4.127  1.00 20.00     0.158 A 
HETATM    8  C8  UNL     1     -34.744  16.269  -3.517  1.00 20.00     0.132 C 
HETATM    9  N9  UNL     1     -36.899  17.562  -2.750  1.00 20.00    -0.195 NA
HETATM   10  O10 UNL     1     -36.027  13.168  -5.037  1.00 20.00    -0.374 OA
HETATM   11 CL11 UNL     1     -33.401  16.886  -2.503  1.00 20.00    -0.102 Cl
ENDROOT
TORSDOF 0
ENDMDL
MODEL 6
REMARK VINA RESULT:      -4.4      1.697      1.996
REMARK  0 active torsions:
REMARK  status: ('A' for Active; 'I' for Inactive)
ROOT
HETATM    1  C1  UNL     1     -35.410  13.815  -4.255  1.00 20.00     0.086 C 
HETATM    2  C2  UNL     1     -34.347  17.385  -4.140  1.00 20.00     0.017 C 
HETATM    3  C3  UNL     1     -34.726  15.597  -2.605  1.00 20.00     0.049 C 
HETATM    4  C4  UNL     1     -35.160  17.065  -2.871  1.00 20.00     0.020 C 
HETATM    5  C5  UNL     1     -34.982  16.221  -4.938  1.00 20.00     0.055 C 
HETATM    6  C6  UNL     1     -36.593  17.028  -3.379  1.00 20.00     0.155 A 
HETATM    7  C7  UNL     1     -36.479  16.482  -4.763  1.00 20.00     0.158 A 
HETATM    8  C8  UNL     1     -34.585  15.009  -4.042  1.00 20.00     0.132 C 
HETATM    9  N9  UNL     1     -36.062  12.871  -4.423  1.00 20.00    -0.195 NA
HETATM   10  O10 UNL     1     -36.909  17.827  -4.523  1.00 20.00    -0.374 OA
HETATM   11 CL11 UNL     1     -32.892  14.513  -4.361  1.00 20.00    -0.102 Cl
ENDROOT
TORSDOF 0
ENDMDL
MODEL 7
REMARK VINA RESULT:      -4.4     11.037     11.933
REMARK  0 active torsions:
REMARK  status: ('A' for Active; 'I' for Inactive)
ROOT
HETATM    1  C1  UNL     1     -43.097   5.388   1.084  1.00 20.00     0.086 C 
HETATM    2  C2  UNL     1     -42.344   7.702  -1.737  1.00 20.00     0.017 C 
HETATM    3  C3  UNL     1     -41.165   6.173  -0.335  1.00 20.00     0.049 C 
HETATM    4  C4  UNL     1     -41.130   7.657  -0.790  1.00 20.00     0.020 C 
HETATM    5  C5  UNL     1     -43.325   7.242  -0.633  1.00 20.00     0.055 C 
HETATM    6  C6  UNL     1     -41.581   8.503   0.390  1.00 20.00     0.155 A 
HETATM    7  C7  UNL     1     -43.047   8.244   0.490  1.00 20.00     0.158 A 
HETATM    8  C8  UNL     1     -42.692   5.873  -0.239  1.00 20.00     0.132 C 
HETATM    9  N9  UNL     1     -43.417   5.003   2.130  1.00 20.00    -0.195 NA
HETATM   10  O10 UNL     1     -42.539   9.535   0.135  1.00 20.00    -0.374 OA
HETATM   11 CL11 UNL     1     -43.164   4.598  -1.408  1.00 20.00    -0.102 Cl
ENDROOT
TORSDOF 0
ENDMDL
MODEL 8
REMARK VINA RESULT:      -4.3      1.484      1.886
REMARK  0 active torsions:
REMARK  status: ('A' for Active; 'I' for Inactive)
ROOT
HETATM    1  C1  UNL     1     -35.930  13.951  -4.611  1.00 20.00     0.086 C 
HETATM    2  C2  UNL     1     -35.380  17.551  -3.822  1.00 20.00     0.017 C 
HETATM    3  C3  UNL     1     -34.735  15.985  -5.504  1.00 20.00     0.049 C 
HETATM    4  C4  UNL     1     -34.113  16.987  -4.493  1.00 20.00     0.020 C 
HETATM    5  C5  UNL     1     -35.852  16.153  -3.354  1.00 20.00     0.055 C 
HETATM    6  C6  UNL     1     -33.470  16.171  -3.383  1.00 20.00     0.155 A 
HETATM    7  C7  UNL     1     -34.624  15.625  -2.611  1.00 20.00     0.158 A 
HETATM    8  C8  UNL     1     -35.956  15.413  -4.722  1.00 20.00     0.132 C 
HETATM    9  N9  UNL     1     -35.910  12.794  -4.525  1.00 20.00    -0.195 NA
HETATM   10  O10 UNL     1     -33.720  16.575  -2.034  1.00 20.00    -0.374 OA
HETATM   11 CL11 UNL     1     -37.491  15.827  -5.551  1.00 20.00    -0.102 Cl
ENDROOT
TORSDOF 0
ENDMDL
MODEL 9
REMARK VINA RESULT:      -4.3      2.634      3.388
REMARK  0 active torsions:
REMARK  status: ('A' for Active; 'I' for Inactive)
ROOT
HETATM    1  C1  UNL     1     -35.688  13.835  -4.290  1.00 20.00     0.086 C 
HETATM    2  C2  UNL     1     -34.319  17.190  -5.155  1.00 20.00     0.017 C 
HETATM    3  C3  UNL     1     -36.451  16.192  -4.769  1.00 20.00     0.049 C 
HETATM    4  C4  UNL     1     -35.687  17.018  -5.839  1.00 20.00     0.020 C 
HETATM    5  C5  UNL     1     -34.096  15.664  -5.035  1.00 20.00     0.055 C 
HETATM    6  C6  UNL     1     -35.379  16.084  -6.998  1.00 20.00     0.155 A 
HETATM    7  C7  UNL     1     -34.306  15.189  -6.474  1.00 20.00     0.158 A 
HETATM    8  C8  UNL     1     -35.343  15.257  -4.194  1.00 20.00     0.132 C 
HETATM    9  N9  UNL     1     -35.962  12.710  -4.365  1.00 20.00    -0.195 NA
HETATM   10  O10 UNL     1     -34.054  16.115  -7.537  1.00 20.00    -0.374 OA
HETATM   11 CL11 UNL     1     -35.070  15.592  -2.454  1.00 20.00    -0.102 Cl
ENDROOT
TORSDOF 0
ENDMDL
