MODEL 1
REMARK VINA RESULT:      -4.3      0.000      0.000
REMARK  3 active torsions:
REMARK  status: ('A' for Active; 'I' for Inactive)
REMARK    1  A    between atoms: C3_3  and  C7_7 
REMARK    2  A    between atoms: C4_4  and  C5_5 
REMARK    3  A    between atoms: C7_7  and  O9_9 
ROOT
HETATM    1  C1  UNL     1     -35.229  15.570  -2.792  1.00 20.00     0.031 A 
HETATM    2  C2  UNL     1     -33.023  15.974  -3.400  1.00 20.00     0.060 A 
HETATM    3  C3  UNL     1     -34.044  16.319  -2.543  1.00 20.00    -0.027 A 
HETATM    4  C4  UNL     1     -35.070  14.679  -3.830  1.00 20.00     0.043 A 
HETATM    5  S10 UNL     1     -33.495  14.749  -4.500  1.00 20.00    -0.098 SA
ENDROOT
BRANCH   3   6
HETATM    6  C7  UNL     1     -33.925  17.350  -1.485  1.00 20.00     0.206 C 
BRANCH   6   7
HETATM    7  O9  UNL     1     -32.573  17.794  -1.394  1.00 20.00    -0.391 OA
HETATM    8  C6  UNL     1     -32.332  18.472  -0.171  1.00 20.00     0.201 C 
ENDBRANCH   6   7
ENDBRANCH   3   6
BRANCH   4   9
HETATM    9  C5  UNL     1     -36.016  13.760  -4.375  1.00 20.00     0.277 C 
HETATM   10  O8  UNL     1     -35.818  12.532  -4.483  1.00 20.00    -0.301 OA
ENDBRANCH   4   9
TORSDOF 3
ENDMDL
MODEL 2
REMARK VINA RESULT:      -4.3      1.284      1.442
REMARK  3 active torsions:
REMARK  status: ('A' for Active; 'I' for Inactive)
REMARK    1  A    between atoms: C3_3  and  C7_7 
REMARK    2  A    between atoms: C4_4  and  C5_5 
REMARK    3  A    between atoms: C7_7  and  O9_9 
ROOT
HETATM    1  C1  UNL     1     -35.356  15.516  -2.794  1.00 20.00     0.031 A 
HETATM    2  C2  UNL     1     -33.136  16.043  -3.235  1.00 20.00     0.060 A 
HETATM    3  C3  UNL     1     -34.228  16.307  -2.437  1.00 20.00    -0.027 A 
HETATM    4  C4  UNL     1     -35.086  14.675  -3.851  1.00 20.00     0.043 A 
HETATM    5  S10 UNL     1     -33.476  14.843  -4.409  1.00 20.00    -0.098 SA
ENDROOT
BRANCH   3   6
HETATM    6  C7  UNL     1     -34.228  17.299  -1.336  1.00 20.00     0.206 C 
BRANCH   6   7
HETATM    7  O9  UNL     1     -35.494  17.292  -0.681  1.00 20.00    -0.391 OA
HETATM    8  C6  UNL     1     -35.347  17.321   0.730  1.00 20.00     0.201 C 
ENDBRANCH   6   7
ENDBRANCH   3   6
BRANCH   4   9
HETATM    9  C5  UNL     1     -35.949  13.738  -4.493  1.00 20.00     0.277 C 
HETATM   10  O8  UNL     1     -35.792  12.499  -4.454  1.00 20.00    -0.301 OA
ENDBRANCH   4   9
TORSDOF 3
ENDMDL
MODEL 3
REMARK VINA RESULT:      -3.9      2.053      5.235
REMARK  3 active torsions:
REMARK  status: ('A' for Active; 'I' for Inactive)
REMARK    1  A    between atoms: C3_3  and  C7_7 
REMARK    2  A    between atoms: C4_4  and  C5_5 
REMARK    3  A    between atoms: C7_7  and  O9_9 
ROOT
HETATM    1  C1  UNL     1     -32.998  16.807  -2.511  1.00 20.00     0.031 A 
HETATM    2  C2  UNL     1     -35.093  16.564  -1.535  1.00 20.00     0.060 A 
HETATM    3  C3  UNL     1     -34.236  16.103  -2.510  1.00 20.00    -0.027 A 
HETATM    4  C4  UNL     1     -32.953  17.780  -1.537  1.00 20.00     0.043 A 
HETATM    5  S10 UNL     1     -34.402  17.841  -0.625  1.00 20.00    -0.098 SA
ENDROOT
BRANCH   3   6
HETATM    6  C7  UNL     1     -34.563  15.004  -3.448  1.00 20.00     0.206 C 
BRANCH   6   7
HETATM    7  O9  UNL     1     -35.978  14.878  -3.569  1.00 20.00    -0.391 OA
HETATM    8  C6  UNL     1     -36.330  13.864  -4.497  1.00 20.00     0.201 C 
ENDBRANCH   6   7
ENDBRANCH   3   6
BRANCH   4   9
HETATM    9  C5  UNL     1     -31.897  18.686  -1.223  1.00 20.00     0.277 C 
HETATM   10  O8  UNL     1     -30.784  18.338  -0.777  1.00 20.00    -0.301 OA
ENDBRANCH   4   9
TORSDOF 3
ENDMDL
MODEL 4
REMARK VINA RESULT:      -3.9     11.007     11.612
REMARK  3 active torsions:
REMARK  status: ('A' for Active; 'I' for Inactive)
REMARK    1  A    between atoms: C3_3  and  C7_7 
REMARK    2  A    between atoms: C4_4  and  C5_5 
REMARK    3  A    between atoms: C7_7  and  O9_9 
ROOT
HETATM    1  C1  UNL     1     -33.295   7.025   3.913  1.00 20.00     0.031 A 
HETATM    2  C2  UNL     1     -33.311   5.306   2.349  1.00 20.00     0.060 A 
HETATM    3  C3  UNL     1     -32.909   6.597   2.610  1.00 20.00    -0.027 A 
HETATM    4  C4  UNL     1     -33.977   6.045   4.599  1.00 20.00     0.043 A 
HETATM    5  S10 UNL     1     -34.150   4.615   3.673  1.00 20.00    -0.098 SA
ENDROOT
BRANCH   3   6
HETATM    6  C7  UNL     1     -32.162   7.443   1.649  1.00 20.00     0.206 C 
BRANCH   6   7
HETATM    7  O9  UNL     1     -32.911   8.622   1.361  1.00 20.00    -0.391 OA
HETATM    8  C6  UNL     1     -33.189   8.733  -0.026  1.00 20.00     0.201 C 
ENDBRANCH   6   7
ENDBRANCH   3   6
BRANCH   4   9
HETATM    9  C5  UNL     1     -34.522   6.089   5.917  1.00 20.00     0.277 C 
HETATM   10  O8  UNL     1     -35.109   5.133   6.465  1.00 20.00    -0.301 OA
ENDBRANCH   4   9
TORSDOF 3
ENDMDL
MODEL 5
REMARK VINA RESULT:      -3.9      1.966      5.022
REMARK  3 active torsions:
REMARK  status: ('A' for Active; 'I' for Inactive)
REMARK    1  A    between atoms: C3_3  and  C7_7 
REMARK    2  A    between atoms: C4_4  and  C5_5 
REMARK    3  A    between atoms: C7_7  and  O9_9 
ROOT
HETATM    1  C1  UNL     1     -32.833  16.508  -3.088  1.00 20.00     0.031 A 
HETATM    2  C2  UNL     1     -34.904  15.504  -2.763  1.00 20.00     0.060 A 
HETATM    3  C3  UNL     1     -33.722  15.463  -3.470  1.00 20.00    -0.027 A 
HETATM    4  C4  UNL     1     -33.367  17.307  -2.102  1.00 20.00     0.043 A 
HETATM    5  S10 UNL     1     -34.936  16.798  -1.641  1.00 20.00    -0.098 SA
ENDROOT
BRANCH   3   6
HETATM    6  C7  UNL     1     -33.413  14.452  -4.508  1.00 20.00     0.206 C 
BRANCH   6   7
HETATM    7  O9  UNL     1     -34.476  14.392  -5.456  1.00 20.00    -0.391 OA
HETATM    8  C6  UNL     1     -34.146  15.087  -6.649  1.00 20.00     0.201 C 
ENDBRANCH   6   7
ENDBRANCH   3   6
BRANCH   4   9
HETATM    9  C5  UNL     1     -32.791  18.445  -1.461  1.00 20.00     0.277 C 
HETATM   10  O8  UNL     1     -31.584  18.758  -1.540  1.00 20.00    -0.301 OA
ENDBRANCH   4   9
TORSDOF 3
ENDMDL
MODEL 6
REMARK VINA RESULT:      -3.8      2.204      4.554
REMARK  3 active torsions:
REMARK  status: ('A' for Active; 'I' for Inactive)
REMARK    1  A    between atoms: C3_3  and  C7_7 
REMARK    2  A    between atoms: C4_4  and  C5_5 
REMARK    3  A    between atoms: C7_7  and  O9_9 
ROOT
HETATM    1  C1  UNL     1     -35.065  15.845  -2.191  1.00 20.00     0.031 A 
HETATM    2  C2  UNL     1     -33.084  16.195  -3.356  1.00 20.00     0.060 A 
HETATM    3  C3  UNL     1     -34.216  15.417  -3.252  1.00 20.00    -0.027 A 
HETATM    4  C4  UNL     1     -34.550  16.934  -1.523  1.00 20.00     0.043 A 
HETATM    5  S10 UNL     1     -33.049  17.437  -2.176  1.00 20.00    -0.098 SA
ENDROOT
BRANCH   3   6
HETATM    6  C7  UNL     1     -34.517  14.270  -4.140  1.00 20.00     0.206 C 
BRANCH   6   7
HETATM    7  O9  UNL     1     -33.928  14.483  -5.420  1.00 20.00    -0.391 OA
HETATM    8  C6  UNL     1     -34.896  14.898  -6.372  1.00 20.00     0.201 C 
ENDBRANCH   6   7
ENDBRANCH   3   6
BRANCH   4   9
HETATM    9  C5  UNL     1     -35.098  17.646  -0.415  1.00 20.00     0.277 C 
HETATM   10  O8  UNL     1     -35.591  17.101   0.595  1.00 20.00    -0.301 OA
ENDBRANCH   4   9
TORSDOF 3
ENDMDL
MODEL 7
REMARK VINA RESULT:      -3.8      1.797      2.101
REMARK  3 active torsions:
REMARK  status: ('A' for Active; 'I' for Inactive)
REMARK    1  A    between atoms: C3_3  and  C7_7 
REMARK    2  A    between atoms: C4_4  and  C5_5 
REMARK    3  A    between atoms: C7_7  and  O9_9 
ROOT
HETATM    1  C1  UNL     1     -32.884  16.538  -3.011  1.00 20.00     0.031 A 
HETATM    2  C2  UNL     1     -34.882  16.713  -1.837  1.00 20.00     0.060 A 
HETATM    3  C3  UNL     1     -33.611  17.221  -1.994  1.00 20.00    -0.027 A 
HETATM    4  C4  UNL     1     -33.626  15.534  -3.593  1.00 20.00     0.043 A 
HETATM    5  S10 UNL     1     -35.194  15.418  -2.914  1.00 20.00    -0.098 SA
ENDROOT
BRANCH   3   6
HETATM    6  C7  UNL     1     -33.063  18.345  -1.200  1.00 20.00     0.206 C 
BRANCH   6   7
HETATM    7  O9  UNL     1     -31.655  18.437  -1.401  1.00 20.00    -0.391 OA
HETATM    8  C6  UNL     1     -30.948  18.340  -0.174  1.00 20.00     0.201 C 
ENDBRANCH   6   7
ENDBRANCH   3   6
BRANCH   4   9
HETATM    9  C5  UNL     1     -33.254  14.636  -4.637  1.00 20.00     0.277 C 
HETATM   10  O8  UNL     1     -33.999  14.318  -5.587  1.00 20.00    -0.301 OA
ENDBRANCH   4   9
TORSDOF 3
ENDMDL
MODEL 8
REMARK VINA RESULT:      -3.5      1.770      2.032
REMARK  3 active torsions:
REMARK  status: ('A' for Active; 'I' for Inactive)
REMARK    1  A    between atoms: C3_3  and  C7_7 
REMARK    2  A    between atoms: C4_4  and  C5_5 
REMARK    3  A    between atoms: C7_7  and  O9_9 
ROOT
HETATM    1  C1  UNL     1     -35.891  15.909  -3.343  1.00 20.00     0.031 A 
HETATM    2  C2  UNL     1     -34.309  14.317  -3.947  1.00 20.00     0.060 A 
HETATM    3  C3  UNL     1     -34.519  15.530  -3.326  1.00 20.00    -0.027 A 
HETATM    4  C4  UNL     1     -36.680  14.973  -3.974  1.00 20.00     0.043 A 
HETATM    5  S10 UNL     1     -35.765  13.642  -4.545  1.00 20.00    -0.098 SA
ENDROOT
BRANCH   3   6
HETATM    6  C7  UNL     1     -33.443  16.344  -2.714  1.00 20.00     0.206 C 
BRANCH   6   7
HETATM    7  O9  UNL     1     -33.954  17.624  -2.351  1.00 20.00    -0.391 OA
HETATM    8  C6  UNL     1     -33.729  17.901  -0.977  1.00 20.00     0.201 C 
ENDBRANCH   6   7
ENDBRANCH   3   6
BRANCH   4   9
HETATM    9  C5  UNL     1     -38.090  14.990  -4.192  1.00 20.00     0.277 C 
HETATM   10  O8  UNL     1     -38.774  13.975  -4.436  1.00 20.00    -0.301 OA
ENDBRANCH   4   9
TORSDOF 3
ENDMDL
MODEL 9
REMARK VINA RESULT:      -3.5     10.875     13.407
REMARK  3 active torsions:
REMARK  status: ('A' for Active; 'I' for Inactive)
REMARK    1  A    between atoms: C3_3  and  C7_7 
REMARK    2  A    between atoms: C4_4  and  C5_5 
REMARK    3  A    between atoms: C7_7  and  O9_9 
ROOT
HETATM    1  C1  UNL     1     -41.113   6.873  -0.805  1.00 20.00     0.031 A 
HETATM    2  C2  UNL     1     -42.960   5.643  -0.113  1.00 20.00     0.060 A 
HETATM    3  C3  UNL     1     -41.832   5.648  -0.904  1.00 20.00    -0.027 A 
HETATM    4  C4  UNL     1     -41.718   7.761   0.057  1.00 20.00     0.043 A 
HETATM    5  S10 UNL     1     -43.148   7.114   0.744  1.00 20.00    -0.098 SA
ENDROOT
BRANCH   3   6
HETATM    6  C7  UNL     1     -41.414   4.511  -1.758  1.00 20.00     0.206 C 
BRANCH   6   7
HETATM    7  O9  UNL     1     -42.565   3.825  -2.245  1.00 20.00    -0.391 OA
HETATM    8  C6  UNL     1     -42.222   2.894  -3.260  1.00 20.00     0.201 C 
ENDBRANCH   6   7
ENDBRANCH   3   6
BRANCH   4   9
HETATM    9  C5  UNL     1     -41.308   9.078   0.419  1.00 20.00     0.277 C 
HETATM   10  O8  UNL     1     -41.920  10.117   0.093  1.00 20.00    -0.301 OA
ENDBRANCH   4   9
TORSDOF 3
ENDMDL
