MODEL 1
REMARK VINA RESULT:      -4.5      0.000      0.000
REMARK  3 active torsions:
REMARK  status: ('A' for Active; 'I' for Inactive)
REMARK    1  A    between atoms: C2_2  and  C7_7 
REMARK    2  A    between atoms: C3_3  and  C8_8 
REMARK    3  A    between atoms: C8_8  and  C9_9 
ROOT
HETATM    1  C1  UNL     1     -35.850  14.231  -4.200  1.00 20.00     0.095 C 
HETATM    2  C2  UNL     1     -34.581  14.894  -4.124  1.00 20.00     0.024 C 
HETATM    3  C3  UNL     1     -34.303  15.729  -3.092  1.00 20.00    -0.067 C 
HETATM    4  C4  UNL     1     -32.991  16.468  -2.934  1.00 20.00     0.044 C 
HETATM    5  N10 UNL     1     -36.871  13.685  -4.274  1.00 20.00    -0.192 NA
ENDROOT
BRANCH   2   6
HETATM    6  C7  UNL     1     -33.629  14.630  -5.277  1.00 20.00     0.046 C 
HETATM    7  C5  UNL     1     -34.217  15.055  -6.615  1.00 20.00     0.011 C 
ENDBRANCH   2   6
BRANCH   3   8
HETATM    8  C8  UNL     1     -35.299  16.046  -1.989  1.00 20.00     0.034 C 
BRANCH   8   9
HETATM    9  C9  UNL     1     -34.804  17.163  -1.066  1.00 20.00    -0.000 C 
HETATM   10  C6  UNL     1     -35.536  17.144   0.268  1.00 20.00     0.005 C 
ENDBRANCH   8   9
ENDBRANCH   3   8
TORSDOF 3
ENDMDL
MODEL 2
REMARK VINA RESULT:      -4.3     11.305     12.115
REMARK  3 active torsions:
REMARK  status: ('A' for Active; 'I' for Inactive)
REMARK    1  A    between atoms: C2_2  and  C7_7 
REMARK    2  A    between atoms: C3_3  and  C8_8 
REMARK    3  A    between atoms: C8_8  and  C9_9 
ROOT
HETATM    1  C1  UNL     1     -33.673   6.958   5.167  1.00 20.00     0.095 C 
HETATM    2  C2  UNL     1     -33.836   5.965   4.146  1.00 20.00     0.024 C 
HETATM    3  C3  UNL     1     -33.214   6.104   2.949  1.00 20.00    -0.067 C 
HETATM    4  C4  UNL     1     -33.329   5.106   1.816  1.00 20.00     0.044 C 
HETATM    5  N10 UNL     1     -33.551   7.752   6.005  1.00 20.00    -0.192 NA
ENDROOT
BRANCH   2   6
HETATM    6  C7  UNL     1     -34.764   4.813   4.486  1.00 20.00     0.046 C 
HETATM    7  C5  UNL     1     -35.024   4.709   5.983  1.00 20.00     0.011 C 
ENDBRANCH   2   6
BRANCH   3   8
HETATM    8  C8  UNL     1     -32.353   7.305   2.594  1.00 20.00     0.034 C 
BRANCH   8   9
HETATM    9  C9  UNL     1     -32.404   7.633   1.099  1.00 20.00    -0.000 C 
HETATM   10  C6  UNL     1     -32.927   9.040   0.857  1.00 20.00     0.005 C 
ENDBRANCH   8   9
ENDBRANCH   3   8
TORSDOF 3
ENDMDL
MODEL 3
REMARK VINA RESULT:      -4.3      3.195      5.810
REMARK  3 active torsions:
REMARK  status: ('A' for Active; 'I' for Inactive)
REMARK    1  A    between atoms: C2_2  and  C7_7 
REMARK    2  A    between atoms: C3_3  and  C8_8 
REMARK    3  A    between atoms: C8_8  and  C9_9 
ROOT
HETATM    1  C1  UNL     1     -31.877  18.285  -0.591  1.00 20.00     0.095 C 
HETATM    2  C2  UNL     1     -33.292  18.066  -0.506  1.00 20.00     0.024 C 
HETATM    3  C3  UNL     1     -33.927  17.313  -1.439  1.00 20.00    -0.067 C 
HETATM    4  C4  UNL     1     -35.414  17.031  -1.426  1.00 20.00     0.044 C 
HETATM    5  N10 UNL     1     -30.733  18.470  -0.644  1.00 20.00    -0.192 NA
ENDROOT
BRANCH   2   6
HETATM    6  C7  UNL     1     -34.000  18.761   0.643  1.00 20.00     0.046 C 
HETATM    7  C5  UNL     1     -33.789  18.039   1.967  1.00 20.00     0.011 C 
ENDBRANCH   2   6
BRANCH   3   8
HETATM    8  C8  UNL     1     -33.216  16.692  -2.630  1.00 20.00     0.034 C 
BRANCH   8   9
HETATM    9  C9  UNL     1     -33.991  15.509  -3.215  1.00 20.00    -0.000 C 
HETATM   10  C6  UNL     1     -33.172  14.772  -4.263  1.00 20.00     0.005 C 
ENDBRANCH   8   9
ENDBRANCH   3   8
TORSDOF 3
ENDMDL
MODEL 4
REMARK VINA RESULT:      -4.2      1.802      3.354
REMARK  3 active torsions:
REMARK  status: ('A' for Active; 'I' for Inactive)
REMARK    1  A    between atoms: C2_2  and  C7_7 
REMARK    2  A    between atoms: C3_3  and  C8_8 
REMARK    3  A    between atoms: C8_8  and  C9_9 
ROOT
HETATM    1  C1  UNL     1     -36.254  13.874  -4.381  1.00 20.00     0.095 C 
HETATM    2  C2  UNL     1     -36.687  15.221  -4.150  1.00 20.00     0.024 C 
HETATM    3  C3  UNL     1     -35.986  16.035  -3.323  1.00 20.00    -0.067 C 
HETATM    4  C4  UNL     1     -36.370  17.469  -3.023  1.00 20.00     0.044 C 
HETATM    5  N10 UNL     1     -35.916  12.782  -4.579  1.00 20.00    -0.192 NA
ENDROOT
BRANCH   2   6
HETATM    6  C7  UNL     1     -37.973  15.629  -4.845  1.00 20.00     0.046 C 
HETATM    7  C5  UNL     1     -39.198  14.986  -4.209  1.00 20.00     0.011 C 
ENDBRANCH   2   6
BRANCH   3   8
HETATM    8  C8  UNL     1     -34.745  15.585  -2.569  1.00 20.00     0.034 C 
BRANCH   8   9
HETATM    9  C9  UNL     1     -33.455  16.078  -3.230  1.00 20.00    -0.000 C 
HETATM   10  C6  UNL     1     -32.877  15.031  -4.170  1.00 20.00     0.005 C 
ENDBRANCH   8   9
ENDBRANCH   3   8
TORSDOF 3
ENDMDL
MODEL 5
REMARK VINA RESULT:      -4.2     16.283     17.539
REMARK  3 active torsions:
REMARK  status: ('A' for Active; 'I' for Inactive)
REMARK    1  A    between atoms: C2_2  and  C7_7 
REMARK    2  A    between atoms: C3_3  and  C8_8 
REMARK    3  A    between atoms: C8_8  and  C9_9 
ROOT
HETATM    1  C1  UNL     1     -23.736  18.569   8.092  1.00 20.00     0.095 C 
HETATM    2  C2  UNL     1     -22.988  18.178   9.251  1.00 20.00     0.024 C 
HETATM    3  C3  UNL     1     -23.584  18.127  10.468  1.00 20.00    -0.067 C 
HETATM    4  C4  UNL     1     -22.871  17.725  11.741  1.00 20.00     0.044 C 
HETATM    5  N10 UNL     1     -24.328  18.882   7.144  1.00 20.00    -0.192 NA
ENDROOT
BRANCH   2   6
HETATM    6  C7  UNL     1     -21.517  17.883   9.018  1.00 20.00     0.046 C 
HETATM    7  C5  UNL     1     -21.293  17.020   7.784  1.00 20.00     0.011 C 
ENDBRANCH   2   6
BRANCH   3   8
HETATM    8  C8  UNL     1     -25.038  18.505  10.697  1.00 20.00     0.034 C 
BRANCH   8   9
HETATM    9  C9  UNL     1     -25.440  18.395  12.170  1.00 20.00    -0.000 C 
HETATM   10  C6  UNL     1     -26.924  18.100  12.320  1.00 20.00     0.005 C 
ENDBRANCH   8   9
ENDBRANCH   3   8
TORSDOF 3
ENDMDL
MODEL 6
REMARK VINA RESULT:      -4.1      1.664      2.783
REMARK  3 active torsions:
REMARK  status: ('A' for Active; 'I' for Inactive)
REMARK    1  A    between atoms: C2_2  and  C7_7 
REMARK    2  A    between atoms: C3_3  and  C8_8 
REMARK    3  A    between atoms: C8_8  and  C9_9 
ROOT
HETATM    1  C1  UNL     1     -34.297  14.872  -5.207  1.00 20.00     0.095 C 
HETATM    2  C2  UNL     1     -35.030  15.139  -4.004  1.00 20.00     0.024 C 
HETATM    3  C3  UNL     1     -34.464  15.853  -2.999  1.00 20.00    -0.067 C 
HETATM    4  C4  UNL     1     -35.165  16.181  -1.698  1.00 20.00     0.044 C 
HETATM    5  N10 UNL     1     -33.717  14.648  -6.187  1.00 20.00    -0.192 NA
ENDROOT
BRANCH   2   6
HETATM    6  C7  UNL     1     -36.423  14.540  -3.933  1.00 20.00     0.046 C 
HETATM    7  C5  UNL     1     -37.438  15.349  -4.728  1.00 20.00     0.011 C 
ENDBRANCH   2   6
BRANCH   3   8
HETATM    8  C8  UNL     1     -33.038  16.376  -3.053  1.00 20.00     0.034 C 
BRANCH   8   9
HETATM    9  C9  UNL     1     -32.956  17.869  -2.721  1.00 20.00    -0.000 C 
HETATM   10  C6  UNL     1     -32.104  18.116  -1.485  1.00 20.00     0.005 C 
ENDBRANCH   8   9
ENDBRANCH   3   8
TORSDOF 3
ENDMDL
MODEL 7
REMARK VINA RESULT:      -4.1      1.818      2.473
REMARK  3 active torsions:
REMARK  status: ('A' for Active; 'I' for Inactive)
REMARK    1  A    between atoms: C2_2  and  C7_7 
REMARK    2  A    between atoms: C3_3  and  C8_8 
REMARK    3  A    between atoms: C8_8  and  C9_9 
ROOT
HETATM    1  C1  UNL     1     -35.946  13.976  -4.829  1.00 20.00     0.095 C 
HETATM    2  C2  UNL     1     -35.716  15.310  -5.301  1.00 20.00     0.024 C 
HETATM    3  C3  UNL     1     -34.655  16.024  -4.849  1.00 20.00    -0.067 C 
HETATM    4  C4  UNL     1     -34.336  17.436  -5.294  1.00 20.00     0.044 C 
HETATM    5  N10 UNL     1     -36.145  12.895  -4.458  1.00 20.00    -0.192 NA
ENDROOT
BRANCH   2   6
HETATM    6  C7  UNL     1     -36.745  15.853  -6.275  1.00 20.00     0.046 C 
HETATM    7  C5  UNL     1     -38.024  16.289  -5.573  1.00 20.00     0.011 C 
ENDBRANCH   2   6
BRANCH   3   8
HETATM    8  C8  UNL     1     -33.679  15.495  -3.811  1.00 20.00     0.034 C 
BRANCH   8   9
HETATM    9  C9  UNL     1     -33.690  16.331  -2.528  1.00 20.00    -0.000 C 
HETATM   10  C6  UNL     1     -35.028  16.231  -1.812  1.00 20.00     0.005 C 
ENDBRANCH   8   9
ENDBRANCH   3   8
TORSDOF 3
ENDMDL
MODEL 8
REMARK VINA RESULT:      -4.0      2.256      4.265
REMARK  3 active torsions:
REMARK  status: ('A' for Active; 'I' for Inactive)
REMARK    1  A    between atoms: C2_2  and  C7_7 
REMARK    2  A    between atoms: C3_3  and  C8_8 
REMARK    3  A    between atoms: C8_8  and  C9_9 
ROOT
HETATM    1  C1  UNL     1     -34.981  17.225  -0.981  1.00 20.00     0.095 C 
HETATM    2  C2  UNL     1     -33.893  16.941  -1.871  1.00 20.00     0.024 C 
HETATM    3  C3  UNL     1     -34.019  15.985  -2.825  1.00 20.00    -0.067 C 
HETATM    4  C4  UNL     1     -32.924  15.621  -3.805  1.00 20.00     0.044 C 
HETATM    5  N10 UNL     1     -35.853  17.468  -0.255  1.00 20.00    -0.192 NA
ENDROOT
BRANCH   2   6
HETATM    6  C7  UNL     1     -32.621  17.734  -1.633  1.00 20.00     0.046 C 
HETATM    7  C5  UNL     1     -32.624  19.060  -2.381  1.00 20.00     0.011 C 
ENDBRANCH   2   6
BRANCH   3   8
HETATM    8  C8  UNL     1     -35.272  15.142  -2.997  1.00 20.00     0.034 C 
BRANCH   8   9
HETATM    9  C9  UNL     1     -35.067  13.997  -3.993  1.00 20.00    -0.000 C 
HETATM   10  C6  UNL     1     -36.333  13.724  -4.791  1.00 20.00     0.005 C 
ENDBRANCH   8   9
ENDBRANCH   3   8
TORSDOF 3
ENDMDL
MODEL 9
REMARK VINA RESULT:      -3.9      1.496      4.310
REMARK  3 active torsions:
REMARK  status: ('A' for Active; 'I' for Inactive)
REMARK    1  A    between atoms: C2_2  and  C7_7 
REMARK    2  A    between atoms: C3_3  and  C8_8 
REMARK    3  A    between atoms: C8_8  and  C9_9 
ROOT
HETATM    1  C1  UNL     1     -35.484  13.953  -4.369  1.00 20.00     0.095 C 
HETATM    2  C2  UNL     1     -35.002  15.295  -4.227  1.00 20.00     0.024 C 
HETATM    3  C3  UNL     1     -35.232  16.214  -5.198  1.00 20.00    -0.067 C 
HETATM    4  C4  UNL     1     -34.761  17.651  -5.130  1.00 20.00     0.044 C 
HETATM    5  N10 UNL     1     -35.868  12.862  -4.469  1.00 20.00    -0.192 NA
ENDROOT
BRANCH   2   6
HETATM    6  C7  UNL     1     -34.203  15.580  -2.968  1.00 20.00     0.046 C 
HETATM    7  C5  UNL     1     -35.072  16.147  -1.853  1.00 20.00     0.011 C 
ENDBRANCH   2   6
BRANCH   3   8
HETATM    8  C8  UNL     1     -35.963  15.890  -6.491  1.00 20.00     0.034 C 
BRANCH   8   9
HETATM    9  C9  UNL     1     -35.107  16.177  -7.728  1.00 20.00    -0.000 C 
HETATM   10  C6  UNL     1     -33.901  15.252  -7.793  1.00 20.00     0.005 C 
ENDBRANCH   8   9
ENDBRANCH   3   8
TORSDOF 3
ENDMDL
