MODEL 1
REMARK VINA RESULT:      -4.8      0.000      0.000
REMARK  1 active torsions:
REMARK  status: ('A' for Active; 'I' for Inactive)
REMARK    1  A    between atoms: C10_10  and  O12_12 
ROOT
HETATM    1  C1  UNL     1     -34.934  17.407  -4.175  1.00 20.00     0.005 C 
HETATM    2  C2  UNL     1     -35.915  16.739  -3.202  1.00 20.00     0.005 C 
HETATM    3  C3  UNL     1     -34.551  15.045  -6.098  1.00 20.00     0.008 C 
HETATM    4  C4  UNL     1     -36.022  14.730  -5.855  1.00 20.00     0.033 C 
HETATM    5  C5  UNL     1     -33.709  16.153  -2.586  1.00 20.00     0.010 C 
HETATM    6  C6  UNL     1     -33.687  16.515  -4.078  1.00 20.00    -0.010 C 
HETATM    7  C7  UNL     1     -35.115  15.539  -2.667  1.00 20.00    -0.007 C 
HETATM    8  C8  UNL     1     -33.902  15.122  -4.718  1.00 20.00    -0.004 C 
HETATM    9  C9  UNL     1     -34.877  14.442  -3.731  1.00 20.00     0.023 C 
HETATM   10  C10 UNL     1     -36.024  13.899  -4.577  1.00 20.00     0.125 C 
ENDROOT
BRANCH  10  11
HETATM   11  O12 UNL     1     -37.264  13.944  -3.902  1.00 20.00    -0.390 OA
HETATM   12  C11 UNL     1     -38.239  14.685  -4.631  1.00 20.00     0.202 C 
ENDBRANCH  10  11
TORSDOF 1
ENDMDL
MODEL 2
REMARK VINA RESULT:      -4.7      1.239      1.683
REMARK  1 active torsions:
REMARK  status: ('A' for Active; 'I' for Inactive)
REMARK    1  A    between atoms: C10_10  and  O12_12 
ROOT
HETATM    1  C1  UNL     1     -33.964  17.335  -3.664  1.00 20.00     0.005 C 
HETATM    2  C2  UNL     1     -35.471  17.377  -3.953  1.00 20.00     0.005 C 
HETATM    3  C3  UNL     1     -33.344  14.626  -4.969  1.00 20.00     0.008 C 
HETATM    4  C4  UNL     1     -34.387  14.998  -6.016  1.00 20.00     0.033 C 
HETATM    5  C5  UNL     1     -35.106  16.125  -1.982  1.00 20.00     0.010 C 
HETATM    6  C6  UNL     1     -33.811  16.070  -2.804  1.00 20.00    -0.010 C 
HETATM    7  C7  UNL     1     -36.001  16.127  -3.230  1.00 20.00    -0.007 C 
HETATM    8  C8  UNL     1     -34.035  14.771  -3.615  1.00 20.00    -0.004 C 
HETATM    9  C9  UNL     1     -35.555  14.803  -3.894  1.00 20.00     0.023 C 
HETATM   10  C10 UNL     1     -35.714  14.578  -5.394  1.00 20.00     0.125 C 
ENDROOT
BRANCH  10  11
HETATM   11  O12 UNL     1     -36.814  15.280  -5.935  1.00 20.00    -0.390 OA
HETATM   12  C11 UNL     1     -36.487  15.909  -7.171  1.00 20.00     0.202 C 
ENDBRANCH  10  11
TORSDOF 1
ENDMDL
MODEL 3
REMARK VINA RESULT:      -4.5      0.908      1.124
REMARK  1 active torsions:
REMARK  status: ('A' for Active; 'I' for Inactive)
REMARK    1  A    between atoms: C10_10  and  O12_12 
ROOT
HETATM    1  C1  UNL     1     -33.741  17.594  -4.031  1.00 20.00     0.005 C 
HETATM    2  C2  UNL     1     -35.249  17.672  -3.756  1.00 20.00     0.005 C 
HETATM    3  C3  UNL     1     -33.644  14.724  -5.116  1.00 20.00     0.008 C 
HETATM    4  C4  UNL     1     -34.999  15.018  -5.751  1.00 20.00     0.033 C 
HETATM    5  C5  UNL     1     -34.188  16.646  -1.910  1.00 20.00     0.010 C 
HETATM    6  C6  UNL     1     -33.284  16.434  -3.133  1.00 20.00    -0.010 C 
HETATM    7  C7  UNL     1     -35.478  16.543  -2.737  1.00 20.00    -0.007 C 
HETATM    8  C8  UNL     1     -33.791  15.060  -3.634  1.00 20.00    -0.004 C 
HETATM    9  C9  UNL     1     -35.307  15.130  -3.343  1.00 20.00     0.023 C 
HETATM   10  C10 UNL     1     -36.005  14.737  -4.641  1.00 20.00     0.125 C 
ENDROOT
BRANCH  10  11
HETATM   11  O12 UNL     1     -37.226  15.422  -4.829  1.00 20.00    -0.390 OA
HETATM   12  C11 UNL     1     -38.325  14.712  -4.266  1.00 20.00     0.202 C 
ENDBRANCH  10  11
TORSDOF 1
ENDMDL
MODEL 4
REMARK VINA RESULT:      -4.4      2.215      4.057
REMARK  1 active torsions:
REMARK  status: ('A' for Active; 'I' for Inactive)
REMARK    1  A    between atoms: C10_10  and  O12_12 
ROOT
HETATM    1  C1  UNL     1     -35.783  15.769  -4.883  1.00 20.00     0.005 C 
HETATM    2  C2  UNL     1     -34.312  16.027  -5.241  1.00 20.00     0.005 C 
HETATM    3  C3  UNL     1     -35.813  17.155  -2.143  1.00 20.00     0.008 C 
HETATM    4  C4  UNL     1     -34.853  18.171  -2.751  1.00 20.00     0.033 C 
HETATM    5  C5  UNL     1     -34.441  14.095  -3.884  1.00 20.00     0.010 C 
HETATM    6  C6  UNL     1     -35.685  14.945  -3.589  1.00 20.00    -0.010 C 
HETATM    7  C7  UNL     1     -33.547  15.325  -4.106  1.00 20.00    -0.007 C 
HETATM    8  C8  UNL     1     -35.187  15.783  -2.387  1.00 20.00    -0.004 C 
HETATM    9  C9  UNL     1     -33.702  16.030  -2.738  1.00 20.00     0.023 C 
HETATM   10  C10 UNL     1     -33.478  17.532  -2.594  1.00 20.00     0.125 C 
ENDROOT
BRANCH  10  11
HETATM   11  O12 UNL     1     -32.538  18.033  -3.522  1.00 20.00    -0.390 OA
HETATM   12  C11 UNL     1     -32.972  19.255  -4.111  1.00 20.00     0.202 C 
ENDBRANCH  10  11
TORSDOF 1
ENDMDL
MODEL 5
REMARK VINA RESULT:      -4.4      1.303      1.985
REMARK  1 active torsions:
REMARK  status: ('A' for Active; 'I' for Inactive)
REMARK    1  A    between atoms: C10_10  and  O12_12 
ROOT
HETATM    1  C1  UNL     1     -35.454  17.407  -2.361  1.00 20.00     0.005 C 
HETATM    2  C2  UNL     1     -35.050  15.938  -2.177  1.00 20.00     0.005 C 
HETATM    3  C3  UNL     1     -35.372  17.501  -5.428  1.00 20.00     0.008 C 
HETATM    4  C4  UNL     1     -35.904  16.073  -5.393  1.00 20.00     0.033 C 
HETATM    5  C5  UNL     1     -33.095  17.242  -2.425  1.00 20.00     0.010 C 
HETATM    6  C6  UNL     1     -34.244  18.010  -3.092  1.00 20.00    -0.010 C 
HETATM    7  C7  UNL     1     -33.660  15.872  -2.830  1.00 20.00    -0.007 C 
HETATM    8  C8  UNL     1     -34.122  17.508  -4.551  1.00 20.00    -0.004 C 
HETATM    9  C9  UNL     1     -33.700  16.033  -4.368  1.00 20.00     0.023 C 
HETATM   10  C10 UNL     1     -34.658  15.211  -5.224  1.00 20.00     0.125 C 
ENDROOT
BRANCH  10  11
HETATM   11  O12 UNL     1     -34.945  13.949  -4.658  1.00 20.00    -0.390 OA
HETATM   12  C11 UNL     1     -36.339  13.657  -4.688  1.00 20.00     0.202 C 
ENDBRANCH  10  11
TORSDOF 1
ENDMDL
MODEL 6
REMARK VINA RESULT:      -4.3      1.429      3.183
REMARK  1 active torsions:
REMARK  status: ('A' for Active; 'I' for Inactive)
REMARK    1  A    between atoms: C10_10  and  O12_12 
ROOT
HETATM    1  C1  UNL     1     -34.821  13.833  -3.937  1.00 20.00     0.005 C 
HETATM    2  C2  UNL     1     -35.915  14.501  -4.781  1.00 20.00     0.005 C 
HETATM    3  C3  UNL     1     -33.958  16.293  -2.316  1.00 20.00     0.008 C 
HETATM    4  C4  UNL     1     -35.427  16.700  -2.329  1.00 20.00     0.033 C 
HETATM    5  C5  UNL     1     -33.822  14.872  -5.814  1.00 20.00     0.010 C 
HETATM    6  C6  UNL     1     -33.558  14.620  -4.323  1.00 20.00    -0.010 C 
HETATM    7  C7  UNL     1     -35.151  15.595  -5.545  1.00 20.00    -0.007 C 
HETATM    8  C8  UNL     1     -33.570  16.067  -3.776  1.00 20.00    -0.004 C 
HETATM    9  C9  UNL     1     -34.660  16.746  -4.635  1.00 20.00     0.023 C 
HETATM   10  C10 UNL     1     -35.604  17.433  -3.653  1.00 20.00     0.125 C 
ENDROOT
BRANCH  10  11
HETATM   11  O12 UNL     1     -36.945  17.433  -4.098  1.00 20.00    -0.390 OA
HETATM   12  C11 UNL     1     -37.865  17.453  -3.011  1.00 20.00     0.202 C 
ENDBRANCH  10  11
TORSDOF 1
ENDMDL
MODEL 7
REMARK VINA RESULT:      -4.3      1.410      2.177
REMARK  1 active torsions:
REMARK  status: ('A' for Active; 'I' for Inactive)
REMARK    1  A    between atoms: C10_10  and  O12_12 
ROOT
HETATM    1  C1  UNL     1     -33.945  15.333  -5.791  1.00 20.00     0.005 C 
HETATM    2  C2  UNL     1     -34.431  16.694  -5.276  1.00 20.00     0.005 C 
HETATM    3  C3  UNL     1     -36.091  13.577  -4.473  1.00 20.00     0.008 C 
HETATM    4  C4  UNL     1     -37.061  14.722  -4.744  1.00 20.00     0.033 C 
HETATM    5  C5  UNL     1     -33.078  15.690  -3.619  1.00 20.00     0.010 C 
HETATM    6  C6  UNL     1     -33.638  14.562  -4.497  1.00 20.00    -0.010 C 
HETATM    7  C7  UNL     1     -34.351  16.540  -3.749  1.00 20.00    -0.007 C 
HETATM    8  C8  UNL     1     -34.918  14.189  -3.711  1.00 20.00    -0.004 C 
HETATM    9  C9  UNL     1     -35.400  15.557  -3.178  1.00 20.00     0.023 C 
HETATM   10  C10 UNL     1     -36.873  15.664  -3.561  1.00 20.00     0.125 C 
ENDROOT
BRANCH  10  11
HETATM   11  O12 UNL     1     -37.262  16.989  -3.855  1.00 20.00    -0.390 OA
HETATM   12  C11 UNL     1     -38.160  17.046  -4.959  1.00 20.00     0.202 C 
ENDBRANCH  10  11
TORSDOF 1
ENDMDL
MODEL 8
REMARK VINA RESULT:      -4.2      1.146      1.532
REMARK  1 active torsions:
REMARK  status: ('A' for Active; 'I' for Inactive)
REMARK    1  A    between atoms: C10_10  and  O12_12 
ROOT
HETATM    1  C1  UNL     1     -34.706  17.319  -2.625  1.00 20.00     0.005 C 
HETATM    2  C2  UNL     1     -35.170  15.886  -2.330  1.00 20.00     0.005 C 
HETATM    3  C3  UNL     1     -35.703  17.511  -5.523  1.00 20.00     0.008 C 
HETATM    4  C4  UNL     1     -36.891  16.669  -5.071  1.00 20.00     0.033 C 
HETATM    5  C5  UNL     1     -33.073  15.802  -3.417  1.00 20.00     0.010 C 
HETATM    6  C6  UNL     1     -33.733  17.133  -3.800  1.00 20.00    -0.010 C 
HETATM    7  C7  UNL     1     -34.412  15.050  -3.375  1.00 20.00    -0.007 C 
HETATM    8  C8  UNL     1     -34.454  16.735  -5.111  1.00 20.00    -0.004 C 
HETATM    9  C9  UNL     1     -34.908  15.286  -4.821  1.00 20.00     0.023 C 
HETATM   10  C10 UNL     1     -36.392  15.232  -5.166  1.00 20.00     0.125 C 
ENDROOT
BRANCH  10  11
HETATM   11  O12 UNL     1     -37.113  14.351  -4.328  1.00 20.00    -0.390 OA
HETATM   12  C11 UNL     1     -38.468  14.761  -4.168  1.00 20.00     0.202 C 
ENDBRANCH  10  11
TORSDOF 1
ENDMDL
MODEL 9
REMARK VINA RESULT:      -4.2      1.858      2.918
REMARK  1 active torsions:
REMARK  status: ('A' for Active; 'I' for Inactive)
REMARK    1  A    between atoms: C10_10  and  O12_12 
ROOT
HETATM    1  C1  UNL     1     -35.170  15.893  -2.169  1.00 20.00     0.005 C 
HETATM    2  C2  UNL     1     -34.250  15.138  -3.138  1.00 20.00     0.005 C 
HETATM    3  C3  UNL     1     -36.310  17.937  -4.157  1.00 20.00     0.008 C 
HETATM    4  C4  UNL     1     -36.262  16.818  -5.191  1.00 20.00     0.033 C 
HETATM    5  C5  UNL     1     -33.116  17.054  -2.343  1.00 20.00     0.010 C 
HETATM    6  C6  UNL     1     -34.621  17.328  -2.217  1.00 20.00    -0.010 C 
HETATM    7  C7  UNL     1     -33.286  16.231  -3.629  1.00 20.00    -0.007 C 
HETATM    8  C8  UNL     1     -34.904  18.028  -3.567  1.00 20.00    -0.004 C 
HETATM    9  C9  UNL     1     -33.966  17.279  -4.541  1.00 20.00     0.023 C 
HETATM   10  C10 UNL     1     -34.834  16.856  -5.722  1.00 20.00     0.125 C 
ENDROOT
BRANCH  10  11
HETATM   11  O12 UNL     1     -34.429  15.622  -6.277  1.00 20.00    -0.390 OA
HETATM   12  C11 UNL     1     -35.542  14.792  -6.596  1.00 20.00     0.202 C 
ENDBRANCH  10  11
TORSDOF 1
ENDMDL
