MODEL 1
REMARK VINA RESULT:      -2.8      0.000      0.000
REMARK  0 active torsions:
REMARK  status: ('A' for Active; 'I' for Inactive)
ROOT
HETATM    1  C1  UNL     1     -34.034   6.449   4.397  1.00 20.00     0.096 C 
HETATM    2  C2  UNL     1     -33.399   6.110   3.278  1.00 20.00     0.096 C 
HETATM    3 CL3  UNL     1     -34.942   5.331   5.322  1.00 20.00    -0.096 Cl
HETATM    4 CL4  UNL     1     -32.494   7.230   2.353  1.00 20.00    -0.096 Cl
ENDROOT
TORSDOF 0
ENDMDL
MODEL 2
REMARK VINA RESULT:      -2.8      0.023      3.177
REMARK  0 active torsions:
REMARK  status: ('A' for Active; 'I' for Inactive)
ROOT
HETATM    1  C1  UNL     1     -33.406   6.094   3.284  1.00 20.00     0.096 C 
HETATM    2  C2  UNL     1     -34.038   6.442   4.402  1.00 20.00     0.096 C 
HETATM    3 CL3  UNL     1     -32.513   7.209   2.340  1.00 20.00    -0.096 Cl
HETATM    4 CL4  UNL     1     -34.932   5.327   5.345  1.00 20.00    -0.096 Cl
ENDROOT
TORSDOF 0
ENDMDL
MODEL 3
REMARK VINA RESULT:      -2.6      1.553      1.553
REMARK  0 active torsions:
REMARK  status: ('A' for Active; 'I' for Inactive)
ROOT
HETATM    1  C1  UNL     1     -34.388   5.758   4.581  1.00 20.00     0.096 C 
HETATM    2  C2  UNL     1     -34.090   4.759   3.753  1.00 20.00     0.096 C 
HETATM    3 CL3  UNL     1     -35.061   5.503   6.134  1.00 20.00    -0.096 Cl
HETATM    4 CL4  UNL     1     -33.418   5.016   2.199  1.00 20.00    -0.096 Cl
ENDROOT
TORSDOF 0
ENDMDL
MODEL 4
REMARK VINA RESULT:      -2.6      1.541      3.238
REMARK  0 active torsions:
REMARK  status: ('A' for Active; 'I' for Inactive)
ROOT
HETATM    1  C1  UNL     1     -34.099   4.779   3.753  1.00 20.00     0.096 C 
HETATM    2  C2  UNL     1     -34.366   5.776   4.593  1.00 20.00     0.096 C 
HETATM    3 CL3  UNL     1     -33.407   5.031   2.208  1.00 20.00    -0.096 Cl
HETATM    4 CL4  UNL     1     -35.060   5.523   6.137  1.00 20.00    -0.096 Cl
ENDROOT
TORSDOF 0
ENDMDL
MODEL 5
REMARK VINA RESULT:      -2.4      8.891      9.024
REMARK  0 active torsions:
REMARK  status: ('A' for Active; 'I' for Inactive)
ROOT
HETATM    1  C1  UNL     1     -41.302   7.684   0.159  1.00 20.00     0.096 C 
HETATM    2  C2  UNL     1     -41.223   7.050  -1.008  1.00 20.00     0.096 C 
HETATM    3 CL3  UNL     1     -41.541   9.375   0.279  1.00 20.00    -0.096 Cl
HETATM    4 CL4  UNL     1     -40.982   5.359  -1.127  1.00 20.00    -0.096 Cl
ENDROOT
TORSDOF 0
ENDMDL
MODEL 6
REMARK VINA RESULT:      -2.4      8.866      8.985
REMARK  0 active torsions:
REMARK  status: ('A' for Active; 'I' for Inactive)
ROOT
HETATM    1  C1  UNL     1     -41.143   7.067  -0.995  1.00 20.00     0.096 C 
HETATM    2  C2  UNL     1     -41.329   7.687   0.168  1.00 20.00     0.096 C 
HETATM    3 CL3  UNL     1     -40.973   5.369  -1.122  1.00 20.00    -0.096 Cl
HETATM    4 CL4  UNL     1     -41.498   9.386   0.293  1.00 20.00    -0.096 Cl
ENDROOT
TORSDOF 0
ENDMDL
MODEL 7
REMARK VINA RESULT:      -2.4      2.878      4.162
REMARK  0 active torsions:
REMARK  status: ('A' for Active; 'I' for Inactive)
ROOT
HETATM    1  C1  UNL     1     -32.737   8.587   1.136  1.00 20.00     0.096 C 
HETATM    2  C2  UNL     1     -32.588   7.452   1.814  1.00 20.00     0.096 C 
HETATM    3 CL3  UNL     1     -33.429   8.646  -0.429  1.00 20.00    -0.096 Cl
HETATM    4 CL4  UNL     1     -31.894   7.394   3.378  1.00 20.00    -0.096 Cl
ENDROOT
TORSDOF 0
ENDMDL
MODEL 8
REMARK VINA RESULT:      -2.3      8.919      9.424
REMARK  0 active torsions:
REMARK  status: ('A' for Active; 'I' for Inactive)
ROOT
HETATM    1  C1  UNL     1     -41.490   7.666   0.613  1.00 20.00     0.096 C 
HETATM    2  C2  UNL     1     -42.624   7.027   0.891  1.00 20.00     0.096 C 
HETATM    3 CL3  UNL     1     -41.431   9.345   0.284  1.00 20.00    -0.096 Cl
HETATM    4 CL4  UNL     1     -42.681   5.348   1.218  1.00 20.00    -0.096 Cl
ENDROOT
TORSDOF 0
ENDMDL
MODEL 9
REMARK VINA RESULT:      -2.3      2.520      3.002
REMARK  0 active torsions:
REMARK  status: ('A' for Active; 'I' for Inactive)
ROOT
HETATM    1  C1  UNL     1     -32.579   7.367   2.230  1.00 20.00     0.096 C 
HETATM    2  C2  UNL     1     -32.976   7.931   1.092  1.00 20.00     0.096 C 
HETATM    3 CL3  UNL     1     -32.861   5.718   2.594  1.00 20.00    -0.096 Cl
HETATM    4 CL4  UNL     1     -32.695   9.581   0.731  1.00 20.00    -0.096 Cl
ENDROOT
TORSDOF 0
ENDMDL
