MODEL 1
REMARK VINA RESULT:      -5.0      0.000      0.000
REMARK  0 active torsions:
REMARK  status: ('A' for Active; 'I' for Inactive)
ROOT
HETATM    1  C1  UNL     1     -35.470  13.811  -4.631  1.00 20.00     0.086 C 
HETATM    2  C2  UNL     1     -34.364  16.105  -2.226  1.00 20.00    -0.025 C 
HETATM    3  C3  UNL     1     -35.536  16.173  -2.874  1.00 20.00    -0.023 C 
HETATM    4  C4  UNL     1     -33.972  17.193  -4.223  1.00 20.00     0.020 C 
HETATM    5  C5  UNL     1     -33.260  14.915  -4.099  1.00 20.00     0.050 C 
HETATM    6  C6  UNL     1     -33.274  16.222  -3.265  1.00 20.00     0.011 C 
HETATM    7  C7  UNL     1     -35.226  16.315  -4.352  1.00 20.00     0.046 C 
HETATM    8  C8  UNL     1     -34.618  14.981  -4.870  1.00 20.00     0.133 C 
HETATM    9  N9  UNL     1     -36.145  12.886  -4.442  1.00 20.00    -0.195 NA
HETATM   10 CL10 UNL     1     -34.340  15.058  -6.638  1.00 20.00    -0.102 Cl
ENDROOT
TORSDOF 0
ENDMDL
MODEL 2
REMARK VINA RESULT:      -4.5      2.055      2.653
REMARK  0 active torsions:
REMARK  status: ('A' for Active; 'I' for Inactive)
ROOT
HETATM    1  C1  UNL     1     -37.202  14.810  -4.144  1.00 20.00     0.086 C 
HETATM    2  C2  UNL     1     -33.772  14.752  -4.856  1.00 20.00    -0.025 C 
HETATM    3  C3  UNL     1     -34.344  14.199  -3.776  1.00 20.00    -0.023 C 
HETATM    4  C4  UNL     1     -33.960  16.412  -3.265  1.00 20.00     0.020 C 
HETATM    5  C5  UNL     1     -35.538  16.479  -5.057  1.00 20.00     0.050 C 
HETATM    6  C6  UNL     1     -34.031  16.238  -4.785  1.00 20.00     0.011 C 
HETATM    7  C7  UNL     1     -35.005  15.318  -2.994  1.00 20.00     0.046 C 
HETATM    8  C8  UNL     1     -36.223  15.849  -3.802  1.00 20.00     0.133 C 
HETATM    9  N9  UNL     1     -37.976  13.989  -4.413  1.00 20.00    -0.195 NA
HETATM   10 CL10 UNL     1     -37.106  17.096  -2.867  1.00 20.00    -0.102 Cl
ENDROOT
TORSDOF 0
ENDMDL
MODEL 3
REMARK VINA RESULT:      -4.4      1.803      2.490
REMARK  0 active torsions:
REMARK  status: ('A' for Active; 'I' for Inactive)
ROOT
HETATM    1  C1  UNL     1     -34.466  15.027  -5.680  1.00 20.00     0.086 C 
HETATM    2  C2  UNL     1     -33.450  17.297  -3.213  1.00 20.00    -0.025 C 
HETATM    3  C3  UNL     1     -33.053  16.018  -3.294  1.00 20.00    -0.023 C 
HETATM    4  C4  UNL     1     -35.048  16.024  -2.142  1.00 20.00     0.020 C 
HETATM    5  C5  UNL     1     -35.615  16.822  -4.322  1.00 20.00     0.050 C 
HETATM    6  C6  UNL     1     -34.945  17.287  -3.003  1.00 20.00     0.011 C 
HETATM    7  C7  UNL     1     -34.292  15.154  -3.158  1.00 20.00     0.046 C 
HETATM    8  C8  UNL     1     -35.171  15.328  -4.429  1.00 20.00     0.133 C 
HETATM    9  N9  UNL     1     -33.909  14.789  -6.670  1.00 20.00    -0.195 NA
HETATM   10 CL10 UNL     1     -36.592  14.239  -4.368  1.00 20.00    -0.102 Cl
ENDROOT
TORSDOF 0
ENDMDL
MODEL 4
REMARK VINA RESULT:      -4.4      1.953      2.574
REMARK  0 active torsions:
REMARK  status: ('A' for Active; 'I' for Inactive)
ROOT
HETATM    1  C1  UNL     1     -36.239  15.782  -5.646  1.00 20.00     0.086 C 
HETATM    2  C2  UNL     1     -33.225  14.811  -4.147  1.00 20.00    -0.025 C 
HETATM    3  C3  UNL     1     -34.407  14.202  -3.966  1.00 20.00    -0.023 C 
HETATM    4  C4  UNL     1     -34.320  15.944  -2.461  1.00 20.00     0.020 C 
HETATM    5  C5  UNL     1     -34.287  17.003  -4.603  1.00 20.00     0.050 C 
HETATM    6  C6  UNL     1     -33.368  16.222  -3.629  1.00 20.00     0.011 C 
HETATM    7  C7  UNL     1     -35.346  15.219  -3.345  1.00 20.00     0.046 C 
HETATM    8  C8  UNL     1     -35.674  16.313  -4.399  1.00 20.00     0.133 C 
HETATM    9  N9  UNL     1     -36.686  15.362  -6.631  1.00 20.00    -0.195 NA
HETATM   10 CL10 UNL     1     -36.872  17.476  -3.751  1.00 20.00    -0.102 Cl
ENDROOT
TORSDOF 0
ENDMDL
MODEL 5
REMARK VINA RESULT:      -4.2      2.135      2.940
REMARK  0 active torsions:
REMARK  status: ('A' for Active; 'I' for Inactive)
ROOT
HETATM    1  C1  UNL     1     -34.453  17.211  -5.846  1.00 20.00     0.086 C 
HETATM    2  C2  UNL     1     -34.206  15.978  -2.576  1.00 20.00    -0.025 C 
HETATM    3  C3  UNL     1     -33.228  15.931  -3.493  1.00 20.00    -0.023 C 
HETATM    4  C4  UNL     1     -34.553  14.079  -3.840  1.00 20.00     0.020 C 
HETATM    5  C5  UNL     1     -35.988  15.933  -4.298  1.00 20.00     0.050 C 
HETATM    6  C6  UNL     1     -35.357  15.160  -3.111  1.00 20.00     0.011 C 
HETATM    7  C7  UNL     1     -33.738  15.097  -4.653  1.00 20.00     0.046 C 
HETATM    8  C8  UNL     1     -34.864  15.880  -5.383  1.00 20.00     0.133 C 
HETATM    9  N9  UNL     1     -34.127  18.262  -6.213  1.00 20.00    -0.195 NA
HETATM   10 CL10 UNL     1     -35.422  14.985  -6.831  1.00 20.00    -0.102 Cl
ENDROOT
TORSDOF 0
ENDMDL
MODEL 6
REMARK VINA RESULT:      -4.2      1.807      2.322
REMARK  0 active torsions:
REMARK  status: ('A' for Active; 'I' for Inactive)
ROOT
HETATM    1  C1  UNL     1     -34.057  15.123  -5.959  1.00 20.00     0.086 C 
HETATM    2  C2  UNL     1     -35.868  16.755  -3.443  1.00 20.00    -0.025 C 
HETATM    3  C3  UNL     1     -34.923  17.326  -4.206  1.00 20.00    -0.023 C 
HETATM    4  C4  UNL     1     -33.835  16.320  -2.442  1.00 20.00     0.020 C 
HETATM    5  C5  UNL     1     -34.838  14.509  -3.635  1.00 20.00     0.050 C 
HETATM    6  C6  UNL     1     -35.199  15.655  -2.654  1.00 20.00     0.011 C 
HETATM    7  C7  UNL     1     -33.625  16.588  -3.940  1.00 20.00     0.046 C 
HETATM    8  C8  UNL     1     -33.729  15.153  -4.528  1.00 20.00     0.133 C 
HETATM    9  N9  UNL     1     -34.316  15.100  -7.090  1.00 20.00    -0.195 NA
HETATM   10 CL10 UNL     1     -32.177  14.278  -4.342  1.00 20.00    -0.102 Cl
ENDROOT
TORSDOF 0
ENDMDL
MODEL 7
REMARK VINA RESULT:      -4.1     11.425     12.545
REMARK  0 active torsions:
REMARK  status: ('A' for Active; 'I' for Inactive)
ROOT
HETATM    1  C1  UNL     1     -43.026   5.128  -1.100  1.00 20.00     0.086 C 
HETATM    2  C2  UNL     1     -41.790   8.406  -1.090  1.00 20.00    -0.025 C 
HETATM    3  C3  UNL     1     -41.055   7.306  -1.312  1.00 20.00    -0.023 C 
HETATM    4  C4  UNL     1     -41.153   7.587   0.972  1.00 20.00     0.020 C 
HETATM    5  C5  UNL     1     -43.416   7.180   0.322  1.00 20.00     0.050 C 
HETATM    6  C6  UNL     1     -42.340   8.296   0.312  1.00 20.00     0.011 C 
HETATM    7  C7  UNL     1     -41.134   6.451  -0.062  1.00 20.00     0.046 C 
HETATM    8  C8  UNL     1     -42.576   5.886   0.074  1.00 20.00     0.133 C 
HETATM    9  N9  UNL     1     -43.381   4.527  -2.027  1.00 20.00    -0.195 NA
HETATM   10 CL10 UNL     1     -42.692   4.776   1.474  1.00 20.00    -0.102 Cl
ENDROOT
TORSDOF 0
ENDMDL
MODEL 8
REMARK VINA RESULT:      -4.1      2.674      3.516
REMARK  0 active torsions:
REMARK  status: ('A' for Active; 'I' for Inactive)
ROOT
HETATM    1  C1  UNL     1     -34.927  17.693  -3.734  1.00 20.00     0.086 C 
HETATM    2  C2  UNL     1     -33.959  15.009  -5.766  1.00 20.00    -0.025 C 
HETATM    3  C3  UNL     1     -35.223  15.411  -5.571  1.00 20.00    -0.023 C 
HETATM    4  C4  UNL     1     -34.709  13.980  -3.841  1.00 20.00     0.020 C 
HETATM    5  C5  UNL     1     -33.228  15.831  -3.545  1.00 20.00     0.050 C 
HETATM    6  C6  UNL     1     -33.421  14.569  -4.425  1.00 20.00     0.011 C 
HETATM    7  C7  UNL     1     -35.522  15.259  -4.092  1.00 20.00     0.046 C 
HETATM    8  C8  UNL     1     -34.695  16.310  -3.299  1.00 20.00     0.133 C 
HETATM    9  N9  UNL     1     -35.111  18.786  -4.077  1.00 20.00    -0.195 NA
HETATM   10 CL10 UNL     1     -35.099  16.248  -1.555  1.00 20.00    -0.102 Cl
ENDROOT
TORSDOF 0
ENDMDL
MODEL 9
REMARK VINA RESULT:      -4.1      1.924      2.980
REMARK  0 active torsions:
REMARK  status: ('A' for Active; 'I' for Inactive)
ROOT
HETATM    1  C1  UNL     1     -35.702  13.841  -4.327  1.00 20.00     0.086 C 
HETATM    2  C2  UNL     1     -35.585  16.104  -6.999  1.00 20.00    -0.025 C 
HETATM    3  C3  UNL     1     -34.579  15.298  -6.627  1.00 20.00    -0.023 C 
HETATM    4  C4  UNL     1     -34.429  17.193  -5.325  1.00 20.00     0.020 C 
HETATM    5  C5  UNL     1     -36.513  16.205  -4.704  1.00 20.00     0.050 C 
HETATM    6  C6  UNL     1     -35.862  17.033  -5.842  1.00 20.00     0.011 C 
HETATM    7  C7  UNL     1     -34.200  15.678  -5.208  1.00 20.00     0.046 C 
HETATM    8  C8  UNL     1     -35.351  15.265  -4.249  1.00 20.00     0.133 C 
HETATM    9  N9  UNL     1     -35.978  12.716  -4.388  1.00 20.00    -0.195 NA
HETATM   10 CL10 UNL     1     -34.902  15.588  -2.546  1.00 20.00    -0.102 Cl
ENDROOT
TORSDOF 0
ENDMDL
