MODEL 1
REMARK VINA RESULT:      -5.7      0.000      0.000
REMARK  0 active torsions:
REMARK  status: ('A' for Active; 'I' for Inactive)
ROOT
HETATM    1  C1  UNL     1     -34.648  14.177  -4.356  1.00 20.00     0.014 A 
HETATM    2  C2  UNL     1     -35.855  13.692  -4.670  1.00 20.00     0.075 A 
HETATM    3  C3  UNL     1     -34.495  15.321  -3.482  1.00 20.00    -0.035 A 
HETATM    4  C4  UNL     1     -35.593  15.905  -2.965  1.00 20.00     0.018 A 
HETATM    5  C5  UNL     1     -37.075  14.338  -4.108  1.00 20.00     0.245 A 
HETATM    6  C6  UNL     1     -33.101  15.811  -3.200  1.00 20.00     0.040 C 
HETATM    7  C7  UNL     1     -35.535  17.084  -2.033  1.00 20.00     0.057 C 
HETATM    8  C8  UNL     1     -33.072  17.203  -2.562  1.00 20.00     0.005 C 
HETATM    9  C9  UNL     1     -34.132  17.333  -1.473  1.00 20.00     0.006 C 
HETATM   10  N10 UNL     1     -36.847  15.420  -3.275  1.00 20.00    -0.327 N 
HETATM   11  O11 UNL     1     -38.190  13.906  -4.388  1.00 20.00    -0.268 OA
HETATM   12  H22 UNL     1     -37.653  15.887  -2.868  1.00 20.00     0.169 HD
ENDROOT
TORSDOF 0
ENDMDL
MODEL 2
REMARK VINA RESULT:      -5.3      1.426      1.920
REMARK  0 active torsions:
REMARK  status: ('A' for Active; 'I' for Inactive)
ROOT
HETATM    1  C1  UNL     1     -32.932  15.636  -3.711  1.00 20.00     0.014 A 
HETATM    2  C2  UNL     1     -33.596  14.629  -4.293  1.00 20.00     0.075 A 
HETATM    3  C3  UNL     1     -33.517  16.407  -2.633  1.00 20.00    -0.035 A 
HETATM    4  C4  UNL     1     -34.755  16.098  -2.202  1.00 20.00     0.018 A 
HETATM    5  C5  UNL     1     -34.968  14.288  -3.825  1.00 20.00     0.245 A 
HETATM    6  C6  UNL     1     -32.706  17.533  -2.053  1.00 20.00     0.040 C 
HETATM    7  C7  UNL     1     -35.437  16.827  -1.077  1.00 20.00     0.057 C 
HETATM    8  C8  UNL     1     -33.535  18.480  -1.180  1.00 20.00     0.005 C 
HETATM    9  C9  UNL     1     -34.480  17.705  -0.267  1.00 20.00     0.006 C 
HETATM   10  N10 UNL     1     -35.456  15.065  -2.788  1.00 20.00    -0.327 N 
HETATM   11  O11 UNL     1     -35.592  13.370  -4.350  1.00 20.00    -0.268 OA
HETATM   12  H22 UNL     1     -36.388  14.861  -2.436  1.00 20.00     0.169 HD
ENDROOT
TORSDOF 0
ENDMDL
MODEL 3
REMARK VINA RESULT:      -5.2      2.251      3.021
REMARK  0 active torsions:
REMARK  status: ('A' for Active; 'I' for Inactive)
ROOT
HETATM    1  C1  UNL     1     -35.397  15.282  -2.764  1.00 20.00     0.014 A 
HETATM    2  C2  UNL     1     -34.940  14.615  -3.832  1.00 20.00     0.075 A 
HETATM    3  C3  UNL     1     -34.614  16.322  -2.129  1.00 20.00    -0.035 A 
HETATM    4  C4  UNL     1     -33.403  16.631  -2.630  1.00 20.00     0.018 A 
HETATM    5  C5  UNL     1     -33.597  14.947  -4.386  1.00 20.00     0.245 A 
HETATM    6  C6  UNL     1     -35.198  17.004  -0.923  1.00 20.00     0.040 C 
HETATM    7  C7  UNL     1     -32.527  17.709  -2.052  1.00 20.00     0.057 C 
HETATM    8  C8  UNL     1     -34.167  17.823  -0.140  1.00 20.00     0.005 C 
HETATM    9  C9  UNL     1     -33.271  18.625  -1.079  1.00 20.00     0.006 C 
HETATM   10  N10 UNL     1     -32.914  15.956  -3.729  1.00 20.00    -0.327 N 
HETATM   11  O11 UNL     1     -33.163  14.343  -5.363  1.00 20.00    -0.268 OA
HETATM   12  H22 UNL     1     -31.995  16.216  -4.078  1.00 20.00     0.169 HD
ENDROOT
TORSDOF 0
ENDMDL
MODEL 4
REMARK VINA RESULT:      -4.8     11.790     12.196
REMARK  0 active torsions:
REMARK  status: ('A' for Active; 'I' for Inactive)
ROOT
HETATM    1  C1  UNL     1     -33.761   5.075   2.343  1.00 20.00     0.014 A 
HETATM    2  C2  UNL     1     -33.069   5.848   1.496  1.00 20.00     0.075 A 
HETATM    3  C3  UNL     1     -33.953   5.452   3.728  1.00 20.00    -0.035 A 
HETATM    4  C4  UNL     1     -33.432   6.612   4.171  1.00 20.00     0.018 A 
HETATM    5  C5  UNL     1     -32.483   7.129   1.983  1.00 20.00     0.245 A 
HETATM    6  C6  UNL     1     -34.726   4.513   4.612  1.00 20.00     0.040 C 
HETATM    7  C7  UNL     1     -33.596   7.098   5.585  1.00 20.00     0.057 C 
HETATM    8  C8  UNL     1     -34.575   4.832   6.102  1.00 20.00     0.005 C 
HETATM    9  C9  UNL     1     -34.673   6.333   6.358  1.00 20.00     0.006 C 
HETATM   10  N10 UNL     1     -32.716   7.423   3.315  1.00 20.00    -0.327 N 
HETATM   11  O11 UNL     1     -31.844   7.848   1.220  1.00 20.00    -0.268 OA
HETATM   12  H22 UNL     1     -32.337   8.290   3.686  1.00 20.00     0.169 HD
ENDROOT
TORSDOF 0
ENDMDL
MODEL 5
REMARK VINA RESULT:      -4.8      2.336      3.912
REMARK  0 active torsions:
REMARK  status: ('A' for Active; 'I' for Inactive)
ROOT
HETATM    1  C1  UNL     1     -33.169  17.364  -1.848  1.00 20.00     0.014 A 
HETATM    2  C2  UNL     1     -33.867  17.878  -0.828  1.00 20.00     0.075 A 
HETATM    3  C3  UNL     1     -33.720  16.327  -2.697  1.00 20.00    -0.035 A 
HETATM    4  C4  UNL     1     -34.966  15.876  -2.458  1.00 20.00     0.018 A 
HETATM    5  C5  UNL     1     -35.244  17.377  -0.554  1.00 20.00     0.245 A 
HETATM    6  C6  UNL     1     -32.857  15.794  -3.807  1.00 20.00     0.040 C 
HETATM    7  C7  UNL     1     -35.630  14.817  -3.295  1.00 20.00     0.057 C 
HETATM    8  C8  UNL     1     -33.391  14.491  -4.408  1.00 20.00     0.005 C 
HETATM    9  C9  UNL     1     -34.900  14.556  -4.615  1.00 20.00     0.006 C 
HETATM   10  N10 UNL     1     -35.702  16.391  -1.412  1.00 20.00    -0.327 N 
HETATM   11  O11 UNL     1     -35.896  17.835   0.380  1.00 20.00    -0.268 OA
HETATM   12  H22 UNL     1     -36.639  16.025  -1.261  1.00 20.00     0.169 HD
ENDROOT
TORSDOF 0
ENDMDL
MODEL 6
REMARK VINA RESULT:      -4.6      3.642      5.451
REMARK  0 active torsions:
REMARK  status: ('A' for Active; 'I' for Inactive)
ROOT
HETATM    1  C1  UNL     1     -34.097  18.024  -0.105  1.00 20.00     0.014 A 
HETATM    2  C2  UNL     1     -32.948  18.628   0.221  1.00 20.00     0.075 A 
HETATM    3  C3  UNL     1     -34.212  17.206  -1.295  1.00 20.00    -0.035 A 
HETATM    4  C4  UNL     1     -33.135  17.043  -2.086  1.00 20.00     0.018 A 
HETATM    5  C5  UNL     1     -31.755  18.457  -0.655  1.00 20.00     0.245 A 
HETATM    6  C6  UNL     1     -35.548  16.583  -1.594  1.00 20.00     0.040 C 
HETATM    7  C7  UNL     1     -33.151  16.197  -3.331  1.00 20.00     0.057 C 
HETATM    8  C8  UNL     1     -35.649  16.040  -3.023  1.00 20.00     0.005 C 
HETATM    9  C9  UNL     1     -34.381  15.291  -3.420  1.00 20.00     0.006 C 
HETATM   10  N10 UNL     1     -31.941  17.656  -1.769  1.00 20.00    -0.327 N 
HETATM   11  O11 UNL     1     -30.694  19.007  -0.371  1.00 20.00    -0.268 OA
HETATM   12  H22 UNL     1     -31.150  17.512  -2.390  1.00 20.00     0.169 HD
ENDROOT
TORSDOF 0
ENDMDL
MODEL 7
REMARK VINA RESULT:      -4.6      1.016      1.028
REMARK  0 active torsions:
REMARK  status: ('A' for Active; 'I' for Inactive)
ROOT
HETATM    1  C1  UNL     1     -34.969  15.653  -5.380  1.00 20.00     0.014 A 
HETATM    2  C2  UNL     1     -36.000  14.812  -5.528  1.00 20.00     0.075 A 
HETATM    3  C3  UNL     1     -34.665  16.262  -4.102  1.00 20.00    -0.035 A 
HETATM    4  C4  UNL     1     -35.432  15.968  -3.035  1.00 20.00     0.018 A 
HETATM    5  C5  UNL     1     -36.858  14.489  -4.353  1.00 20.00     0.245 A 
HETATM    6  C6  UNL     1     -33.499  17.210  -4.034  1.00 20.00     0.040 C 
HETATM    7  C7  UNL     1     -35.183  16.535  -1.664  1.00 20.00     0.057 C 
HETATM    8  C8  UNL     1     -33.480  18.045  -2.750  1.00 20.00     0.005 C 
HETATM    9  C9  UNL     1     -33.806  17.190  -1.530  1.00 20.00     0.006 C 
HETATM   10  N10 UNL     1     -36.500  15.105  -3.165  1.00 20.00    -0.327 N 
HETATM   11  O11 UNL     1     -37.810  13.722  -4.472  1.00 20.00    -0.268 OA
HETATM   12  H22 UNL     1     -37.058  14.908  -2.338  1.00 20.00     0.169 HD
ENDROOT
TORSDOF 0
ENDMDL
MODEL 8
REMARK VINA RESULT:      -4.6      1.373      2.219
REMARK  0 active torsions:
REMARK  status: ('A' for Active; 'I' for Inactive)
ROOT
HETATM    1  C1  UNL     1     -36.888  15.879  -3.890  1.00 20.00     0.014 A 
HETATM    2  C2  UNL     1     -36.989  14.600  -4.274  1.00 20.00     0.075 A 
HETATM    3  C3  UNL     1     -35.629  16.438  -3.442  1.00 20.00    -0.035 A 
HETATM    4  C4  UNL     1     -34.534  15.655  -3.419  1.00 20.00     0.018 A 
HETATM    5  C5  UNL     1     -35.782  13.727  -4.244  1.00 20.00     0.245 A 
HETATM    6  C6  UNL     1     -35.614  17.878  -3.009  1.00 20.00     0.040 C 
HETATM    7  C7  UNL     1     -33.180  16.150  -2.990  1.00 20.00     0.057 C 
HETATM    8  C8  UNL     1     -34.343  18.260  -2.243  1.00 20.00     0.005 C 
HETATM    9  C9  UNL     1     -33.101  17.677  -2.909  1.00 20.00     0.006 C 
HETATM   10  N10 UNL     1     -34.616  14.335  -3.811  1.00 20.00    -0.327 N 
HETATM   11  O11 UNL     1     -35.859  12.551  -4.591  1.00 20.00    -0.268 OA
HETATM   12  H22 UNL     1     -33.769  13.774  -3.780  1.00 20.00     0.169 HD
ENDROOT
TORSDOF 0
ENDMDL
MODEL 9
REMARK VINA RESULT:      -4.6      3.049      4.600
REMARK  0 active torsions:
REMARK  status: ('A' for Active; 'I' for Inactive)
ROOT
HETATM    1  C1  UNL     1     -34.163  16.054  -2.375  1.00 20.00     0.014 A 
HETATM    2  C2  UNL     1     -33.376  17.109  -2.127  1.00 20.00     0.075 A 
HETATM    3  C3  UNL     1     -34.584  15.723  -3.721  1.00 20.00    -0.035 A 
HETATM    4  C4  UNL     1     -34.167  16.489  -4.747  1.00 20.00     0.018 A 
HETATM    5  C5  UNL     1     -32.918  17.964  -3.258  1.00 20.00     0.245 A 
HETATM    6  C6  UNL     1     -35.485  14.533  -3.903  1.00 20.00     0.040 C 
HETATM    7  C7  UNL     1     -34.535  16.213  -6.180  1.00 20.00     0.057 C 
HETATM    8  C8  UNL     1     -36.136  14.481  -5.289  1.00 20.00     0.005 C 
HETATM    9  C9  UNL     1     -35.131  14.818  -6.385  1.00 20.00     0.006 C 
HETATM   10  N10 UNL     1     -33.356  17.580  -4.514  1.00 20.00    -0.327 N 
HETATM   11  O11 UNL     1     -32.198  18.937  -3.047  1.00 20.00    -0.268 OA
HETATM   12  H22 UNL     1     -33.062  18.135  -5.312  1.00 20.00     0.169 HD
ENDROOT
TORSDOF 0
ENDMDL
