MODEL 1
REMARK VINA RESULT:      -3.9      0.000      0.000
REMARK  4 active torsions:
REMARK  status: ('A' for Active; 'I' for Inactive)
REMARK    1  A    between atoms: C1_1  and  O10_10 
REMARK    2  A    between atoms: C1_1  and  O11_11 
REMARK    3  A    between atoms: C7_7  and  O10_10 
REMARK    4  A    between atoms: C8_8  and  O11_11 
ROOT
HETATM    1  C1  UNL     1     -36.140  13.817  -4.633  1.00 20.00     0.407 C 
HETATM    2  O9  UNL     1     -35.849  12.632  -4.532  1.00 20.00    -0.229 OA
ENDROOT
BRANCH   1   3
HETATM    3  O10 UNL     1     -37.216  14.323  -5.297  1.00 20.00    -0.293 OA
BRANCH   3   4
HETATM    4  C7  UNL     1     -37.892  15.403  -4.645  1.00 20.00     0.126 C 
HETATM    5  C2  UNL     1     -38.040  16.562  -5.619  1.00 20.00     0.040 C 
HETATM    6  C3  UNL     1     -39.241  14.916  -4.137  1.00 20.00     0.040 C 
ENDBRANCH   3   4
ENDBRANCH   1   3
BRANCH   1   7
HETATM    7  O11 UNL     1     -35.441  14.859  -4.099  1.00 20.00    -0.288 OA
BRANCH   7   8
HETATM    8  C8  UNL     1     -34.313  15.300  -4.855  1.00 20.00     0.062 C 
HETATM    9  C4  UNL     1     -34.552  14.962  -6.327  1.00 20.00     0.046 C 
HETATM   10  C5  UNL     1     -34.195  16.811  -4.664  1.00 20.00     0.046 C 
HETATM   11  C6  UNL     1     -33.067  14.592  -4.329  1.00 20.00     0.046 C 
ENDBRANCH   7   8
ENDBRANCH   1   7
TORSDOF 4
ENDMDL
MODEL 2
REMARK VINA RESULT:      -3.8      1.097      2.021
REMARK  4 active torsions:
REMARK  status: ('A' for Active; 'I' for Inactive)
REMARK    1  A    between atoms: C1_1  and  O10_10 
REMARK    2  A    between atoms: C1_1  and  O11_11 
REMARK    3  A    between atoms: C7_7  and  O10_10 
REMARK    4  A    between atoms: C8_8  and  O11_11 
ROOT
HETATM    1  C1  UNL     1     -36.094  13.886  -4.789  1.00 20.00     0.407 C 
HETATM    2  O9  UNL     1     -36.184  13.671  -5.991  1.00 20.00    -0.229 OA
ENDROOT
BRANCH   1   3
HETATM    3  O10 UNL     1     -37.115  14.245  -3.962  1.00 20.00    -0.293 OA
BRANCH   3   4
HETATM    4  C7  UNL     1     -37.967  15.286  -4.449  1.00 20.00     0.126 C 
HETATM    5  C2  UNL     1     -39.419  14.861  -4.289  1.00 20.00     0.040 C 
HETATM    6  C3  UNL     1     -37.668  16.573  -3.694  1.00 20.00     0.040 C 
ENDBRANCH   3   4
ENDBRANCH   1   3
BRANCH   1   7
HETATM    7  O11 UNL     1     -34.953  13.806  -4.047  1.00 20.00    -0.288 OA
BRANCH   7   8
HETATM    8  C8  UNL     1     -34.069  14.922  -4.148  1.00 20.00     0.062 C 
HETATM    9  C4  UNL     1     -34.151  15.726  -2.850  1.00 20.00     0.046 C 
HETATM   10  C5  UNL     1     -32.658  14.374  -4.352  1.00 20.00     0.046 C 
HETATM   11  C6  UNL     1     -34.493  15.773  -5.343  1.00 20.00     0.046 C 
ENDBRANCH   7   8
ENDBRANCH   1   7
TORSDOF 4
ENDMDL
MODEL 3
REMARK VINA RESULT:      -3.8      1.025      1.539
REMARK  4 active torsions:
REMARK  status: ('A' for Active; 'I' for Inactive)
REMARK    1  A    between atoms: C1_1  and  O10_10 
REMARK    2  A    between atoms: C1_1  and  O11_11 
REMARK    3  A    between atoms: C7_7  and  O10_10 
REMARK    4  A    between atoms: C8_8  and  O11_11 
ROOT
HETATM    1  C1  UNL     1     -36.263  13.924  -4.436  1.00 20.00     0.407 C 
HETATM    2  O9  UNL     1     -35.947  12.746  -4.533  1.00 20.00    -0.229 OA
ENDROOT
BRANCH   1   3
HETATM    3  O10 UNL     1     -37.334  14.411  -3.749  1.00 20.00    -0.293 OA
BRANCH   3   4
HETATM    4  C7  UNL     1     -38.163  15.330  -4.468  1.00 20.00     0.126 C 
HETATM    5  C2  UNL     1     -39.585  14.791  -4.514  1.00 20.00     0.040 C 
HETATM    6  C3  UNL     1     -38.097  16.695  -3.798  1.00 20.00     0.040 C 
ENDBRANCH   3   4
ENDBRANCH   1   3
BRANCH   1   7
HETATM    7  O11 UNL     1     -35.604  14.977  -4.998  1.00 20.00    -0.288 OA
BRANCH   7   8
HETATM    8  C8  UNL     1     -34.470  15.455  -4.276  1.00 20.00     0.062 C 
HETATM    9  C4  UNL     1     -33.276  14.554  -4.593  1.00 20.00     0.046 C 
HETATM   10  C5  UNL     1     -34.199  16.886  -4.738  1.00 20.00     0.046 C 
HETATM   11  C6  UNL     1     -34.794  15.424  -2.784  1.00 20.00     0.046 C 
ENDBRANCH   7   8
ENDBRANCH   1   7
TORSDOF 4
ENDMDL
MODEL 4
REMARK VINA RESULT:      -3.7      1.917      3.805
REMARK  4 active torsions:
REMARK  status: ('A' for Active; 'I' for Inactive)
REMARK    1  A    between atoms: C1_1  and  O10_10 
REMARK    2  A    between atoms: C1_1  and  O11_11 
REMARK    3  A    between atoms: C7_7  and  O10_10 
REMARK    4  A    between atoms: C8_8  and  O11_11 
ROOT
HETATM    1  C1  UNL     1     -34.074  14.880  -4.144  1.00 20.00     0.407 C 
HETATM    2  O9  UNL     1     -33.288  14.048  -4.578  1.00 20.00    -0.229 OA
ENDROOT
BRANCH   1   3
HETATM    3  O10 UNL     1     -34.294  15.166  -2.830  1.00 20.00    -0.293 OA
BRANCH   3   4
HETATM    4  C7  UNL     1     -34.379  16.556  -2.506  1.00 20.00     0.126 C 
HETATM    5  C2  UNL     1     -35.207  16.726  -1.241  1.00 20.00     0.040 C 
HETATM    6  C3  UNL     1     -32.976  17.121  -2.343  1.00 20.00     0.040 C 
ENDBRANCH   3   4
ENDBRANCH   1   3
BRANCH   1   7
HETATM    7  O11 UNL     1     -34.881  15.684  -4.894  1.00 20.00    -0.288 OA
BRANCH   7   8
HETATM    8  C8  UNL     1     -36.020  15.048  -5.475  1.00 20.00     0.062 C 
HETATM    9  C4  UNL     1     -37.209  16.005  -5.387  1.00 20.00     0.046 C 
HETATM   10  C5  UNL     1     -35.683  14.744  -6.934  1.00 20.00     0.046 C 
HETATM   11  C6  UNL     1     -36.302  13.758  -4.708  1.00 20.00     0.046 C 
ENDBRANCH   7   8
ENDBRANCH   1   7
TORSDOF 4
ENDMDL
MODEL 5
REMARK VINA RESULT:      -3.5      2.112      3.409
REMARK  4 active torsions:
REMARK  status: ('A' for Active; 'I' for Inactive)
REMARK    1  A    between atoms: C1_1  and  O10_10 
REMARK    2  A    between atoms: C1_1  and  O11_11 
REMARK    3  A    between atoms: C7_7  and  O10_10 
REMARK    4  A    between atoms: C8_8  and  O11_11 
ROOT
HETATM    1  C1  UNL     1     -35.346  14.434  -4.308  1.00 20.00     0.407 C 
HETATM    2  O9  UNL     1     -35.725  13.313  -4.622  1.00 20.00    -0.229 OA
ENDROOT
BRANCH   1   3
HETATM    3  O10 UNL     1     -34.564  14.743  -3.236  1.00 20.00    -0.293 OA
BRANCH   3   4
HETATM    4  C7  UNL     1     -34.496  16.133  -2.902  1.00 20.00     0.126 C 
HETATM    5  C2  UNL     1     -35.148  16.354  -1.545  1.00 20.00     0.040 C 
HETATM    6  C3  UNL     1     -33.043  16.581  -2.910  1.00 20.00     0.040 C 
ENDBRANCH   3   4
ENDBRANCH   1   3
BRANCH   1   7
HETATM    7  O11 UNL     1     -35.634  15.589  -4.972  1.00 20.00    -0.288 OA
BRANCH   7   8
HETATM    8  C8  UNL     1     -35.042  15.725  -6.264  1.00 20.00     0.062 C 
HETATM    9  C4  UNL     1     -33.760  14.893  -6.301  1.00 20.00     0.046 C 
HETATM   10  C5  UNL     1     -36.049  15.204  -7.288  1.00 20.00     0.046 C 
HETATM   11  C6  UNL     1     -34.740  17.202  -6.509  1.00 20.00     0.046 C 
ENDBRANCH   7   8
ENDBRANCH   1   7
TORSDOF 4
ENDMDL
MODEL 6
REMARK VINA RESULT:      -3.5      1.216      3.957
REMARK  4 active torsions:
REMARK  status: ('A' for Active; 'I' for Inactive)
REMARK    1  A    between atoms: C1_1  and  O10_10 
REMARK    2  A    between atoms: C1_1  and  O11_11 
REMARK    3  A    between atoms: C7_7  and  O10_10 
REMARK    4  A    between atoms: C8_8  and  O11_11 
ROOT
HETATM    1  C1  UNL     1     -36.231  13.889  -4.730  1.00 20.00     0.407 C 
HETATM    2  O9  UNL     1     -36.014  13.635  -5.908  1.00 20.00    -0.229 OA
ENDROOT
BRANCH   1   3
HETATM    3  O10 UNL     1     -35.290  14.031  -3.756  1.00 20.00    -0.293 OA
BRANCH   3   4
HETATM    4  C7  UNL     1     -34.333  15.074  -3.967  1.00 20.00     0.126 C 
HETATM    5  C2  UNL     1     -34.169  15.871  -2.681  1.00 20.00     0.040 C 
HETATM    6  C3  UNL     1     -33.018  14.463  -4.426  1.00 20.00     0.040 C 
ENDBRANCH   3   4
ENDBRANCH   1   3
BRANCH   1   7
HETATM    7  O11 UNL     1     -37.458  14.080  -4.167  1.00 20.00    -0.288 OA
BRANCH   7   8
HETATM    8  C8  UNL     1     -38.076  15.337  -4.440  1.00 20.00     0.062 C 
HETATM    9  C4  UNL     1     -37.562  15.850  -5.785  1.00 20.00     0.046 C 
HETATM   10  C5  UNL     1     -39.585  15.105  -4.495  1.00 20.00     0.046 C 
HETATM   11  C6  UNL     1     -37.722  16.308  -3.316  1.00 20.00     0.046 C 
ENDBRANCH   7   8
ENDBRANCH   1   7
TORSDOF 4
ENDMDL
MODEL 7
REMARK VINA RESULT:      -3.5      1.653      2.633
REMARK  4 active torsions:
REMARK  status: ('A' for Active; 'I' for Inactive)
REMARK    1  A    between atoms: C1_1  and  O10_10 
REMARK    2  A    between atoms: C1_1  and  O11_11 
REMARK    3  A    between atoms: C7_7  and  O10_10 
REMARK    4  A    between atoms: C8_8  and  O11_11 
ROOT
HETATM    1  C1  UNL     1     -36.569  14.628  -4.941  1.00 20.00     0.407 C 
HETATM    2  O9  UNL     1     -37.280  13.890  -4.272  1.00 20.00    -0.229 OA
ENDROOT
BRANCH   1   3
HETATM    3  O10 UNL     1     -36.264  14.466  -6.259  1.00 20.00    -0.293 OA
BRANCH   3   4
HETATM    4  C7  UNL     1     -35.830  15.645  -6.943  1.00 20.00     0.126 C 
HETATM    5  C2  UNL     1     -34.514  15.359  -7.649  1.00 20.00     0.040 C 
HETATM    6  C3  UNL     1     -36.911  16.087  -7.918  1.00 20.00     0.040 C 
ENDBRANCH   3   4
ENDBRANCH   1   3
BRANCH   1   7
HETATM    7  O11 UNL     1     -35.945  15.755  -4.496  1.00 20.00    -0.288 OA
BRANCH   7   8
HETATM    8  C8  UNL     1     -34.797  15.544  -3.675  1.00 20.00     0.062 C 
HETATM    9  C4  UNL     1     -33.708  16.529  -4.099  1.00 20.00     0.046 C 
HETATM   10  C5  UNL     1     -35.214  15.797  -2.227  1.00 20.00     0.046 C 
HETATM   11  C6  UNL     1     -34.327  14.102  -3.855  1.00 20.00     0.046 C 
ENDBRANCH   7   8
ENDBRANCH   1   7
TORSDOF 4
ENDMDL
MODEL 8
REMARK VINA RESULT:      -3.4      1.943      3.225
REMARK  4 active torsions:
REMARK  status: ('A' for Active; 'I' for Inactive)
REMARK    1  A    between atoms: C1_1  and  O10_10 
REMARK    2  A    between atoms: C1_1  and  O11_11 
REMARK    3  A    between atoms: C7_7  and  O10_10 
REMARK    4  A    between atoms: C8_8  and  O11_11 
ROOT
HETATM    1  C1  UNL     1     -33.710  14.845  -4.515  1.00 20.00     0.407 C 
HETATM    2  O9  UNL     1     -33.892  13.680  -4.189  1.00 20.00    -0.229 OA
ENDROOT
BRANCH   1   3
HETATM    3  O10 UNL     1     -34.187  15.445  -5.642  1.00 20.00    -0.293 OA
BRANCH   3   4
HETATM    4  C7  UNL     1     -35.324  14.817  -6.242  1.00 20.00     0.126 C 
HETATM    5  C2  UNL     1     -36.589  15.312  -5.559  1.00 20.00     0.040 C 
HETATM    6  C3  UNL     1     -35.332  15.116  -7.734  1.00 20.00     0.040 C 
ENDBRANCH   3   4
ENDBRANCH   1   3
BRANCH   1   7
HETATM    7  O11 UNL     1     -32.993  15.769  -3.813  1.00 20.00    -0.288 OA
BRANCH   7   8
HETATM    8  C8  UNL     1     -33.761  16.683  -3.030  1.00 20.00     0.062 C 
HETATM    9  C4  UNL     1     -34.866  15.903  -2.317  1.00 20.00     0.046 C 
HETATM   10  C5  UNL     1     -32.816  17.324  -2.015  1.00 20.00     0.046 C 
HETATM   11  C6  UNL     1     -34.353  17.742  -3.957  1.00 20.00     0.046 C 
ENDBRANCH   7   8
ENDBRANCH   1   7
TORSDOF 4
ENDMDL
MODEL 9
REMARK VINA RESULT:      -3.4      2.315      4.587
REMARK  4 active torsions:
REMARK  status: ('A' for Active; 'I' for Inactive)
REMARK    1  A    between atoms: C1_1  and  O10_10 
REMARK    2  A    between atoms: C1_1  and  O11_11 
REMARK    3  A    between atoms: C7_7  and  O10_10 
REMARK    4  A    between atoms: C8_8  and  O11_11 
ROOT
HETATM    1  C1  UNL     1     -34.090  15.786  -2.729  1.00 20.00     0.407 C 
HETATM    2  O9  UNL     1     -34.993  15.934  -1.916  1.00 20.00    -0.229 OA
ENDROOT
BRANCH   1   3
HETATM    3  O10 UNL     1     -32.947  16.524  -2.799  1.00 20.00    -0.293 OA
BRANCH   3   4
HETATM    4  C7  UNL     1     -33.066  17.890  -2.389  1.00 20.00     0.126 C 
HETATM    5  C2  UNL     1     -32.081  18.163  -1.263  1.00 20.00     0.040 C 
HETATM    6  C3  UNL     1     -32.823  18.796  -3.586  1.00 20.00     0.040 C 
ENDBRANCH   3   4
ENDBRANCH   1   3
BRANCH   1   7
HETATM    7  O11 UNL     1     -34.054  14.853  -3.723  1.00 20.00    -0.288 OA
BRANCH   7   8
HETATM    8  C8  UNL     1     -34.984  15.047  -4.788  1.00 20.00     0.062 C 
HETATM    9  C4  UNL     1     -35.596  16.441  -4.652  1.00 20.00     0.046 C 
HETATM   10  C5  UNL     1     -34.211  14.926  -6.101  1.00 20.00     0.046 C 
HETATM   11  C6  UNL     1     -36.061  13.968  -4.698  1.00 20.00     0.046 C 
ENDBRANCH   7   8
ENDBRANCH   1   7
TORSDOF 4
ENDMDL
